MODEL 1
REMARK VINA RESULT:     -12.3      0.000      0.000
REMARK SMILES O=C(CCCC(=O)N1CCN(c2ncccn2)CC1)NCCCNC(=O)c1ccc(-c2c3nc(c(-c4c(F)c(F)c(F)c(F)c4F)c4ccc([nH]4)c(-c4c(F)c(F)c(F)c(F)c4F)c4nc(c(-c5c(F)c(F)c(F)c(F)c5F)c5ccc2[nH]5)C=C4)C=C3)cc1
REMARK SMILES IDX 21 1 20 2 1 3 2 4 3 6 4 7 5 8 6 9 7 10 8 11 9 12 19 13 10 14
REMARK SMILES IDX 18 15 11 16 12 17 13 18 17 19 14 20 16 21 15 22 22 23 23 24
REMARK SMILES IDX 24 25 25 26 26 28 27 29 28 30 89 31 29 32 88 33 30 34 31 35
REMARK SMILES IDX 32 36 82 37 33 38 87 39 81 40 83 41 34 42 86 43 80 44 79 45
REMARK SMILES IDX 35 47 67 48 47 49 66 50 48 51 51 52 65 53 84 54 49 55 50 56
REMARK SMILES IDX 64 58 85 59 52 60 36 61 37 62 45 63 38 64 39 65 43 66 46 67
REMARK SMILES IDX 40 68 41 69 44 70 42 71 68 72 69 73 77 74 70 75 71 76 75 77
REMARK SMILES IDX 78 78 72 79 73 80 76 81 74 82 53 83 54 84 62 85 55 86 56 87
REMARK SMILES IDX 60 88 63 89 57 90 58 91 61 92 59 93
REMARK H PARENT 20 5 24 27 83 46 51 57
REMARK Flexibility Score: inf
ROOT
ATOM      1  C   UNL A   1      31.443  30.992  25.936  1.00  0.00     0.117 C 
ENDROOT
BRANCH   1   2
ATOM      2  N   UNL A   1      32.614  30.138  25.882  1.00  0.00    -0.356 N 
ATOM      3  O   UNL A   1      31.495  28.243  26.528  1.00  0.00    -0.275 OA
ATOM      4  C   UNL A   1      32.531  28.796  26.175  1.00  0.00     0.220 C 
ATOM      5  H   UNL A   1      33.483  30.525  25.631  1.00  0.00     0.163 HD
BRANCH   4   6
ATOM      6  C   UNL A   1      33.853  28.063  26.119  1.00  0.00     0.100 C 
BRANCH   6   7
ATOM      7  C   UNL A   1      33.811  26.533  26.089  1.00  0.00     0.020 C 
BRANCH   7   8
ATOM      8  C   UNL A   1      33.944  25.776  24.770  1.00  0.00     0.101 C 
BRANCH   8   9
ATOM      9  C   UNL A   1      32.764  25.482  23.840  1.00  0.00     0.222 C 
ATOM     10  O   UNL A   1      32.418  24.313  23.655  1.00  0.00    -0.275 OA
ATOM     11  N   UNL A   1      31.941  26.528  23.468  1.00  0.00    -0.339 N 
ATOM     12  C   UNL A   1      30.498  26.252  23.372  1.00  0.00     0.141 C 
ATOM     13  C   UNL A   1      32.365  27.511  22.468  1.00  0.00     0.141 C 
ATOM     14  C   UNL A   1      29.654  27.535  23.515  1.00  0.00     0.141 C 
ATOM     15  C   UNL A   1      31.618  28.839  22.663  1.00  0.00     0.141 C 
ATOM     16  N   UNL A   1      30.175  28.598  22.661  1.00  0.00    -0.337 N 
BRANCH  16  17
ATOM     17  C   UNL A   1      29.384  29.708  22.456  1.00  0.00     0.225 A 
ATOM     18  N   UNL A   1      28.935  29.978  21.218  1.00  0.00    -0.221 NA
ATOM     19  N   UNL A   1      29.125  30.489  23.516  1.00  0.00    -0.221 NA
ATOM     20  C   UNL A   1      28.196  31.093  21.060  1.00  0.00     0.117 A 
ATOM     21  C   UNL A   1      28.425  31.616  23.302  1.00  0.00     0.117 A 
ATOM     22  C   UNL A   1      27.920  31.971  22.078  1.00  0.00     0.040 A 
ENDBRANCH  16  17
ENDBRANCH   8   9
ENDBRANCH   7   8
ENDBRANCH   6   7
ENDBRANCH   4   6
ENDBRANCH   1   2
BRANCH   1  23
ATOM     23  C   UNL A   1      31.462  31.931  27.135  1.00  0.00     0.042 C 
BRANCH  23  24
ATOM     24  C   UNL A   1      32.664  32.869  27.182  1.00  0.00     0.118 C 
BRANCH  24  25
ATOM     25  N   UNL A   1      32.354  34.215  27.619  1.00  0.00    -0.352 N 
ATOM     26  C   UNL A   1      32.978  35.016  28.548  1.00  0.00     0.251 C 
ATOM     27  H   UNL A   1      31.571  34.622  27.181  1.00  0.00     0.163 HD
ATOM     28  O   UNL A   1      32.511  36.114  28.814  1.00  0.00    -0.269 OA
BRANCH  26  29
ATOM     29  C   UNL A   1      34.180  34.541  29.275  1.00  0.00     0.039 A 
ATOM     30  C   UNL A   1      33.997  33.973  30.539  1.00  0.00     0.014 A 
ATOM     31  C   UNL A   1      35.469  34.651  28.746  1.00  0.00     0.014 A 
ATOM     32  C   UNL A   1      35.086  33.438  31.231  1.00  0.00     0.010 A 
ATOM     33  C   UNL A   1      36.547  34.053  29.405  1.00  0.00     0.010 A 
ATOM     34  C   UNL A   1      36.363  33.426  30.648  1.00  0.00    -0.014 A 
BRANCH  34  35
ATOM     35  C   UNL A   1      37.495  32.724  31.312  1.00  0.00     0.031 A 
ATOM     36  C   UNL A   1      38.182  31.565  30.646  1.00  0.00     0.074 A 
ATOM     37  C   UNL A   1      37.876  33.105  32.548  1.00  0.00     0.049 A 
ATOM     38  N   UNL A   1      39.152  30.808  31.096  1.00  0.00    -0.248 NA
ATOM     39  C   UNL A   1      37.708  31.199  29.303  1.00  0.00     0.031 C 
ATOM     40  C   UNL A   1      37.273  34.193  33.319  1.00  0.00     0.029 A 
ATOM     41  N   UNL A   1      38.857  32.617  33.376  1.00  0.00    -0.354 N 
ATOM     42  C   UNL A   1      39.400  29.875  30.100  1.00  0.00     0.074 A 
ATOM     43  C   UNL A   1      38.448  30.130  29.039  1.00  0.00     0.031 C 
ATOM     44  C   UNL A   1      37.908  34.304  34.496  1.00  0.00     0.029 A 
ATOM     45  C   UNL A   1      38.932  33.268  34.585  1.00  0.00     0.049 A 
ATOM     46  H   UNL A   1      39.450  31.872  33.128  1.00  0.00     0.167 HD
ATOM     47  C   UNL A   1      40.347  28.906  30.064  1.00  0.00     0.037 A 
ATOM     48  C   UNL A   1      39.725  33.048  35.651  1.00  0.00     0.037 A 
ATOM     49  C   UNL A   1      41.302  28.659  31.113  1.00  0.00     0.049 A 
ATOM     50  C   UNL A   1      40.741  31.938  35.600  1.00  0.00     0.074 A 
ATOM     51  C   UNL A   1      42.334  27.736  31.141  1.00  0.00     0.029 A 
ATOM     52  N   UNL A   1      41.337  29.330  32.327  1.00  0.00    -0.354 N 
ATOM     53  N   UNL A   1      41.009  31.105  34.625  1.00  0.00    -0.248 NA
ATOM     54  C   UNL A   1      41.565  31.738  36.801  1.00  0.00     0.031 C 
ATOM     55  C   UNL A   1      42.955  27.808  32.392  1.00  0.00     0.029 A 
ATOM     56  C   UNL A   1      42.350  28.817  33.124  1.00  0.00     0.049 A 
ATOM     57  H   UNL A   1      40.732  30.063  32.585  1.00  0.00     0.167 HD
ATOM     58  C   UNL A   1      42.045  30.302  35.082  1.00  0.00     0.074 A 
ATOM     59  C   UNL A   1      42.370  30.758  36.416  1.00  0.00     0.031 C 
ATOM     60  C   UNL A   1      42.668  29.277  34.451  1.00  0.00     0.037 A 
BRANCH  47  61
ATOM     61  C   UNL A   1      40.397  28.027  28.846  1.00  0.00     0.064 A 
ATOM     62  C   UNL A   1      41.158  28.373  27.719  1.00  0.00     0.173 A 
ATOM     63  C   UNL A   1      39.717  26.800  28.826  1.00  0.00     0.173 A 
ATOM     64  F   UNL A   1      41.822  29.538  27.684  1.00  0.00    -0.203 F 
ATOM     65  C   UNL A   1      41.213  27.537  26.606  1.00  0.00     0.198 A 
ATOM     66  C   UNL A   1      39.798  25.952  27.724  1.00  0.00     0.198 A 
ATOM     67  F   UNL A   1      38.983  26.416  29.881  1.00  0.00    -0.203 F 
ATOM     68  F   UNL A   1      41.909  27.909  25.524  1.00  0.00    -0.200 F 
ATOM     69  C   UNL A   1      40.539  26.325  26.613  1.00  0.00     0.200 A 
ATOM     70  F   UNL A   1      39.161  24.774  27.739  1.00  0.00    -0.200 F 
ATOM     71  F   UNL A   1      40.601  25.517  25.545  1.00  0.00    -0.200 F 
ENDBRANCH  47  61
BRANCH  48  72
ATOM     72  C   UNL A   1      39.591  33.897  36.864  1.00  0.00     0.064 A 
ATOM     73  C   UNL A   1      38.805  33.487  37.949  1.00  0.00     0.173 A 
ATOM     74  C   UNL A   1      40.235  35.140  36.958  1.00  0.00     0.173 A 
ATOM     75  F   UNL A   1      38.149  32.318  37.897  1.00  0.00    -0.203 F 
ATOM     76  C   UNL A   1      38.649  34.297  39.072  1.00  0.00     0.198 A 
ATOM     77  C   UNL A   1      40.104  35.934  38.095  1.00  0.00     0.198 A 
ATOM     78  F   UNL A   1      41.001  35.579  35.949  1.00  0.00    -0.203 F 
ATOM     79  F   UNL A   1      37.850  33.904  40.073  1.00  0.00    -0.200 F 
ATOM     80  C   UNL A   1      39.304  35.517  39.147  1.00  0.00     0.200 A 
ATOM     81  F   UNL A   1      40.750  37.106  38.167  1.00  0.00    -0.200 F 
ATOM     82  F   UNL A   1      39.157  36.295  40.228  1.00  0.00    -0.200 F 
ENDBRANCH  48  72
BRANCH  60  83
ATOM     83  C   UNL A   1      43.783  28.589  35.186  1.00  0.00     0.064 A 
ATOM     84  C   UNL A   1      45.117  29.005  35.057  1.00  0.00     0.173 A 
ATOM     85  C   UNL A   1      43.510  27.528  36.064  1.00  0.00     0.173 A 
ATOM     86  F   UNL A   1      45.434  30.003  34.218  1.00  0.00    -0.203 F 
ATOM     87  C   UNL A   1      46.137  28.368  35.759  1.00  0.00     0.198 A 
ATOM     88  C   UNL A   1      44.528  26.915  36.788  1.00  0.00     0.198 A 
ATOM     89  F   UNL A   1      42.251  27.094  36.228  1.00  0.00    -0.203 F 
ATOM     90  F   UNL A   1      47.409  28.752  35.583  1.00  0.00    -0.200 F 
ATOM     91  C   UNL A   1      45.842  27.331  36.631  1.00  0.00     0.200 A 
ATOM     92  F   UNL A   1      44.238  25.921  37.639  1.00  0.00    -0.200 F 
ATOM     93  F   UNL A   1      46.824  26.726  37.312  1.00  0.00    -0.200 F 
ENDBRANCH  60  83
ENDBRANCH  34  35
ENDBRANCH  26  29
ENDBRANCH  24  25
ENDBRANCH  23  24
ENDBRANCH   1  23
TORSDOF 14
ENDMDL
MODEL 2
REMARK VINA RESULT:     -12.2      0.500      7.403
REMARK SMILES O=C(CCCC(=O)N1CCN(c2ncccn2)CC1)NCCCNC(=O)c1ccc(-c2c3nc(c(-c4c(F)c(F)c(F)c(F)c4F)c4ccc([nH]4)c(-c4c(F)c(F)c(F)c(F)c4F)c4nc(c(-c5c(F)c(F)c(F)c(F)c5F)c5ccc2[nH]5)C=C4)C=C3)cc1
REMARK SMILES IDX 21 1 20 2 1 3 2 4 3 6 4 7 5 8 6 9 7 10 8 11 9 12 19 13 10 14
REMARK SMILES IDX 18 15 11 16 12 17 13 18 17 19 14 20 16 21 15 22 22 23 23 24
REMARK SMILES IDX 24 25 25 26 26 28 27 29 28 30 89 31 29 32 88 33 30 34 31 35
REMARK SMILES IDX 32 36 82 37 33 38 87 39 81 40 83 41 34 42 86 43 80 44 79 45
REMARK SMILES IDX 35 47 67 48 47 49 66 50 48 51 51 52 65 53 84 54 49 55 50 56
REMARK SMILES IDX 64 58 85 59 52 60 36 61 37 62 45 63 38 64 39 65 43 66 46 67
REMARK SMILES IDX 40 68 41 69 44 70 42 71 68 72 69 73 77 74 70 75 71 76 75 77
REMARK SMILES IDX 78 78 72 79 73 80 76 81 74 82 53 83 54 84 62 85 55 86 56 87
REMARK SMILES IDX 60 88 63 89 57 90 58 91 61 92 59 93
REMARK H PARENT 20 5 24 27 83 46 51 57
REMARK Flexibility Score: inf
ROOT
ATOM      1  C   UNL A   1      31.469  30.835  25.817  1.00  0.00     0.117 C 
ENDROOT
BRANCH   1   2
ATOM      2  N   UNL A   1      32.640  29.983  25.883  1.00  0.00    -0.356 N 
ATOM      3  O   UNL A   1      31.486  28.129  26.581  1.00  0.00    -0.275 OA
ATOM      4  C   UNL A   1      32.541  28.662  26.254  1.00  0.00     0.220 C 
ATOM      5  H   UNL A   1      33.523  30.357  25.659  1.00  0.00     0.163 HD
BRANCH   4   6
ATOM      6  C   UNL A   1      33.864  27.932  26.319  1.00  0.00     0.100 C 
BRANCH   6   7
ATOM      7  C   UNL A   1      33.846  26.418  26.093  1.00  0.00     0.020 C 
BRANCH   7   8
ATOM      8  C   UNL A   1      33.943  25.840  24.684  1.00  0.00     0.101 C 
BRANCH   8   9
ATOM      9  C   UNL A   1      32.725  25.538  23.808  1.00  0.00     0.222 C 
ATOM     10  O   UNL A   1      32.359  24.368  23.664  1.00  0.00    -0.275 OA
ATOM     11  N   UNL A   1      31.898  26.583  23.443  1.00  0.00    -0.339 N 
ATOM     12  C   UNL A   1      30.449  26.322  23.410  1.00  0.00     0.141 C 
ATOM     13  C   UNL A   1      32.293  27.538  22.403  1.00  0.00     0.141 C 
ATOM     14  C   UNL A   1      29.626  27.617  23.554  1.00  0.00     0.141 C 
ATOM     15  C   UNL A   1      31.568  28.879  22.595  1.00  0.00     0.141 C 
ATOM     16  N   UNL A   1      30.124  28.654  22.655  1.00  0.00    -0.337 N 
BRANCH  16  17
ATOM     17  C   UNL A   1      29.337  29.768  22.454  1.00  0.00     0.225 A 
ATOM     18  N   UNL A   1      28.944  30.081  21.207  1.00  0.00    -0.221 NA
ATOM     19  N   UNL A   1      29.026  30.509  23.529  1.00  0.00    -0.221 NA
ATOM     20  C   UNL A   1      28.206  31.198  21.056  1.00  0.00     0.117 A 
ATOM     21  C   UNL A   1      28.330  31.641  23.324  1.00  0.00     0.117 A 
ATOM     22  C   UNL A   1      27.880  32.038  22.091  1.00  0.00     0.040 A 
ENDBRANCH  16  17
ENDBRANCH   8   9
ENDBRANCH   7   8
ENDBRANCH   6   7
ENDBRANCH   4   6
ENDBRANCH   1   2
BRANCH   1  23
ATOM     23  C   UNL A   1      31.408  31.834  26.964  1.00  0.00     0.042 C 
BRANCH  23  24
ATOM     24  C   UNL A   1      32.632  32.736  27.079  1.00  0.00     0.118 C 
BRANCH  24  25
ATOM     25  N   UNL A   1      32.345  34.074  27.558  1.00  0.00    -0.352 N 
ATOM     26  C   UNL A   1      32.975  34.831  28.520  1.00  0.00     0.251 C 
ATOM     27  H   UNL A   1      31.576  34.511  27.126  1.00  0.00     0.163 HD
ATOM     28  O   UNL A   1      32.528  35.928  28.817  1.00  0.00    -0.269 OA
BRANCH  26  29
ATOM     29  C   UNL A   1      34.160  34.306  29.242  1.00  0.00     0.039 A 
ATOM     30  C   UNL A   1      33.937  33.507  30.368  1.00  0.00     0.014 A 
ATOM     31  C   UNL A   1      35.469  34.590  28.844  1.00  0.00     0.014 A 
ATOM     32  C   UNL A   1      35.016  32.923  31.037  1.00  0.00     0.010 A 
ATOM     33  C   UNL A   1      36.543  33.951  29.468  1.00  0.00     0.010 A 
ATOM     34  C   UNL A   1      36.325  33.098  30.562  1.00  0.00    -0.014 A 
BRANCH  34  35
ATOM     35  C   UNL A   1      37.461  32.358  31.177  1.00  0.00     0.031 A 
ATOM     36  C   UNL A   1      37.976  32.728  32.539  1.00  0.00     0.074 A 
ATOM     37  C   UNL A   1      38.063  31.373  30.480  1.00  0.00     0.049 A 
ATOM     38  N   UNL A   1      38.984  32.223  33.208  1.00  0.00    -0.248 NA
ATOM     39  C   UNL A   1      37.277  33.816  33.237  1.00  0.00     0.031 C 
ATOM     40  C   UNL A   1      37.683  30.936  29.136  1.00  0.00     0.029 A 
ATOM     41  N   UNL A   1      39.127  30.566  30.801  1.00  0.00    -0.354 N 
ATOM     42  C   UNL A   1      39.045  32.935  34.398  1.00  0.00     0.074 A 
ATOM     43  C   UNL A   1      38.001  33.937  34.342  1.00  0.00     0.031 C 
ATOM     44  C   UNL A   1      38.484  29.929  28.757  1.00  0.00     0.029 A 
ATOM     45  C   UNL A   1      39.465  29.678  29.808  1.00  0.00     0.049 A 
ATOM     46  H   UNL A   1      39.603  30.618  31.662  1.00  0.00     0.167 HD
ATOM     47  C   UNL A   1      39.881  32.756  35.449  1.00  0.00     0.037 A 
ATOM     48  C   UNL A   1      40.462  28.773  29.743  1.00  0.00     0.037 A 
ATOM     49  C   UNL A   1      40.912  31.752  35.511  1.00  0.00     0.049 A 
ATOM     50  C   UNL A   1      41.402  28.624  30.909  1.00  0.00     0.074 A 
ATOM     51  C   UNL A   1      41.770  31.460  36.557  1.00  0.00     0.029 A 
ATOM     52  N   UNL A   1      41.232  30.881  34.480  1.00  0.00    -0.354 N 
ATOM     53  N   UNL A   1      41.407  29.259  32.055  1.00  0.00    -0.248 NA
ATOM     54  C   UNL A   1      42.477  27.631  30.771  1.00  0.00     0.031 C 
ATOM     55  C   UNL A   1      42.647  30.454  36.139  1.00  0.00     0.029 A 
ATOM     56  C   UNL A   1      42.299  30.076  34.853  1.00  0.00     0.049 A 
ATOM     57  H   UNL A   1      40.770  30.840  33.611  1.00  0.00     0.167 HD
ATOM     58  C   UNL A   1      42.463  28.728  32.782  1.00  0.00     0.074 A 
ATOM     59  C   UNL A   1      43.068  27.705  31.955  1.00  0.00     0.031 C 
ATOM     60  C   UNL A   1      42.894  29.060  34.023  1.00  0.00     0.037 A 
BRANCH  47  61
ATOM     61  C   UNL A   1      39.723  33.675  36.628  1.00  0.00     0.064 A 
ATOM     62  C   UNL A   1      40.372  34.917  36.686  1.00  0.00     0.173 A 
ATOM     63  C   UNL A   1      38.872  33.330  37.689  1.00  0.00     0.173 A 
ATOM     64  F   UNL A   1      41.202  35.293  35.700  1.00  0.00    -0.203 F 
ATOM     65  C   UNL A   1      40.197  35.768  37.775  1.00  0.00     0.198 A 
ATOM     66  C   UNL A   1      38.676  34.196  38.762  1.00  0.00     0.198 A 
ATOM     67  F   UNL A   1      38.220  32.158  37.680  1.00  0.00    -0.203 F 
ATOM     68  F   UNL A   1      40.863  36.929  37.829  1.00  0.00    -0.200 F 
ATOM     69  C   UNL A   1      39.345  35.410  38.808  1.00  0.00     0.200 A 
ATOM     70  F   UNL A   1      37.838  33.855  39.751  1.00  0.00    -0.200 F 
ATOM     71  F   UNL A   1      39.170  36.234  39.851  1.00  0.00    -0.200 F 
ENDBRANCH  47  61
BRANCH  48  72
ATOM     72  C   UNL A   1      40.624  27.934  28.527  1.00  0.00     0.064 A 
ATOM     73  C   UNL A   1      41.379  28.384  27.435  1.00  0.00     0.173 A 
ATOM     74  C   UNL A   1      40.019  26.673  28.425  1.00  0.00     0.173 A 
ATOM     75  F   UNL A   1      41.957  29.595  27.474  1.00  0.00    -0.203 F 
ATOM     76  C   UNL A   1      41.503  27.616  26.279  1.00  0.00     0.198 A 
ATOM     77  C   UNL A   1      40.171  25.892  27.282  1.00  0.00     0.198 A 
ATOM     78  F   UNL A   1      39.287  26.194  29.442  1.00  0.00    -0.203 F 
ATOM     79  F   UNL A   1      42.187  28.092  25.230  1.00  0.00    -0.200 F 
ATOM     80  C   UNL A   1      40.905  26.367  26.207  1.00  0.00     0.200 A 
ATOM     81  F   UNL A   1      39.600  24.680  27.222  1.00  0.00    -0.200 F 
ATOM     82  F   UNL A   1      41.026  25.626  25.097  1.00  0.00    -0.200 F 
ENDBRANCH  48  72
BRANCH  60  83
ATOM     83  C   UNL A   1      44.064  28.296  34.576  1.00  0.00     0.064 A 
ATOM     84  C   UNL A   1      43.895  27.076  35.248  1.00  0.00     0.173 A 
ATOM     85  C   UNL A   1      45.373  28.769  34.396  1.00  0.00     0.173 A 
ATOM     86  F   UNL A   1      42.664  26.588  35.462  1.00  0.00    -0.203 F 
ATOM     87  C   UNL A   1      44.992  26.371  35.739  1.00  0.00     0.198 A 
ATOM     88  C   UNL A   1      46.468  28.046  34.860  1.00  0.00     0.198 A 
ATOM     89  F   UNL A   1      45.591  29.929  33.757  1.00  0.00    -0.203 F 
ATOM     90  F   UNL A   1      44.802  25.232  36.419  1.00  0.00    -0.200 F 
ATOM     91  C   UNL A   1      46.277  26.851  35.537  1.00  0.00     0.200 A 
ATOM     92  F   UNL A   1      47.710  28.506  34.652  1.00  0.00    -0.200 F 
ATOM     93  F   UNL A   1      47.330  26.167  36.002  1.00  0.00    -0.200 F 
ENDBRANCH  60  83
ENDBRANCH  34  35
ENDBRANCH  26  29
ENDBRANCH  24  25
ENDBRANCH  23  24
ENDBRANCH   1  23
TORSDOF 14
ENDMDL
MODEL 3
REMARK VINA RESULT:     -12.2      2.447      4.091
REMARK SMILES O=C(CCCC(=O)N1CCN(c2ncccn2)CC1)NCCCNC(=O)c1ccc(-c2c3nc(c(-c4c(F)c(F)c(F)c(F)c4F)c4ccc([nH]4)c(-c4c(F)c(F)c(F)c(F)c4F)c4nc(c(-c5c(F)c(F)c(F)c(F)c5F)c5ccc2[nH]5)C=C4)C=C3)cc1
REMARK SMILES IDX 21 1 20 2 1 3 2 4 3 6 4 7 5 8 6 9 7 10 8 11 9 12 19 13 10 14
REMARK SMILES IDX 18 15 11 16 12 17 13 18 17 19 14 20 16 21 15 22 22 23 23 24
REMARK SMILES IDX 24 25 25 26 26 28 27 29 28 30 89 31 29 32 88 33 30 34 31 35
REMARK SMILES IDX 32 36 82 37 33 38 87 39 81 40 83 41 34 42 86 43 80 44 79 45
REMARK SMILES IDX 35 47 67 48 47 49 66 50 48 51 51 52 65 53 84 54 49 55 50 56
REMARK SMILES IDX 64 58 85 59 52 60 36 61 37 62 45 63 38 64 39 65 43 66 46 67
REMARK SMILES IDX 40 68 41 69 44 70 42 71 68 72 69 73 77 74 70 75 71 76 75 77
REMARK SMILES IDX 78 78 72 79 73 80 76 81 74 82 53 83 54 84 62 85 55 86 56 87
REMARK SMILES IDX 60 88 63 89 57 90 58 91 61 92 59 93
REMARK H PARENT 20 5 24 27 83 46 51 57
REMARK Flexibility Score: inf
ROOT
ATOM      1  C   UNL A   1      31.658  30.499  26.878  1.00  0.00     0.117 C 
ENDROOT
BRANCH   1   2
ATOM      2  N   UNL A   1      32.334  29.841  25.776  1.00  0.00    -0.356 N 
ATOM      3  O   UNL A   1      33.626  28.504  27.118  1.00  0.00    -0.275 OA
ATOM      4  C   UNL A   1      33.274  28.861  25.999  1.00  0.00     0.220 C 
ATOM      5  H   UNL A   1      32.117  30.101  24.852  1.00  0.00     0.163 HD
BRANCH   4   6
ATOM      6  C   UNL A   1      33.917  28.317  24.743  1.00  0.00     0.100 C 
BRANCH   6   7
ATOM      7  C   UNL A   1      33.638  26.855  24.384  1.00  0.00     0.020 C 
BRANCH   7   8
ATOM      8  C   UNL A   1      34.022  25.730  25.342  1.00  0.00     0.101 C 
BRANCH   8   9
ATOM      9  C   UNL A   1      33.000  24.832  26.045  1.00  0.00     0.222 C 
ATOM     10  O   UNL A   1      31.983  25.337  26.526  1.00  0.00    -0.275 OA
ATOM     11  N   UNL A   1      33.093  23.465  25.870  1.00  0.00    -0.339 N 
ATOM     12  C   UNL A   1      31.834  22.711  25.743  1.00  0.00     0.141 C 
ATOM     13  C   UNL A   1      34.120  22.678  26.559  1.00  0.00     0.141 C 
ATOM     14  C   UNL A   1      32.036  21.369  25.013  1.00  0.00     0.141 C 
ATOM     15  C   UNL A   1      34.421  21.385  25.786  1.00  0.00     0.141 C 
ATOM     16  N   UNL A   1      33.180  20.644  25.561  1.00  0.00    -0.337 N 
BRANCH  16  17
ATOM     17  C   UNL A   1      33.329  19.318  25.219  1.00  0.00     0.225 A 
ATOM     18  N   UNL A   1      34.444  18.922  24.580  1.00  0.00    -0.221 NA
ATOM     19  N   UNL A   1      32.322  18.484  25.521  1.00  0.00    -0.221 NA
ATOM     20  C   UNL A   1      34.527  17.623  24.236  1.00  0.00     0.117 A 
ATOM     21  C   UNL A   1      32.428  17.207  25.114  1.00  0.00     0.117 A 
ATOM     22  C   UNL A   1      33.528  16.710  24.464  1.00  0.00     0.040 A 
ENDBRANCH  16  17
ENDBRANCH   8   9
ENDBRANCH   7   8
ENDBRANCH   6   7
ENDBRANCH   4   6
ENDBRANCH   1   2
BRANCH   1  23
ATOM     23  C   UNL A   1      31.522  32.000  26.665  1.00  0.00     0.042 C 
BRANCH  23  24
ATOM     24  C   UNL A   1      32.709  32.817  27.164  1.00  0.00     0.118 C 
BRANCH  24  25
ATOM     25  N   UNL A   1      32.366  34.149  27.622  1.00  0.00    -0.352 N 
ATOM     26  C   UNL A   1      32.967  34.949  28.568  1.00  0.00     0.251 C 
ATOM     27  H   UNL A   1      31.576  34.545  27.187  1.00  0.00     0.163 HD
ATOM     28  O   UNL A   1      32.474  36.031  28.848  1.00  0.00    -0.269 OA
BRANCH  26  29
ATOM     29  C   UNL A   1      34.177  34.489  29.292  1.00  0.00     0.039 A 
ATOM     30  C   UNL A   1      34.002  33.900  30.547  1.00  0.00     0.014 A 
ATOM     31  C   UNL A   1      35.465  34.634  28.770  1.00  0.00     0.014 A 
ATOM     32  C   UNL A   1      35.100  33.378  31.236  1.00  0.00     0.010 A 
ATOM     33  C   UNL A   1      36.553  34.050  29.424  1.00  0.00     0.010 A 
ATOM     34  C   UNL A   1      36.378  33.402  30.657  1.00  0.00    -0.014 A 
BRANCH  34  35
ATOM     35  C   UNL A   1      37.523  32.715  31.316  1.00  0.00     0.031 A 
ATOM     36  C   UNL A   1      38.216  31.560  30.649  1.00  0.00     0.074 A 
ATOM     37  C   UNL A   1      37.910  33.107  32.546  1.00  0.00     0.049 A 
ATOM     38  N   UNL A   1      39.198  30.815  31.096  1.00  0.00    -0.248 NA
ATOM     39  C   UNL A   1      37.736  31.182  29.313  1.00  0.00     0.031 C 
ATOM     40  C   UNL A   1      37.302  34.192  33.317  1.00  0.00     0.029 A 
ATOM     41  N   UNL A   1      38.903  32.633  33.369  1.00  0.00    -0.354 N 
ATOM     42  C   UNL A   1      39.448  29.879  30.102  1.00  0.00     0.074 A 
ATOM     43  C   UNL A   1      38.485  30.120  29.047  1.00  0.00     0.031 C 
ATOM     44  C   UNL A   1      37.945  34.316  34.487  1.00  0.00     0.029 A 
ATOM     45  C   UNL A   1      38.981  33.291  34.573  1.00  0.00     0.049 A 
ATOM     46  H   UNL A   1      39.502  31.893  33.120  1.00  0.00     0.167 HD
ATOM     47  C   UNL A   1      40.405  28.920  30.063  1.00  0.00     0.037 A 
ATOM     48  C   UNL A   1      39.785  33.084  35.635  1.00  0.00     0.037 A 
ATOM     49  C   UNL A   1      41.370  28.689  31.106  1.00  0.00     0.049 A 
ATOM     50  C   UNL A   1      40.811  31.985  35.581  1.00  0.00     0.074 A 
ATOM     51  C   UNL A   1      42.412  27.777  31.130  1.00  0.00     0.029 A 
ATOM     52  N   UNL A   1      41.409  29.366  32.316  1.00  0.00    -0.354 N 
ATOM     53  N   UNL A   1      41.080  31.149  34.608  1.00  0.00    -0.248 NA
ATOM     54  C   UNL A   1      41.648  31.799  36.776  1.00  0.00     0.031 C 
ATOM     55  C   UNL A   1      43.043  27.861  32.375  1.00  0.00     0.029 A 
ATOM     56  C   UNL A   1      42.433  28.867  33.107  1.00  0.00     0.049 A 
ATOM     57  H   UNL A   1      40.798  30.094  32.575  1.00  0.00     0.167 HD
ATOM     58  C   UNL A   1      42.128  30.359  35.060  1.00  0.00     0.074 A 
ATOM     59  C   UNL A   1      42.460  30.825  36.390  1.00  0.00     0.031 C 
ATOM     60  C   UNL A   1      42.757  29.337  34.430  1.00  0.00     0.037 A 
BRANCH  47  61
ATOM     61  C   UNL A   1      40.454  28.036  28.849  1.00  0.00     0.064 A 
ATOM     62  C   UNL A   1      41.234  28.364  27.730  1.00  0.00     0.173 A 
ATOM     63  C   UNL A   1      39.753  26.821  28.826  1.00  0.00     0.173 A 
ATOM     64  F   UNL A   1      41.919  29.517  27.699  1.00  0.00    -0.203 F 
ATOM     65  C   UNL A   1      41.288  27.523  26.621  1.00  0.00     0.198 A 
ATOM     66  C   UNL A   1      39.832  25.967  27.728  1.00  0.00     0.198 A 
ATOM     67  F   UNL A   1      39.000  26.454  29.873  1.00  0.00    -0.203 F 
ATOM     68  F   UNL A   1      42.003  27.879  25.546  1.00  0.00    -0.200 F 
ATOM     69  C   UNL A   1      40.593  26.322  26.624  1.00  0.00     0.200 A 
ATOM     70  F   UNL A   1      39.174  24.800  27.740  1.00  0.00    -0.200 F 
ATOM     71  F   UNL A   1      40.653  25.509  25.561  1.00  0.00    -0.200 F 
ENDBRANCH  47  61
BRANCH  48  72
ATOM     72  C   UNL A   1      39.652  33.938  36.844  1.00  0.00     0.064 A 
ATOM     73  C   UNL A   1      38.873  33.529  37.935  1.00  0.00     0.173 A 
ATOM     74  C   UNL A   1      40.289  35.185  36.929  1.00  0.00     0.173 A 
ATOM     75  F   UNL A   1      38.224  32.355  37.891  1.00  0.00    -0.203 F 
ATOM     76  C   UNL A   1      38.718  34.343  39.055  1.00  0.00     0.198 A 
ATOM     77  C   UNL A   1      40.159  35.984  38.063  1.00  0.00     0.198 A 
ATOM     78  F   UNL A   1      41.048  35.624  35.914  1.00  0.00    -0.203 F 
ATOM     79  F   UNL A   1      37.926  33.950  40.062  1.00  0.00    -0.200 F 
ATOM     80  C   UNL A   1      39.367  35.566  39.121  1.00  0.00     0.200 A 
ATOM     81  F   UNL A   1      40.798  37.160  38.127  1.00  0.00    -0.200 F 
ATOM     82  F   UNL A   1      39.220  36.349  40.199  1.00  0.00    -0.200 F 
ENDBRANCH  48  72
BRANCH  60  83
ATOM     83  C   UNL A   1      43.885  28.665  35.159  1.00  0.00     0.064 A 
ATOM     84  C   UNL A   1      45.203  29.138  35.074  1.00  0.00     0.173 A 
ATOM     85  C   UNL A   1      43.639  27.559  35.987  1.00  0.00     0.173 A 
ATOM     86  F   UNL A   1      45.495  30.182  34.283  1.00  0.00    -0.203 F 
ATOM     87  C   UNL A   1      46.235  28.514  35.771  1.00  0.00     0.198 A 
ATOM     88  C   UNL A   1      44.667  26.957  36.707  1.00  0.00     0.198 A 
ATOM     89  F   UNL A   1      42.396  27.068  36.108  1.00  0.00    -0.203 F 
ATOM     90  F   UNL A   1      47.493  28.956  35.636  1.00  0.00    -0.200 F 
ATOM     91  C   UNL A   1      45.965  27.431  36.594  1.00  0.00     0.200 A 
ATOM     92  F   UNL A   1      44.402  25.919  37.511  1.00  0.00    -0.200 F 
ATOM     93  F   UNL A   1      46.958  26.838  37.270  1.00  0.00    -0.200 F 
ENDBRANCH  60  83
ENDBRANCH  34  35
ENDBRANCH  26  29
ENDBRANCH  24  25
ENDBRANCH  23  24
ENDBRANCH   1  23
TORSDOF 14
ENDMDL
