MODEL 1
REMARK VINA RESULT:     -13.7      0.000      0.000
REMARK SMILES CN(C)C(=O)c1cccc(N2CCC3(CC2)[C@H](C(=O)NCCCNC(=O)c2ccc(-c4c5nc(c(-c6c(F)c(F)c(F)c(F)c6F)c6ccc([nH]6)c(-c6c(F)c(F)c(F)c(F)c6F)c6nc(c(-c7c(F)c(F)c(F)c(F)c7F)c7ccc4[nH]7)C=C6)C=C5)cc2)CC(=O)N3C)n1
REMARK SMILES IDX 22 1 21 2 20 3 18 4 19 5 17 7 11 8 12 9 16 10 13 11 15 12
REMARK SMILES IDX 14 13 93 14 90 15 91 16 94 17 92 18 10 19 6 20 7 21 95 22
REMARK SMILES IDX 8 23 9 24 4 25 1 26 2 27 3 28 5 29 23 30 24 31 25 32 26 34
REMARK SMILES IDX 27 35 28 36 89 37 29 38 88 39 30 40 31 41 32 42 82 43 33 44
REMARK SMILES IDX 87 45 81 46 83 47 34 48 86 49 80 50 79 51 35 53 67 54 47 55
REMARK SMILES IDX 66 56 48 57 51 58 65 59 84 60 49 61 50 62 64 64 85 65 52 66
REMARK SMILES IDX 36 67 37 68 45 69 38 70 39 71 43 72 46 73 40 74 41 75 44 76
REMARK SMILES IDX 42 77 68 78 69 79 77 80 70 81 71 82 75 83 78 84 72 85 73 86
REMARK SMILES IDX 76 87 74 88 53 89 54 90 62 91 55 92 56 93 60 94 63 95 57 96
REMARK SMILES IDX 58 97 61 98 59 99
REMARK H PARENT 20 6 24 33 83 52 51 63
REMARK Flexibility Score: inf
ROOT
ATOM      1  C   UNL A   1      34.035  28.809  23.689  1.00  0.00     0.042 C 
ENDROOT
BRANCH   1   2
ATOM      2  C   UNL A   1      32.905  28.495  22.705  1.00  0.00     0.117 C 
BRANCH   2   3
ATOM      3  N   UNL A   1      33.217  27.460  21.727  1.00  0.00    -0.356 N 
ATOM      4  C   UNL A   1      32.787  26.194  21.503  1.00  0.00     0.226 C 
ATOM      5  O   UNL A   1      33.276  25.628  20.517  1.00  0.00    -0.275 OA
ATOM      6  H   UNL A   1      33.900  27.747  21.078  1.00  0.00     0.163 HD
BRANCH   4   7
ATOM      7  C   UNL A   1      31.795  25.425  22.374  1.00  0.00     0.113 C 
ATOM      8  N   UNL A   1      33.873  22.360  24.463  1.00  0.00    -0.356 N 
ATOM      9  C   UNL A   1      34.514  23.649  24.577  1.00  0.00     0.120 C 
ATOM     10  C   UNL A   1      32.434  22.281  24.658  1.00  0.00     0.120 C 
ATOM     11  C   UNL A   1      33.881  24.521  23.510  1.00  0.00     0.051 C 
ATOM     12  C   UNL A   1      31.720  23.254  23.705  1.00  0.00     0.051 C 
ATOM     13  C   UNL A   1      32.352  24.680  23.626  1.00  0.00     0.058 C 
ATOM     14  N   UNL A   1      31.837  25.533  24.716  1.00  0.00    -0.339 N 
ATOM     15  C   UNL A   1      30.628  26.284  22.839  1.00  0.00     0.116 C 
ATOM     16  C   UNL A   1      30.838  26.410  24.313  1.00  0.00     0.223 C 
ATOM     17  C   UNL A   1      32.200  25.458  26.117  1.00  0.00     0.147 C 
ATOM     18  O   UNL A   1      30.222  27.189  25.033  1.00  0.00    -0.275 OA
BRANCH   8  19
ATOM     19  C   UNL A   1      34.691  21.254  24.538  1.00  0.00     0.129 A 
ATOM     20  C   UNL A   1      34.955  18.946  24.623  1.00  0.00     0.130 A 
ATOM     21  C   UNL A   1      36.311  19.050  24.906  1.00  0.00     0.034 A 
ATOM     22  N   UNL A   1      34.144  20.025  24.460  1.00  0.00    -0.226 NA
ATOM     23  C   UNL A   1      36.857  20.319  25.031  1.00  0.00     0.006 A 
ATOM     24  C   UNL A   1      36.043  21.428  24.823  1.00  0.00     0.047 A 
BRANCH  20  25
ATOM     25  C   UNL A   1      34.331  17.608  24.362  1.00  0.00     0.272 C 
ATOM     26  C   UNL A   1      32.876  15.757  25.001  1.00  0.00     0.146 C 
ATOM     27  N   UNL A   1      33.307  17.132  25.194  1.00  0.00    -0.343 N 
ATOM     28  C   UNL A   1      32.536  17.941  26.125  1.00  0.00     0.146 C 
ATOM     29  O   UNL A   1      34.771  16.931  23.431  1.00  0.00    -0.267 OA
ENDBRANCH  20  25
ENDBRANCH   8  19
ENDBRANCH   4   7
ENDBRANCH   2   3
ENDBRANCH   1   2
BRANCH   1  30
ATOM     30  C   UNL A   1      33.613  28.791  25.154  1.00  0.00     0.118 C 
BRANCH  30  31
ATOM     31  N   UNL A   1      33.007  30.057  25.533  1.00  0.00    -0.352 N 
ATOM     32  C   UNL A   1      33.236  30.811  26.658  1.00  0.00     0.251 C 
ATOM     33  H   UNL A   1      32.347  30.422  24.900  1.00  0.00     0.163 HD
ATOM     34  O   UNL A   1      32.423  31.663  27.002  1.00  0.00    -0.269 OA
BRANCH  32  35
ATOM     35  C   UNL A   1      34.466  30.602  27.454  1.00  0.00     0.039 A 
ATOM     36  C   UNL A   1      35.360  31.661  27.626  1.00  0.00     0.014 A 
ATOM     37  C   UNL A   1      34.760  29.344  27.988  1.00  0.00     0.014 A 
ATOM     38  C   UNL A   1      36.532  31.471  28.365  1.00  0.00     0.010 A 
ATOM     39  C   UNL A   1      35.890  29.174  28.783  1.00  0.00     0.010 A 
ATOM     40  C   UNL A   1      36.797  30.231  28.966  1.00  0.00    -0.014 A 
BRANCH  40  41
ATOM     41  C   UNL A   1      38.031  29.992  29.760  1.00  0.00     0.031 A 
ATOM     42  C   UNL A   1      39.087  29.059  29.230  1.00  0.00     0.074 A 
ATOM     43  C   UNL A   1      38.166  30.538  30.983  1.00  0.00     0.049 A 
ATOM     44  N   UNL A   1      40.159  28.595  29.821  1.00  0.00    -0.248 NA
ATOM     45  C   UNL A   1      38.893  28.556  27.861  1.00  0.00     0.031 C 
ATOM     46  C   UNL A   1      37.199  31.431  31.621  1.00  0.00     0.029 A 
ATOM     47  N   UNL A   1      39.161  30.401  31.919  1.00  0.00    -0.354 N 
ATOM     48  C   UNL A   1      40.748  27.729  28.909  1.00  0.00     0.074 A 
ATOM     49  C   UNL A   1      39.891  27.694  27.743  1.00  0.00     0.031 C 
ATOM     50  C   UNL A   1      37.650  31.767  32.841  1.00  0.00     0.029 A 
ATOM     51  C   UNL A   1      38.914  31.079  33.088  1.00  0.00     0.049 A 
ATOM     52  H   UNL A   1      39.974  29.867  31.768  1.00  0.00     0.167 HD
ATOM     53  C   UNL A   1      41.910  27.043  29.024  1.00  0.00     0.037 A 
ATOM     54  C   UNL A   1      39.616  31.122  34.237  1.00  0.00     0.037 A 
ATOM     55  C   UNL A   1      42.775  27.107  30.172  1.00  0.00     0.049 A 
ATOM     56  C   UNL A   1      40.902  30.346  34.344  1.00  0.00     0.074 A 
ATOM     57  C   UNL A   1      43.997  26.489  30.367  1.00  0.00     0.029 A 
ATOM     58  N   UNL A   1      42.507  27.839  31.320  1.00  0.00    -0.354 N 
ATOM     59  N   UNL A   1      41.472  29.566  33.459  1.00  0.00    -0.248 NA
ATOM     60  C   UNL A   1      41.643  30.459  35.608  1.00  0.00     0.031 C 
ATOM     61  C   UNL A   1      44.450  26.812  31.650  1.00  0.00     0.029 A 
ATOM     62  C   UNL A   1      43.536  27.675  32.233  1.00  0.00     0.049 A 
ATOM     63  H   UNL A   1      41.707  28.393  31.463  1.00  0.00     0.167 HD
ATOM     64  C   UNL A   1      42.653  29.127  34.040  1.00  0.00     0.074 A 
ATOM     65  C   UNL A   1      42.720  29.727  35.356  1.00  0.00     0.031 C 
ATOM     66  C   UNL A   1      43.599  28.303  33.528  1.00  0.00     0.037 A 
BRANCH  53  67
ATOM     67  C   UNL A   1      42.316  26.160  27.878  1.00  0.00     0.064 A 
ATOM     68  C   UNL A   1      41.741  24.894  27.685  1.00  0.00     0.173 A 
ATOM     69  C   UNL A   1      43.262  26.600  26.940  1.00  0.00     0.173 A 
ATOM     70  F   UNL A   1      40.839  24.421  28.558  1.00  0.00    -0.203 F 
ATOM     71  C   UNL A   1      42.123  24.090  26.614  1.00  0.00     0.198 A 
ATOM     72  C   UNL A   1      43.616  25.806  25.853  1.00  0.00     0.198 A 
ATOM     73  F   UNL A   1      43.837  27.804  27.073  1.00  0.00    -0.203 F 
ATOM     74  F   UNL A   1      41.598  22.864  26.480  1.00  0.00    -0.200 F 
ATOM     75  C   UNL A   1      43.054  24.549  25.695  1.00  0.00     0.200 A 
ATOM     76  F   UNL A   1      44.505  26.258  24.957  1.00  0.00    -0.200 F 
ATOM     77  F   UNL A   1      43.412  23.777  24.660  1.00  0.00    -0.200 F 
ENDBRANCH  53  67
BRANCH  54  78
ATOM     78  C   UNL A   1      39.124  31.943  35.374  1.00  0.00     0.064 A 
ATOM     79  C   UNL A   1      39.424  33.310  35.457  1.00  0.00     0.173 A 
ATOM     80  C   UNL A   1      38.348  31.382  36.399  1.00  0.00     0.173 A 
ATOM     81  F   UNL A   1      40.185  33.887  34.515  1.00  0.00    -0.203 F 
ATOM     82  C   UNL A   1      38.982  34.081  36.530  1.00  0.00     0.198 A 
ATOM     83  C   UNL A   1      37.880  32.161  37.456  1.00  0.00     0.198 A 
ATOM     84  F   UNL A   1      38.037  30.078  36.366  1.00  0.00    -0.203 F 
ATOM     85  F   UNL A   1      39.324  35.374  36.609  1.00  0.00    -0.200 F 
ATOM     86  C   UNL A   1      38.205  33.507  37.526  1.00  0.00     0.200 A 
ATOM     87  F   UNL A   1      37.123  31.606  38.412  1.00  0.00    -0.200 F 
ATOM     88  F   UNL A   1      37.778  34.251  38.556  1.00  0.00    -0.200 F 
ENDBRANCH  54  78
BRANCH  66  89
ATOM     89  C   UNL A   1      44.820  28.042  34.360  1.00  0.00     0.064 A 
ATOM     90  C   UNL A   1      45.933  28.893  34.324  1.00  0.00     0.173 A 
ATOM     91  C   UNL A   1      44.841  26.968  35.263  1.00  0.00     0.173 A 
ATOM     92  F   UNL A   1      45.966  29.927  33.468  1.00  0.00    -0.203 F 
ATOM     93  C   UNL A   1      47.028  28.671  35.155  1.00  0.00     0.198 A 
ATOM     94  C   UNL A   1      45.925  26.765  36.111  1.00  0.00     0.198 A 
ATOM     95  F   UNL A   1      43.796  26.129  35.339  1.00  0.00    -0.203 F 
ATOM     96  F   UNL A   1      48.095  29.480  35.083  1.00  0.00    -0.200 F 
ATOM     97  C   UNL A   1      47.019  27.614  36.054  1.00  0.00     0.200 A 
ATOM     98  F   UNL A   1      45.907  25.754  36.989  1.00  0.00    -0.200 F 
ATOM     99  F   UNL A   1      48.066  27.414  36.866  1.00  0.00    -0.200 F 
ENDBRANCH  66  89
ENDBRANCH  40  41
ENDBRANCH  32  35
ENDBRANCH  30  31
ENDBRANCH   1  30
TORSDOF 12
ENDMDL
MODEL 2
REMARK VINA RESULT:     -13.5      1.885      3.354
REMARK SMILES CN(C)C(=O)c1cccc(N2CCC3(CC2)[C@H](C(=O)NCCCNC(=O)c2ccc(-c4c5nc(c(-c6c(F)c(F)c(F)c(F)c6F)c6ccc([nH]6)c(-c6c(F)c(F)c(F)c(F)c6F)c6nc(c(-c7c(F)c(F)c(F)c(F)c7F)c7ccc4[nH]7)C=C6)C=C5)cc2)CC(=O)N3C)n1
REMARK SMILES IDX 22 1 21 2 20 3 18 4 19 5 17 7 11 8 12 9 16 10 13 11 15 12
REMARK SMILES IDX 14 13 93 14 90 15 91 16 94 17 92 18 10 19 6 20 7 21 95 22
REMARK SMILES IDX 8 23 9 24 4 25 1 26 2 27 3 28 5 29 23 30 24 31 25 32 26 34
REMARK SMILES IDX 27 35 28 36 89 37 29 38 88 39 30 40 31 41 32 42 82 43 33 44
REMARK SMILES IDX 87 45 81 46 83 47 34 48 86 49 80 50 79 51 35 53 67 54 47 55
REMARK SMILES IDX 66 56 48 57 51 58 65 59 84 60 49 61 50 62 64 64 85 65 52 66
REMARK SMILES IDX 36 67 37 68 45 69 38 70 39 71 43 72 46 73 40 74 41 75 44 76
REMARK SMILES IDX 42 77 68 78 69 79 77 80 70 81 71 82 75 83 78 84 72 85 73 86
REMARK SMILES IDX 76 87 74 88 53 89 54 90 62 91 55 92 56 93 60 94 63 95 57 96
REMARK SMILES IDX 58 97 61 98 59 99
REMARK H PARENT 20 6 24 33 83 52 51 63
REMARK Flexibility Score: inf
ROOT
ATOM      1  C   UNL A   1      32.965  27.421  26.025  1.00  0.00     0.042 C 
ENDROOT
BRANCH   1   2
ATOM      2  C   UNL A   1      32.204  26.728  24.891  1.00  0.00     0.117 C 
BRANCH   2   3
ATOM      3  N   UNL A   1      32.945  26.612  23.640  1.00  0.00    -0.356 N 
ATOM      4  C   UNL A   1      33.382  25.579  22.880  1.00  0.00     0.226 C 
ATOM      5  O   UNL A   1      33.960  25.892  21.831  1.00  0.00    -0.275 OA
ATOM      6  H   UNL A   1      33.182  27.488  23.260  1.00  0.00     0.163 HD
BRANCH   4   7
ATOM      7  C   UNL A   1      33.247  24.098  23.230  1.00  0.00     0.113 C 
ATOM      8  N   UNL A   1      36.544  22.942  25.652  1.00  0.00    -0.356 N 
ATOM      9  C   UNL A   1      35.897  24.143  26.123  1.00  0.00     0.120 C 
ATOM     10  C   UNL A   1      35.715  21.809  25.275  1.00  0.00     0.120 C 
ATOM     11  C   UNL A   1      35.013  24.611  24.984  1.00  0.00     0.051 C 
ATOM     12  C   UNL A   1      34.684  22.240  24.219  1.00  0.00     0.051 C 
ATOM     13  C   UNL A   1      33.956  23.589  24.523  1.00  0.00     0.058 C 
ATOM     14  N   UNL A   1      32.797  23.360  25.409  1.00  0.00    -0.339 N 
ATOM     15  C   UNL A   1      31.799  23.636  23.294  1.00  0.00     0.116 C 
ATOM     16  C   UNL A   1      31.580  23.336  24.741  1.00  0.00     0.223 C 
ATOM     17  C   UNL A   1      32.839  23.071  26.829  1.00  0.00     0.147 C 
ATOM     18  O   UNL A   1      30.481  23.123  25.242  1.00  0.00    -0.275 OA
BRANCH   8  19
ATOM     19  C   UNL A   1      37.889  22.814  25.928  1.00  0.00     0.129 A 
ATOM     20  C   UNL A   1      39.754  21.473  26.280  1.00  0.00     0.130 A 
ATOM     21  C   UNL A   1      40.527  22.551  26.693  1.00  0.00     0.034 A 
ATOM     22  N   UNL A   1      38.448  21.588  25.920  1.00  0.00    -0.226 NA
ATOM     23  C   UNL A   1      39.930  23.802  26.744  1.00  0.00     0.006 A 
ATOM     24  C   UNL A   1      38.606  23.935  26.336  1.00  0.00     0.047 A 
BRANCH  20  25
ATOM     25  C   UNL A   1      40.371  20.120  26.094  1.00  0.00     0.272 C 
ATOM     26  C   UNL A   1      42.277  18.599  26.185  1.00  0.00     0.146 C 
ATOM     27  N   UNL A   1      41.670  19.865  26.560  1.00  0.00    -0.343 N 
ATOM     28  C   UNL A   1      42.398  20.691  27.512  1.00  0.00     0.146 C 
ATOM     29  O   UNL A   1      39.726  19.262  25.487  1.00  0.00    -0.267 OA
ENDBRANCH  20  25
ENDBRANCH   8  19
ENDBRANCH   4   7
ENDBRANCH   2   3
ENDBRANCH   1   2
BRANCH   1  30
ATOM     30  C   UNL A   1      33.882  28.549  25.565  1.00  0.00     0.118 C 
BRANCH  30  31
ATOM     31  N   UNL A   1      33.276  29.845  25.823  1.00  0.00    -0.352 N 
ATOM     32  C   UNL A   1      33.542  30.725  26.843  1.00  0.00     0.251 C 
ATOM     33  H   UNL A   1      32.583  30.128  25.182  1.00  0.00     0.163 HD
ATOM     34  O   UNL A   1      32.733  31.603  27.124  1.00  0.00    -0.269 OA
BRANCH  32  35
ATOM     35  C   UNL A   1      34.808  30.620  27.602  1.00  0.00     0.039 A 
ATOM     36  C   UNL A   1      35.113  29.428  28.265  1.00  0.00     0.014 A 
ATOM     37  C   UNL A   1      35.671  31.716  27.701  1.00  0.00     0.014 A 
ATOM     38  C   UNL A   1      36.300  29.321  28.996  1.00  0.00     0.010 A 
ATOM     39  C   UNL A   1      36.884  31.585  28.369  1.00  0.00     0.010 A 
ATOM     40  C   UNL A   1      37.205  30.393  29.038  1.00  0.00    -0.014 A 
BRANCH  40  41
ATOM     41  C   UNL A   1      38.477  30.316  29.803  1.00  0.00     0.031 A 
ATOM     42  C   UNL A   1      39.645  29.558  29.230  1.00  0.00     0.074 A 
ATOM     43  C   UNL A   1      38.559  30.848  31.037  1.00  0.00     0.049 A 
ATOM     44  N   UNL A   1      40.785  29.239  29.790  1.00  0.00    -0.248 NA
ATOM     45  C   UNL A   1      39.496  29.063  27.853  1.00  0.00     0.031 C 
ATOM     46  C   UNL A   1      37.488  31.579  31.714  1.00  0.00     0.029 A 
ATOM     47  N   UNL A   1      39.584  30.835  31.951  1.00  0.00    -0.354 N 
ATOM     48  C   UNL A   1      41.472  28.488  28.846  1.00  0.00     0.074 A 
ATOM     49  C   UNL A   1      40.605  28.356  27.695  1.00  0.00     0.031 C 
ATOM     50  C   UNL A   1      37.912  31.948  32.934  1.00  0.00     0.029 A 
ATOM     51  C   UNL A   1      39.267  31.444  33.141  1.00  0.00     0.049 A 
ATOM     52  H   UNL A   1      40.461  30.428  31.771  1.00  0.00     0.167 HD
ATOM     53  C   UNL A   1      42.723  27.974  28.922  1.00  0.00     0.037 A 
ATOM     54  C   UNL A   1      39.980  31.562  34.277  1.00  0.00     0.037 A 
ATOM     55  C   UNL A   1      43.594  28.137  30.056  1.00  0.00     0.049 A 
ATOM     56  C   UNL A   1      41.365  30.977  34.341  1.00  0.00     0.074 A 
ATOM     57  C   UNL A   1      44.897  27.697  30.213  1.00  0.00     0.029 A 
ATOM     58  N   UNL A   1      43.249  28.796  31.226  1.00  0.00    -0.354 N 
ATOM     59  N   UNL A   1      42.023  30.307  33.427  1.00  0.00    -0.248 NA
ATOM     60  C   UNL A   1      42.110  31.167  35.594  1.00  0.00     0.031 C 
ATOM     61  C   UNL A   1      45.326  28.052  31.495  1.00  0.00     0.029 A 
ATOM     62  C   UNL A   1      44.310  28.762  32.116  1.00  0.00     0.049 A 
ATOM     63  H   UNL A   1      42.381  29.226  31.398  1.00  0.00     0.167 HD
ATOM     64  C   UNL A   1      43.267  30.030  33.976  1.00  0.00     0.074 A 
ATOM     65  C   UNL A   1      43.275  30.604  35.305  1.00  0.00     0.031 C 
ATOM     66  C   UNL A   1      44.310  29.363  33.426  1.00  0.00     0.037 A 
BRANCH  53  67
ATOM     67  C   UNL A   1      43.227  27.185  27.747  1.00  0.00     0.064 A 
ATOM     68  C   UNL A   1      43.923  27.798  26.694  1.00  0.00     0.173 A 
ATOM     69  C   UNL A   1      43.044  25.795  27.691  1.00  0.00     0.173 A 
ATOM     70  F   UNL A   1      44.116  29.126  26.693  1.00  0.00    -0.203 F 
ATOM     71  C   UNL A   1      44.390  27.053  25.614  1.00  0.00     0.198 A 
ATOM     72  C   UNL A   1      43.541  25.049  26.625  1.00  0.00     0.198 A 
ATOM     73  F   UNL A   1      42.392  25.158  28.674  1.00  0.00    -0.203 F 
ATOM     74  F   UNL A   1      45.007  27.667  24.595  1.00  0.00    -0.200 F 
ATOM     75  C   UNL A   1      44.206  25.679  25.584  1.00  0.00     0.200 A 
ATOM     76  F   UNL A   1      43.376  23.720  26.606  1.00  0.00    -0.200 F 
ATOM     77  F   UNL A   1      44.664  24.963  24.549  1.00  0.00    -0.200 F 
ENDBRANCH  53  67
BRANCH  54  78
ATOM     78  C   UNL A   1      39.400  32.278  35.444  1.00  0.00     0.064 A 
ATOM     79  C   UNL A   1      38.613  31.599  36.385  1.00  0.00     0.173 A 
ATOM     80  C   UNL A   1      39.616  33.649  35.642  1.00  0.00     0.173 A 
ATOM     81  F   UNL A   1      38.356  30.292  36.226  1.00  0.00    -0.203 F 
ATOM     82  C   UNL A   1      38.051  32.267  37.471  1.00  0.00     0.198 A 
ATOM     83  C   UNL A   1      39.078  34.311  36.745  1.00  0.00     0.198 A 
ATOM     84  F   UNL A   1      40.359  34.343  34.767  1.00  0.00    -0.203 F 
ATOM     85  F   UNL A   1      37.264  31.604  38.329  1.00  0.00    -0.200 F 
ATOM     86  C   UNL A   1      38.289  33.622  37.654  1.00  0.00     0.200 A 
ATOM     87  F   UNL A   1      39.317  35.616  36.924  1.00  0.00    -0.200 F 
ATOM     88  F   UNL A   1      37.750  34.262  38.700  1.00  0.00    -0.200 F 
ENDBRANCH  54  78
BRANCH  66  89
ATOM     89  C   UNL A   1      45.574  29.262  34.228  1.00  0.00     0.064 A 
ATOM     90  C   UNL A   1      45.833  28.167  35.064  1.00  0.00     0.173 A 
ATOM     91  C   UNL A   1      46.573  30.239  34.093  1.00  0.00     0.173 A 
ATOM     92  F   UNL A   1      44.904  27.214  35.236  1.00  0.00    -0.203 F 
ATOM     93  C   UNL A   1      47.042  28.061  35.746  1.00  0.00     0.198 A 
ATOM     94  C   UNL A   1      47.791  30.115  34.754  1.00  0.00     0.198 A 
ATOM     95  F   UNL A   1      46.375  31.302  33.298  1.00  0.00    -0.203 F 
ATOM     96  F   UNL A   1      47.257  27.021  36.564  1.00  0.00    -0.200 F 
ATOM     97  C   UNL A   1      48.023  29.028  35.583  1.00  0.00     0.200 A 
ATOM     98  F   UNL A   1      48.742  31.042  34.582  1.00  0.00    -0.200 F 
ATOM     99  F   UNL A   1      49.194  28.913  36.225  1.00  0.00    -0.200 F 
ENDBRANCH  66  89
ENDBRANCH  40  41
ENDBRANCH  32  35
ENDBRANCH  30  31
ENDBRANCH   1  30
TORSDOF 12
ENDMDL
MODEL 3
REMARK VINA RESULT:     -13.4      2.093      3.635
REMARK SMILES CN(C)C(=O)c1cccc(N2CCC3(CC2)[C@H](C(=O)NCCCNC(=O)c2ccc(-c4c5nc(c(-c6c(F)c(F)c(F)c(F)c6F)c6ccc([nH]6)c(-c6c(F)c(F)c(F)c(F)c6F)c6nc(c(-c7c(F)c(F)c(F)c(F)c7F)c7ccc4[nH]7)C=C6)C=C5)cc2)CC(=O)N3C)n1
REMARK SMILES IDX 22 1 21 2 20 3 18 4 19 5 17 7 11 8 12 9 16 10 13 11 15 12
REMARK SMILES IDX 14 13 93 14 90 15 91 16 94 17 92 18 10 19 6 20 7 21 95 22
REMARK SMILES IDX 8 23 9 24 4 25 1 26 2 27 3 28 5 29 23 30 24 31 25 32 26 34
REMARK SMILES IDX 27 35 28 36 89 37 29 38 88 39 30 40 31 41 32 42 82 43 33 44
REMARK SMILES IDX 87 45 81 46 83 47 34 48 86 49 80 50 79 51 35 53 67 54 47 55
REMARK SMILES IDX 66 56 48 57 51 58 65 59 84 60 49 61 50 62 64 64 85 65 52 66
REMARK SMILES IDX 36 67 37 68 45 69 38 70 39 71 43 72 46 73 40 74 41 75 44 76
REMARK SMILES IDX 42 77 68 78 69 79 77 80 70 81 71 82 75 83 78 84 72 85 73 86
REMARK SMILES IDX 76 87 74 88 53 89 54 90 62 91 55 92 56 93 60 94 63 95 57 96
REMARK SMILES IDX 58 97 61 98 59 99
REMARK H PARENT 20 6 24 33 83 52 51 63
REMARK Flexibility Score: inf
ROOT
ATOM      1  C   UNL A   1      33.579  27.628  26.117  1.00  0.00     0.042 C 
ENDROOT
BRANCH   1   2
ATOM      2  C   UNL A   1      33.331  26.551  25.059  1.00  0.00     0.117 C 
BRANCH   2   3
ATOM      3  N   UNL A   1      32.453  25.467  25.484  1.00  0.00    -0.356 N 
ATOM      4  C   UNL A   1      32.314  24.161  25.152  1.00  0.00     0.226 C 
ATOM      5  O   UNL A   1      31.453  23.535  25.782  1.00  0.00    -0.275 OA
ATOM      6  H   UNL A   1      31.811  25.752  26.175  1.00  0.00     0.163 HD
BRANCH   4   7
ATOM      7  C   UNL A   1      33.100  23.433  24.062  1.00  0.00     0.113 C 
ATOM      8  N   UNL A   1      36.995  22.548  25.518  1.00  0.00    -0.356 N 
ATOM      9  C   UNL A   1      35.951  22.151  26.433  1.00  0.00     0.120 C 
ATOM     10  C   UNL A   1      36.846  22.219  24.110  1.00  0.00     0.120 C 
ATOM     11  C   UNL A   1      34.693  22.848  25.953  1.00  0.00     0.051 C 
ATOM     12  C   UNL A   1      35.512  22.769  23.579  1.00  0.00     0.051 C 
ATOM     13  C   UNL A   1      34.281  22.516  24.506  1.00  0.00     0.058 C 
ATOM     14  N   UNL A   1      33.710  21.178  24.250  1.00  0.00    -0.339 N 
ATOM     15  C   UNL A   1      32.209  22.613  23.140  1.00  0.00     0.116 C 
ATOM     16  C   UNL A   1      32.576  21.199  23.450  1.00  0.00     0.223 C 
ATOM     17  C   UNL A   1      34.272  19.906  24.661  1.00  0.00     0.147 C 
ATOM     18  O   UNL A   1      31.943  20.222  23.061  1.00  0.00    -0.275 OA
BRANCH   8  19
ATOM     19  C   UNL A   1      38.211  22.884  26.074  1.00  0.00     0.129 A 
ATOM     20  C   UNL A   1      40.311  22.261  26.851  1.00  0.00     0.130 A 
ATOM     21  C   UNL A   1      40.554  23.520  27.385  1.00  0.00     0.034 A 
ATOM     22  N   UNL A   1      39.152  21.931  26.221  1.00  0.00    -0.226 NA
ATOM     23  C   UNL A   1      39.561  24.481  27.271  1.00  0.00     0.006 A 
ATOM     24  C   UNL A   1      38.389  24.165  26.590  1.00  0.00     0.047 A 
BRANCH  20  25
ATOM     25  C   UNL A   1      41.386  21.217  26.840  1.00  0.00     0.272 C 
ATOM     26  C   UNL A   1      43.316  20.135  25.812  1.00  0.00     0.146 C 
ATOM     27  N   UNL A   1      42.415  21.273  25.887  1.00  0.00    -0.343 N 
ATOM     28  C   UNL A   1      42.748  22.435  25.078  1.00  0.00     0.146 C 
ATOM     29  O   UNL A   1      41.315  20.296  27.657  1.00  0.00    -0.267 OA
ENDBRANCH  20  25
ENDBRANCH   8  19
ENDBRANCH   4   7
ENDBRANCH   2   3
ENDBRANCH   1   2
BRANCH   1  30
ATOM     30  C   UNL A   1      34.304  28.864  25.595  1.00  0.00     0.118 C 
BRANCH  30  31
ATOM     31  N   UNL A   1      33.598  30.076  25.975  1.00  0.00    -0.352 N 
ATOM     32  C   UNL A   1      33.766  30.846  27.101  1.00  0.00     0.251 C 
ATOM     33  H   UNL A   1      32.909  30.387  25.343  1.00  0.00     0.163 HD
ATOM     34  O   UNL A   1      32.887  31.628  27.447  1.00  0.00    -0.269 OA
BRANCH  32  35
ATOM     35  C   UNL A   1      35.009  30.736  27.896  1.00  0.00     0.039 A 
ATOM     36  C   UNL A   1      35.253  29.572  28.630  1.00  0.00     0.014 A 
ATOM     37  C   UNL A   1      35.911  31.803  27.955  1.00  0.00     0.014 A 
ATOM     38  C   UNL A   1      36.419  29.463  29.395  1.00  0.00     0.010 A 
ATOM     39  C   UNL A   1      37.104  31.665  28.659  1.00  0.00     0.010 A 
ATOM     40  C   UNL A   1      37.364  30.501  29.400  1.00  0.00    -0.014 A 
BRANCH  40  41
ATOM     41  C   UNL A   1      38.614  30.420  30.199  1.00  0.00     0.031 A 
ATOM     42  C   UNL A   1      39.798  29.667  29.653  1.00  0.00     0.074 A 
ATOM     43  C   UNL A   1      38.661  30.944  31.438  1.00  0.00     0.049 A 
ATOM     44  N   UNL A   1      40.923  29.345  30.242  1.00  0.00    -0.248 NA
ATOM     45  C   UNL A   1      39.687  29.181  28.269  1.00  0.00     0.031 C 
ATOM     46  C   UNL A   1      37.571  31.669  32.091  1.00  0.00     0.029 A 
ATOM     47  N   UNL A   1      39.661  30.926  32.380  1.00  0.00    -0.354 N 
ATOM     48  C   UNL A   1      41.636  28.602  29.312  1.00  0.00     0.074 A 
ATOM     49  C   UNL A   1      40.801  28.477  28.137  1.00  0.00     0.031 C 
ATOM     50  C   UNL A   1      37.961  32.031  33.324  1.00  0.00     0.029 A 
ATOM     51  C   UNL A   1      39.311  31.526  33.565  1.00  0.00     0.049 A 
ATOM     52  H   UNL A   1      40.543  30.520  32.221  1.00  0.00     0.167 HD
ATOM     53  C   UNL A   1      42.885  28.088  29.418  1.00  0.00     0.037 A 
ATOM     54  C   UNL A   1      39.992  31.638  34.721  1.00  0.00     0.037 A 
ATOM     55  C   UNL A   1      43.725  28.244  30.577  1.00  0.00     0.049 A 
ATOM     56  C   UNL A   1      41.376  31.053  34.819  1.00  0.00     0.074 A 
ATOM     57  C   UNL A   1      45.023  27.804  30.767  1.00  0.00     0.029 A 
ATOM     58  N   UNL A   1      43.347  28.895  31.742  1.00  0.00    -0.354 N 
ATOM     59  N   UNL A   1      42.060  30.390  33.918  1.00  0.00    -0.248 NA
ATOM     60  C   UNL A   1      42.086  31.235  36.093  1.00  0.00     0.031 C 
ATOM     61  C   UNL A   1      45.416  28.151  32.062  1.00  0.00     0.029 A 
ATOM     62  C   UNL A   1      44.383  28.855  32.660  1.00  0.00     0.049 A 
ATOM     63  H   UNL A   1      42.474  29.323  31.893  1.00  0.00     0.167 HD
ATOM     64  C   UNL A   1      43.288  30.110  34.499  1.00  0.00     0.074 A 
ATOM     65  C   UNL A   1      43.260  30.676  35.831  1.00  0.00     0.031 C 
ATOM     66  C   UNL A   1      44.347  29.447  33.973  1.00  0.00     0.037 A 
BRANCH  53  67
ATOM     67  C   UNL A   1      43.421  27.308  28.253  1.00  0.00     0.064 A 
ATOM     68  C   UNL A   1      43.966  27.947  27.128  1.00  0.00     0.173 A 
ATOM     69  C   UNL A   1      43.425  25.905  28.275  1.00  0.00     0.173 A 
ATOM     70  F   UNL A   1      43.978  29.286  27.051  1.00  0.00    -0.203 F 
ATOM     71  C   UNL A   1      44.466  27.210  26.057  1.00  0.00     0.198 A 
ATOM     72  C   UNL A   1      43.956  25.172  27.216  1.00  0.00     0.198 A 
ATOM     73  F   UNL A   1      42.923  25.243  29.328  1.00  0.00    -0.203 F 
ATOM     74  F   UNL A   1      44.935  27.842  24.972  1.00  0.00    -0.200 F 
ATOM     75  C   UNL A   1      44.468  25.824  26.105  1.00  0.00     0.200 A 
ATOM     76  F   UNL A   1      43.971  23.833  27.272  1.00  0.00    -0.200 F 
ATOM     77  F   UNL A   1      44.958  25.118  25.078  1.00  0.00    -0.200 F 
ENDBRANCH  53  67
BRANCH  54  78
ATOM     78  C   UNL A   1      39.380  32.345  35.876  1.00  0.00     0.064 A 
ATOM     79  C   UNL A   1      39.658  33.696  36.121  1.00  0.00     0.173 A 
ATOM     80  C   UNL A   1      38.507  31.688  36.756  1.00  0.00     0.173 A 
ATOM     81  F   UNL A   1      40.507  34.361  35.322  1.00  0.00    -0.203 F 
ATOM     82  C   UNL A   1      39.102  34.360  37.213  1.00  0.00     0.198 A 
ATOM     83  C   UNL A   1      37.928  32.361  37.831  1.00  0.00     0.198 A 
ATOM     84  F   UNL A   1      38.212  30.394  36.565  1.00  0.00    -0.203 F 
ATOM     85  F   UNL A   1      39.424  35.639  37.452  1.00  0.00    -0.200 F 
ATOM     86  C   UNL A   1      38.232  33.694  38.063  1.00  0.00     0.200 A 
ATOM     87  F   UNL A   1      37.081  31.718  38.645  1.00  0.00    -0.200 F 
ATOM     88  F   UNL A   1      37.696  34.334  39.111  1.00  0.00    -0.200 F 
ENDBRANCH  54  78
BRANCH  66  89
ATOM     89  C   UNL A   1      45.588  29.343  34.809  1.00  0.00     0.064 A 
ATOM     90  C   UNL A   1      46.584  30.328  34.778  1.00  0.00     0.173 A 
ATOM     91  C   UNL A   1      45.742  28.278  35.711  1.00  0.00     0.173 A 
ATOM     92  F   UNL A   1      46.489  31.359  33.924  1.00  0.00    -0.203 F 
ATOM     93  C   UNL A   1      47.696  30.245  35.613  1.00  0.00     0.198 A 
ATOM     94  C   UNL A   1      46.840  28.214  36.563  1.00  0.00     0.198 A 
ATOM     95  F   UNL A   1      44.811  27.314  35.782  1.00  0.00    -0.203 F 
ATOM     96  F   UNL A   1      48.651  31.183  35.547  1.00  0.00    -0.200 F 
ATOM     97  C   UNL A   1      47.817  29.195  36.511  1.00  0.00     0.200 A 
ATOM     98  F   UNL A   1      46.946  27.207  37.441  1.00  0.00    -0.200 F 
ATOM     99  F   UNL A   1      48.878  29.128  37.328  1.00  0.00    -0.200 F 
ENDBRANCH  66  89
ENDBRANCH  40  41
ENDBRANCH  32  35
ENDBRANCH  30  31
ENDBRANCH   1  30
TORSDOF 12
ENDMDL
