MODEL 1
REMARK VINA RESULT:     -12.9      0.000      0.000
REMARK SMILES C[C@H]1[C@@H](C(=O)NCCCNC(=O)c2ccc(-c3c4nc(c(-c5c(F)c(F)c(F)c(F)c5F)c5ccc([nH]5)c(-c5c(F)c(F)c(F)c(F)c5F)c5nc(c(-c6c(F)c(F)c(F)c(F)c6F)c6ccc3[nH]6)C=C5)C=C4)cc2)CCN1C(=O)/C=C/c1cccc(F)c1
REMARK SMILES IDX 7 1 6 2 4 3 5 4 3 6 1 7 2 8 78 9 76 10 77 11 79 12 80 13
REMARK SMILES IDX 81 14 82 15 83 16 84 17 89 18 85 19 87 20 86 21 88 22 8 23
REMARK SMILES IDX 9 24 10 25 11 26 12 28 13 29 14 30 75 31 15 32 74 33 16 34
REMARK SMILES IDX 17 35 18 36 68 37 19 38 73 39 67 40 69 41 20 42 72 43 66 44
REMARK SMILES IDX 65 45 21 47 53 48 33 49 52 50 34 51 37 52 51 53 70 54 35 55
REMARK SMILES IDX 36 56 50 58 71 59 38 60 22 61 23 62 31 63 24 64 25 65 29 66
REMARK SMILES IDX 32 67 26 68 27 69 30 70 28 71 54 72 55 73 63 74 56 75 57 76
REMARK SMILES IDX 61 77 64 78 58 79 59 80 62 81 60 82 39 83 40 84 48 85 41 86
REMARK SMILES IDX 42 87 46 88 49 89 43 90 44 91 47 92 45 93
REMARK H PARENT 6 5 10 27 69 46 37 57
REMARK Flexibility Score: inf
ROOT
ATOM      1  C   UNL A   1      35.856  34.072  29.801  1.00  0.00     0.117 C 
ENDROOT
BRANCH   1   2
ATOM      2  N   UNL A   1      35.850  34.598  31.158  1.00  0.00    -0.356 N 
ATOM      3  C   UNL A   1      36.599  34.297  32.258  1.00  0.00     0.225 C 
ATOM      4  O   UNL A   1      36.280  34.854  33.309  1.00  0.00    -0.275 OA
ATOM      5  H   UNL A   1      35.181  35.303  31.311  1.00  0.00     0.163 HD
BRANCH   3   6
ATOM      6  C   UNL A   1      37.818  33.382  32.163  1.00  0.00     0.102 C 
ATOM      7  C   UNL A   1      36.222  31.348  32.633  1.00  0.00     0.032 C 
ATOM      8  C   UNL A   1      37.608  31.853  32.251  1.00  0.00     0.094 C 
ATOM      9  N   UNL A   1      38.577  31.378  33.240  1.00  0.00    -0.336 N 
ATOM     10  C   UNL A   1      38.884  33.689  33.246  1.00  0.00     0.037 C 
ATOM     11  C   UNL A   1      38.930  32.457  34.132  1.00  0.00     0.121 C 
BRANCH   9  12
ATOM     12  C   UNL A   1      38.955  30.075  33.499  1.00  0.00     0.246 C 
ATOM     13  O   UNL A   1      38.167  29.128  33.524  1.00  0.00    -0.270 OA
BRANCH  12  14
ATOM     14  C   UNL A   1      40.414  29.799  33.596  1.00  0.00     0.072 C 
ATOM     15  C   UNL A   1      40.967  28.678  33.106  1.00  0.00     0.014 C 
BRANCH  15  16
ATOM     16  C   UNL A   1      42.340  28.202  33.364  1.00  0.00    -0.023 A 
ATOM     17  C   UNL A   1      43.174  28.993  34.171  1.00  0.00     0.008 A 
ATOM     18  C   UNL A   1      42.885  27.053  32.778  1.00  0.00     0.047 A 
ATOM     19  C   UNL A   1      44.512  28.648  34.391  1.00  0.00     0.004 A 
ATOM     20  C   UNL A   1      44.220  26.715  33.003  1.00  0.00     0.123 A 
ATOM     21  C   UNL A   1      45.038  27.502  33.803  1.00  0.00     0.039 A 
ATOM     22  F   UNL A   1      44.727  25.620  32.423  1.00  0.00    -0.207 F 
ENDBRANCH  15  16
ENDBRANCH  12  14
ENDBRANCH   9  12
ENDBRANCH   3   6
ENDBRANCH   1   2
BRANCH   1  23
ATOM     23  C   UNL A   1      34.836  32.941  29.632  1.00  0.00     0.042 C 
BRANCH  23  24
ATOM     24  C   UNL A   1      34.478  32.610  28.188  1.00  0.00     0.118 C 
BRANCH  24  25
ATOM     25  N   UNL A   1      33.935  31.272  28.060  1.00  0.00    -0.352 N 
ATOM     26  C   UNL A   1      34.545  30.044  27.988  1.00  0.00     0.251 C 
ATOM     27  H   UNL A   1      32.952  31.238  28.017  1.00  0.00     0.163 HD
ATOM     28  O   UNL A   1      33.864  29.084  27.623  1.00  0.00    -0.269 OA
BRANCH  26  29
ATOM     29  C   UNL A   1      35.979  29.821  28.321  1.00  0.00     0.039 A 
ATOM     30  C   UNL A   1      36.923  30.000  27.301  1.00  0.00     0.014 A 
ATOM     31  C   UNL A   1      36.414  29.328  29.554  1.00  0.00     0.014 A 
ATOM     32  C   UNL A   1      38.276  29.703  27.516  1.00  0.00     0.010 A 
ATOM     33  C   UNL A   1      37.776  29.122  29.800  1.00  0.00     0.010 A 
ATOM     34  C   UNL A   1      38.722  29.274  28.775  1.00  0.00    -0.014 A 
BRANCH  34  35
ATOM     35  C   UNL A   1      40.153  28.928  29.005  1.00  0.00     0.031 A 
ATOM     36  C   UNL A   1      41.071  29.895  29.714  1.00  0.00     0.074 A 
ATOM     37  C   UNL A   1      40.645  27.755  28.563  1.00  0.00     0.049 A 
ATOM     38  N   UNL A   1      42.350  29.784  29.982  1.00  0.00    -0.248 NA
ATOM     39  C   UNL A   1      40.479  31.166  30.158  1.00  0.00     0.031 C 
ATOM     40  C   UNL A   1      39.886  26.746  27.823  1.00  0.00     0.029 A 
ATOM     41  N   UNL A   1      41.903  27.213  28.666  1.00  0.00    -0.354 N 
ATOM     42  C   UNL A   1      42.714  30.972  30.605  1.00  0.00     0.074 A 
ATOM     43  C   UNL A   1      41.537  31.813  30.626  1.00  0.00     0.031 C 
ATOM     44  C   UNL A   1      40.685  25.700  27.560  1.00  0.00     0.029 A 
ATOM     45  C   UNL A   1      42.020  25.973  28.086  1.00  0.00     0.049 A 
ATOM     46  H   UNL A   1      42.652  27.670  29.115  1.00  0.00     0.167 HD
ATOM     47  C   UNL A   1      43.910  31.323  31.136  1.00  0.00     0.037 A 
ATOM     48  C   UNL A   1      43.080  25.149  27.986  1.00  0.00     0.037 A 
ATOM     49  C   UNL A   1      45.076  30.479  31.150  1.00  0.00     0.049 A 
ATOM     50  C   UNL A   1      44.393  25.552  28.603  1.00  0.00     0.074 A 
ATOM     51  C   UNL A   1      46.316  30.724  31.714  1.00  0.00     0.029 A 
ATOM     52  N   UNL A   1      45.143  29.219  30.573  1.00  0.00    -0.354 N 
ATOM     53  N   UNL A   1      44.704  26.653  29.241  1.00  0.00    -0.248 NA
ATOM     54  C   UNL A   1      45.498  24.589  28.494  1.00  0.00     0.031 C 
ATOM     55  C   UNL A   1      47.146  29.629  31.446  1.00  0.00     0.029 A 
ATOM     56  C   UNL A   1      46.409  28.682  30.755  1.00  0.00     0.049 A 
ATOM     57  H   UNL A   1      44.402  28.772  30.104  1.00  0.00     0.167 HD
ATOM     58  C   UNL A   1      46.030  26.509  29.626  1.00  0.00     0.074 A 
ATOM     59  C   UNL A   1      46.459  25.203  29.169  1.00  0.00     0.031 C 
ATOM     60  C   UNL A   1      46.823  27.382  30.295  1.00  0.00     0.037 A 
BRANCH  47  61
ATOM     61  C   UNL A   1      44.017  32.686  31.761  1.00  0.00     0.064 A 
ATOM     62  C   UNL A   1      44.508  33.788  31.043  1.00  0.00     0.173 A 
ATOM     63  C   UNL A   1      43.596  32.901  33.083  1.00  0.00     0.173 A 
ATOM     64  F   UNL A   1      44.932  33.635  29.780  1.00  0.00    -0.203 F 
ATOM     65  C   UNL A   1      44.603  35.045  31.634  1.00  0.00     0.198 A 
ATOM     66  C   UNL A   1      43.664  34.167  33.661  1.00  0.00     0.198 A 
ATOM     67  F   UNL A   1      43.110  31.886  33.812  1.00  0.00    -0.203 F 
ATOM     68  F   UNL A   1      45.124  36.070  30.944  1.00  0.00    -0.200 F 
ATOM     69  C   UNL A   1      44.176  35.235  32.940  1.00  0.00     0.200 A 
ATOM     70  F   UNL A   1      43.239  34.352  34.918  1.00  0.00    -0.200 F 
ATOM     71  F   UNL A   1      44.265  36.447  33.505  1.00  0.00    -0.200 F 
ENDBRANCH  47  61
BRANCH  48  72
ATOM     72  C   UNL A   1      42.935  23.841  27.296  1.00  0.00     0.064 A 
ATOM     73  C   UNL A   1      42.414  22.725  27.966  1.00  0.00     0.173 A 
ATOM     74  C   UNL A   1      43.309  23.681  25.954  1.00  0.00     0.173 A 
ATOM     75  F   UNL A   1      42.063  22.824  29.257  1.00  0.00    -0.203 F 
ATOM     76  C   UNL A   1      42.287  21.495  27.325  1.00  0.00     0.198 A 
ATOM     77  C   UNL A   1      43.157  22.457  25.306  1.00  0.00     0.198 A 
ATOM     78  F   UNL A   1      43.811  24.719  25.268  1.00  0.00    -0.203 F 
ATOM     79  F   UNL A   1      41.826  20.434  28.001  1.00  0.00    -0.200 F 
ATOM     80  C   UNL A   1      42.653  21.364  25.994  1.00  0.00     0.200 A 
ATOM     81  F   UNL A   1      43.500  22.337  24.016  1.00  0.00    -0.200 F 
ATOM     82  F   UNL A   1      42.526  20.181  25.376  1.00  0.00    -0.200 F 
ENDBRANCH  48  72
BRANCH  60  83
ATOM     83  C   UNL A   1      48.228  26.944  30.592  1.00  0.00     0.064 A 
ATOM     84  C   UNL A   1      49.302  27.317  29.770  1.00  0.00     0.173 A 
ATOM     85  C   UNL A   1      48.507  26.167  31.726  1.00  0.00     0.173 A 
ATOM     86  F   UNL A   1      49.085  28.047  28.666  1.00  0.00    -0.203 F 
ATOM     87  C   UNL A   1      50.600  26.901  30.056  1.00  0.00     0.198 A 
ATOM     88  C   UNL A   1      49.809  25.777  32.025  1.00  0.00     0.198 A 
ATOM     89  F   UNL A   1      47.516  25.790  32.548  1.00  0.00    -0.203 F 
ATOM     90  F   UNL A   1      51.603  27.226  29.229  1.00  0.00    -0.200 F 
ATOM     91  C   UNL A   1      50.853  26.138  31.186  1.00  0.00     0.200 A 
ATOM     92  F   UNL A   1      50.054  25.049  33.123  1.00  0.00    -0.200 F 
ATOM     93  F   UNL A   1      52.103  25.741  31.461  1.00  0.00    -0.200 F 
ENDBRANCH  60  83
ENDBRANCH  34  35
ENDBRANCH  26  29
ENDBRANCH  24  25
ENDBRANCH  23  24
ENDBRANCH   1  23
TORSDOF 13
ENDMDL
MODEL 2
REMARK VINA RESULT:     -12.9      4.687      8.144
REMARK SMILES C[C@H]1[C@@H](C(=O)NCCCNC(=O)c2ccc(-c3c4nc(c(-c5c(F)c(F)c(F)c(F)c5F)c5ccc([nH]5)c(-c5c(F)c(F)c(F)c(F)c5F)c5nc(c(-c6c(F)c(F)c(F)c(F)c6F)c6ccc3[nH]6)C=C5)C=C4)cc2)CCN1C(=O)/C=C/c1cccc(F)c1
REMARK SMILES IDX 7 1 6 2 4 3 5 4 3 6 1 7 2 8 78 9 76 10 77 11 79 12 80 13
REMARK SMILES IDX 81 14 82 15 83 16 84 17 89 18 85 19 87 20 86 21 88 22 8 23
REMARK SMILES IDX 9 24 10 25 11 26 12 28 13 29 14 30 75 31 15 32 74 33 16 34
REMARK SMILES IDX 17 35 18 36 68 37 19 38 73 39 67 40 69 41 20 42 72 43 66 44
REMARK SMILES IDX 65 45 21 47 53 48 33 49 52 50 34 51 37 52 51 53 70 54 35 55
REMARK SMILES IDX 36 56 50 58 71 59 38 60 22 61 23 62 31 63 24 64 25 65 29 66
REMARK SMILES IDX 32 67 26 68 27 69 30 70 28 71 54 72 55 73 63 74 56 75 57 76
REMARK SMILES IDX 61 77 64 78 58 79 59 80 62 81 60 82 39 83 40 84 48 85 41 86
REMARK SMILES IDX 42 87 46 88 49 89 43 90 44 91 47 92 45 93
REMARK H PARENT 6 5 10 27 69 46 37 57
REMARK Flexibility Score: inf
ROOT
ATOM      1  C   UNL A   1      32.983  28.989  23.031  1.00  0.00     0.117 C 
ENDROOT
BRANCH   1   2
ATOM      2  N   UNL A   1      33.348  27.824  22.238  1.00  0.00    -0.356 N 
ATOM      3  C   UNL A   1      33.111  26.492  22.411  1.00  0.00     0.225 C 
ATOM      4  O   UNL A   1      33.649  25.730  21.606  1.00  0.00    -0.275 OA
ATOM      5  H   UNL A   1      33.862  28.037  21.426  1.00  0.00     0.163 HD
BRANCH   3   6
ATOM      6  C   UNL A   1      32.162  25.987  23.495  1.00  0.00     0.102 C 
ATOM      7  C   UNL A   1      34.208  24.761  24.598  1.00  0.00     0.032 C 
ATOM      8  C   UNL A   1      32.746  25.183  24.679  1.00  0.00     0.094 C 
ATOM      9  N   UNL A   1      31.910  23.987  24.794  1.00  0.00    -0.336 N 
ATOM     10  C   UNL A   1      31.035  25.083  22.933  1.00  0.00     0.037 C 
ATOM     11  C   UNL A   1      31.284  23.707  23.524  1.00  0.00     0.121 C 
BRANCH   9  12
ATOM     12  C   UNL A   1      31.866  23.081  25.836  1.00  0.00     0.246 C 
ATOM     13  O   UNL A   1      31.634  23.395  27.004  1.00  0.00    -0.270 OA
BRANCH  12  14
ATOM     14  C   UNL A   1      31.952  21.637  25.483  1.00  0.00     0.072 C 
ATOM     15  C   UNL A   1      33.042  21.103  24.909  1.00  0.00     0.014 C 
BRANCH  15  16
ATOM     16  C   UNL A   1      33.136  19.761  24.305  1.00  0.00    -0.023 A 
ATOM     17  C   UNL A   1      34.142  18.895  24.767  1.00  0.00     0.008 A 
ATOM     18  C   UNL A   1      32.337  19.333  23.237  1.00  0.00     0.047 A 
ATOM     19  C   UNL A   1      34.343  17.638  24.185  1.00  0.00     0.004 A 
ATOM     20  C   UNL A   1      32.544  18.078  22.663  1.00  0.00     0.123 A 
ATOM     21  C   UNL A   1      33.540  17.229  23.126  1.00  0.00     0.039 A 
ATOM     22  F   UNL A   1      31.779  17.693  21.633  1.00  0.00    -0.207 F 
ENDBRANCH  15  16
ENDBRANCH  12  14
ENDBRANCH   9  12
ENDBRANCH   3   6
ENDBRANCH   1   2
BRANCH   1  23
ATOM     23  C   UNL A   1      33.724  29.011  24.373  1.00  0.00     0.042 C 
BRANCH  23  24
ATOM     24  C   UNL A   1      32.826  29.087  25.601  1.00  0.00     0.118 C 
BRANCH  24  25
ATOM     25  N   UNL A   1      32.590  30.457  26.013  1.00  0.00    -0.352 N 
ATOM     26  C   UNL A   1      33.214  31.247  26.946  1.00  0.00     0.251 C 
ATOM     27  H   UNL A   1      31.850  30.900  25.538  1.00  0.00     0.163 HD
ATOM     28  O   UNL A   1      32.653  32.292  27.283  1.00  0.00    -0.269 OA
BRANCH  26  29
ATOM     29  C   UNL A   1      34.522  30.903  27.569  1.00  0.00     0.039 A 
ATOM     30  C   UNL A   1      34.709  29.586  28.013  1.00  0.00     0.014 A 
ATOM     31  C   UNL A   1      35.515  31.846  27.841  1.00  0.00     0.014 A 
ATOM     32  C   UNL A   1      35.872  29.222  28.703  1.00  0.00     0.010 A 
ATOM     33  C   UNL A   1      36.718  31.462  28.446  1.00  0.00     0.010 A 
ATOM     34  C   UNL A   1      36.899  30.153  28.916  1.00  0.00    -0.014 A 
BRANCH  34  35
ATOM     35  C   UNL A   1      38.127  29.782  29.674  1.00  0.00     0.031 A 
ATOM     36  C   UNL A   1      38.362  30.322  31.064  1.00  0.00     0.074 A 
ATOM     37  C   UNL A   1      39.050  28.975  29.115  1.00  0.00     0.049 A 
ATOM     38  N   UNL A   1      39.381  30.135  31.869  1.00  0.00    -0.248 NA
ATOM     39  C   UNL A   1      37.326  31.211  31.613  1.00  0.00     0.031 C 
ATOM     40  C   UNL A   1      38.977  28.418  27.764  1.00  0.00     0.029 A 
ATOM     41  N   UNL A   1      40.234  28.487  29.611  1.00  0.00    -0.354 N 
ATOM     42  C   UNL A   1      39.116  30.894  33.003  1.00  0.00     0.074 A 
ATOM     43  C   UNL A   1      37.870  31.588  32.762  1.00  0.00     0.031 C 
ATOM     44  C   UNL A   1      40.054  27.647  27.548  1.00  0.00     0.029 A 
ATOM     45  C   UNL A   1      40.910  27.677  28.731  1.00  0.00     0.049 A 
ATOM     46  H   UNL A   1      40.568  28.698  30.514  1.00  0.00     0.167 HD
ATOM     47  C   UNL A   1      39.829  30.985  34.152  1.00  0.00     0.037 A 
ATOM     48  C   UNL A   1      42.084  27.031  28.859  1.00  0.00     0.037 A 
ATOM     49  C   UNL A   1      41.051  30.271  34.412  1.00  0.00     0.049 A 
ATOM     50  C   UNL A   1      42.847  27.131  30.153  1.00  0.00     0.074 A 
ATOM     51  C   UNL A   1      41.816  30.256  35.566  1.00  0.00     0.029 A 
ATOM     52  N   UNL A   1      41.687  29.439  33.502  1.00  0.00    -0.354 N 
ATOM     53  N   UNL A   1      42.553  27.804  31.238  1.00  0.00    -0.248 NA
ATOM     54  C   UNL A   1      44.101  26.368  30.242  1.00  0.00     0.031 C 
ATOM     55  C   UNL A   1      42.934  29.445  35.342  1.00  0.00     0.029 A 
ATOM     56  C   UNL A   1      42.843  28.919  34.065  1.00  0.00     0.049 A 
ATOM     57  H   UNL A   1      41.366  29.248  32.591  1.00  0.00     0.167 HD
ATOM     58  C   UNL A   1      43.571  27.534  32.142  1.00  0.00     0.074 A 
ATOM     59  C   UNL A   1      44.480  26.616  31.488  1.00  0.00     0.031 C 
ATOM     60  C   UNL A   1      43.740  28.007  33.402  1.00  0.00     0.037 A 
BRANCH  47  61
ATOM     61  C   UNL A   1      39.295  31.889  35.228  1.00  0.00     0.064 A 
ATOM     62  C   UNL A   1      39.584  33.263  35.244  1.00  0.00     0.173 A 
ATOM     63  C   UNL A   1      38.461  31.384  36.237  1.00  0.00     0.173 A 
ATOM     64  F   UNL A   1      40.384  33.795  34.308  1.00  0.00    -0.203 F 
ATOM     65  C   UNL A   1      39.084  34.089  36.247  1.00  0.00     0.198 A 
ATOM     66  C   UNL A   1      37.938  32.220  37.222  1.00  0.00     0.198 A 
ATOM     67  F   UNL A   1      38.145  30.081  36.264  1.00  0.00    -0.203 F 
ATOM     68  F   UNL A   1      39.418  35.388  36.270  1.00  0.00    -0.200 F 
ATOM     69  C   UNL A   1      38.257  33.569  37.231  1.00  0.00     0.200 A 
ATOM     70  F   UNL A   1      37.129  31.718  38.164  1.00  0.00    -0.200 F 
ATOM     71  F   UNL A   1      37.775  34.367  38.193  1.00  0.00    -0.200 F 
ENDBRANCH  47  61
BRANCH  48  72
ATOM     72  C   UNL A   1      42.598  26.205  27.736  1.00  0.00     0.064 A 
ATOM     73  C   UNL A   1      42.181  24.878  27.566  1.00  0.00     0.173 A 
ATOM     74  C   UNL A   1      43.512  26.726  26.809  1.00  0.00     0.173 A 
ATOM     75  F   UNL A   1      41.325  24.329  28.441  1.00  0.00    -0.203 F 
ATOM     76  C   UNL A   1      42.670  24.098  26.521  1.00  0.00     0.198 A 
ATOM     77  C   UNL A   1      43.980  25.953  25.748  1.00  0.00     0.198 A 
ATOM     78  F   UNL A   1      43.941  27.991  26.926  1.00  0.00    -0.203 F 
ATOM     79  F   UNL A   1      42.287  22.819  26.407  1.00  0.00    -0.200 F 
ATOM     80  C   UNL A   1      43.564  24.638  25.609  1.00  0.00     0.200 A 
ATOM     81  F   UNL A   1      44.835  26.483  24.862  1.00  0.00    -0.200 F 
ATOM     82  F   UNL A   1      44.030  23.888  24.601  1.00  0.00    -0.200 F 
ENDBRANCH  48  72
BRANCH  60  83
ATOM     83  C   UNL A   1      44.940  27.522  34.162  1.00  0.00     0.064 A 
ATOM     84  C   UNL A   1      46.157  28.219  34.133  1.00  0.00     0.173 A 
ATOM     85  C   UNL A   1      44.864  26.364  34.950  1.00  0.00     0.173 A 
ATOM     86  F   UNL A   1      46.285  29.324  33.383  1.00  0.00    -0.203 F 
ATOM     87  C   UNL A   1      47.263  27.757  34.841  1.00  0.00     0.198 A 
ATOM     88  C   UNL A   1      45.963  25.920  35.679  1.00  0.00     0.198 A 
ATOM     89  F   UNL A   1      43.721  25.666  35.018  1.00  0.00    -0.203 F 
ATOM     90  F   UNL A   1      48.431  28.410  34.758  1.00  0.00    -0.200 F 
ATOM     91  C   UNL A   1      47.164  26.612  35.618  1.00  0.00     0.200 A 
ATOM     92  F   UNL A   1      45.863  24.821  36.439  1.00  0.00    -0.200 F 
ATOM     93  F   UNL A   1      48.229  26.170  36.300  1.00  0.00    -0.200 F 
ENDBRANCH  60  83
ENDBRANCH  34  35
ENDBRANCH  26  29
ENDBRANCH  24  25
ENDBRANCH  23  24
ENDBRANCH   1  23
TORSDOF 13
ENDMDL
MODEL 3
REMARK VINA RESULT:     -12.9      3.794      7.680
REMARK SMILES C[C@H]1[C@@H](C(=O)NCCCNC(=O)c2ccc(-c3c4nc(c(-c5c(F)c(F)c(F)c(F)c5F)c5ccc([nH]5)c(-c5c(F)c(F)c(F)c(F)c5F)c5nc(c(-c6c(F)c(F)c(F)c(F)c6F)c6ccc3[nH]6)C=C5)C=C4)cc2)CCN1C(=O)/C=C/c1cccc(F)c1
REMARK SMILES IDX 7 1 6 2 4 3 5 4 3 6 1 7 2 8 78 9 76 10 77 11 79 12 80 13
REMARK SMILES IDX 81 14 82 15 83 16 84 17 89 18 85 19 87 20 86 21 88 22 8 23
REMARK SMILES IDX 9 24 10 25 11 26 12 28 13 29 14 30 75 31 15 32 74 33 16 34
REMARK SMILES IDX 17 35 18 36 68 37 19 38 73 39 67 40 69 41 20 42 72 43 66 44
REMARK SMILES IDX 65 45 21 47 53 48 33 49 52 50 34 51 37 52 51 53 70 54 35 55
REMARK SMILES IDX 36 56 50 58 71 59 38 60 22 61 23 62 31 63 24 64 25 65 29 66
REMARK SMILES IDX 32 67 26 68 27 69 30 70 28 71 54 72 55 73 63 74 56 75 57 76
REMARK SMILES IDX 61 77 64 78 58 79 59 80 62 81 60 82 39 83 40 84 48 85 41 86
REMARK SMILES IDX 42 87 46 88 49 89 43 90 44 91 47 92 45 93
REMARK H PARENT 6 5 10 27 69 46 37 57
REMARK Flexibility Score: inf
ROOT
ATOM      1  C   UNL A   1      31.339  30.761  26.399  1.00  0.00     0.117 C 
ENDROOT
BRANCH   1   2
ATOM      2  N   UNL A   1      31.843  30.307  25.112  1.00  0.00    -0.356 N 
ATOM      3  C   UNL A   1      31.824  29.086  24.504  1.00  0.00     0.225 C 
ATOM      4  O   UNL A   1      32.436  28.994  23.438  1.00  0.00    -0.275 OA
ATOM      5  H   UNL A   1      32.278  31.011  24.580  1.00  0.00     0.163 HD
BRANCH   3   6
ATOM      6  C   UNL A   1      31.017  27.924  25.077  1.00  0.00     0.102 C 
ATOM      7  C   UNL A   1      33.169  27.189  26.394  1.00  0.00     0.032 C 
ATOM      8  C   UNL A   1      31.679  27.009  26.132  1.00  0.00     0.094 C 
ATOM      9  N   UNL A   1      31.438  25.639  25.674  1.00  0.00    -0.336 N 
ATOM     10  C   UNL A   1      30.508  26.949  23.985  1.00  0.00     0.037 C 
ATOM     11  C   UNL A   1      31.222  25.636  24.246  1.00  0.00     0.121 C 
BRANCH   9  12
ATOM     12  C   UNL A   1      31.612  24.465  26.381  1.00  0.00     0.246 C 
ATOM     13  O   UNL A   1      30.835  24.071  27.251  1.00  0.00    -0.270 OA
BRANCH  12  14
ATOM     14  C   UNL A   1      32.719  23.570  25.945  1.00  0.00     0.072 C 
ATOM     15  C   UNL A   1      33.912  23.554  26.560  1.00  0.00     0.014 C 
BRANCH  15  16
ATOM     16  C   UNL A   1      35.136  22.895  26.064  1.00  0.00    -0.023 A 
ATOM     17  C   UNL A   1      36.242  23.703  25.751  1.00  0.00     0.008 A 
ATOM     18  C   UNL A   1      35.228  21.522  25.804  1.00  0.00     0.047 A 
ATOM     19  C   UNL A   1      37.407  23.159  25.198  1.00  0.00     0.004 A 
ATOM     20  C   UNL A   1      36.392  20.987  25.254  1.00  0.00     0.123 A 
ATOM     21  C   UNL A   1      37.482  21.793  24.948  1.00  0.00     0.039 A 
ATOM     22  F   UNL A   1      36.456  19.674  25.000  1.00  0.00    -0.207 F 
ENDBRANCH  15  16
ENDBRANCH  12  14
ENDBRANCH   9  12
ENDBRANCH   3   6
ENDBRANCH   1   2
BRANCH   1  23
ATOM     23  C   UNL A   1      31.357  32.291  26.501  1.00  0.00     0.042 C 
BRANCH  23  24
ATOM     24  C   UNL A   1      32.694  32.890  26.921  1.00  0.00     0.118 C 
BRANCH  24  25
ATOM     25  N   UNL A   1      32.527  34.168  27.586  1.00  0.00    -0.352 N 
ATOM     26  C   UNL A   1      33.060  34.664  28.750  1.00  0.00     0.251 C 
ATOM     27  H   UNL A   1      31.925  34.791  27.119  1.00  0.00     0.163 HD
ATOM     28  O   UNL A   1      32.555  35.685  29.223  1.00  0.00    -0.269 OA
BRANCH  26  29
ATOM     29  C   UNL A   1      34.203  34.033  29.464  1.00  0.00     0.039 A 
ATOM     30  C   UNL A   1      35.499  34.386  29.064  1.00  0.00     0.014 A 
ATOM     31  C   UNL A   1      34.050  33.025  30.419  1.00  0.00     0.014 A 
ATOM     32  C   UNL A   1      36.618  33.751  29.620  1.00  0.00     0.010 A 
ATOM     33  C   UNL A   1      35.168  32.458  31.043  1.00  0.00     0.010 A 
ATOM     34  C   UNL A   1      36.466  32.788  30.629  1.00  0.00    -0.014 A 
BRANCH  34  35
ATOM     35  C   UNL A   1      37.648  32.087  31.204  1.00  0.00     0.031 A 
ATOM     36  C   UNL A   1      38.139  32.424  32.591  1.00  0.00     0.074 A 
ATOM     37  C   UNL A   1      38.303  31.158  30.480  1.00  0.00     0.049 A 
ATOM     38  N   UNL A   1      39.165  31.942  33.251  1.00  0.00    -0.248 NA
ATOM     39  C   UNL A   1      37.393  33.458  33.325  1.00  0.00     0.031 C 
ATOM     40  C   UNL A   1      37.969  30.765  29.111  1.00  0.00     0.029 A 
ATOM     41  N   UNL A   1      39.390  30.378  30.793  1.00  0.00    -0.354 N 
ATOM     42  C   UNL A   1      39.195  32.625  34.461  1.00  0.00     0.074 A 
ATOM     43  C   UNL A   1      38.121  33.593  34.424  1.00  0.00     0.031 C 
ATOM     44  C   UNL A   1      38.815  29.804  28.710  1.00  0.00     0.029 A 
ATOM     45  C   UNL A   1      39.771  29.531  29.781  1.00  0.00     0.049 A 
ATOM     46  H   UNL A   1      39.852  30.422  31.661  1.00  0.00     0.167 HD
ATOM     47  C   UNL A   1      40.023  32.447  35.520  1.00  0.00     0.037 A 
ATOM     48  C   UNL A   1      40.775  28.636  29.719  1.00  0.00     0.037 A 
ATOM     49  C   UNL A   1      41.072  31.462  35.578  1.00  0.00     0.049 A 
ATOM     50  C   UNL A   1      41.668  28.440  30.915  1.00  0.00     0.074 A 
ATOM     51  C   UNL A   1      41.926  31.168  36.627  1.00  0.00     0.029 A 
ATOM     52  N   UNL A   1      41.407  30.606  34.539  1.00  0.00    -0.354 N 
ATOM     53  N   UNL A   1      41.646  29.052  32.073  1.00  0.00    -0.248 NA
ATOM     54  C   UNL A   1      42.719  27.419  30.796  1.00  0.00     0.031 C 
ATOM     55  C   UNL A   1      42.803  30.160  36.210  1.00  0.00     0.029 A 
ATOM     56  C   UNL A   1      42.466  29.794  34.919  1.00  0.00     0.049 A 
ATOM     57  H   UNL A   1      40.960  30.578  33.662  1.00  0.00     0.167 HD
ATOM     58  C   UNL A   1      42.662  28.479  32.826  1.00  0.00     0.074 A 
ATOM     59  C   UNL A   1      43.268  27.455  32.001  1.00  0.00     0.031 C 
ATOM     60  C   UNL A   1      43.061  28.779  34.087  1.00  0.00     0.037 A 
BRANCH  47  61
ATOM     61  C   UNL A   1      39.820  33.334  36.715  1.00  0.00     0.064 A 
ATOM     62  C   UNL A   1      38.894  33.013  37.721  1.00  0.00     0.173 A 
ATOM     63  C   UNL A   1      40.580  34.504  36.875  1.00  0.00     0.173 A 
ATOM     64  F   UNL A   1      38.135  31.913  37.612  1.00  0.00    -0.203 F 
ATOM     65  C   UNL A   1      38.714  33.845  38.822  1.00  0.00     0.198 A 
ATOM     66  C   UNL A   1      40.419  35.317  37.994  1.00  0.00     0.198 A 
ATOM     67  F   UNL A   1      41.486  34.853  35.950  1.00  0.00    -0.203 F 
ATOM     68  F   UNL A   1      37.786  33.544  39.743  1.00  0.00    -0.200 F 
ATOM     69  C   UNL A   1      39.480  34.993  38.962  1.00  0.00     0.200 A 
ATOM     70  F   UNL A   1      41.169  36.418  38.134  1.00  0.00    -0.200 F 
ATOM     71  F   UNL A   1      39.307  35.790  40.025  1.00  0.00    -0.200 F 
ENDBRANCH  47  61
BRANCH  48  72
ATOM     72  C   UNL A   1      40.972  27.833  28.484  1.00  0.00     0.064 A 
ATOM     73  C   UNL A   1      41.857  28.255  27.482  1.00  0.00     0.173 A 
ATOM     74  C   UNL A   1      40.285  26.627  28.283  1.00  0.00     0.173 A 
ATOM     75  F   UNL A   1      42.520  29.413  27.620  1.00  0.00    -0.203 F 
ATOM     76  C   UNL A   1      42.035  27.509  26.319  1.00  0.00     0.198 A 
ATOM     77  C   UNL A   1      40.484  25.869  27.132  1.00  0.00     0.198 A 
ATOM     78  F   UNL A   1      39.429  26.179  29.213  1.00  0.00    -0.203 F 
ATOM     79  F   UNL A   1      42.855  27.957  25.358  1.00  0.00    -0.200 F 
ATOM     80  C   UNL A   1      41.353  26.314  26.148  1.00  0.00     0.200 A 
ATOM     81  F   UNL A   1      39.832  24.709  26.975  1.00  0.00    -0.200 F 
ATOM     82  F   UNL A   1      41.529  25.595  25.030  1.00  0.00    -0.200 F 
ENDBRANCH  48  72
BRANCH  60  83
ATOM     83  C   UNL A   1      44.190  27.973  34.659  1.00  0.00     0.064 A 
ATOM     84  C   UNL A   1      43.961  26.764  35.333  1.00  0.00     0.173 A 
ATOM     85  C   UNL A   1      45.518  28.400  34.509  1.00  0.00     0.173 A 
ATOM     86  F   UNL A   1      42.709  26.320  35.516  1.00  0.00    -0.203 F 
ATOM     87  C   UNL A   1      45.018  26.027  35.861  1.00  0.00     0.198 A 
ATOM     88  C   UNL A   1      46.575  27.647  35.012  1.00  0.00     0.198 A 
ATOM     89  F   UNL A   1      45.791  29.545  33.866  1.00  0.00    -0.203 F 
ATOM     90  F   UNL A   1      44.773  24.901  36.545  1.00  0.00    -0.200 F 
ATOM     91  C   UNL A   1      46.324  26.466  35.695  1.00  0.00     0.200 A 
ATOM     92  F   UNL A   1      47.836  28.066  34.841  1.00  0.00    -0.200 F 
ATOM     93  F   UNL A   1      47.340  25.755  36.202  1.00  0.00    -0.200 F 
ENDBRANCH  60  83
ENDBRANCH  34  35
ENDBRANCH  26  29
ENDBRANCH  24  25
ENDBRANCH  23  24
ENDBRANCH   1  23
TORSDOF 13
ENDMDL
