MODEL 1
REMARK VINA RESULT:     -14.3      0.000      0.000
REMARK SMILES Cc1ccc(C(=O)c2cccc(C)c2C(=O)NCCCNC(=O)c2ccc(-c3c4nc(c(-c5c(F)c(F)c(F)c(F)c5F)c5ccc([nH]5)c(-c5c(F)c(F)c(F)c(F)c5F)c5nc(c(-c6c(F)c(F)c(F)c(F)c6F)c6ccc3[nH]6)C=C5)C=C4)cc2)c(C)c1
REMARK SMILES IDX 19 1 18 2 17 3 15 4 16 5 14 7 8 8 9 9 10 10 12 11 11 12
REMARK SMILES IDX 13 13 6 14 7 15 5 16 1 17 2 18 3 19 89 20 4 21 87 22 88 23
REMARK SMILES IDX 20 24 21 25 22 26 23 28 24 29 25 30 86 31 26 32 85 33 27 34
REMARK SMILES IDX 28 35 29 36 79 37 30 38 84 39 78 40 80 41 31 42 83 43 77 44
REMARK SMILES IDX 76 45 32 47 64 48 44 49 63 50 45 51 48 52 62 53 81 54 46 55
REMARK SMILES IDX 47 56 61 58 82 59 49 60 33 61 34 62 42 63 35 64 36 65 40 66
REMARK SMILES IDX 43 67 37 68 38 69 41 70 39 71 65 72 66 73 74 74 67 75 68 76
REMARK SMILES IDX 72 77 75 78 69 79 70 80 73 81 71 82 50 83 51 84 59 85 52 86
REMARK SMILES IDX 53 87 57 88 60 89 54 90 55 91 58 92 56 93
REMARK H PARENT 17 6 21 27 80 46 48 57
REMARK Flexibility Score: inf
ROOT
ATOM      1  C   UNL A   1      32.112  31.396  26.956  1.00  0.00     0.042 C 
ENDROOT
BRANCH   1   2
ATOM      2  C   UNL A   1      31.525  30.543  25.854  1.00  0.00     0.118 C 
BRANCH   2   3
ATOM      3  N   UNL A   1      32.488  29.835  25.040  1.00  0.00    -0.352 N 
ATOM      4  C   UNL A   1      32.285  28.784  24.170  1.00  0.00     0.252 C 
ATOM      5  O   UNL A   1      33.237  28.426  23.478  1.00  0.00    -0.269 OA
ATOM      6  H   UNL A   1      33.418  30.145  25.119  1.00  0.00     0.163 HD
BRANCH   4   7
ATOM      7  C   UNL A   1      31.003  28.013  24.146  1.00  0.00     0.053 A 
ATOM      8  C   UNL A   1      30.760  26.893  24.973  1.00  0.00     0.036 A 
ATOM      9  C   UNL A   1      29.551  26.185  24.870  1.00  0.00     0.013 A 
ATOM     10  C   UNL A   1      28.591  26.560  23.937  1.00  0.00     0.001 A 
ATOM     11  C   UNL A   1      29.977  28.447  23.265  1.00  0.00    -0.038 A 
ATOM     12  C   UNL A   1      28.793  27.695  23.157  1.00  0.00     0.004 A 
ATOM     13  C   UNL A   1      30.067  29.728  22.473  1.00  0.00     0.045 C 
BRANCH   8  14
ATOM     14  C   UNL A   1      31.675  26.521  26.079  1.00  0.00     0.194 C 
ATOM     15  O   UNL A   1      31.526  27.143  27.125  1.00  0.00    -0.289 OA
BRANCH  14  16
ATOM     16  C   UNL A   1      32.745  25.454  25.937  1.00  0.00     0.025 A 
ATOM     17  C   UNL A   1      35.789  22.419  25.373  1.00  0.00     0.044 C 
ATOM     18  C   UNL A   1      34.768  23.485  25.635  1.00  0.00    -0.051 A 
ATOM     19  C   UNL A   1      35.055  24.830  25.413  1.00  0.00     0.004 A 
ATOM     20  C   UNL A   1      33.486  23.134  26.070  1.00  0.00     0.007 A 
ATOM     21  C   UNL A   1      34.061  25.801  25.572  1.00  0.00     0.013 A 
ATOM     22  C   UNL A   1      32.477  24.102  26.255  1.00  0.00    -0.040 A 
ATOM     23  C   UNL A   1      31.161  23.626  26.814  1.00  0.00     0.045 C 
ENDBRANCH  14  16
ENDBRANCH   8  14
ENDBRANCH   4   7
ENDBRANCH   2   3
ENDBRANCH   1   2
BRANCH   1  24
ATOM     24  C   UNL A   1      33.426  30.823  27.475  1.00  0.00     0.118 C 
BRANCH  24  25
ATOM     25  N   UNL A   1      34.136  31.726  28.393  1.00  0.00    -0.352 N 
ATOM     26  C   UNL A   1      35.367  31.540  29.004  1.00  0.00     0.251 C 
ATOM     27  H   UNL A   1      33.677  32.572  28.602  1.00  0.00     0.163 HD
ATOM     28  O   UNL A   1      35.939  32.439  29.607  1.00  0.00    -0.269 OA
BRANCH  26  29
ATOM     29  C   UNL A   1      36.005  30.222  28.836  1.00  0.00     0.039 A 
ATOM     30  C   UNL A   1      36.413  29.552  29.993  1.00  0.00     0.014 A 
ATOM     31  C   UNL A   1      36.556  29.934  27.589  1.00  0.00     0.014 A 
ATOM     32  C   UNL A   1      37.581  28.799  29.944  1.00  0.00     0.010 A 
ATOM     33  C   UNL A   1      37.763  29.259  27.567  1.00  0.00     0.010 A 
ATOM     34  C   UNL A   1      38.327  28.786  28.764  1.00  0.00    -0.014 A 
BRANCH  34  35
ATOM     35  C   UNL A   1      39.762  28.487  28.749  1.00  0.00     0.031 A 
ATOM     36  C   UNL A   1      40.249  27.145  28.365  1.00  0.00     0.074 A 
ATOM     37  C   UNL A   1      40.670  29.457  29.021  1.00  0.00     0.049 A 
ATOM     38  N   UNL A   1      41.419  26.683  28.654  1.00  0.00    -0.248 NA
ATOM     39  C   UNL A   1      39.419  26.187  27.651  1.00  0.00     0.031 C 
ATOM     40  C   UNL A   1      42.116  29.401  28.804  1.00  0.00     0.029 A 
ATOM     41  N   UNL A   1      40.486  30.630  29.778  1.00  0.00    -0.354 N 
ATOM     42  C   UNL A   1      41.599  25.505  27.967  1.00  0.00     0.074 A 
ATOM     43  C   UNL A   1      40.302  25.219  27.396  1.00  0.00     0.031 C 
ATOM     44  C   UNL A   1      42.714  30.243  29.658  1.00  0.00     0.029 A 
ATOM     45  C   UNL A   1      41.685  30.785  30.522  1.00  0.00     0.049 A 
ATOM     46  H   UNL A   1      39.694  31.216  29.790  1.00  0.00     0.167 HD
ATOM     47  C   UNL A   1      42.852  24.968  27.883  1.00  0.00     0.037 A 
ATOM     48  C   UNL A   1      41.686  30.740  31.884  1.00  0.00     0.037 A 
ATOM     49  C   UNL A   1      43.807  25.687  28.731  1.00  0.00     0.049 A 
ATOM     50  C   UNL A   1      42.521  29.627  32.484  1.00  0.00     0.074 A 
ATOM     51  C   UNL A   1      44.829  26.599  28.514  1.00  0.00     0.029 A 
ATOM     52  N   UNL A   1      43.598  25.683  30.099  1.00  0.00    -0.354 N 
ATOM     53  N   UNL A   1      43.192  28.747  31.793  1.00  0.00    -0.248 NA
ATOM     54  C   UNL A   1      42.565  29.353  33.922  1.00  0.00     0.031 C 
ATOM     55  C   UNL A   1      45.241  27.120  29.777  1.00  0.00     0.029 A 
ATOM     56  C   UNL A   1      44.463  26.533  30.756  1.00  0.00     0.049 A 
ATOM     57  H   UNL A   1      42.912  25.137  30.550  1.00  0.00     0.167 HD
ATOM     58  C   UNL A   1      43.677  27.783  32.639  1.00  0.00     0.074 A 
ATOM     59  C   UNL A   1      43.262  28.207  33.961  1.00  0.00     0.031 C 
ATOM     60  C   UNL A   1      44.340  26.676  32.196  1.00  0.00     0.037 A 
BRANCH  47  61
ATOM     61  C   UNL A   1      43.265  23.916  26.871  1.00  0.00     0.064 A 
ATOM     62  C   UNL A   1      42.887  22.564  27.039  1.00  0.00     0.173 A 
ATOM     63  C   UNL A   1      44.082  24.150  25.750  1.00  0.00     0.173 A 
ATOM     64  F   UNL A   1      42.008  22.192  27.977  1.00  0.00    -0.203 F 
ATOM     65  C   UNL A   1      43.395  21.533  26.242  1.00  0.00     0.198 A 
ATOM     66  C   UNL A   1      44.644  23.116  24.992  1.00  0.00     0.198 A 
ATOM     67  F   UNL A   1      44.307  25.385  25.292  1.00  0.00    -0.203 F 
ATOM     68  F   UNL A   1      43.001  20.270  26.457  1.00  0.00    -0.200 F 
ATOM     69  C   UNL A   1      44.310  21.805  25.247  1.00  0.00     0.200 A 
ATOM     70  F   UNL A   1      45.503  23.408  24.005  1.00  0.00    -0.200 F 
ATOM     71  F   UNL A   1      44.839  20.813  24.516  1.00  0.00    -0.200 F 
ENDBRANCH  47  61
BRANCH  48  72
ATOM     72  C   UNL A   1      40.445  31.296  32.481  1.00  0.00     0.064 A 
ATOM     73  C   UNL A   1      40.249  32.691  32.442  1.00  0.00     0.173 A 
ATOM     74  C   UNL A   1      39.332  30.494  32.747  1.00  0.00     0.173 A 
ATOM     75  F   UNL A   1      41.288  33.505  32.189  1.00  0.00    -0.203 F 
ATOM     76  C   UNL A   1      38.977  33.247  32.539  1.00  0.00     0.198 A 
ATOM     77  C   UNL A   1      38.059  31.056  32.864  1.00  0.00     0.198 A 
ATOM     78  F   UNL A   1      39.446  29.158  32.769  1.00  0.00    -0.203 F 
ATOM     79  F   UNL A   1      38.808  34.566  32.375  1.00  0.00    -0.200 F 
ATOM     80  C   UNL A   1      37.879  32.425  32.724  1.00  0.00     0.200 A 
ATOM     81  F   UNL A   1      36.993  30.257  33.008  1.00  0.00    -0.200 F 
ATOM     82  F   UNL A   1      36.643  32.942  32.717  1.00  0.00    -0.200 F 
ENDBRANCH  48  72
BRANCH  60  83
ATOM     83  C   UNL A   1      44.897  25.618  33.106  1.00  0.00     0.064 A 
ATOM     84  C   UNL A   1      46.265  25.303  33.147  1.00  0.00     0.173 A 
ATOM     85  C   UNL A   1      44.053  24.805  33.892  1.00  0.00     0.173 A 
ATOM     86  F   UNL A   1      47.145  25.968  32.383  1.00  0.00    -0.203 F 
ATOM     87  C   UNL A   1      46.760  24.282  33.961  1.00  0.00     0.198 A 
ATOM     88  C   UNL A   1      44.543  23.753  34.663  1.00  0.00     0.198 A 
ATOM     89  F   UNL A   1      42.731  25.024  33.955  1.00  0.00    -0.203 F 
ATOM     90  F   UNL A   1      48.080  24.053  34.014  1.00  0.00    -0.200 F 
ATOM     91  C   UNL A   1      45.898  23.501  34.710  1.00  0.00     0.200 A 
ATOM     92  F   UNL A   1      43.691  22.991  35.365  1.00  0.00    -0.200 F 
ATOM     93  F   UNL A   1      46.372  22.509  35.476  1.00  0.00    -0.200 F 
ENDBRANCH  60  83
ENDBRANCH  34  35
ENDBRANCH  26  29
ENDBRANCH  24  25
ENDBRANCH   1  24
TORSDOF 12
ENDMDL
MODEL 2
REMARK VINA RESULT:     -14.2      0.532      1.195
REMARK SMILES Cc1ccc(C(=O)c2cccc(C)c2C(=O)NCCCNC(=O)c2ccc(-c3c4nc(c(-c5c(F)c(F)c(F)c(F)c5F)c5ccc([nH]5)c(-c5c(F)c(F)c(F)c(F)c5F)c5nc(c(-c6c(F)c(F)c(F)c(F)c6F)c6ccc3[nH]6)C=C5)C=C4)cc2)c(C)c1
REMARK SMILES IDX 19 1 18 2 17 3 15 4 16 5 14 7 8 8 9 9 10 10 12 11 11 12
REMARK SMILES IDX 13 13 6 14 7 15 5 16 1 17 2 18 3 19 89 20 4 21 87 22 88 23
REMARK SMILES IDX 20 24 21 25 22 26 23 28 24 29 25 30 86 31 26 32 85 33 27 34
REMARK SMILES IDX 28 35 29 36 79 37 30 38 84 39 78 40 80 41 31 42 83 43 77 44
REMARK SMILES IDX 76 45 32 47 64 48 44 49 63 50 45 51 48 52 62 53 81 54 46 55
REMARK SMILES IDX 47 56 61 58 82 59 49 60 33 61 34 62 42 63 35 64 36 65 40 66
REMARK SMILES IDX 43 67 37 68 38 69 41 70 39 71 65 72 66 73 74 74 67 75 68 76
REMARK SMILES IDX 72 77 75 78 69 79 70 80 73 81 71 82 50 83 51 84 59 85 52 86
REMARK SMILES IDX 53 87 57 88 60 89 54 90 55 91 58 92 56 93
REMARK H PARENT 17 6 21 27 80 46 48 57
REMARK Flexibility Score: inf
ROOT
ATOM      1  C   UNL A   1      32.440  31.260  27.083  1.00  0.00     0.042 C 
ENDROOT
BRANCH   1   2
ATOM      2  C   UNL A   1      31.788  30.378  26.043  1.00  0.00     0.118 C 
BRANCH   2   3
ATOM      3  N   UNL A   1      32.698  29.727  25.126  1.00  0.00    -0.352 N 
ATOM      4  C   UNL A   1      32.436  28.751  24.187  1.00  0.00     0.252 C 
ATOM      5  O   UNL A   1      33.345  28.439  23.420  1.00  0.00    -0.269 OA
ATOM      6  H   UNL A   1      33.636  30.021  25.179  1.00  0.00     0.163 HD
BRANCH   4   7
ATOM      7  C   UNL A   1      31.144  27.996  24.171  1.00  0.00     0.053 A 
ATOM      8  C   UNL A   1      30.894  26.876  24.996  1.00  0.00     0.036 A 
ATOM      9  C   UNL A   1      29.674  26.184  24.900  1.00  0.00     0.013 A 
ATOM     10  C   UNL A   1      28.712  26.575  23.976  1.00  0.00     0.001 A 
ATOM     11  C   UNL A   1      30.117  28.446  23.299  1.00  0.00    -0.038 A 
ATOM     12  C   UNL A   1      28.923  27.709  23.198  1.00  0.00     0.004 A 
ATOM     13  C   UNL A   1      30.217  29.729  22.511  1.00  0.00     0.045 C 
BRANCH   8  14
ATOM     14  C   UNL A   1      31.812  26.489  26.093  1.00  0.00     0.194 C 
ATOM     15  O   UNL A   1      31.684  27.114  27.140  1.00  0.00    -0.289 OA
BRANCH  14  16
ATOM     16  C   UNL A   1      32.862  25.403  25.942  1.00  0.00     0.025 A 
ATOM     17  C   UNL A   1      35.843  22.311  25.352  1.00  0.00     0.044 C 
ATOM     18  C   UNL A   1      34.845  23.398  25.621  1.00  0.00    -0.051 A 
ATOM     19  C   UNL A   1      35.145  24.733  25.361  1.00  0.00     0.004 A 
ATOM     20  C   UNL A   1      33.574  23.076  26.104  1.00  0.00     0.007 A 
ATOM     21  C   UNL A   1      34.170  25.722  25.529  1.00  0.00     0.013 A 
ATOM     22  C   UNL A   1      32.585  24.062  26.299  1.00  0.00    -0.040 A 
ATOM     23  C   UNL A   1      31.280  23.619  26.909  1.00  0.00     0.045 C 
ENDBRANCH  14  16
ENDBRANCH   8  14
ENDBRANCH   4   7
ENDBRANCH   2   3
ENDBRANCH   1   2
BRANCH   1  24
ATOM     24  C   UNL A   1      33.727  30.645  27.621  1.00  0.00     0.118 C 
BRANCH  24  25
ATOM     25  N   UNL A   1      34.439  31.513  28.571  1.00  0.00    -0.352 N 
ATOM     26  C   UNL A   1      35.657  31.290  29.196  1.00  0.00     0.251 C 
ATOM     27  H   UNL A   1      33.992  32.361  28.793  1.00  0.00     0.163 HD
ATOM     28  O   UNL A   1      36.234  32.164  29.829  1.00  0.00    -0.269 OA
BRANCH  26  29
ATOM     29  C   UNL A   1      36.273  29.964  29.007  1.00  0.00     0.039 A 
ATOM     30  C   UNL A   1      36.715  29.291  30.149  1.00  0.00     0.014 A 
ATOM     31  C   UNL A   1      36.776  29.670  27.741  1.00  0.00     0.014 A 
ATOM     32  C   UNL A   1      37.873  28.525  30.058  1.00  0.00     0.010 A 
ATOM     33  C   UNL A   1      37.974  28.981  27.676  1.00  0.00     0.010 A 
ATOM     34  C   UNL A   1      38.575  28.503  28.852  1.00  0.00    -0.014 A 
BRANCH  34  35
ATOM     35  C   UNL A   1      40.005  28.188  28.786  1.00  0.00     0.031 A 
ATOM     36  C   UNL A   1      40.465  26.861  28.323  1.00  0.00     0.074 A 
ATOM     37  C   UNL A   1      40.932  29.132  29.084  1.00  0.00     0.049 A 
ATOM     38  N   UNL A   1      41.636  26.372  28.558  1.00  0.00    -0.248 NA
ATOM     39  C   UNL A   1      39.605  25.951  27.583  1.00  0.00     0.031 C 
ATOM     40  C   UNL A   1      42.372  29.070  28.827  1.00  0.00     0.029 A 
ATOM     41  N   UNL A   1      40.782  30.268  29.903  1.00  0.00    -0.354 N 
ATOM     42  C   UNL A   1      41.783  25.228  27.809  1.00  0.00     0.074 A 
ATOM     43  C   UNL A   1      40.470  24.987  27.258  1.00  0.00     0.031 C 
ATOM     44  C   UNL A   1      43.002  29.861  29.707  1.00  0.00     0.029 A 
ATOM     45  C   UNL A   1      42.002  30.371  30.623  1.00  0.00     0.049 A 
ATOM     46  H   UNL A   1      39.999  30.862  29.964  1.00  0.00     0.167 HD
ATOM     47  C   UNL A   1      43.027  24.681  27.666  1.00  0.00     0.037 A 
ATOM     48  C   UNL A   1      42.035  30.257  31.980  1.00  0.00     0.037 A 
ATOM     49  C   UNL A   1      44.012  25.345  28.525  1.00  0.00     0.049 A 
ATOM     50  C   UNL A   1      42.871  29.106  32.502  1.00  0.00     0.074 A 
ATOM     51  C   UNL A   1      45.040  26.254  28.329  1.00  0.00     0.029 A 
ATOM     52  N   UNL A   1      43.836  25.274  29.896  1.00  0.00    -0.354 N 
ATOM     53  N   UNL A   1      43.513  28.253  31.752  1.00  0.00    -0.248 NA
ATOM     54  C   UNL A   1      42.946  28.759  33.923  1.00  0.00     0.031 C 
ATOM     55  C   UNL A   1      45.490  26.706  29.605  1.00  0.00     0.029 A 
ATOM     56  C   UNL A   1      44.728  26.080  30.572  1.00  0.00     0.049 A 
ATOM     57  H   UNL A   1      43.155  24.715  30.337  1.00  0.00     0.167 HD
ATOM     58  C   UNL A   1      44.006  27.243  32.535  1.00  0.00     0.074 A 
ATOM     59  C   UNL A   1      43.629  27.604  33.888  1.00  0.00     0.031 C 
ATOM     60  C   UNL A   1      44.643  26.151  32.020  1.00  0.00     0.037 A 
BRANCH  47  61
ATOM     61  C   UNL A   1      43.401  23.677  26.593  1.00  0.00     0.064 A 
ATOM     62  C   UNL A   1      42.991  22.328  26.691  1.00  0.00     0.173 A 
ATOM     63  C   UNL A   1      44.210  23.952  25.475  1.00  0.00     0.173 A 
ATOM     64  F   UNL A   1      42.114  21.925  27.619  1.00  0.00    -0.203 F 
ATOM     65  C   UNL A   1      43.463  21.330  25.832  1.00  0.00     0.198 A 
ATOM     66  C   UNL A   1      44.736  22.948  24.655  1.00  0.00     0.198 A 
ATOM     67  F   UNL A   1      44.461  25.204  25.083  1.00  0.00    -0.203 F 
ATOM     68  F   UNL A   1      43.040  20.067  25.983  1.00  0.00    -0.200 F 
ATOM     69  C   UNL A   1      44.373  21.633  24.842  1.00  0.00     0.200 A 
ATOM     70  F   UNL A   1      45.591  23.273  23.674  1.00  0.00    -0.200 F 
ATOM     71  F   UNL A   1      44.867  20.671  24.051  1.00  0.00    -0.200 F 
ENDBRANCH  47  61
BRANCH  48  72
ATOM     72  C   UNL A   1      40.817  30.797  32.636  1.00  0.00     0.064 A 
ATOM     73  C   UNL A   1      40.637  32.194  32.668  1.00  0.00     0.173 A 
ATOM     74  C   UNL A   1      39.702  29.995  32.893  1.00  0.00     0.173 A 
ATOM     75  F   UNL A   1      41.678  33.008  32.427  1.00  0.00    -0.203 F 
ATOM     76  C   UNL A   1      39.374  32.758  32.825  1.00  0.00     0.198 A 
ATOM     77  C   UNL A   1      38.439  30.564  33.069  1.00  0.00     0.198 A 
ATOM     78  F   UNL A   1      39.801  28.659  32.849  1.00  0.00    -0.203 F 
ATOM     79  F   UNL A   1      39.216  34.085  32.729  1.00  0.00    -0.200 F 
ATOM     80  C   UNL A   1      38.272  31.939  33.000  1.00  0.00     0.200 A 
ATOM     81  F   UNL A   1      37.368  29.770  33.204  1.00  0.00    -0.200 F 
ATOM     82  F   UNL A   1      37.042  32.469  33.050  1.00  0.00    -0.200 F 
ENDBRANCH  48  72
BRANCH  60  83
ATOM     83  C   UNL A   1      45.208  25.043  32.862  1.00  0.00     0.064 A 
ATOM     84  C   UNL A   1      44.436  23.949  33.287  1.00  0.00     0.173 A 
ATOM     85  C   UNL A   1      46.526  25.100  33.365  1.00  0.00     0.173 A 
ATOM     86  F   UNL A   1      43.150  23.836  32.924  1.00  0.00    -0.203 F 
ATOM     87  C   UNL A   1      44.964  22.953  34.112  1.00  0.00     0.198 A 
ATOM     88  C   UNL A   1      47.033  24.133  34.231  1.00  0.00     0.198 A 
ATOM     89  F   UNL A   1      47.367  26.083  33.012  1.00  0.00    -0.203 F 
ATOM     90  F   UNL A   1      44.209  21.897  34.445  1.00  0.00    -0.200 F 
ATOM     91  C   UNL A   1      46.258  23.051  34.592  1.00  0.00     0.200 A 
ATOM     92  F   UNL A   1      48.282  24.255  34.705  1.00  0.00    -0.200 F 
ATOM     93  F   UNL A   1      46.756  22.105  35.398  1.00  0.00    -0.200 F 
ENDBRANCH  60  83
ENDBRANCH  34  35
ENDBRANCH  26  29
ENDBRANCH  24  25
ENDBRANCH   1  24
TORSDOF 12
ENDMDL
MODEL 3
REMARK VINA RESULT:     -14.1      3.366      9.632
REMARK SMILES Cc1ccc(C(=O)c2cccc(C)c2C(=O)NCCCNC(=O)c2ccc(-c3c4nc(c(-c5c(F)c(F)c(F)c(F)c5F)c5ccc([nH]5)c(-c5c(F)c(F)c(F)c(F)c5F)c5nc(c(-c6c(F)c(F)c(F)c(F)c6F)c6ccc3[nH]6)C=C5)C=C4)cc2)c(C)c1
REMARK SMILES IDX 19 1 18 2 17 3 15 4 16 5 14 7 8 8 9 9 10 10 12 11 11 12
REMARK SMILES IDX 13 13 6 14 7 15 5 16 1 17 2 18 3 19 89 20 4 21 87 22 88 23
REMARK SMILES IDX 20 24 21 25 22 26 23 28 24 29 25 30 86 31 26 32 85 33 27 34
REMARK SMILES IDX 28 35 29 36 79 37 30 38 84 39 78 40 80 41 31 42 83 43 77 44
REMARK SMILES IDX 76 45 32 47 64 48 44 49 63 50 45 51 48 52 62 53 81 54 46 55
REMARK SMILES IDX 47 56 61 58 82 59 49 60 33 61 34 62 42 63 35 64 36 65 40 66
REMARK SMILES IDX 43 67 37 68 38 69 41 70 39 71 65 72 66 73 74 74 67 75 68 76
REMARK SMILES IDX 72 77 75 78 69 79 70 80 73 81 71 82 50 83 51 84 59 85 52 86
REMARK SMILES IDX 53 87 57 88 60 89 54 90 55 91 58 92 56 93
REMARK H PARENT 17 6 21 27 80 46 48 57
REMARK Flexibility Score: inf
ROOT
ATOM      1  C   UNL A   1      38.153  20.742  25.013  1.00  0.00     0.042 C 
ENDROOT
BRANCH   1   2
ATOM      2  C   UNL A   1      36.651  20.610  24.895  1.00  0.00     0.118 C 
BRANCH   2   3
ATOM      3  N   UNL A   1      35.885  21.377  25.853  1.00  0.00    -0.352 N 
ATOM      4  C   UNL A   1      34.548  21.712  25.829  1.00  0.00     0.252 C 
ATOM      5  O   UNL A   1      34.079  22.259  26.826  1.00  0.00    -0.269 OA
ATOM      6  H   UNL A   1      36.390  21.706  26.631  1.00  0.00     0.163 HD
BRANCH   4   7
ATOM      7  C   UNL A   1      33.712  21.542  24.599  1.00  0.00     0.053 A 
ATOM      8  C   UNL A   1      33.606  22.531  23.595  1.00  0.00     0.036 A 
ATOM      9  C   UNL A   1      32.769  22.327  22.485  1.00  0.00     0.013 A 
ATOM     10  C   UNL A   1      32.015  21.164  22.374  1.00  0.00     0.001 A 
ATOM     11  C   UNL A   1      33.014  20.317  24.428  1.00  0.00    -0.038 A 
ATOM     12  C   UNL A   1      32.153  20.159  23.326  1.00  0.00     0.004 A 
ATOM     13  C   UNL A   1      33.198  19.135  25.347  1.00  0.00     0.045 C 
BRANCH   8  14
ATOM     14  C   UNL A   1      34.480  23.728  23.578  1.00  0.00     0.194 C 
ATOM     15  O   UNL A   1      35.608  23.559  23.129  1.00  0.00    -0.289 OA
BRANCH  14  16
ATOM     16  C   UNL A   1      34.029  25.082  24.097  1.00  0.00     0.025 A 
ATOM     17  C   UNL A   1      32.623  28.876  25.655  1.00  0.00     0.044 C 
ATOM     18  C   UNL A   1      33.179  27.593  25.112  1.00  0.00    -0.051 A 
ATOM     19  C   UNL A   1      33.848  26.691  25.935  1.00  0.00     0.004 A 
ATOM     20  C   UNL A   1      32.994  27.265  23.766  1.00  0.00     0.007 A 
ATOM     21  C   UNL A   1      34.276  25.458  25.432  1.00  0.00     0.013 A 
ATOM     22  C   UNL A   1      33.436  26.035  23.236  1.00  0.00    -0.040 A 
ATOM     23  C   UNL A   1      33.267  25.823  21.754  1.00  0.00     0.045 C 
ENDBRANCH  14  16
ENDBRANCH   8  14
ENDBRANCH   4   7
ENDBRANCH   2   3
ENDBRANCH   1   2
BRANCH   1  24
ATOM     24  C   UNL A   1      38.552  22.015  25.750  1.00  0.00     0.118 C 
BRANCH  24  25
ATOM     25  N   UNL A   1      39.985  22.078  26.076  1.00  0.00    -0.352 N 
ATOM     26  C   UNL A   1      40.715  23.158  26.549  1.00  0.00     0.251 C 
ATOM     27  H   UNL A   1      40.492  21.245  25.939  1.00  0.00     0.163 HD
ATOM     28  O   UNL A   1      41.864  23.042  26.954  1.00  0.00    -0.269 OA
BRANCH  26  29
ATOM     29  C   UNL A   1      40.021  24.457  26.615  1.00  0.00     0.039 A 
ATOM     30  C   UNL A   1      40.689  25.570  26.099  1.00  0.00     0.014 A 
ATOM     31  C   UNL A   1      38.994  24.585  27.548  1.00  0.00     0.014 A 
ATOM     32  C   UNL A   1      40.525  26.795  26.739  1.00  0.00     0.010 A 
ATOM     33  C   UNL A   1      38.903  25.782  28.235  1.00  0.00     0.010 A 
ATOM     34  C   UNL A   1      39.747  26.853  27.897  1.00  0.00    -0.014 A 
BRANCH  34  35
ATOM     35  C   UNL A   1      39.921  27.904  28.903  1.00  0.00     0.031 A 
ATOM     36  C   UNL A   1      38.956  29.020  29.003  1.00  0.00     0.074 A 
ATOM     37  C   UNL A   1      40.932  27.834  29.805  1.00  0.00     0.049 A 
ATOM     38  N   UNL A   1      39.199  30.145  29.587  1.00  0.00    -0.248 NA
ATOM     39  C   UNL A   1      37.634  28.965  28.399  1.00  0.00     0.031 C 
ATOM     40  C   UNL A   1      41.097  28.642  31.013  1.00  0.00     0.029 A 
ATOM     41  N   UNL A   1      42.160  27.155  29.681  1.00  0.00    -0.354 N 
ATOM     42  C   UNL A   1      38.022  30.851  29.668  1.00  0.00     0.074 A 
ATOM     43  C   UNL A   1      37.089  30.090  28.870  1.00  0.00     0.031 C 
ATOM     44  C   UNL A   1      42.400  28.696  31.322  1.00  0.00     0.029 A 
ATOM     45  C   UNL A   1      43.123  28.017  30.267  1.00  0.00     0.049 A 
ATOM     46  H   UNL A   1      42.315  26.271  29.274  1.00  0.00     0.167 HD
ATOM     47  C   UNL A   1      37.956  31.943  30.486  1.00  0.00     0.037 A 
ATOM     48  C   UNL A   1      44.140  28.548  29.531  1.00  0.00     0.037 A 
ATOM     49  C   UNL A   1      39.272  32.293  31.030  1.00  0.00     0.049 A 
ATOM     50  C   UNL A   1      44.152  30.061  29.460  1.00  0.00     0.074 A 
ATOM     51  C   UNL A   1      39.903  32.153  32.256  1.00  0.00     0.029 A 
ATOM     52  N   UNL A   1      40.264  32.673  30.143  1.00  0.00    -0.354 N 
ATOM     53  N   UNL A   1      43.272  30.839  30.028  1.00  0.00    -0.248 NA
ATOM     54  C   UNL A   1      45.102  30.811  28.635  1.00  0.00     0.031 C 
ATOM     55  C   UNL A   1      41.282  32.479  32.092  1.00  0.00     0.029 A 
ATOM     56  C   UNL A   1      41.488  32.805  30.766  1.00  0.00     0.049 A 
ATOM     57  H   UNL A   1      40.114  32.831  29.182  1.00  0.00     0.167 HD
ATOM     58  C   UNL A   1      43.472  32.129  29.611  1.00  0.00     0.074 A 
ATOM     59  C   UNL A   1      44.631  32.063  28.743  1.00  0.00     0.031 C 
ATOM     60  C   UNL A   1      42.644  33.156  29.960  1.00  0.00     0.037 A 
BRANCH  47  61
ATOM     61  C   UNL A   1      36.663  32.576  30.964  1.00  0.00     0.064 A 
ATOM     62  C   UNL A   1      35.934  33.452  30.127  1.00  0.00     0.173 A 
ATOM     63  C   UNL A   1      36.113  32.420  32.250  1.00  0.00     0.173 A 
ATOM     64  F   UNL A   1      36.246  33.610  28.835  1.00  0.00    -0.203 F 
ATOM     65  C   UNL A   1      34.845  34.201  30.583  1.00  0.00     0.198 A 
ATOM     66  C   UNL A   1      35.067  33.216  32.729  1.00  0.00     0.198 A 
ATOM     67  F   UNL A   1      36.511  31.440  33.067  1.00  0.00    -0.203 F 
ATOM     68  F   UNL A   1      34.200  35.019  29.739  1.00  0.00    -0.200 F 
ATOM     69  C   UNL A   1      34.440  34.117  31.898  1.00  0.00     0.200 A 
ATOM     70  F   UNL A   1      34.666  33.088  34.003  1.00  0.00    -0.200 F 
ATOM     71  F   UNL A   1      33.431  34.873  32.352  1.00  0.00    -0.200 F 
ENDBRANCH  47  61
BRANCH  48  72
ATOM     72  C   UNL A   1      44.613  27.637  28.457  1.00  0.00     0.064 A 
ATOM     73  C   UNL A   1      45.343  26.489  28.827  1.00  0.00     0.173 A 
ATOM     74  C   UNL A   1      44.074  27.674  27.169  1.00  0.00     0.173 A 
ATOM     75  F   UNL A   1      45.880  26.405  30.055  1.00  0.00    -0.203 F 
ATOM     76  C   UNL A   1      45.421  25.380  27.989  1.00  0.00     0.198 A 
ATOM     77  C   UNL A   1      44.171  26.567  26.323  1.00  0.00     0.198 A 
ATOM     78  F   UNL A   1      43.346  28.725  26.767  1.00  0.00    -0.203 F 
ATOM     79  F   UNL A   1      46.017  24.259  28.416  1.00  0.00    -0.200 F 
ATOM     80  C   UNL A   1      44.811  25.412  26.747  1.00  0.00     0.200 A 
ATOM     81  F   UNL A   1      43.551  26.586  25.135  1.00  0.00    -0.200 F 
ATOM     82  F   UNL A   1      44.795  24.315  25.978  1.00  0.00    -0.200 F 
ENDBRANCH  48  72
BRANCH  60  83
ATOM     83  C   UNL A   1      42.857  34.580  29.531  1.00  0.00     0.064 A 
ATOM     84  C   UNL A   1      42.874  34.966  28.181  1.00  0.00     0.173 A 
ATOM     85  C   UNL A   1      43.163  35.592  30.466  1.00  0.00     0.173 A 
ATOM     86  F   UNL A   1      42.666  34.066  27.208  1.00  0.00    -0.203 F 
ATOM     87  C   UNL A   1      43.124  36.286  27.797  1.00  0.00     0.198 A 
ATOM     88  C   UNL A   1      43.464  36.896  30.077  1.00  0.00     0.198 A 
ATOM     89  F   UNL A   1      43.153  35.352  31.785  1.00  0.00    -0.203 F 
ATOM     90  F   UNL A   1      43.073  36.622  26.500  1.00  0.00    -0.200 F 
ATOM     91  C   UNL A   1      43.429  37.247  28.743  1.00  0.00     0.200 A 
ATOM     92  F   UNL A   1      43.780  37.810  31.006  1.00  0.00    -0.200 F 
ATOM     93  F   UNL A   1      43.688  38.507  28.372  1.00  0.00    -0.200 F 
ENDBRANCH  60  83
ENDBRANCH  34  35
ENDBRANCH  26  29
ENDBRANCH  24  25
ENDBRANCH   1  24
TORSDOF 12
ENDMDL
