MODEL 1
REMARK VINA RESULT:     -13.3      0.000      0.000
REMARK SMILES Cc1[nH]c2c(C(=O)N3CC[C@H](O)C[C@@H]3C(=O)NCCCNC(=O)c3ccc(-c4c5nc(c(-c6c(F)c(F)c(F)c(F)c6F)c6ccc([nH]6)c(-c6c(F)c(F)c(F)c(F)c6F)c6nc(c(-c7c(F)c(F)c(F)c(F)c7F)c7ccc4[nH]7)C=C6)C=C5)cc3)cccc2c1C
REMARK SMILES IDX 19 1 18 2 17 3 15 4 16 5 14 7 8 8 9 9 10 10 13 11 11 12 6 13
REMARK SMILES IDX 7 14 5 15 1 16 2 17 3 18 91 19 4 20 90 22 92 23 89 24 87 25
REMARK SMILES IDX 88 26 12 27 20 29 21 30 22 31 23 33 24 34 25 35 86 36 26 37
REMARK SMILES IDX 85 38 27 39 28 40 29 41 79 42 30 43 84 44 78 45 80 46 31 47
REMARK SMILES IDX 83 48 77 49 76 50 32 52 64 53 44 54 63 55 45 56 48 57 62 58
REMARK SMILES IDX 81 59 46 60 47 61 61 63 82 64 49 65 33 66 34 67 42 68 35 69
REMARK SMILES IDX 36 70 40 71 43 72 37 73 38 74 41 75 39 76 65 77 66 78 74 79
REMARK SMILES IDX 67 80 68 81 72 82 75 83 69 84 70 85 73 86 71 87 50 88 51 89
REMARK SMILES IDX 59 90 52 91 53 92 57 93 60 94 54 95 55 96 58 97 56 98
REMARK H PARENT 17 6 3 21 12 28 21 32 80 51 48 62
REMARK Flexibility Score: inf
ROOT
ATOM      1  C   UNL A   1      32.083  28.154  26.254  1.00  0.00     0.042 C 
ENDROOT
BRANCH   1   2
ATOM      2  C   UNL A   1      32.746  26.786  26.279  1.00  0.00     0.117 C 
BRANCH   2   3
ATOM      3  N   UNL A   1      31.916  25.764  26.890  1.00  0.00    -0.354 N 
ATOM      4  C   UNL A   1      31.740  24.448  26.594  1.00  0.00     0.242 C 
ATOM      5  O   UNL A   1      30.712  23.937  27.060  1.00  0.00    -0.273 OA
ATOM      6  H   UNL A   1      31.384  26.081  27.657  1.00  0.00     0.163 HD
BRANCH   4   7
ATOM      7  C   UNL A   1      32.662  23.608  25.667  1.00  0.00     0.177 C 
ATOM      8  N   UNL A   1      32.040  22.630  24.769  1.00  0.00    -0.326 N 
ATOM      9  C   UNL A   1      32.108  21.200  25.080  1.00  0.00     0.123 C 
ATOM     10  C   UNL A   1      32.822  20.758  26.374  1.00  0.00     0.053 C 
ATOM     11  C   UNL A   1      33.892  23.060  26.378  1.00  0.00     0.067 C 
ATOM     12  C   UNL A   1      33.564  21.822  27.181  1.00  0.00     0.118 C 
BRANCH   8  13
ATOM     13  C   UNL A   1      32.031  22.964  23.406  1.00  0.00     0.256 C 
ATOM     14  O   UNL A   1      31.928  22.119  22.522  1.00  0.00    -0.269 OA
BRANCH  13  15
ATOM     15  C   UNL A   1      32.170  24.386  23.025  1.00  0.00     0.064 A 
ATOM     16  C   UNL A   1      27.762  26.461  24.122  1.00  0.00     0.064 C 
ATOM     17  C   UNL A   1      29.179  26.355  23.689  1.00  0.00     0.016 A 
ATOM     18  N   UNL A   1      29.861  25.166  23.706  1.00  0.00    -0.358 N 
ATOM     19  C   UNL A   1      30.055  27.331  23.245  1.00  0.00    -0.023 A 
ATOM     20  C   UNL A   1      31.132  25.316  23.209  1.00  0.00     0.059 A 
ATOM     21  H   UNL A   1      29.487  24.314  24.032  1.00  0.00     0.166 HD
ATOM     22  C   UNL A   1      31.301  26.681  22.968  1.00  0.00     0.003 A 
ATOM     23  C   UNL A   1      29.771  28.786  23.112  1.00  0.00     0.047 C 
ATOM     24  C   UNL A   1      32.567  27.142  22.553  1.00  0.00     0.010 A 
ATOM     25  C   UNL A   1      33.427  24.876  22.640  1.00  0.00     0.016 A 
ATOM     26  C   UNL A   1      33.623  26.235  22.405  1.00  0.00     0.002 A 
ENDBRANCH  13  15
ENDBRANCH   8  13
BRANCH  12  27
ATOM     27  O   UNL A   1      32.791  22.174  28.326  1.00  0.00    -0.393 OA
ATOM     28  H   UNL A   1      32.829  21.455  28.976  1.00  0.00     0.210 HD
ENDBRANCH  12  27
ENDBRANCH   4   7
ENDBRANCH   2   3
ENDBRANCH   1   2
BRANCH   1  29
ATOM     29  C   UNL A   1      32.980  29.232  25.673  1.00  0.00     0.118 C 
BRANCH  29  30
ATOM     30  N   UNL A   1      32.595  30.577  26.086  1.00  0.00    -0.352 N 
ATOM     31  C   UNL A   1      33.154  31.448  26.988  1.00  0.00     0.251 C 
ATOM     32  H   UNL A   1      31.788  30.921  25.639  1.00  0.00     0.163 HD
ATOM     33  O   UNL A   1      32.556  32.479  27.289  1.00  0.00    -0.269 OA
BRANCH  31  34
ATOM     34  C   UNL A   1      34.447  31.138  27.629  1.00  0.00     0.039 A 
ATOM     35  C   UNL A   1      35.406  32.145  27.760  1.00  0.00     0.014 A 
ATOM     36  C   UNL A   1      34.712  29.858  28.109  1.00  0.00     0.014 A 
ATOM     37  C   UNL A   1      36.589  31.887  28.456  1.00  0.00     0.010 A 
ATOM     38  C   UNL A   1      35.814  29.644  28.919  1.00  0.00     0.010 A 
ATOM     39  C   UNL A   1      36.778  30.648  29.085  1.00  0.00    -0.014 A 
BRANCH  39  40
ATOM     40  C   UNL A   1      37.992  30.336  29.879  1.00  0.00     0.031 A 
ATOM     41  C   UNL A   1      39.025  29.403  29.304  1.00  0.00     0.074 A 
ATOM     42  C   UNL A   1      38.114  30.794  31.139  1.00  0.00     0.049 A 
ATOM     43  N   UNL A   1      40.053  28.841  29.884  1.00  0.00    -0.248 NA
ATOM     44  C   UNL A   1      38.838  29.000  27.899  1.00  0.00     0.031 C 
ATOM     45  C   UNL A   1      37.152  31.656  31.829  1.00  0.00     0.029 A 
ATOM     46  N   UNL A   1      39.097  30.584  32.073  1.00  0.00    -0.354 N 
ATOM     47  C   UNL A   1      40.596  27.984  28.934  1.00  0.00     0.074 A 
ATOM     48  C   UNL A   1      39.750  28.051  27.764  1.00  0.00     0.031 C 
ATOM     49  C   UNL A   1      37.607  31.925  33.063  1.00  0.00     0.029 A 
ATOM     50  C   UNL A   1      38.868  31.220  33.269  1.00  0.00     0.049 A 
ATOM     51  H   UNL A   1      39.891  30.029  31.903  1.00  0.00     0.167 HD
ATOM     52  C   UNL A   1      41.720  27.233  29.018  1.00  0.00     0.037 A 
ATOM     53  C   UNL A   1      39.594  31.226  34.401  1.00  0.00     0.037 A 
ATOM     54  C   UNL A   1      42.597  27.236  30.156  1.00  0.00     0.049 A 
ATOM     55  C   UNL A   1      40.873  30.436  34.448  1.00  0.00     0.074 A 
ATOM     56  C   UNL A   1      43.804  26.579  30.320  1.00  0.00     0.029 A 
ATOM     57  N   UNL A   1      42.367  27.954  31.321  1.00  0.00    -0.354 N 
ATOM     58  N   UNL A   1      41.406  29.668  33.528  1.00  0.00    -0.248 NA
ATOM     59  C   UNL A   1      41.658  30.517  35.688  1.00  0.00     0.031 C 
ATOM     60  C   UNL A   1      44.291  26.880  31.596  1.00  0.00     0.029 A 
ATOM     61  C   UNL A   1      43.409  27.755  32.210  1.00  0.00     0.049 A 
ATOM     62  H   UNL A   1      41.579  28.521  31.490  1.00  0.00     0.167 HD
ATOM     63  C   UNL A   1      42.597  29.200  34.062  1.00  0.00     0.074 A 
ATOM     64  C   UNL A   1      42.717  29.779  35.384  1.00  0.00     0.031 C 
ATOM     65  C   UNL A   1      43.512  28.364  33.511  1.00  0.00     0.037 A 
BRANCH  52  66
ATOM     66  C   UNL A   1      42.066  26.369  27.839  1.00  0.00     0.064 A 
ATOM     67  C   UNL A   1      41.500  25.097  27.666  1.00  0.00     0.173 A 
ATOM     68  C   UNL A   1      42.971  26.821  26.867  1.00  0.00     0.173 A 
ATOM     69  F   UNL A   1      40.640  24.611  28.574  1.00  0.00    -0.203 F 
ATOM     70  C   UNL A   1      41.856  24.293  26.586  1.00  0.00     0.198 A 
ATOM     71  C   UNL A   1      43.299  26.029  25.770  1.00  0.00     0.198 A 
ATOM     72  F   UNL A   1      43.538  28.031  26.980  1.00  0.00    -0.203 F 
ATOM     73  F   UNL A   1      41.351  23.057  26.479  1.00  0.00    -0.200 F 
ATOM     74  C   UNL A   1      42.751  24.762  25.637  1.00  0.00     0.200 A 
ATOM     75  F   UNL A   1      44.155  26.486  24.846  1.00  0.00    -0.200 F 
ATOM     76  F   UNL A   1      43.093  23.987  24.598  1.00  0.00    -0.200 F 
ENDBRANCH  52  66
BRANCH  53  77
ATOM     77  C   UNL A   1      39.154  32.040  35.564  1.00  0.00     0.064 A 
ATOM     78  C   UNL A   1      39.517  33.391  35.669  1.00  0.00     0.173 A 
ATOM     79  C   UNL A   1      38.365  31.496  36.587  1.00  0.00     0.173 A 
ATOM     80  F   UNL A   1      40.286  33.951  34.724  1.00  0.00    -0.203 F 
ATOM     81  C   UNL A   1      39.126  34.159  36.763  1.00  0.00     0.198 A 
ATOM     82  C   UNL A   1      37.953  32.272  37.669  1.00  0.00     0.198 A 
ATOM     83  F   UNL A   1      37.984  30.211  36.530  1.00  0.00    -0.203 F 
ATOM     84  F   UNL A   1      39.524  35.436  36.859  1.00  0.00    -0.200 F 
ATOM     85  C   UNL A   1      38.340  33.601  37.760  1.00  0.00     0.200 A 
ATOM     86  F   UNL A   1      37.181  31.734  38.622  1.00  0.00    -0.200 F 
ATOM     87  F   UNL A   1      37.961  34.342  38.810  1.00  0.00    -0.200 F 
ENDBRANCH  53  77
BRANCH  65  88
ATOM     88  C   UNL A   1      44.742  28.066  34.314  1.00  0.00     0.064 A 
ATOM     89  C   UNL A   1      44.811  26.957  35.167  1.00  0.00     0.173 A 
ATOM     90  C   UNL A   1      45.883  28.872  34.180  1.00  0.00     0.173 A 
ATOM     91  F   UNL A   1      43.739  26.168  35.338  1.00  0.00    -0.203 F 
ATOM     92  C   UNL A   1      45.976  26.675  35.874  1.00  0.00     0.198 A 
ATOM     93  C   UNL A   1      47.054  28.570  34.866  1.00  0.00     0.198 A 
ATOM     94  F   UNL A   1      45.866  29.940  33.368  1.00  0.00    -0.203 F 
ATOM     95  F   UNL A   1      46.010  25.630  36.714  1.00  0.00    -0.200 F 
ATOM     96  C   UNL A   1      47.099  27.475  35.716  1.00  0.00     0.200 A 
ATOM     97  F   UNL A   1      48.141  29.336  34.704  1.00  0.00    -0.200 F 
ATOM     98  F   UNL A   1      48.222  27.194  36.390  1.00  0.00    -0.200 F 
ENDBRANCH  65  88
ENDBRANCH  39  40
ENDBRANCH  31  34
ENDBRANCH  29  30
ENDBRANCH   1  29
TORSDOF 13
ENDMDL
MODEL 2
REMARK VINA RESULT:     -13.2      0.673      7.323
REMARK SMILES Cc1[nH]c2c(C(=O)N3CC[C@H](O)C[C@@H]3C(=O)NCCCNC(=O)c3ccc(-c4c5nc(c(-c6c(F)c(F)c(F)c(F)c6F)c6ccc([nH]6)c(-c6c(F)c(F)c(F)c(F)c6F)c6nc(c(-c7c(F)c(F)c(F)c(F)c7F)c7ccc4[nH]7)C=C6)C=C5)cc3)cccc2c1C
REMARK SMILES IDX 19 1 18 2 17 3 15 4 16 5 14 7 8 8 9 9 10 10 13 11 11 12 6 13
REMARK SMILES IDX 7 14 5 15 1 16 2 17 3 18 91 19 4 20 90 22 92 23 89 24 87 25
REMARK SMILES IDX 88 26 12 27 20 29 21 30 22 31 23 33 24 34 25 35 86 36 26 37
REMARK SMILES IDX 85 38 27 39 28 40 29 41 79 42 30 43 84 44 78 45 80 46 31 47
REMARK SMILES IDX 83 48 77 49 76 50 32 52 64 53 44 54 63 55 45 56 48 57 62 58
REMARK SMILES IDX 81 59 46 60 47 61 61 63 82 64 49 65 33 66 34 67 42 68 35 69
REMARK SMILES IDX 36 70 40 71 43 72 37 73 38 74 41 75 39 76 65 77 66 78 74 79
REMARK SMILES IDX 67 80 68 81 72 82 75 83 69 84 70 85 73 86 71 87 50 88 51 89
REMARK SMILES IDX 59 90 52 91 53 92 57 93 60 94 54 95 55 96 58 97 56 98
REMARK H PARENT 17 6 3 21 12 28 21 32 80 51 48 62
REMARK Flexibility Score: inf
ROOT
ATOM      1  C   UNL A   1      32.009  28.890  26.520  1.00  0.00     0.042 C 
ENDROOT
BRANCH   1   2
ATOM      2  C   UNL A   1      32.607  27.492  26.502  1.00  0.00     0.117 C 
BRANCH   2   3
ATOM      3  N   UNL A   1      31.634  26.456  26.798  1.00  0.00    -0.354 N 
ATOM      4  C   UNL A   1      31.504  25.182  26.336  1.00  0.00     0.242 C 
ATOM      5  O   UNL A   1      30.386  24.677  26.498  1.00  0.00    -0.273 OA
ATOM      6  H   UNL A   1      30.945  26.722  27.449  1.00  0.00     0.163 HD
BRANCH   4   7
ATOM      7  C   UNL A   1      32.600  24.392  25.567  1.00  0.00     0.177 C 
ATOM      8  N   UNL A   1      32.203  23.631  24.378  1.00  0.00    -0.326 N 
ATOM      9  C   UNL A   1      32.088  22.172  24.446  1.00  0.00     0.123 C 
ATOM     10  C   UNL A   1      32.371  21.470  25.790  1.00  0.00     0.053 C 
ATOM     11  C   UNL A   1      33.536  23.616  26.482  1.00  0.00     0.067 C 
ATOM     12  C   UNL A   1      32.914  22.316  26.939  1.00  0.00     0.118 C 
BRANCH   8  13
ATOM     13  C   UNL A   1      32.606  24.161  23.144  1.00  0.00     0.256 C 
ATOM     14  O   UNL A   1      33.064  23.461  22.245  1.00  0.00    -0.269 OA
BRANCH  13  15
ATOM     15  C   UNL A   1      32.493  25.619  22.929  1.00  0.00     0.064 A 
ATOM     16  C   UNL A   1      27.711  26.703  23.876  1.00  0.00     0.064 C 
ATOM     17  C   UNL A   1      29.145  26.912  23.551  1.00  0.00     0.016 A 
ATOM     18  N   UNL A   1      30.041  25.875  23.498  1.00  0.00    -0.358 N 
ATOM     19  C   UNL A   1      29.843  28.078  23.288  1.00  0.00    -0.023 A 
ATOM     20  C   UNL A   1      31.287  26.315  23.125  1.00  0.00     0.059 A 
ATOM     21  H   UNL A   1      29.818  24.937  23.699  1.00  0.00     0.166 HD
ATOM     22  C   UNL A   1      31.205  27.706  23.045  1.00  0.00     0.003 A 
ATOM     23  C   UNL A   1      29.294  29.462  23.287  1.00  0.00     0.047 C 
ATOM     24  C   UNL A   1      32.382  28.438  22.787  1.00  0.00     0.010 A 
ATOM     25  C   UNL A   1      33.653  26.375  22.702  1.00  0.00     0.016 A 
ATOM     26  C   UNL A   1      33.599  27.765  22.629  1.00  0.00     0.002 A 
ENDBRANCH  13  15
ENDBRANCH   8  13
BRANCH  12  27
ATOM     27  O   UNL A   1      31.868  22.577  27.871  1.00  0.00    -0.393 OA
ATOM     28  H   UNL A   1      31.754  21.810  28.454  1.00  0.00     0.210 HD
ENDBRANCH  12  27
ENDBRANCH   4   7
ENDBRANCH   2   3
ENDBRANCH   1   2
BRANCH   1  29
ATOM     29  C   UNL A   1      32.879  29.911  25.809  1.00  0.00     0.118 C 
BRANCH  29  30
ATOM     30  N   UNL A   1      32.704  31.265  26.323  1.00  0.00    -0.352 N 
ATOM     31  C   UNL A   1      33.392  31.974  27.276  1.00  0.00     0.251 C 
ATOM     32  H   UNL A   1      31.957  31.758  25.914  1.00  0.00     0.163 HD
ATOM     33  O   UNL A   1      32.958  33.059  27.659  1.00  0.00    -0.269 OA
BRANCH  31  34
ATOM     34  C   UNL A   1      34.626  31.427  27.873  1.00  0.00     0.039 A 
ATOM     35  C   UNL A   1      35.734  32.261  28.043  1.00  0.00     0.014 A 
ATOM     36  C   UNL A   1      34.690  30.095  28.275  1.00  0.00     0.014 A 
ATOM     37  C   UNL A   1      36.868  31.779  28.700  1.00  0.00     0.010 A 
ATOM     38  C   UNL A   1      35.753  29.662  29.050  1.00  0.00     0.010 A 
ATOM     39  C   UNL A   1      36.865  30.491  29.255  1.00  0.00    -0.014 A 
BRANCH  39  40
ATOM     40  C   UNL A   1      38.022  29.945  30.006  1.00  0.00     0.031 A 
ATOM     41  C   UNL A   1      38.248  30.388  31.428  1.00  0.00     0.074 A 
ATOM     42  C   UNL A   1      38.917  29.150  29.390  1.00  0.00     0.049 A 
ATOM     43  N   UNL A   1      39.283  30.198  32.204  1.00  0.00    -0.248 NA
ATOM     44  C   UNL A   1      37.187  31.208  32.038  1.00  0.00     0.031 C 
ATOM     45  C   UNL A   1      38.839  28.700  27.998  1.00  0.00     0.029 A 
ATOM     46  N   UNL A   1      40.080  28.590  29.853  1.00  0.00    -0.354 N 
ATOM     47  C   UNL A   1      39.019  30.918  33.363  1.00  0.00     0.074 A 
ATOM     48  C   UNL A   1      37.759  31.597  33.166  1.00  0.00     0.031 C 
ATOM     49  C   UNL A   1      39.892  27.911  27.731  1.00  0.00     0.029 A 
ATOM     50  C   UNL A   1      40.741  27.834  28.915  1.00  0.00     0.049 A 
ATOM     51  H   UNL A   1      40.412  28.719  30.771  1.00  0.00     0.167 HD
ATOM     52  C   UNL A   1      39.746  30.980  34.502  1.00  0.00     0.037 A 
ATOM     53  C   UNL A   1      41.903  27.161  29.006  1.00  0.00     0.037 A 
ATOM     54  C   UNL A   1      40.958  30.235  34.717  1.00  0.00     0.049 A 
ATOM     55  C   UNL A   1      42.661  27.192  30.305  1.00  0.00     0.074 A 
ATOM     56  C   UNL A   1      41.734  30.157  35.859  1.00  0.00     0.029 A 
ATOM     57  N   UNL A   1      41.555  29.421  33.766  1.00  0.00    -0.354 N 
ATOM     58  N   UNL A   1      42.379  27.835  31.413  1.00  0.00    -0.248 NA
ATOM     59  C   UNL A   1      43.896  26.399  30.370  1.00  0.00     0.031 C 
ATOM     60  C   UNL A   1      42.816  29.314  35.590  1.00  0.00     0.029 A 
ATOM     61  C   UNL A   1      42.693  28.836  34.295  1.00  0.00     0.049 A 
ATOM     62  H   UNL A   1      41.219  29.279  32.851  1.00  0.00     0.167 HD
ATOM     63  C   UNL A   1      43.379  27.501  32.314  1.00  0.00     0.074 A 
ATOM     64  C   UNL A   1      44.271  26.590  31.628  1.00  0.00     0.031 C 
ATOM     65  C   UNL A   1      43.548  27.913  33.595  1.00  0.00     0.037 A 
BRANCH  52  66
ATOM     66  C   UNL A   1      39.237  31.864  35.604  1.00  0.00     0.064 A 
ATOM     67  C   UNL A   1      39.612  33.213  35.700  1.00  0.00     0.173 A 
ATOM     68  C   UNL A   1      38.356  31.359  36.572  1.00  0.00     0.173 A 
ATOM     69  F   UNL A   1      40.464  33.742  34.809  1.00  0.00    -0.203 F 
ATOM     70  C   UNL A   1      39.158  34.012  36.746  1.00  0.00     0.198 A 
ATOM     71  C   UNL A   1      37.876  32.170  37.597  1.00  0.00     0.198 A 
ATOM     72  F   UNL A   1      37.960  30.079  36.525  1.00  0.00    -0.203 F 
ATOM     73  F   UNL A   1      39.584  35.278  36.852  1.00  0.00    -0.200 F 
ATOM     74  C   UNL A   1      38.286  33.492  37.690  1.00  0.00     0.200 A 
ATOM     75  F   UNL A   1      37.024  31.670  38.503  1.00  0.00    -0.200 F 
ATOM     76  F   UNL A   1      37.850  34.263  38.696  1.00  0.00    -0.200 F 
ENDBRANCH  52  66
BRANCH  53  77
ATOM     77  C   UNL A   1      42.396  26.368  27.850  1.00  0.00     0.064 A 
ATOM     78  C   UNL A   1      43.333  26.910  26.959  1.00  0.00     0.173 A 
ATOM     79  C   UNL A   1      41.950  25.060  27.611  1.00  0.00     0.173 A 
ATOM     80  F   UNL A   1      43.776  28.163  27.136  1.00  0.00    -0.203 F 
ATOM     81  C   UNL A   1      43.789  26.183  25.861  1.00  0.00     0.198 A 
ATOM     82  C   UNL A   1      42.425  24.324  26.527  1.00  0.00     0.198 A 
ATOM     83  F   UNL A   1      41.059  24.493  28.438  1.00  0.00    -0.203 F 
ATOM     84  F   UNL A   1      44.652  26.741  25.001  1.00  0.00    -0.200 F 
ATOM     85  C   UNL A   1      43.339  24.889  25.649  1.00  0.00     0.200 A 
ATOM     86  F   UNL A   1      42.000  23.068  26.334  1.00  0.00    -0.200 F 
ATOM     87  F   UNL A   1      43.780  24.188  24.596  1.00  0.00    -0.200 F 
ENDBRANCH  53  77
BRANCH  65  88
ATOM     88  C   UNL A   1      44.710  27.345  34.351  1.00  0.00     0.064 A 
ATOM     89  C   UNL A   1      45.960  27.978  34.361  1.00  0.00     0.173 A 
ATOM     90  C   UNL A   1      44.550  26.183  35.120  1.00  0.00     0.173 A 
ATOM     91  F   UNL A   1      46.164  29.083  33.628  1.00  0.00    -0.203 F 
ATOM     92  C   UNL A   1      47.016  27.455  35.102  1.00  0.00     0.198 A 
ATOM     93  C   UNL A   1      45.600  25.680  35.882  1.00  0.00     0.198 A 
ATOM     94  F   UNL A   1      43.369  25.546  35.148  1.00  0.00    -0.203 F 
ATOM     95  F   UNL A   1      48.215  28.055  35.069  1.00  0.00    -0.200 F 
ATOM     96  C   UNL A   1      46.833  26.314  35.868  1.00  0.00     0.200 A 
ATOM     97  F   UNL A   1      45.418  24.585  36.631  1.00  0.00    -0.200 F 
ATOM     98  F   UNL A   1      47.849  25.820  36.590  1.00  0.00    -0.200 F 
ENDBRANCH  65  88
ENDBRANCH  39  40
ENDBRANCH  31  34
ENDBRANCH  29  30
ENDBRANCH   1  29
TORSDOF 13
ENDMDL
MODEL 3
REMARK VINA RESULT:     -13.2      2.070      4.283
REMARK SMILES Cc1[nH]c2c(C(=O)N3CC[C@H](O)C[C@@H]3C(=O)NCCCNC(=O)c3ccc(-c4c5nc(c(-c6c(F)c(F)c(F)c(F)c6F)c6ccc([nH]6)c(-c6c(F)c(F)c(F)c(F)c6F)c6nc(c(-c7c(F)c(F)c(F)c(F)c7F)c7ccc4[nH]7)C=C6)C=C5)cc3)cccc2c1C
REMARK SMILES IDX 19 1 18 2 17 3 15 4 16 5 14 7 8 8 9 9 10 10 13 11 11 12 6 13
REMARK SMILES IDX 7 14 5 15 1 16 2 17 3 18 91 19 4 20 90 22 92 23 89 24 87 25
REMARK SMILES IDX 88 26 12 27 20 29 21 30 22 31 23 33 24 34 25 35 86 36 26 37
REMARK SMILES IDX 85 38 27 39 28 40 29 41 79 42 30 43 84 44 78 45 80 46 31 47
REMARK SMILES IDX 83 48 77 49 76 50 32 52 64 53 44 54 63 55 45 56 48 57 62 58
REMARK SMILES IDX 81 59 46 60 47 61 61 63 82 64 49 65 33 66 34 67 42 68 35 69
REMARK SMILES IDX 36 70 40 71 43 72 37 73 38 74 41 75 39 76 65 77 66 78 74 79
REMARK SMILES IDX 67 80 68 81 72 82 75 83 69 84 70 85 73 86 71 87 50 88 51 89
REMARK SMILES IDX 59 90 52 91 53 92 57 93 60 94 54 95 55 96 58 97 56 98
REMARK H PARENT 17 6 3 21 12 28 21 32 80 51 48 62
REMARK Flexibility Score: inf
ROOT
ATOM      1  C   UNL A   1      31.524  32.074  26.829  1.00  0.00     0.042 C 
ENDROOT
BRANCH   1   2
ATOM      2  C   UNL A   1      31.759  30.575  26.728  1.00  0.00     0.117 C 
BRANCH   2   3
ATOM      3  N   UNL A   1      32.625  30.211  25.622  1.00  0.00    -0.354 N 
ATOM      4  C   UNL A   1      32.680  29.092  24.850  1.00  0.00     0.242 C 
ATOM      5  O   UNL A   1      33.742  28.929  24.235  1.00  0.00    -0.273 OA
ATOM      6  H   UNL A   1      33.293  30.896  25.388  1.00  0.00     0.163 HD
BRANCH   4   7
ATOM      7  C   UNL A   1      31.572  28.003  24.771  1.00  0.00     0.177 C 
ATOM      8  N   UNL A   1      31.980  26.612  24.553  1.00  0.00    -0.326 N 
ATOM      9  C   UNL A   1      31.802  25.993  23.237  1.00  0.00     0.123 C 
ATOM     10  C   UNL A   1      31.203  26.840  22.095  1.00  0.00     0.053 C 
ATOM     11  C   UNL A   1      30.385  28.415  23.911  1.00  0.00     0.067 C 
ATOM     12  C   UNL A   1      30.676  28.232  22.439  1.00  0.00     0.118 C 
BRANCH   8  13
ATOM     13  C   UNL A   1      31.863  25.756  25.658  1.00  0.00     0.256 C 
ATOM     14  O   UNL A   1      31.589  26.165  26.782  1.00  0.00    -0.269 OA
BRANCH  13  15
ATOM     15  C   UNL A   1      32.100  24.310  25.460  1.00  0.00     0.064 A 
ATOM     16  C   UNL A   1      37.068  23.807  25.374  1.00  0.00     0.064 C 
ATOM     17  C   UNL A   1      35.632  23.425  25.374  1.00  0.00     0.016 A 
ATOM     18  N   UNL A   1      34.629  24.354  25.490  1.00  0.00    -0.358 N 
ATOM     19  C   UNL A   1      35.037  22.179  25.296  1.00  0.00    -0.023 A 
ATOM     20  C   UNL A   1      33.393  23.762  25.407  1.00  0.00     0.059 A 
ATOM     21  H   UNL A   1      34.777  25.320  25.615  1.00  0.00     0.166 HD
ATOM     22  C   UNL A   1      33.620  22.385  25.346  1.00  0.00     0.003 A 
ATOM     23  C   UNL A   1      35.732  20.865  25.211  1.00  0.00     0.047 C 
ATOM     24  C   UNL A   1      32.510  21.517  25.367  1.00  0.00     0.010 A 
ATOM     25  C   UNL A   1      31.016  23.421  25.509  1.00  0.00     0.016 A 
ATOM     26  C   UNL A   1      31.217  22.043  25.460  1.00  0.00     0.002 A 
ENDBRANCH  13  15
ENDBRANCH   8  13
BRANCH  12  27
ATOM     27  O   UNL A   1      31.611  29.215  22.000  1.00  0.00    -0.393 OA
ATOM     28  H   UNL A   1      32.027  29.632  22.771  1.00  0.00     0.210 HD
ENDBRANCH  12  27
ENDBRANCH   4   7
ENDBRANCH   2   3
ENDBRANCH   1   2
BRANCH   1  29
ATOM     29  C   UNL A   1      32.772  32.839  27.234  1.00  0.00     0.118 C 
BRANCH  29  30
ATOM     30  N   UNL A   1      32.492  34.212  27.639  1.00  0.00    -0.352 N 
ATOM     31  C   UNL A   1      33.025  34.997  28.630  1.00  0.00     0.251 C 
ATOM     32  H   UNL A   1      31.793  34.655  27.106  1.00  0.00     0.163 HD
ATOM     33  O   UNL A   1      32.514  36.085  28.887  1.00  0.00    -0.269 OA
BRANCH  31  34
ATOM     34  C   UNL A   1      34.182  34.527  29.417  1.00  0.00     0.039 A 
ATOM     35  C   UNL A   1      33.967  33.922  30.658  1.00  0.00     0.014 A 
ATOM     36  C   UNL A   1      35.478  34.673  28.931  1.00  0.00     0.014 A 
ATOM     37  C   UNL A   1      35.046  33.383  31.362  1.00  0.00     0.010 A 
ATOM     38  C   UNL A   1      36.525  34.015  29.555  1.00  0.00     0.010 A 
ATOM     39  C   UNL A   1      36.327  33.380  30.790  1.00  0.00    -0.014 A 
BRANCH  39  40
ATOM     40  C   UNL A   1      37.500  32.778  31.469  1.00  0.00     0.031 A 
ATOM     41  C   UNL A   1      38.234  31.646  30.798  1.00  0.00     0.074 A 
ATOM     42  C   UNL A   1      37.836  33.165  32.714  1.00  0.00     0.049 A 
ATOM     43  N   UNL A   1      39.152  30.849  31.280  1.00  0.00    -0.248 NA
ATOM     44  C   UNL A   1      37.836  31.332  29.415  1.00  0.00     0.031 C 
ATOM     45  C   UNL A   1      37.164  34.208  33.491  1.00  0.00     0.029 A 
ATOM     46  N   UNL A   1      38.822  32.711  33.553  1.00  0.00    -0.354 N 
ATOM     47  C   UNL A   1      39.396  29.914  30.281  1.00  0.00     0.074 A 
ATOM     48  C   UNL A   1      38.489  30.202  29.194  1.00  0.00     0.031 C 
ATOM     49  C   UNL A   1      37.776  34.335  34.680  1.00  0.00     0.029 A 
ATOM     50  C   UNL A   1      38.852  33.353  34.767  1.00  0.00     0.049 A 
ATOM     51  H   UNL A   1      39.448  31.992  33.309  1.00  0.00     0.167 HD
ATOM     52  C   UNL A   1      40.318  28.923  30.259  1.00  0.00     0.037 A 
ATOM     53  C   UNL A   1      39.657  33.165  35.828  1.00  0.00     0.037 A 
ATOM     54  C   UNL A   1      41.269  28.696  31.313  1.00  0.00     0.049 A 
ATOM     55  C   UNL A   1      40.718  32.100  35.755  1.00  0.00     0.074 A 
ATOM     56  C   UNL A   1      42.300  27.775  31.363  1.00  0.00     0.029 A 
ATOM     57  N   UNL A   1      41.315  29.419  32.496  1.00  0.00    -0.354 N 
ATOM     58  N   UNL A   1      40.975  31.253  34.788  1.00  0.00    -0.248 NA
ATOM     59  C   UNL A   1      41.606  31.968  36.918  1.00  0.00     0.031 C 
ATOM     60  C   UNL A   1      42.954  27.924  32.590  1.00  0.00     0.029 A 
ATOM     61  C   UNL A   1      42.356  28.963  33.286  1.00  0.00     0.049 A 
ATOM     62  H   UNL A   1      40.698  30.147  32.738  1.00  0.00     0.167 HD
ATOM     63  C   UNL A   1      42.068  30.511  35.209  1.00  0.00     0.074 A 
ATOM     64  C   UNL A   1      42.434  31.014  36.517  1.00  0.00     0.031 C 
ATOM     65  C   UNL A   1      42.712  29.500  34.574  1.00  0.00     0.037 A 
BRANCH  52  66
ATOM     66  C   UNL A   1      40.349  28.031  29.051  1.00  0.00     0.064 A 
ATOM     67  C   UNL A   1      41.117  28.347  27.920  1.00  0.00     0.173 A 
ATOM     68  C   UNL A   1      39.608  26.840  29.027  1.00  0.00     0.173 A 
ATOM     69  F   UNL A   1      41.832  29.482  27.886  1.00  0.00    -0.203 F 
ATOM     70  C   UNL A   1      41.109  27.528  26.795  1.00  0.00     0.198 A 
ATOM     71  C   UNL A   1      39.630  26.005  27.913  1.00  0.00     0.198 A 
ATOM     72  F   UNL A   1      38.860  26.486  30.083  1.00  0.00    -0.203 F 
ATOM     73  F   UNL A   1      41.799  27.887  25.704  1.00  0.00    -0.200 F 
ATOM     74  C   UNL A   1      40.371  26.355  26.794  1.00  0.00     0.200 A 
ATOM     75  F   UNL A   1      38.925  24.865  27.917  1.00  0.00    -0.200 F 
ATOM     76  F   UNL A   1      40.366  25.567  25.710  1.00  0.00    -0.200 F 
ENDBRANCH  52  66
BRANCH  53  77
ATOM     77  C   UNL A   1      39.522  34.030  37.030  1.00  0.00     0.064 A 
ATOM     78  C   UNL A   1      38.768  33.606  38.133  1.00  0.00     0.173 A 
ATOM     79  C   UNL A   1      40.139  35.286  37.105  1.00  0.00     0.173 A 
ATOM     80  F   UNL A   1      38.144  32.419  38.100  1.00  0.00    -0.203 F 
ATOM     81  C   UNL A   1      38.617  34.415  39.257  1.00  0.00     0.198 A 
ATOM     82  C   UNL A   1      40.010  36.084  38.240  1.00  0.00     0.198 A 
ATOM     83  F   UNL A   1      40.879  35.734  36.080  1.00  0.00    -0.203 F 
ATOM     84  F   UNL A   1      37.855  34.004  40.280  1.00  0.00    -0.200 F 
ATOM     85  C   UNL A   1      39.243  35.652  39.312  1.00  0.00     0.200 A 
ATOM     86  F   UNL A   1      40.628  37.271  38.297  1.00  0.00    -0.200 F 
ATOM     87  F   UNL A   1      39.102  36.428  40.395  1.00  0.00    -0.200 F 
ENDBRANCH  53  77
BRANCH  65  88
ATOM     88  C   UNL A   1      43.906  28.908  35.259  1.00  0.00     0.064 A 
ATOM     89  C   UNL A   1      43.781  27.842  36.160  1.00  0.00     0.173 A 
ATOM     90  C   UNL A   1      45.194  29.379  34.965  1.00  0.00     0.173 A 
ATOM     91  F   UNL A   1      42.568  27.369  36.484  1.00  0.00    -0.203 F 
ATOM     92  C   UNL A   1      44.906  27.279  36.756  1.00  0.00     0.198 A 
ATOM     93  C   UNL A   1      46.317  28.795  35.541  1.00  0.00     0.198 A 
ATOM     94  F   UNL A   1      45.363  30.393  34.102  1.00  0.00    -0.203 F 
ATOM     95  F   UNL A   1      44.762  26.284  37.644  1.00  0.00    -0.200 F 
ATOM     96  C   UNL A   1      46.172  27.749  36.440  1.00  0.00     0.200 A 
ATOM     97  F   UNL A   1      47.540  29.242  35.225  1.00  0.00    -0.200 F 
ATOM     98  F   UNL A   1      47.253  27.198  37.008  1.00  0.00    -0.200 F 
ENDBRANCH  65  88
ENDBRANCH  39  40
ENDBRANCH  31  34
ENDBRANCH  29  30
ENDBRANCH   1  29
TORSDOF 13
ENDMDL
