MODEL 1
REMARK VINA RESULT:     -13.1      0.000      0.000
REMARK SMILES O=C(C[C@@H]1CN(c2snc3ccccc23)CCO1)NCCCNC(=O)c1ccc(-c2c3nc(c(-c4c(F)c(F)c(F)c(F)c4F)c4ccc([nH]4)c(-c4c(F)c(F)c(F)c(F)c4F)c4nc(c(-c5c(F)c(F)c(F)c(F)c5F)c5ccc2[nH]5)C=C4)C=C3)cc1
REMARK SMILES IDX 21 1 20 2 19 3 1 4 2 5 3 7 4 8 5 9 18 10 6 11 17 12 16 13
REMARK SMILES IDX 7 14 8 15 15 16 9 17 10 18 14 19 11 20 13 21 12 22 22 23
REMARK SMILES IDX 23 24 24 25 25 27 26 28 27 29 88 30 28 31 87 32 29 33 30 34
REMARK SMILES IDX 31 35 81 36 32 37 86 38 80 39 82 40 33 41 85 42 79 43 78 44
REMARK SMILES IDX 34 46 66 47 46 48 65 49 47 50 50 51 64 52 83 53 48 54 49 55
REMARK SMILES IDX 63 57 84 58 51 59 35 60 36 61 44 62 37 63 38 64 42 65 45 66
REMARK SMILES IDX 39 67 40 68 43 69 41 70 67 71 68 72 76 73 69 74 70 75 74 76
REMARK SMILES IDX 77 77 71 78 72 79 75 80 73 81 52 82 53 83 61 84 54 85 55 86
REMARK SMILES IDX 59 87 62 88 56 89 57 90 60 91 58 92
REMARK H PARENT 19 6 23 26 82 45 50 56
REMARK Flexibility Score: inf
ROOT
ATOM      1  C   UNL A   1      31.832  30.456  26.465  1.00  0.00     0.042 C 
ENDROOT
BRANCH   1   2
ATOM      2  C   UNL A   1      31.539  29.766  25.137  1.00  0.00     0.117 C 
BRANCH   2   3
ATOM      3  N   UNL A   1      32.427  28.647  24.865  1.00  0.00    -0.356 N 
ATOM      4  O   UNL A   1      31.497  28.106  22.839  1.00  0.00    -0.275 OA
ATOM      5  C   UNL A   1      32.379  27.958  23.671  1.00  0.00     0.222 C 
ATOM      6  H   UNL A   1      33.079  28.375  25.552  1.00  0.00     0.163 HD
BRANCH   5   7
ATOM      7  C   UNL A   1      33.544  27.020  23.438  1.00  0.00     0.133 C 
BRANCH   7   8
ATOM      8  C   UNL A   1      33.607  25.845  24.421  1.00  0.00     0.147 C 
ATOM      9  C   UNL A   1      33.813  24.459  23.759  1.00  0.00     0.150 C 
ATOM     10  O   UNL A   1      32.384  25.850  25.202  1.00  0.00    -0.374 OA
ATOM     11  N   UNL A   1      33.802  23.434  24.804  1.00  0.00    -0.357 N 
ATOM     12  C   UNL A   1      32.396  24.822  26.214  1.00  0.00     0.182 C 
ATOM     13  C   UNL A   1      32.588  23.416  25.615  1.00  0.00     0.146 C 
BRANCH  11  14
ATOM     14  C   UNL A   1      34.811  22.530  24.962  1.00  0.00     0.120 A 
ATOM     15  S   UNL A   1      34.616  20.837  24.688  1.00  0.00    -0.018 S 
ATOM     16  C   UNL A   1      36.131  22.710  25.348  1.00  0.00     0.037 A 
ATOM     17  N   UNL A   1      36.172  20.388  24.999  1.00  0.00    -0.190 NA
ATOM     18  C   UNL A   1      36.894  21.451  25.362  1.00  0.00     0.086 A 
ATOM     19  C   UNL A   1      36.656  23.954  25.737  1.00  0.00     0.013 A 
ATOM     20  C   UNL A   1      38.253  21.455  25.750  1.00  0.00     0.030 A 
ATOM     21  C   UNL A   1      38.007  23.903  26.126  1.00  0.00     0.001 A 
ATOM     22  C   UNL A   1      38.776  22.709  26.125  1.00  0.00     0.002 A 
ENDBRANCH  11  14
ENDBRANCH   7   8
ENDBRANCH   5   7
ENDBRANCH   2   3
ENDBRANCH   1   2
BRANCH   1  23
ATOM     23  C   UNL A   1      33.304  30.440  26.874  1.00  0.00     0.118 C 
BRANCH  23  24
ATOM     24  N   UNL A   1      33.629  31.303  27.993  1.00  0.00    -0.352 N 
ATOM     25  C   UNL A   1      34.800  31.727  28.559  1.00  0.00     0.251 C 
ATOM     26  H   UNL A   1      32.832  31.662  28.445  1.00  0.00     0.163 HD
ATOM     27  O   UNL A   1      34.728  32.733  29.269  1.00  0.00    -0.269 OA
BRANCH  25  28
ATOM     28  C   UNL A   1      36.106  31.019  28.459  1.00  0.00     0.039 A 
ATOM     29  C   UNL A   1      36.281  29.706  28.033  1.00  0.00     0.014 A 
ATOM     30  C   UNL A   1      37.225  31.720  28.956  1.00  0.00     0.014 A 
ATOM     31  C   UNL A   1      37.505  29.071  28.213  1.00  0.00     0.010 A 
ATOM     32  C   UNL A   1      38.455  31.095  29.124  1.00  0.00     0.010 A 
ATOM     33  C   UNL A   1      38.577  29.749  28.806  1.00  0.00    -0.014 A 
BRANCH  33  34
ATOM     34  C   UNL A   1      39.814  29.004  29.008  1.00  0.00     0.031 A 
ATOM     35  C   UNL A   1      40.171  28.755  30.433  1.00  0.00     0.074 A 
ATOM     36  C   UNL A   1      40.590  28.531  28.013  1.00  0.00     0.049 A 
ATOM     37  N   UNL A   1      41.197  29.207  31.078  1.00  0.00    -0.248 NA
ATOM     38  C   UNL A   1      39.220  28.007  31.266  1.00  0.00     0.031 C 
ATOM     39  C   UNL A   1      40.308  28.452  26.580  1.00  0.00     0.029 A 
ATOM     40  N   UNL A   1      41.815  27.939  28.114  1.00  0.00    -0.354 N 
ATOM     41  C   UNL A   1      41.104  28.693  32.369  1.00  0.00     0.074 A 
ATOM     42  C   UNL A   1      39.818  28.052  32.459  1.00  0.00     0.031 C 
ATOM     43  C   UNL A   1      41.223  27.650  25.988  1.00  0.00     0.029 A 
ATOM     44  C   UNL A   1      42.227  27.274  26.970  1.00  0.00     0.049 A 
ATOM     45  H   UNL A   1      42.362  27.982  28.932  1.00  0.00     0.167 HD
ATOM     46  C   UNL A   1      42.173  28.697  33.214  1.00  0.00     0.037 A 
ATOM     47  C   UNL A   1      43.279  26.422  26.868  1.00  0.00     0.037 A 
ATOM     48  C   UNL A   1      43.169  29.647  32.798  1.00  0.00     0.049 A 
ATOM     49  C   UNL A   1      44.218  26.739  27.976  1.00  0.00     0.074 A 
ATOM     50  C   UNL A   1      43.175  31.018  32.620  1.00  0.00     0.029 A 
ATOM     51  N   UNL A   1      44.291  29.191  32.150  1.00  0.00    -0.354 N 
ATOM     52  N   UNL A   1      44.908  27.846  28.045  1.00  0.00    -0.248 NA
ATOM     53  C   UNL A   1      44.037  26.036  29.237  1.00  0.00     0.031 C 
ATOM     54  C   UNL A   1      43.973  31.232  31.459  1.00  0.00     0.029 A 
ATOM     55  C   UNL A   1      44.455  29.989  31.048  1.00  0.00     0.049 A 
ATOM     56  H   UNL A   1      44.865  28.439  32.425  1.00  0.00     0.167 HD
ATOM     57  C   UNL A   1      44.863  28.202  29.384  1.00  0.00     0.074 A 
ATOM     58  C   UNL A   1      44.380  27.012  30.082  1.00  0.00     0.031 C 
ATOM     59  C   UNL A   1      44.946  29.506  29.780  1.00  0.00     0.037 A 
BRANCH  46  60
ATOM     60  C   UNL A   1      42.461  27.626  34.235  1.00  0.00     0.064 A 
ATOM     61  C   UNL A   1      43.062  26.419  33.822  1.00  0.00     0.173 A 
ATOM     62  C   UNL A   1      41.896  27.614  35.527  1.00  0.00     0.173 A 
ATOM     63  F   UNL A   1      43.619  26.312  32.605  1.00  0.00    -0.203 F 
ATOM     64  C   UNL A   1      43.019  25.265  34.609  1.00  0.00     0.198 A 
ATOM     65  C   UNL A   1      41.901  26.474  36.330  1.00  0.00     0.198 A 
ATOM     66  F   UNL A   1      41.223  28.660  36.018  1.00  0.00    -0.203 F 
ATOM     67  F   UNL A   1      43.487  24.109  34.120  1.00  0.00    -0.200 F 
ATOM     68  C   UNL A   1      42.430  25.293  35.859  1.00  0.00     0.200 A 
ATOM     69  F   UNL A   1      41.311  26.516  37.533  1.00  0.00    -0.200 F 
ATOM     70  F   UNL A   1      42.328  24.173  36.587  1.00  0.00    -0.200 F 
ENDBRANCH  46  60
BRANCH  47  71
ATOM     71  C   UNL A   1      43.329  25.144  26.109  1.00  0.00     0.064 A 
ATOM     72  C   UNL A   1      44.378  24.865  25.216  1.00  0.00     0.173 A 
ATOM     73  C   UNL A   1      42.499  24.056  26.448  1.00  0.00     0.173 A 
ATOM     74  F   UNL A   1      45.251  25.825  24.879  1.00  0.00    -0.203 F 
ATOM     75  C   UNL A   1      44.590  23.577  24.708  1.00  0.00     0.198 A 
ATOM     76  C   UNL A   1      42.705  22.775  25.934  1.00  0.00     0.198 A 
ATOM     77  F   UNL A   1      41.525  24.187  27.358  1.00  0.00    -0.203 F 
ATOM     78  F   UNL A   1      45.636  23.337  23.906  1.00  0.00    -0.200 F 
ATOM     79  C   UNL A   1      43.757  22.531  25.074  1.00  0.00     0.200 A 
ATOM     80  F   UNL A   1      41.914  21.767  26.328  1.00  0.00    -0.200 F 
ATOM     81  F   UNL A   1      43.993  21.288  24.635  1.00  0.00    -0.200 F 
ENDBRANCH  47  71
BRANCH  59  82
ATOM     82  C   UNL A   1      45.309  30.551  28.763  1.00  0.00     0.064 A 
ATOM     83  C   UNL A   1      44.377  31.170  27.913  1.00  0.00     0.173 A 
ATOM     84  C   UNL A   1      46.605  31.088  28.797  1.00  0.00     0.173 A 
ATOM     85  F   UNL A   1      43.094  30.788  27.896  1.00  0.00    -0.203 F 
ATOM     86  C   UNL A   1      44.736  32.256  27.114  1.00  0.00     0.198 A 
ATOM     87  C   UNL A   1      46.950  32.195  28.028  1.00  0.00     0.198 A 
ATOM     88  F   UNL A   1      47.522  30.575  29.633  1.00  0.00    -0.203 F 
ATOM     89  F   UNL A   1      43.827  32.832  26.314  1.00  0.00    -0.200 F 
ATOM     90  C   UNL A   1      46.018  32.775  27.183  1.00  0.00     0.200 A 
ATOM     91  F   UNL A   1      48.176  32.727  28.139  1.00  0.00    -0.200 F 
ATOM     92  F   UNL A   1      46.348  33.855  26.460  1.00  0.00    -0.200 F 
ENDBRANCH  59  82
ENDBRANCH  33  34
ENDBRANCH  25  28
ENDBRANCH  23  24
ENDBRANCH   1  23
TORSDOF 12
ENDMDL
MODEL 2
REMARK VINA RESULT:     -13.1      4.369     10.252
REMARK SMILES O=C(C[C@@H]1CN(c2snc3ccccc23)CCO1)NCCCNC(=O)c1ccc(-c2c3nc(c(-c4c(F)c(F)c(F)c(F)c4F)c4ccc([nH]4)c(-c4c(F)c(F)c(F)c(F)c4F)c4nc(c(-c5c(F)c(F)c(F)c(F)c5F)c5ccc2[nH]5)C=C4)C=C3)cc1
REMARK SMILES IDX 21 1 20 2 19 3 1 4 2 5 3 7 4 8 5 9 18 10 6 11 17 12 16 13
REMARK SMILES IDX 7 14 8 15 15 16 9 17 10 18 14 19 11 20 13 21 12 22 22 23
REMARK SMILES IDX 23 24 24 25 25 27 26 28 27 29 88 30 28 31 87 32 29 33 30 34
REMARK SMILES IDX 31 35 81 36 32 37 86 38 80 39 82 40 33 41 85 42 79 43 78 44
REMARK SMILES IDX 34 46 66 47 46 48 65 49 47 50 50 51 64 52 83 53 48 54 49 55
REMARK SMILES IDX 63 57 84 58 51 59 35 60 36 61 44 62 37 63 38 64 42 65 45 66
REMARK SMILES IDX 39 67 40 68 43 69 41 70 67 71 68 72 76 73 69 74 70 75 74 76
REMARK SMILES IDX 77 77 71 78 72 79 75 80 73 81 52 82 53 83 61 84 54 85 55 86
REMARK SMILES IDX 59 87 62 88 56 89 57 90 60 91 58 92
REMARK H PARENT 19 6 23 26 82 45 50 56
REMARK Flexibility Score: inf
ROOT
ATOM      1  C   UNL A   1      41.895  19.412  27.425  1.00  0.00     0.042 C 
ENDROOT
BRANCH   1   2
ATOM      2  C   UNL A   1      42.750  18.859  26.290  1.00  0.00     0.117 C 
BRANCH   2   3
ATOM      3  N   UNL A   1      44.003  19.575  26.116  1.00  0.00    -0.356 N 
ATOM      4  O   UNL A   1      44.645  18.453  24.220  1.00  0.00    -0.275 OA
ATOM      5  C   UNL A   1      44.813  19.360  25.020  1.00  0.00     0.222 C 
ATOM      6  H   UNL A   1      44.281  20.229  26.799  1.00  0.00     0.163 HD
BRANCH   5   7
ATOM      7  C   UNL A   1      45.923  20.376  24.849  1.00  0.00     0.133 C 
BRANCH   7   8
ATOM      8  C   UNL A   1      45.449  21.833  24.884  1.00  0.00     0.147 C 
ATOM      9  C   UNL A   1      45.617  22.536  26.255  1.00  0.00     0.150 C 
ATOM     10  O   UNL A   1      44.056  21.858  24.475  1.00  0.00    -0.374 OA
ATOM     11  N   UNL A   1      45.078  23.893  26.155  1.00  0.00    -0.357 N 
ATOM     12  C   UNL A   1      43.550  23.208  24.399  1.00  0.00     0.182 C 
ATOM     13  C   UNL A   1      43.680  23.956  25.739  1.00  0.00     0.146 C 
BRANCH  11  14
ATOM     14  C   UNL A   1      45.802  25.000  26.488  1.00  0.00     0.120 A 
ATOM     15  S   UNL A   1      45.481  25.953  27.891  1.00  0.00    -0.018 S 
ATOM     16  C   UNL A   1      46.881  25.597  25.853  1.00  0.00     0.037 A 
ATOM     17  N   UNL A   1      46.710  27.037  27.701  1.00  0.00    -0.190 NA
ATOM     18  C   UNL A   1      47.383  26.776  26.578  1.00  0.00     0.086 A 
ATOM     19  C   UNL A   1      47.392  25.152  24.622  1.00  0.00     0.013 A 
ATOM     20  C   UNL A   1      48.471  27.514  26.056  1.00  0.00     0.030 A 
ATOM     21  C   UNL A   1      48.463  25.927  24.139  1.00  0.00     0.001 A 
ATOM     22  C   UNL A   1      48.987  27.052  24.829  1.00  0.00     0.002 A 
ENDBRANCH  11  14
ENDBRANCH   7   8
ENDBRANCH   5   7
ENDBRANCH   2   3
ENDBRANCH   1   2
BRANCH   1  23
ATOM     23  C   UNL A   1      41.666  20.922  27.366  1.00  0.00     0.118 C 
BRANCH  23  24
ATOM     24  N   UNL A   1      40.320  21.315  26.996  1.00  0.00    -0.352 N 
ATOM     25  C   UNL A   1      39.722  22.513  26.718  1.00  0.00     0.251 C 
ATOM     26  H   UNL A   1      39.702  20.552  26.930  1.00  0.00     0.163 HD
ATOM     27  O   UNL A   1      38.660  22.458  26.093  1.00  0.00    -0.269 OA
BRANCH  25  28
ATOM     28  C   UNL A   1      40.201  23.841  27.189  1.00  0.00     0.039 A 
ATOM     29  C   UNL A   1      41.154  24.048  28.183  1.00  0.00     0.014 A 
ATOM     30  C   UNL A   1      39.532  24.962  26.655  1.00  0.00     0.014 A 
ATOM     31  C   UNL A   1      41.344  25.320  28.714  1.00  0.00     0.010 A 
ATOM     32  C   UNL A   1      39.729  26.238  27.171  1.00  0.00     0.010 A 
ATOM     33  C   UNL A   1      40.594  26.405  28.244  1.00  0.00    -0.014 A 
BRANCH  33  34
ATOM     34  C   UNL A   1      40.812  27.698  28.883  1.00  0.00     0.031 A 
ATOM     35  C   UNL A   1      42.050  28.408  28.455  1.00  0.00     0.074 A 
ATOM     36  C   UNL A   1      39.971  28.258  29.774  1.00  0.00     0.049 A 
ATOM     37  N   UNL A   1      43.082  28.698  29.179  1.00  0.00    -0.248 NA
ATOM     38  C   UNL A   1      42.204  28.738  27.032  1.00  0.00     0.031 C 
ATOM     39  C   UNL A   1      38.614  27.856  30.143  1.00  0.00     0.029 A 
ATOM     40  N   UNL A   1      40.160  29.394  30.506  1.00  0.00    -0.354 N 
ATOM     41  C   UNL A   1      43.969  29.372  28.344  1.00  0.00     0.074 A 
ATOM     42  C   UNL A   1      43.426  29.274  27.014  1.00  0.00     0.031 C 
ATOM     43  C   UNL A   1      38.029  28.852  30.846  1.00  0.00     0.029 A 
ATOM     44  C   UNL A   1      39.010  29.897  31.093  1.00  0.00     0.049 A 
ATOM     45  H   UNL A   1      41.042  29.821  30.609  1.00  0.00     0.167 HD
ATOM     46  C   UNL A   1      45.004  30.102  28.847  1.00  0.00     0.037 A 
ATOM     47  C   UNL A   1      38.867  31.115  31.674  1.00  0.00     0.037 A 
ATOM     48  C   UNL A   1      45.307  29.721  30.200  1.00  0.00     0.049 A 
ATOM     49  C   UNL A   1      40.223  31.578  32.074  1.00  0.00     0.074 A 
ATOM     50  C   UNL A   1      45.712  28.543  30.800  1.00  0.00     0.029 A 
ATOM     51  N   UNL A   1      44.871  30.523  31.227  1.00  0.00    -0.354 N 
ATOM     52  N   UNL A   1      40.926  31.022  33.024  1.00  0.00    -0.248 NA
ATOM     53  C   UNL A   1      40.983  32.357  31.108  1.00  0.00     0.031 C 
ATOM     54  C   UNL A   1      45.012  28.506  32.041  1.00  0.00     0.029 A 
ATOM     55  C   UNL A   1      44.283  29.692  32.145  1.00  0.00     0.049 A 
ATOM     56  H   UNL A   1      44.964  31.501  31.291  1.00  0.00     0.167 HD
ATOM     57  C   UNL A   1      42.223  31.007  32.535  1.00  0.00     0.074 A 
ATOM     58  C   UNL A   1      42.210  31.911  31.385  1.00  0.00     0.031 C 
ATOM     59  C   UNL A   1      43.121  30.054  32.920  1.00  0.00     0.037 A 
BRANCH  46  60
ATOM     60  C   UNL A   1      45.536  31.370  28.230  1.00  0.00     0.064 A 
ATOM     61  C   UNL A   1      44.643  32.413  27.913  1.00  0.00     0.173 A 
ATOM     62  C   UNL A   1      46.822  31.475  27.661  1.00  0.00     0.173 A 
ATOM     63  F   UNL A   1      43.387  32.409  28.388  1.00  0.00    -0.203 F 
ATOM     64  C   UNL A   1      44.986  33.435  27.024  1.00  0.00     0.198 A 
ATOM     65  C   UNL A   1      47.177  32.524  26.814  1.00  0.00     0.198 A 
ATOM     66  F   UNL A   1      47.745  30.519  27.808  1.00  0.00    -0.203 F 
ATOM     67  F   UNL A   1      44.062  34.331  26.651  1.00  0.00    -0.200 F 
ATOM     68  C   UNL A   1      46.250  33.484  26.468  1.00  0.00     0.200 A 
ATOM     69  F   UNL A   1      48.403  32.545  26.273  1.00  0.00    -0.200 F 
ATOM     70  F   UNL A   1      46.561  34.422  25.564  1.00  0.00    -0.200 F 
ENDBRANCH  46  60
BRANCH  47  71
ATOM     71  C   UNL A   1      37.702  32.031  31.566  1.00  0.00     0.064 A 
ATOM     72  C   UNL A   1      37.373  32.657  30.352  1.00  0.00     0.173 A 
ATOM     73  C   UNL A   1      36.725  32.099  32.581  1.00  0.00     0.173 A 
ATOM     74  F   UNL A   1      38.218  32.598  29.312  1.00  0.00    -0.203 F 
ATOM     75  C   UNL A   1      36.141  33.295  30.161  1.00  0.00     0.198 A 
ATOM     76  C   UNL A   1      35.501  32.743  32.394  1.00  0.00     0.198 A 
ATOM     77  F   UNL A   1      36.895  31.461  33.747  1.00  0.00    -0.203 F 
ATOM     78  F   UNL A   1      35.839  33.828  28.969  1.00  0.00    -0.200 F 
ATOM     79  C   UNL A   1      35.203  33.330  31.180  1.00  0.00     0.200 A 
ATOM     80  F   UNL A   1      34.590  32.734  33.377  1.00  0.00    -0.200 F 
ATOM     81  F   UNL A   1      34.001  33.889  30.981  1.00  0.00    -0.200 F 
ENDBRANCH  47  71
BRANCH  59  82
ATOM     82  C   UNL A   1      42.764  29.139  34.056  1.00  0.00     0.064 A 
ATOM     83  C   UNL A   1      41.964  27.992  33.913  1.00  0.00     0.173 A 
ATOM     84  C   UNL A   1      43.423  29.314  35.282  1.00  0.00     0.173 A 
ATOM     85  F   UNL A   1      41.383  27.694  32.744  1.00  0.00    -0.203 F 
ATOM     86  C   UNL A   1      41.809  27.082  34.959  1.00  0.00     0.198 A 
ATOM     87  C   UNL A   1      43.298  28.385  36.311  1.00  0.00     0.198 A 
ATOM     88  F   UNL A   1      44.247  30.359  35.458  1.00  0.00    -0.203 F 
ATOM     89  F   UNL A   1      41.043  25.994  34.796  1.00  0.00    -0.200 F 
ATOM     90  C   UNL A   1      42.487  27.273  36.152  1.00  0.00     0.200 A 
ATOM     91  F   UNL A   1      43.999  28.546  37.442  1.00  0.00    -0.200 F 
ATOM     92  F   UNL A   1      42.386  26.369  37.136  1.00  0.00    -0.200 F 
ENDBRANCH  59  82
ENDBRANCH  33  34
ENDBRANCH  25  28
ENDBRANCH  23  24
ENDBRANCH   1  23
TORSDOF 12
ENDMDL
MODEL 3
REMARK VINA RESULT:     -13.1      3.227      8.906
REMARK SMILES O=C(C[C@@H]1CN(c2snc3ccccc23)CCO1)NCCCNC(=O)c1ccc(-c2c3nc(c(-c4c(F)c(F)c(F)c(F)c4F)c4ccc([nH]4)c(-c4c(F)c(F)c(F)c(F)c4F)c4nc(c(-c5c(F)c(F)c(F)c(F)c5F)c5ccc2[nH]5)C=C4)C=C3)cc1
REMARK SMILES IDX 21 1 20 2 19 3 1 4 2 5 3 7 4 8 5 9 18 10 6 11 17 12 16 13
REMARK SMILES IDX 7 14 8 15 15 16 9 17 10 18 14 19 11 20 13 21 12 22 22 23
REMARK SMILES IDX 23 24 24 25 25 27 26 28 27 29 88 30 28 31 87 32 29 33 30 34
REMARK SMILES IDX 31 35 81 36 32 37 86 38 80 39 82 40 33 41 85 42 79 43 78 44
REMARK SMILES IDX 34 46 66 47 46 48 65 49 47 50 50 51 64 52 83 53 48 54 49 55
REMARK SMILES IDX 63 57 84 58 51 59 35 60 36 61 44 62 37 63 38 64 42 65 45 66
REMARK SMILES IDX 39 67 40 68 43 69 41 70 67 71 68 72 76 73 69 74 70 75 74 76
REMARK SMILES IDX 77 77 71 78 72 79 75 80 73 81 52 82 53 83 61 84 54 85 55 86
REMARK SMILES IDX 59 87 62 88 56 89 57 90 60 91 58 92
REMARK H PARENT 19 6 23 26 82 45 50 56
REMARK Flexibility Score: inf
ROOT
ATOM      1  C   UNL A   1      38.063  22.225  25.623  1.00  0.00     0.042 C 
ENDROOT
BRANCH   1   2
ATOM      2  C   UNL A   1      37.316  21.351  24.621  1.00  0.00     0.117 C 
BRANCH   2   3
ATOM      3  N   UNL A   1      36.015  21.886  24.254  1.00  0.00    -0.356 N 
ATOM      4  O   UNL A   1      36.805  23.330  22.656  1.00  0.00    -0.275 OA
ATOM      5  C   UNL A   1      35.868  22.786  23.219  1.00  0.00     0.222 C 
ATOM      6  H   UNL A   1      35.218  21.599  24.758  1.00  0.00     0.163 HD
BRANCH   5   7
ATOM      7  C   UNL A   1      34.436  23.022  22.788  1.00  0.00     0.133 C 
BRANCH   7   8
ATOM      8  C   UNL A   1      33.570  23.715  23.846  1.00  0.00     0.147 C 
ATOM      9  C   UNL A   1      34.090  25.103  24.298  1.00  0.00     0.150 C 
ATOM     10  O   UNL A   1      33.461  22.825  24.987  1.00  0.00    -0.374 OA
ATOM     11  N   UNL A   1      33.202  25.620  25.340  1.00  0.00    -0.357 N 
ATOM     12  C   UNL A   1      32.590  23.367  26.002  1.00  0.00     0.182 C 
ATOM     13  C   UNL A   1      33.063  24.745  26.501  1.00  0.00     0.146 C 
BRANCH  11  14
ATOM     14  C   UNL A   1      32.608  26.845  25.262  1.00  0.00     0.120 A 
ATOM     15  S   UNL A   1      31.237  27.170  24.263  1.00  0.00    -0.018 S 
ATOM     16  C   UNL A   1      32.915  28.039  25.898  1.00  0.00     0.037 A 
ATOM     17  N   UNL A   1      31.033  28.751  24.686  1.00  0.00    -0.190 NA
ATOM     18  C   UNL A   1      31.986  29.125  25.544  1.00  0.00     0.086 A 
ATOM     19  C   UNL A   1      34.027  28.198  26.742  1.00  0.00     0.013 A 
ATOM     20  C   UNL A   1      32.168  30.415  26.092  1.00  0.00     0.030 A 
ATOM     21  C   UNL A   1      34.172  29.501  27.251  1.00  0.00     0.001 A 
ATOM     22  C   UNL A   1      33.278  30.562  26.948  1.00  0.00     0.002 A 
ENDBRANCH  11  14
ENDBRANCH   7   8
ENDBRANCH   5   7
ENDBRANCH   2   3
ENDBRANCH   1   2
BRANCH   1  23
ATOM     23  C   UNL A   1      39.249  21.537  26.299  1.00  0.00     0.118 C 
BRANCH  23  24
ATOM     24  N   UNL A   1      40.548  21.941  25.795  1.00  0.00    -0.352 N 
ATOM     25  C   UNL A   1      41.431  22.931  26.127  1.00  0.00     0.251 C 
ATOM     26  H   UNL A   1      40.863  21.378  25.052  1.00  0.00     0.163 HD
ATOM     27  O   UNL A   1      42.592  22.775  25.742  1.00  0.00    -0.269 OA
BRANCH  25  28
ATOM     28  C   UNL A   1      41.075  24.200  26.818  1.00  0.00     0.039 A 
ATOM     29  C   UNL A   1      40.093  25.096  26.404  1.00  0.00     0.014 A 
ATOM     30  C   UNL A   1      41.895  24.558  27.908  1.00  0.00     0.014 A 
ATOM     31  C   UNL A   1      40.015  26.360  26.980  1.00  0.00     0.010 A 
ATOM     32  C   UNL A   1      41.812  25.815  28.497  1.00  0.00     0.010 A 
ATOM     33  C   UNL A   1      40.908  26.738  27.990  1.00  0.00    -0.014 A 
BRANCH  33  34
ATOM     34  C   UNL A   1      40.798  28.096  28.510  1.00  0.00     0.031 A 
ATOM     35  C   UNL A   1      41.882  29.022  28.080  1.00  0.00     0.074 A 
ATOM     36  C   UNL A   1      39.794  28.532  29.296  1.00  0.00     0.049 A 
ATOM     37  N   UNL A   1      42.773  29.591  28.825  1.00  0.00    -0.248 NA
ATOM     38  C   UNL A   1      42.065  29.257  26.641  1.00  0.00     0.031 C 
ATOM     39  C   UNL A   1      38.532  27.874  29.631  1.00  0.00     0.029 A 
ATOM     40  N   UNL A   1      39.683  29.739  29.923  1.00  0.00    -0.354 N 
ATOM     41  C   UNL A   1      43.555  30.370  27.976  1.00  0.00     0.074 A 
ATOM     42  C   UNL A   1      43.143  30.044  26.634  1.00  0.00     0.031 C 
ATOM     43  C   UNL A   1      37.697  28.774  30.202  1.00  0.00     0.029 A 
ATOM     44  C   UNL A   1      38.412  30.025  30.396  1.00  0.00     0.049 A 
ATOM     45  H   UNL A   1      40.443  30.356  30.030  1.00  0.00     0.167 HD
ATOM     46  C   UNL A   1      44.370  31.349  28.458  1.00  0.00     0.037 A 
ATOM     47  C   UNL A   1      37.971  31.227  30.847  1.00  0.00     0.037 A 
ATOM     48  C   UNL A   1      44.650  31.160  29.856  1.00  0.00     0.049 A 
ATOM     49  C   UNL A   1      39.164  32.007  31.271  1.00  0.00     0.074 A 
ATOM     50  C   UNL A   1      45.252  30.154  30.589  1.00  0.00     0.029 A 
ATOM     51  N   UNL A   1      43.980  31.930  30.775  1.00  0.00    -0.354 N 
ATOM     52  N   UNL A   1      39.900  31.701  32.305  1.00  0.00    -0.248 NA
ATOM     53  C   UNL A   1      39.808  32.850  30.273  1.00  0.00     0.031 C 
ATOM     54  C   UNL A   1      44.489  30.069  31.789  1.00  0.00     0.029 A 
ATOM     55  C   UNL A   1      43.518  31.070  31.738  1.00  0.00     0.049 A 
ATOM     56  H   UNL A   1      43.856  32.906  30.748  1.00  0.00     0.167 HD
ATOM     57  C   UNL A   1      41.202  31.930  31.888  1.00  0.00     0.074 A 
ATOM     58  C   UNL A   1      41.079  32.709  30.657  1.00  0.00     0.031 C 
ATOM     59  C   UNL A   1      42.252  31.233  32.411  1.00  0.00     0.037 A 
BRANCH  46  60
ATOM     60  C   UNL A   1      44.663  32.647  27.748  1.00  0.00     0.064 A 
ATOM     61  C   UNL A   1      45.900  32.812  27.092  1.00  0.00     0.173 A 
ATOM     62  C   UNL A   1      43.917  33.826  27.950  1.00  0.00     0.173 A 
ATOM     63  F   UNL A   1      46.700  31.760  26.860  1.00  0.00    -0.203 F 
ATOM     64  C   UNL A   1      46.389  34.075  26.746  1.00  0.00     0.198 A 
ATOM     65  C   UNL A   1      44.387  35.079  27.557  1.00  0.00     0.198 A 
ATOM     66  F   UNL A   1      42.767  33.832  28.630  1.00  0.00    -0.203 F 
ATOM     67  F   UNL A   1      47.625  34.194  26.243  1.00  0.00    -0.200 F 
ATOM     68  C   UNL A   1      45.635  35.208  26.987  1.00  0.00     0.200 A 
ATOM     69  F   UNL A   1      43.648  36.167  27.813  1.00  0.00    -0.200 F 
ATOM     70  F   UNL A   1      46.128  36.423  26.718  1.00  0.00    -0.200 F 
ENDBRANCH  46  60
BRANCH  47  71
ATOM     71  C   UNL A   1      36.648  31.853  30.590  1.00  0.00     0.064 A 
ATOM     72  C   UNL A   1      35.862  32.359  31.639  1.00  0.00     0.173 A 
ATOM     73  C   UNL A   1      36.248  32.215  29.286  1.00  0.00     0.173 A 
ATOM     74  F   UNL A   1      36.197  32.113  32.913  1.00  0.00    -0.203 F 
ATOM     75  C   UNL A   1      34.757  33.187  31.399  1.00  0.00     0.198 A 
ATOM     76  C   UNL A   1      35.142  33.031  29.047  1.00  0.00     0.198 A 
ATOM     77  F   UNL A   1      36.976  31.862  28.218  1.00  0.00    -0.203 F 
ATOM     78  F   UNL A   1      34.068  33.700  32.427  1.00  0.00    -0.200 F 
ATOM     79  C   UNL A   1      34.403  33.528  30.103  1.00  0.00     0.200 A 
ATOM     80  F   UNL A   1      34.837  33.383  27.791  1.00  0.00    -0.200 F 
ATOM     81  F   UNL A   1      33.383  34.365  29.874  1.00  0.00    -0.200 F 
ENDBRANCH  47  71
BRANCH  59  82
ATOM     82  C   UNL A   1      42.018  30.361  33.612  1.00  0.00     0.064 A 
ATOM     83  C   UNL A   1      41.601  29.021  33.534  1.00  0.00     0.173 A 
ATOM     84  C   UNL A   1      42.428  30.834  34.867  1.00  0.00     0.173 A 
ATOM     85  F   UNL A   1      41.291  28.459  32.359  1.00  0.00    -0.203 F 
ATOM     86  C   UNL A   1      41.569  28.205  34.665  1.00  0.00     0.198 A 
ATOM     87  C   UNL A   1      42.432  30.008  35.987  1.00  0.00     0.198 A 
ATOM     88  F   UNL A   1      42.891  32.088  34.993  1.00  0.00    -0.203 F 
ATOM     89  F   UNL A   1      41.171  26.929  34.564  1.00  0.00    -0.200 F 
ATOM     90  C   UNL A   1      41.997  28.696  35.888  1.00  0.00     0.200 A 
ATOM     91  F   UNL A   1      42.899  30.472  37.155  1.00  0.00    -0.200 F 
ATOM     92  F   UNL A   1      42.024  27.897  36.963  1.00  0.00    -0.200 F 
ENDBRANCH  59  82
ENDBRANCH  33  34
ENDBRANCH  25  28
ENDBRANCH  23  24
ENDBRANCH   1  23
TORSDOF 12
ENDMDL
