MODEL 1
REMARK VINA RESULT:     -13.3      0.000      0.000
REMARK SMILES O=C(CN1C(=O)c2ccccc2C1=O)Nc1c(Br)cc(Br)cc1C(=O)NCCCNC(=O)c1ccc(-c2c3nc(c(-c4c(F)c(F)c(F)c(F)c4F)c4ccc([nH]4)c(-c4c(F)c(F)c(F)c(F)c4F)c4nc(c(-c5c(F)c(F)c(F)c(F)c5F)c5ccc2[nH]5)C=C4)C=C3)cc1
REMARK SMILES IDX 27 1 26 2 24 3 25 4 23 6 16 7 17 8 18 9 19 10 22 11 20 12
REMARK SMILES IDX 21 13 15 14 1 15 2 16 3 18 4 19 5 20 13 21 6 22 7 23 12 24
REMARK SMILES IDX 14 25 8 26 11 27 9 28 10 29 28 30 29 31 30 32 31 33 32 35
REMARK SMILES IDX 33 36 34 37 95 38 35 39 94 40 36 41 37 42 38 43 88 44 39 45
REMARK SMILES IDX 93 46 87 47 89 48 40 49 92 50 86 51 85 52 41 54 73 55 53 56
REMARK SMILES IDX 72 57 54 58 57 59 71 60 90 61 55 62 56 63 70 65 91 66 58 67
REMARK SMILES IDX 42 68 43 69 51 70 44 71 45 72 49 73 52 74 46 75 47 76 50 77
REMARK SMILES IDX 48 78 74 79 75 80 83 81 76 82 77 83 81 84 84 85 78 86 79 87
REMARK SMILES IDX 82 88 80 89 59 90 60 91 68 92 61 93 62 94 66 95 69 96 63 97
REMARK SMILES IDX 64 98 67 99 65 100
REMARK H PARENT 26 5 15 17 30 34 89 53 57 64
REMARK Flexibility Score: inf
ROOT
ATOM      1  C   UNL A   1      32.533  30.175  26.527  1.00  0.00     0.118 C 
ENDROOT
BRANCH   1   2
ATOM      2  N   UNL A   1      33.396  29.791  25.416  1.00  0.00    -0.352 N 
ATOM      3  C   UNL A   1      33.282  28.924  24.355  1.00  0.00     0.253 C 
ATOM      4  O   UNL A   1      34.226  28.917  23.560  1.00  0.00    -0.269 OA
ATOM      5  H   UNL A   1      34.260  30.263  25.429  1.00  0.00     0.163 HD
BRANCH   3   6
ATOM      6  C   UNL A   1      32.093  28.080  24.037  1.00  0.00     0.065 A 
ATOM      7  C   UNL A   1      32.061  26.687  23.838  1.00  0.00     0.068 A 
ATOM      8  C   UNL A   1      30.829  26.073  23.494  1.00  0.00     0.043 A 
ATOM      9  Br  UNL A   1      30.603  24.175  23.525  1.00  0.00    -0.048 Br
ATOM     10  C   UNL A   1      29.691  26.827  23.203  1.00  0.00     0.033 A 
ATOM     11  C   UNL A   1      30.937  28.829  23.700  1.00  0.00     0.031 A 
ATOM     12  C   UNL A   1      29.765  28.207  23.265  1.00  0.00     0.020 A 
ATOM     13  Br  UNL A   1      28.271  29.246  22.749  1.00  0.00    -0.051 Br
BRANCH   7  14
ATOM     14  N   UNL A   1      33.251  25.915  23.808  1.00  0.00    -0.323 N 
ATOM     15  O   UNL A   1      33.295  25.619  26.098  1.00  0.00    -0.273 OA
ATOM     16  C   UNL A   1      33.786  25.409  24.991  1.00  0.00     0.244 C 
ATOM     17  H   UNL A   1      33.698  25.736  22.949  1.00  0.00     0.170 HD
BRANCH  16  18
ATOM     18  C   UNL A   1      34.970  24.457  24.822  1.00  0.00     0.229 C 
BRANCH  18  19
ATOM     19  N   UNL A   1      34.494  23.093  24.671  1.00  0.00    -0.265 N 
ATOM     20  C   UNL A   1      33.997  22.607  23.501  1.00  0.00     0.262 C 
ATOM     21  C   UNL A   1      34.572  22.102  25.608  1.00  0.00     0.262 C 
ATOM     22  O   UNL A   1      33.976  23.159  22.421  1.00  0.00    -0.269 OA
ATOM     23  C   UNL A   1      33.449  21.286  23.802  1.00  0.00     0.053 A 
ATOM     24  C   UNL A   1      33.842  20.951  25.072  1.00  0.00     0.053 A 
ATOM     25  O   UNL A   1      35.103  22.115  26.703  1.00  0.00    -0.269 OA
ATOM     26  C   UNL A   1      32.567  20.490  23.104  1.00  0.00     0.015 A 
ATOM     27  C   UNL A   1      33.438  19.763  25.656  1.00  0.00     0.015 A 
ATOM     28  C   UNL A   1      32.153  19.280  23.646  1.00  0.00     0.001 A 
ATOM     29  C   UNL A   1      32.600  18.913  24.918  1.00  0.00     0.001 A 
ENDBRANCH  18  19
ENDBRANCH  16  18
ENDBRANCH   7  14
ENDBRANCH   3   6
ENDBRANCH   1   2
BRANCH   1  30
ATOM     30  C   UNL A   1      31.692  31.428  26.184  1.00  0.00     0.042 C 
BRANCH  30  31
ATOM     31  C   UNL A   1      31.552  32.528  27.265  1.00  0.00     0.118 C 
BRANCH  31  32
ATOM     32  N   UNL A   1      32.624  33.555  27.263  1.00  0.00    -0.352 N 
ATOM     33  C   UNL A   1      33.938  33.823  27.603  1.00  0.00     0.251 C 
ATOM     34  H   UNL A   1      32.252  34.372  26.857  1.00  0.00     0.163 HD
ATOM     35  O   UNL A   1      34.307  34.972  27.324  1.00  0.00    -0.269 OA
BRANCH  33  36
ATOM     36  C   UNL A   1      34.978  32.980  28.276  1.00  0.00     0.039 A 
ATOM     37  C   UNL A   1      36.286  33.493  28.366  1.00  0.00     0.014 A 
ATOM     38  C   UNL A   1      34.832  31.646  28.630  1.00  0.00     0.014 A 
ATOM     39  C   UNL A   1      37.356  32.751  28.928  1.00  0.00     0.010 A 
ATOM     40  C   UNL A   1      35.855  30.960  29.339  1.00  0.00     0.010 A 
ATOM     41  C   UNL A   1      37.147  31.492  29.510  1.00  0.00    -0.014 A 
BRANCH  41  42
ATOM     42  C   UNL A   1      38.241  30.740  30.257  1.00  0.00     0.031 A 
ATOM     43  C   UNL A   1      38.520  30.996  31.736  1.00  0.00     0.074 A 
ATOM     44  C   UNL A   1      39.077  29.884  29.616  1.00  0.00     0.049 A 
ATOM     45  N   UNL A   1      39.495  30.554  32.500  1.00  0.00    -0.248 NA
ATOM     46  C   UNL A   1      37.614  31.921  32.431  1.00  0.00     0.031 C 
ATOM     47  C   UNL A   1      39.037  29.570  28.188  1.00  0.00     0.029 A 
ATOM     48  N   UNL A   1      40.147  29.137  30.075  1.00  0.00    -0.354 N 
ATOM     49  C   UNL A   1      39.346  31.190  33.733  1.00  0.00     0.074 A 
ATOM     50  C   UNL A   1      38.236  32.105  33.586  1.00  0.00     0.031 C 
ATOM     51  C   UNL A   1      40.009  28.691  27.892  1.00  0.00     0.029 A 
ATOM     52  C   UNL A   1      40.778  28.395  29.097  1.00  0.00     0.049 A 
ATOM     53  H   UNL A   1      40.434  29.133  31.017  1.00  0.00     0.167 HD
ATOM     54  C   UNL A   1      40.029  31.013  34.894  1.00  0.00     0.037 A 
ATOM     55  C   UNL A   1      41.851  27.575  29.146  1.00  0.00     0.037 A 
ATOM     56  C   UNL A   1      41.085  30.049  35.082  1.00  0.00     0.049 A 
ATOM     57  C   UNL A   1      42.564  27.343  30.456  1.00  0.00     0.074 A 
ATOM     58  C   UNL A   1      41.748  29.711  36.251  1.00  0.00     0.029 A 
ATOM     59  N   UNL A   1      41.630  29.267  34.077  1.00  0.00    -0.354 N 
ATOM     60  N   UNL A   1      42.327  27.872  31.630  1.00  0.00    -0.248 NA
ATOM     61  C   UNL A   1      43.684  26.388  30.449  1.00  0.00     0.031 C 
ATOM     62  C   UNL A   1      42.732  28.765  35.943  1.00  0.00     0.029 A 
ATOM     63  C   UNL A   1      42.639  28.467  34.594  1.00  0.00     0.049 A 
ATOM     64  H   UNL A   1      41.344  29.277  33.135  1.00  0.00     0.167 HD
ATOM     65  C   UNL A   1      43.242  27.296  32.503  1.00  0.00     0.074 A 
ATOM     66  C   UNL A   1      44.029  26.361  31.729  1.00  0.00     0.031 C 
ATOM     67  C   UNL A   1      43.413  27.526  33.827  1.00  0.00     0.037 A 
BRANCH  54  68
ATOM     68  C   UNL A   1      39.641  31.859  36.084  1.00  0.00     0.064 A 
ATOM     69  C   UNL A   1      40.351  33.022  36.429  1.00  0.00     0.173 A 
ATOM     70  C   UNL A   1      38.514  31.537  36.858  1.00  0.00     0.173 A 
ATOM     71  F   UNL A   1      41.431  33.388  35.723  1.00  0.00    -0.203 F 
ATOM     72  C   UNL A   1      39.983  33.793  37.529  1.00  0.00     0.198 A 
ATOM     73  C   UNL A   1      38.123  32.336  37.933  1.00  0.00     0.198 A 
ATOM     74  F   UNL A   1      37.779  30.454  36.569  1.00  0.00    -0.203 F 
ATOM     75  F   UNL A   1      40.723  34.856  37.876  1.00  0.00    -0.200 F 
ATOM     76  C   UNL A   1      38.865  33.454  38.276  1.00  0.00     0.200 A 
ATOM     77  F   UNL A   1      37.027  32.020  38.638  1.00  0.00    -0.200 F 
ATOM     78  F   UNL A   1      38.509  34.203  39.329  1.00  0.00    -0.200 F 
ENDBRANCH  54  68
BRANCH  55  79
ATOM     79  C   UNL A   1      42.304  26.860  27.914  1.00  0.00     0.064 A 
ATOM     80  C   UNL A   1      43.225  27.455  27.038  1.00  0.00     0.173 A 
ATOM     81  C   UNL A   1      41.828  25.584  27.581  1.00  0.00     0.173 A 
ATOM     82  F   UNL A   1      43.688  28.687  27.291  1.00  0.00    -0.203 F 
ATOM     83  C   UNL A   1      43.639  26.810  25.873  1.00  0.00     0.198 A 
ATOM     84  C   UNL A   1      42.268  24.925  26.431  1.00  0.00     0.198 A 
ATOM     85  F   UNL A   1      40.944  24.968  28.380  1.00  0.00    -0.203 F 
ATOM     86  F   UNL A   1      44.483  27.425  25.032  1.00  0.00    -0.200 F 
ATOM     87  C   UNL A   1      43.167  25.541  25.575  1.00  0.00     0.200 A 
ATOM     88  F   UNL A   1      41.820  23.694  26.153  1.00  0.00    -0.200 F 
ATOM     89  F   UNL A   1      43.574  24.917  24.461  1.00  0.00    -0.200 F 
ENDBRANCH  55  79
BRANCH  67  90
ATOM     90  C   UNL A   1      44.465  26.732  34.550  1.00  0.00     0.064 A 
ATOM     91  C   UNL A   1      45.768  27.219  34.723  1.00  0.00     0.173 A 
ATOM     92  C   UNL A   1      44.145  25.495  35.132  1.00  0.00     0.173 A 
ATOM     93  F   UNL A   1      46.130  28.391  34.179  1.00  0.00    -0.203 F 
ATOM     94  C   UNL A   1      46.717  26.490  35.437  1.00  0.00     0.198 A 
ATOM     95  C   UNL A   1      45.087  24.784  35.871  1.00  0.00     0.198 A 
ATOM     96  F   UNL A   1      42.911  24.985  35.003  1.00  0.00    -0.203 F 
ATOM     97  F   UNL A   1      47.967  26.957  35.556  1.00  0.00    -0.200 F 
ATOM     98  C   UNL A   1      46.374  25.278  36.017  1.00  0.00     0.200 A 
ATOM     99  F   UNL A   1      44.747  23.622  36.446  1.00  0.00    -0.200 F 
ATOM    100  F   UNL A   1      47.284  24.586  36.717  1.00  0.00    -0.200 F 
ENDBRANCH  67  90
ENDBRANCH  41  42
ENDBRANCH  33  36
ENDBRANCH  31  32
ENDBRANCH  30  31
ENDBRANCH   1  30
TORSDOF 13
ENDMDL
MODEL 2
REMARK VINA RESULT:     -13.3      4.237     10.434
REMARK SMILES O=C(CN1C(=O)c2ccccc2C1=O)Nc1c(Br)cc(Br)cc1C(=O)NCCCNC(=O)c1ccc(-c2c3nc(c(-c4c(F)c(F)c(F)c(F)c4F)c4ccc([nH]4)c(-c4c(F)c(F)c(F)c(F)c4F)c4nc(c(-c5c(F)c(F)c(F)c(F)c5F)c5ccc2[nH]5)C=C4)C=C3)cc1
REMARK SMILES IDX 27 1 26 2 24 3 25 4 23 6 16 7 17 8 18 9 19 10 22 11 20 12
REMARK SMILES IDX 21 13 15 14 1 15 2 16 3 18 4 19 5 20 13 21 6 22 7 23 12 24
REMARK SMILES IDX 14 25 8 26 11 27 9 28 10 29 28 30 29 31 30 32 31 33 32 35
REMARK SMILES IDX 33 36 34 37 95 38 35 39 94 40 36 41 37 42 38 43 88 44 39 45
REMARK SMILES IDX 93 46 87 47 89 48 40 49 92 50 86 51 85 52 41 54 73 55 53 56
REMARK SMILES IDX 72 57 54 58 57 59 71 60 90 61 55 62 56 63 70 65 91 66 58 67
REMARK SMILES IDX 42 68 43 69 51 70 44 71 45 72 49 73 52 74 46 75 47 76 50 77
REMARK SMILES IDX 48 78 74 79 75 80 83 81 76 82 77 83 81 84 84 85 78 86 79 87
REMARK SMILES IDX 82 88 80 89 59 90 60 91 68 92 61 93 62 94 66 95 69 96 63 97
REMARK SMILES IDX 64 98 67 99 65 100
REMARK H PARENT 26 5 15 17 30 34 89 53 57 64
REMARK Flexibility Score: inf
ROOT
ATOM      1  C   UNL A   1      37.144  21.601  25.342  1.00  0.00     0.118 C 
ENDROOT
BRANCH   1   2
ATOM      2  N   UNL A   1      36.214  21.767  26.453  1.00  0.00    -0.352 N 
ATOM      3  C   UNL A   1      34.846  21.854  26.566  1.00  0.00     0.253 C 
ATOM      4  O   UNL A   1      34.403  21.926  27.717  1.00  0.00    -0.269 OA
ATOM      5  H   UNL A   1      36.671  21.829  27.323  1.00  0.00     0.163 HD
BRANCH   3   6
ATOM      6  C   UNL A   1      33.866  21.770  25.444  1.00  0.00     0.065 A 
ATOM      7  C   UNL A   1      32.965  22.765  25.019  1.00  0.00     0.068 A 
ATOM      8  C   UNL A   1      32.075  22.471  23.953  1.00  0.00     0.043 A 
ATOM      9  Br  UNL A   1      31.053  23.834  23.087  1.00  0.00    -0.048 Br
ATOM     10  C   UNL A   1      31.967  21.185  23.422  1.00  0.00     0.033 A 
ATOM     11  C   UNL A   1      33.713  20.462  24.917  1.00  0.00     0.031 A 
ATOM     12  C   UNL A   1      32.759  20.175  23.940  1.00  0.00     0.020 A 
ATOM     13  Br  UNL A   1      32.534  18.402  23.322  1.00  0.00    -0.051 Br
BRANCH   7  14
ATOM     14  N   UNL A   1      32.813  23.981  25.732  1.00  0.00    -0.323 N 
ATOM     15  O   UNL A   1      34.454  25.069  24.526  1.00  0.00    -0.273 OA
ATOM     16  C   UNL A   1      33.593  25.088  25.403  1.00  0.00     0.244 C 
ATOM     17  H   UNL A   1      32.153  24.043  26.461  1.00  0.00     0.170 HD
BRANCH  16  18
ATOM     18  C   UNL A   1      33.229  26.387  26.123  1.00  0.00     0.229 C 
BRANCH  18  19
ATOM     19  N   UNL A   1      32.192  27.089  25.386  1.00  0.00    -0.265 N 
ATOM     20  C   UNL A   1      30.874  26.762  25.468  1.00  0.00     0.262 C 
ATOM     21  C   UNL A   1      32.363  28.206  24.618  1.00  0.00     0.262 C 
ATOM     22  O   UNL A   1      30.357  25.955  26.213  1.00  0.00    -0.269 OA
ATOM     23  C   UNL A   1      30.188  27.551  24.447  1.00  0.00     0.053 A 
ATOM     24  C   UNL A   1      31.082  28.471  23.961  1.00  0.00     0.053 A 
ATOM     25  O   UNL A   1      33.362  28.880  24.448  1.00  0.00    -0.269 OA
ATOM     26  C   UNL A   1      28.943  27.408  23.875  1.00  0.00     0.015 A 
ATOM     27  C   UNL A   1      30.731  29.341  22.944  1.00  0.00     0.015 A 
ATOM     28  C   UNL A   1      28.545  28.274  22.865  1.00  0.00     0.001 A 
ATOM     29  C   UNL A   1      29.436  29.249  22.409  1.00  0.00     0.001 A 
ENDBRANCH  18  19
ENDBRANCH  16  18
ENDBRANCH   7  14
ENDBRANCH   3   6
ENDBRANCH   1   2
BRANCH   1  30
ATOM     30  C   UNL A   1      37.469  20.109  25.093  1.00  0.00     0.042 C 
BRANCH  30  31
ATOM     31  C   UNL A   1      38.951  19.713  24.884  1.00  0.00     0.118 C 
BRANCH  31  32
ATOM     32  N   UNL A   1      39.756  19.601  26.127  1.00  0.00    -0.352 N 
ATOM     33  C   UNL A   1      40.482  20.300  27.074  1.00  0.00     0.251 C 
ATOM     34  H   UNL A   1      39.782  18.649  26.378  1.00  0.00     0.163 HD
ATOM     35  O   UNL A   1      40.965  19.588  27.966  1.00  0.00    -0.269 OA
BRANCH  33  36
ATOM     36  C   UNL A   1      40.814  21.757  27.191  1.00  0.00     0.039 A 
ATOM     37  C   UNL A   1      41.693  22.153  28.216  1.00  0.00     0.014 A 
ATOM     38  C   UNL A   1      40.168  22.788  26.522  1.00  0.00     0.014 A 
ATOM     39  C   UNL A   1      42.022  23.513  28.451  1.00  0.00     0.010 A 
ATOM     40  C   UNL A   1      40.615  24.132  26.644  1.00  0.00     0.010 A 
ATOM     41  C   UNL A   1      41.555  24.535  27.610  1.00  0.00    -0.014 A 
BRANCH  41  42
ATOM     42  C   UNL A   1      42.015  25.981  27.742  1.00  0.00     0.031 A 
ATOM     43  C   UNL A   1      43.346  26.452  27.165  1.00  0.00     0.074 A 
ATOM     44  C   UNL A   1      41.305  26.886  28.462  1.00  0.00     0.049 A 
ATOM     45  N   UNL A   1      43.963  27.607  27.298  1.00  0.00    -0.248 NA
ATOM     46  C   UNL A   1      44.113  25.474  26.382  1.00  0.00     0.031 C 
ATOM     47  C   UNL A   1      40.053  26.614  29.170  1.00  0.00     0.029 A 
ATOM     48  N   UNL A   1      41.546  28.218  28.747  1.00  0.00    -0.354 N 
ATOM     49  C   UNL A   1      45.200  27.465  26.669  1.00  0.00     0.074 A 
ATOM     50  C   UNL A   1      45.275  26.091  26.227  1.00  0.00     0.031 C 
ATOM     51  C   UNL A   1      39.628  27.732  29.782  1.00  0.00     0.029 A 
ATOM     52  C   UNL A   1      40.590  28.806  29.550  1.00  0.00     0.049 A 
ATOM     53  H   UNL A   1      42.331  28.706  28.406  1.00  0.00     0.167 HD
ATOM     54  C   UNL A   1      46.172  28.387  26.439  1.00  0.00     0.037 A 
ATOM     55  C   UNL A   1      40.486  30.056  30.054  1.00  0.00     0.037 A 
ATOM     56  C   UNL A   1      46.081  29.779  26.802  1.00  0.00     0.049 A 
ATOM     57  C   UNL A   1      41.545  31.085  29.740  1.00  0.00     0.074 A 
ATOM     58  C   UNL A   1      46.956  30.810  26.500  1.00  0.00     0.029 A 
ATOM     59  N   UNL A   1      45.052  30.337  27.544  1.00  0.00    -0.354 N 
ATOM     60  N   UNL A   1      42.647  30.951  29.047  1.00  0.00    -0.248 NA
ATOM     61  C   UNL A   1      41.336  32.443  30.268  1.00  0.00     0.031 C 
ATOM     62  C   UNL A   1      46.486  31.980  27.106  1.00  0.00     0.029 A 
ATOM     63  C   UNL A   1      45.285  31.692  27.731  1.00  0.00     0.049 A 
ATOM     64  H   UNL A   1      44.271  29.846  27.887  1.00  0.00     0.167 HD
ATOM     65  C   UNL A   1      43.244  32.205  29.028  1.00  0.00     0.074 A 
ATOM     66  C   UNL A   1      42.375  33.096  29.765  1.00  0.00     0.031 C 
ATOM     67  C   UNL A   1      44.412  32.581  28.452  1.00  0.00     0.037 A 
BRANCH  54  68
ATOM     68  C   UNL A   1      47.425  27.936  25.726  1.00  0.00     0.064 A 
ATOM     69  C   UNL A   1      47.487  27.840  24.325  1.00  0.00     0.173 A 
ATOM     70  C   UNL A   1      48.597  27.647  26.445  1.00  0.00     0.173 A 
ATOM     71  F   UNL A   1      46.403  28.111  23.582  1.00  0.00    -0.203 F 
ATOM     72  C   UNL A   1      48.648  27.422  23.680  1.00  0.00     0.198 A 
ATOM     73  C   UNL A   1      49.771  27.270  25.792  1.00  0.00     0.198 A 
ATOM     74  F   UNL A   1      48.613  27.741  27.782  1.00  0.00    -0.203 F 
ATOM     75  F   UNL A   1      48.654  27.271  22.348  1.00  0.00    -0.200 F 
ATOM     76  C   UNL A   1      49.791  27.145  24.413  1.00  0.00     0.200 A 
ATOM     77  F   UNL A   1      50.883  27.028  26.501  1.00  0.00    -0.200 F 
ATOM     78  F   UNL A   1      50.910  26.750  23.788  1.00  0.00    -0.200 F 
ENDBRANCH  54  68
BRANCH  55  79
ATOM     79  C   UNL A   1      39.301  30.434  30.882  1.00  0.00     0.064 A 
ATOM     80  C   UNL A   1      38.163  31.001  30.290  1.00  0.00     0.173 A 
ATOM     81  C   UNL A   1      39.280  30.247  32.272  1.00  0.00     0.173 A 
ATOM     82  F   UNL A   1      38.142  31.231  28.969  1.00  0.00    -0.203 F 
ATOM     83  C   UNL A   1      37.060  31.380  31.053  1.00  0.00     0.198 A 
ATOM     84  C   UNL A   1      38.163  30.597  33.032  1.00  0.00     0.198 A 
ATOM     85  F   UNL A   1      40.341  29.711  32.893  1.00  0.00    -0.203 F 
ATOM     86  F   UNL A   1      36.007  31.964  30.463  1.00  0.00    -0.200 F 
ATOM     87  C   UNL A   1      37.057  31.170  32.424  1.00  0.00     0.200 A 
ATOM     88  F   UNL A   1      38.157  30.379  34.354  1.00  0.00    -0.200 F 
ATOM     89  F   UNL A   1      35.991  31.524  33.156  1.00  0.00    -0.200 F 
ENDBRANCH  55  79
BRANCH  67  90
ATOM     90  C   UNL A   1      44.814  34.026  28.554  1.00  0.00     0.064 A 
ATOM     91  C   UNL A   1      44.352  34.987  27.644  1.00  0.00     0.173 A 
ATOM     92  C   UNL A   1      45.622  34.464  29.616  1.00  0.00     0.173 A 
ATOM     93  F   UNL A   1      43.587  34.620  26.605  1.00  0.00    -0.203 F 
ATOM     94  C   UNL A   1      44.698  36.330  27.782  1.00  0.00     0.198 A 
ATOM     95  C   UNL A   1      45.940  35.811  29.768  1.00  0.00     0.198 A 
ATOM     96  F   UNL A   1      46.086  33.589  30.520  1.00  0.00    -0.203 F 
ATOM     97  F   UNL A   1      44.276  37.224  26.877  1.00  0.00    -0.200 F 
ATOM     98  C   UNL A   1      45.483  36.742  28.848  1.00  0.00     0.200 A 
ATOM     99  F   UNL A   1      46.684  36.210  30.810  1.00  0.00    -0.200 F 
ATOM    100  F   UNL A   1      45.801  38.037  28.988  1.00  0.00    -0.200 F 
ENDBRANCH  67  90
ENDBRANCH  41  42
ENDBRANCH  33  36
ENDBRANCH  31  32
ENDBRANCH  30  31
ENDBRANCH   1  30
TORSDOF 13
ENDMDL
MODEL 3
REMARK VINA RESULT:     -13.3      4.226     10.394
REMARK SMILES O=C(CN1C(=O)c2ccccc2C1=O)Nc1c(Br)cc(Br)cc1C(=O)NCCCNC(=O)c1ccc(-c2c3nc(c(-c4c(F)c(F)c(F)c(F)c4F)c4ccc([nH]4)c(-c4c(F)c(F)c(F)c(F)c4F)c4nc(c(-c5c(F)c(F)c(F)c(F)c5F)c5ccc2[nH]5)C=C4)C=C3)cc1
REMARK SMILES IDX 27 1 26 2 24 3 25 4 23 6 16 7 17 8 18 9 19 10 22 11 20 12
REMARK SMILES IDX 21 13 15 14 1 15 2 16 3 18 4 19 5 20 13 21 6 22 7 23 12 24
REMARK SMILES IDX 14 25 8 26 11 27 9 28 10 29 28 30 29 31 30 32 31 33 32 35
REMARK SMILES IDX 33 36 34 37 95 38 35 39 94 40 36 41 37 42 38 43 88 44 39 45
REMARK SMILES IDX 93 46 87 47 89 48 40 49 92 50 86 51 85 52 41 54 73 55 53 56
REMARK SMILES IDX 72 57 54 58 57 59 71 60 90 61 55 62 56 63 70 65 91 66 58 67
REMARK SMILES IDX 42 68 43 69 51 70 44 71 45 72 49 73 52 74 46 75 47 76 50 77
REMARK SMILES IDX 48 78 74 79 75 80 83 81 76 82 77 83 81 84 84 85 78 86 79 87
REMARK SMILES IDX 82 88 80 89 59 90 60 91 68 92 61 93 62 94 66 95 69 96 63 97
REMARK SMILES IDX 64 98 67 99 65 100
REMARK H PARENT 26 5 15 17 30 34 89 53 57 64
REMARK Flexibility Score: inf
ROOT
ATOM      1  C   UNL A   1      37.115  21.633  25.293  1.00  0.00     0.118 C 
ENDROOT
BRANCH   1   2
ATOM      2  N   UNL A   1      36.198  21.773  26.418  1.00  0.00    -0.352 N 
ATOM      3  C   UNL A   1      34.830  21.827  26.554  1.00  0.00     0.253 C 
ATOM      4  O   UNL A   1      34.404  21.886  27.711  1.00  0.00    -0.269 OA
ATOM      5  H   UNL A   1      36.667  21.845  27.282  1.00  0.00     0.163 HD
BRANCH   3   6
ATOM      6  C   UNL A   1      33.835  21.722  25.446  1.00  0.00     0.065 A 
ATOM      7  C   UNL A   1      32.901  22.694  25.041  1.00  0.00     0.068 A 
ATOM      8  C   UNL A   1      32.002  22.381  23.988  1.00  0.00     0.043 A 
ATOM      9  Br  UNL A   1      30.930  23.720  23.145  1.00  0.00    -0.048 Br
ATOM     10  C   UNL A   1      31.921  21.094  23.452  1.00  0.00     0.033 A 
ATOM     11  C   UNL A   1      33.710  20.413  24.916  1.00  0.00     0.031 A 
ATOM     12  C   UNL A   1      32.748  20.104  23.953  1.00  0.00     0.020 A 
ATOM     13  Br  UNL A   1      32.561  18.329  23.329  1.00  0.00    -0.051 Br
BRANCH   7  14
ATOM     14  N   UNL A   1      32.727  23.902  25.763  1.00  0.00    -0.323 N 
ATOM     15  O   UNL A   1      34.310  25.043  24.527  1.00  0.00    -0.273 OA
ATOM     16  C   UNL A   1      33.467  25.032  25.423  1.00  0.00     0.244 C 
ATOM     17  H   UNL A   1      32.081  23.941  26.505  1.00  0.00     0.170 HD
BRANCH  16  18
ATOM     18  C   UNL A   1      33.079  26.317  26.155  1.00  0.00     0.229 C 
BRANCH  18  19
ATOM     19  N   UNL A   1      32.035  27.011  25.421  1.00  0.00    -0.265 N 
ATOM     20  C   UNL A   1      30.724  26.654  25.482  1.00  0.00     0.262 C 
ATOM     21  C   UNL A   1      32.190  28.148  24.679  1.00  0.00     0.262 C 
ATOM     22  O   UNL A   1      30.218  25.821  26.204  1.00  0.00    -0.269 OA
ATOM     23  C   UNL A   1      30.032  27.449  24.470  1.00  0.00     0.053 A 
ATOM     24  C   UNL A   1      30.910  28.398  24.013  1.00  0.00     0.053 A 
ATOM     25  O   UNL A   1      33.175  28.848  24.534  1.00  0.00    -0.269 OA
ATOM     26  C   UNL A   1      28.796  27.291  23.881  1.00  0.00     0.015 A 
ATOM     27  C   UNL A   1      30.550  29.281  23.010  1.00  0.00     0.015 A 
ATOM     28  C   UNL A   1      28.389  28.169  22.885  1.00  0.00     0.001 A 
ATOM     29  C   UNL A   1      29.264  29.172  22.460  1.00  0.00     0.001 A 
ENDBRANCH  18  19
ENDBRANCH  16  18
ENDBRANCH   7  14
ENDBRANCH   3   6
ENDBRANCH   1   2
BRANCH   1  30
ATOM     30  C   UNL A   1      37.458  20.148  25.024  1.00  0.00     0.042 C 
BRANCH  30  31
ATOM     31  C   UNL A   1      38.946  19.768  24.838  1.00  0.00     0.118 C 
BRANCH  31  32
ATOM     32  N   UNL A   1      39.726  19.638  26.096  1.00  0.00    -0.352 N 
ATOM     33  C   UNL A   1      40.438  20.322  27.064  1.00  0.00     0.251 C 
ATOM     34  H   UNL A   1      39.743  18.683  26.337  1.00  0.00     0.163 HD
ATOM     35  O   UNL A   1      40.899  19.598  27.957  1.00  0.00    -0.269 OA
BRANCH  33  36
ATOM     36  C   UNL A   1      40.775  21.776  27.203  1.00  0.00     0.039 A 
ATOM     37  C   UNL A   1      41.731  22.142  28.170  1.00  0.00     0.014 A 
ATOM     38  C   UNL A   1      40.077  22.826  26.622  1.00  0.00     0.014 A 
ATOM     39  C   UNL A   1      42.075  23.495  28.424  1.00  0.00     0.010 A 
ATOM     40  C   UNL A   1      40.530  24.167  26.753  1.00  0.00     0.010 A 
ATOM     41  C   UNL A   1      41.542  24.542  27.657  1.00  0.00    -0.014 A 
BRANCH  41  42
ATOM     42  C   UNL A   1      42.008  25.984  27.801  1.00  0.00     0.031 A 
ATOM     43  C   UNL A   1      43.345  26.453  27.236  1.00  0.00     0.074 A 
ATOM     44  C   UNL A   1      41.297  26.889  28.522  1.00  0.00     0.049 A 
ATOM     45  N   UNL A   1      43.967  27.604  27.380  1.00  0.00    -0.248 NA
ATOM     46  C   UNL A   1      44.113  25.476  26.452  1.00  0.00     0.031 C 
ATOM     47  C   UNL A   1      40.039  26.619  29.219  1.00  0.00     0.029 A 
ATOM     48  N   UNL A   1      41.543  28.218  28.817  1.00  0.00    -0.354 N 
ATOM     49  C   UNL A   1      45.208  27.459  26.760  1.00  0.00     0.074 A 
ATOM     50  C   UNL A   1      45.279  26.088  26.309  1.00  0.00     0.031 C 
ATOM     51  C   UNL A   1      39.616  27.735  29.835  1.00  0.00     0.029 A 
ATOM     52  C   UNL A   1      40.584  28.805  29.616  1.00  0.00     0.049 A 
ATOM     53  H   UNL A   1      42.333  28.704  28.484  1.00  0.00     0.167 HD
ATOM     54  C   UNL A   1      46.186  28.377  26.542  1.00  0.00     0.037 A 
ATOM     55  C   UNL A   1      40.483  30.053  30.127  1.00  0.00     0.037 A 
ATOM     56  C   UNL A   1      46.099  29.768  26.913  1.00  0.00     0.049 A 
ATOM     57  C   UNL A   1      41.549  31.078  29.828  1.00  0.00     0.074 A 
ATOM     58  C   UNL A   1      46.982  30.796  26.623  1.00  0.00     0.029 A 
ATOM     59  N   UNL A   1      45.069  30.326  27.651  1.00  0.00    -0.354 N 
ATOM     60  N   UNL A   1      42.656  30.943  29.141  1.00  0.00    -0.248 NA
ATOM     61  C   UNL A   1      41.343  32.434  30.362  1.00  0.00     0.031 C 
ATOM     62  C   UNL A   1      46.513  31.965  27.233  1.00  0.00     0.029 A 
ATOM     63  C   UNL A   1      45.307  31.679  27.849  1.00  0.00     0.049 A 
ATOM     64  H   UNL A   1      44.282  29.837  27.986  1.00  0.00     0.167 HD
ATOM     65  C   UNL A   1      43.260  32.195  29.134  1.00  0.00     0.074 A 
ATOM     66  C   UNL A   1      42.389  33.085  29.871  1.00  0.00     0.031 C 
ATOM     67  C   UNL A   1      44.433  32.568  28.569  1.00  0.00     0.037 A 
BRANCH  54  68
ATOM     68  C   UNL A   1      47.441  27.924  25.835  1.00  0.00     0.064 A 
ATOM     69  C   UNL A   1      48.596  27.549  26.542  1.00  0.00     0.173 A 
ATOM     70  C   UNL A   1      47.478  27.811  24.435  1.00  0.00     0.173 A 
ATOM     71  F   UNL A   1      48.621  27.626  27.882  1.00  0.00    -0.203 F 
ATOM     72  C   UNL A   1      49.748  27.134  25.879  1.00  0.00     0.198 A 
ATOM     73  C   UNL A   1      48.619  27.353  23.776  1.00  0.00     0.198 A 
ATOM     74  F   UNL A   1      46.402  28.131  23.700  1.00  0.00    -0.203 F 
ATOM     75  F   UNL A   1      50.856  26.851  26.577  1.00  0.00    -0.200 F 
ATOM     76  C   UNL A   1      49.756  27.029  24.496  1.00  0.00     0.200 A 
ATOM     77  F   UNL A   1      48.616  27.228  22.441  1.00  0.00    -0.200 F 
ATOM     78  F   UNL A   1      50.864  26.621  23.860  1.00  0.00    -0.200 F 
ENDBRANCH  54  68
BRANCH  55  79
ATOM     79  C   UNL A   1      39.295  30.432  30.950  1.00  0.00     0.064 A 
ATOM     80  C   UNL A   1      38.151  30.980  30.348  1.00  0.00     0.173 A 
ATOM     81  C   UNL A   1      39.275  30.265  32.342  1.00  0.00     0.173 A 
ATOM     82  F   UNL A   1      38.129  31.191  29.024  1.00  0.00    -0.203 F 
ATOM     83  C   UNL A   1      37.044  31.360  31.106  1.00  0.00     0.198 A 
ATOM     84  C   UNL A   1      38.153  30.615  33.096  1.00  0.00     0.198 A 
ATOM     85  F   UNL A   1      40.340  29.748  32.971  1.00  0.00    -0.203 F 
ATOM     86  F   UNL A   1      35.986  31.925  30.507  1.00  0.00    -0.200 F 
ATOM     87  C   UNL A   1      37.042  31.169  32.479  1.00  0.00     0.200 A 
ATOM     88  F   UNL A   1      38.149  30.417  34.421  1.00  0.00    -0.200 F 
ATOM     89  F   UNL A   1      35.973  31.523  33.206  1.00  0.00    -0.200 F 
ENDBRANCH  55  79
BRANCH  67  90
ATOM     90  C   UNL A   1      44.842  34.010  28.683  1.00  0.00     0.064 A 
ATOM     91  C   UNL A   1      44.407  34.976  27.763  1.00  0.00     0.173 A 
ATOM     92  C   UNL A   1      45.627  34.442  29.764  1.00  0.00     0.173 A 
ATOM     93  F   UNL A   1      43.664  34.615  26.706  1.00  0.00    -0.203 F 
ATOM     94  C   UNL A   1      44.758  36.316  27.912  1.00  0.00     0.198 A 
ATOM     95  C   UNL A   1      45.949  35.786  29.926  1.00  0.00     0.198 A 
ATOM     96  F   UNL A   1      46.064  33.562  30.677  1.00  0.00    -0.203 F 
ATOM     97  F   UNL A   1      44.363  37.214  26.999  1.00  0.00    -0.200 F 
ATOM     98  C   UNL A   1      45.520  36.722  28.997  1.00  0.00     0.200 A 
ATOM     99  F   UNL A   1      46.671  36.179  30.985  1.00  0.00    -0.200 F 
ATOM    100  F   UNL A   1      45.843  38.015  29.146  1.00  0.00    -0.200 F 
ENDBRANCH  67  90
ENDBRANCH  41  42
ENDBRANCH  33  36
ENDBRANCH  31  32
ENDBRANCH  30  31
ENDBRANCH   1  30
TORSDOF 13
ENDMDL
