MODEL 1
REMARK VINA RESULT:     -13.6      0.000      0.000
REMARK SMILES O=C(NCCCNC(=O)c1ccc(-c2c3nc(c(-c4c(F)c(F)c(F)c(F)c4F)c4ccc([nH]4)c(-c4c(F)c(F)c(F)c(F)c4F)c4nc(c(-c5c(F)c(F)c(F)c(F)c5F)c5ccc2[nH]5)C=C4)C=C3)cc1)C1=Cc2c(ccc(Cl)c2Sc2ccccc2)O[C@H]1C(F)(F)F
REMARK SMILES IDX 5 1 4 2 3 3 1 4 2 5 73 7 74 8 90 9 75 10 89 11 76 12 81 13
REMARK SMILES IDX 77 14 79 15 78 16 80 17 91 18 92 19 93 20 94 21 82 22 83 23
REMARK SMILES IDX 84 24 88 25 85 26 87 27 86 28 6 29 7 30 8 31 9 33 10 34
REMARK SMILES IDX 11 35 72 36 12 37 71 38 13 39 14 40 15 41 65 42 16 43 70 44
REMARK SMILES IDX 64 45 66 46 17 47 69 48 63 49 62 50 18 52 50 53 30 54 49 55
REMARK SMILES IDX 31 56 34 57 48 58 67 59 32 60 33 61 47 63 68 64 35 65 19 66
REMARK SMILES IDX 20 67 28 68 21 69 22 70 26 71 29 72 23 73 24 74 27 75 25 76
REMARK SMILES IDX 51 77 52 78 60 79 53 80 54 81 58 82 61 83 55 84 56 85 59 86
REMARK SMILES IDX 57 87 36 88 37 89 45 90 38 91 39 92 43 93 46 94 40 95 41 96
REMARK SMILES IDX 44 97 42 98
REMARK H PARENT 3 6 7 32 66 51 34 62
REMARK Flexibility Score: inf
ROOT
ATOM      1  C   UNL A   1      31.770  28.702  26.599  1.00  0.00     0.042 C 
ENDROOT
BRANCH   1   2
ATOM      2  C   UNL A   1      32.487  27.372  26.759  1.00  0.00     0.118 C 
BRANCH   2   3
ATOM      3  N   UNL A   1      31.579  26.247  26.883  1.00  0.00    -0.352 N 
ATOM      4  O   UNL A   1      30.735  24.190  26.621  1.00  0.00    -0.270 OA
ATOM      5  C   UNL A   1      31.695  24.946  26.501  1.00  0.00     0.251 C 
ATOM      6  H   UNL A   1      30.726  26.463  27.323  1.00  0.00     0.163 HD
BRANCH   5   7
ATOM      7  C   UNL A   1      32.934  24.435  25.894  1.00  0.00     0.067 C 
ATOM      8  C   UNL A   1      33.668  25.158  25.041  1.00  0.00     0.026 C 
ATOM      9  C   UNL A   1      33.272  22.993  26.052  1.00  0.00     0.314 C 
ATOM     10  C   UNL A   1      33.569  24.585  23.678  1.00  0.00     0.033 A 
ATOM     11  O   UNL A   1      33.453  22.357  24.743  1.00  0.00    -0.475 OA
ATOM     12  C   UNL A   1      33.411  23.175  23.628  1.00  0.00     0.129 A 
ATOM     13  C   UNL A   1      33.391  25.402  22.527  1.00  0.00     0.042 A 
ATOM     14  C   UNL A   1      33.066  22.556  22.436  1.00  0.00     0.049 A 
ATOM     15  C   UNL A   1      32.978  24.737  21.349  1.00  0.00     0.055 A 
ATOM     16  C   UNL A   1      32.821  23.339  21.309  1.00  0.00     0.025 A 
ATOM     17  Cl  UNL A   1      32.527  25.580  19.899  1.00  0.00    -0.083 Cl
BRANCH   9  18
ATOM     18  C   UNL A   1      34.516  22.803  26.940  1.00  0.00     0.429 C 
ATOM     19  F   UNL A   1      35.069  21.574  26.800  1.00  0.00    -0.167 F 
ATOM     20  F   UNL A   1      35.478  23.706  26.636  1.00  0.00    -0.167 F 
ATOM     21  F   UNL A   1      34.222  22.952  28.256  1.00  0.00    -0.167 F 
ENDBRANCH   9  18
BRANCH  13  22
ATOM     22  S   UNL A   1      33.436  27.228  22.519  1.00  0.00    -0.088 SA
BRANCH  22  23
ATOM     23  C   UNL A   1      31.787  27.787  22.888  1.00  0.00     0.012 A 
ATOM     24  C   UNL A   1      31.386  29.077  22.506  1.00  0.00     0.015 A 
ATOM     25  C   UNL A   1      30.847  26.909  23.440  1.00  0.00     0.015 A 
ATOM     26  C   UNL A   1      30.037  29.437  22.562  1.00  0.00     0.001 A 
ATOM     27  C   UNL A   1      29.501  27.276  23.502  1.00  0.00     0.001 A 
ATOM     28  C   UNL A   1      29.093  28.528  23.040  1.00  0.00     0.000 A 
ENDBRANCH  22  23
ENDBRANCH  13  22
ENDBRANCH   5   7
ENDBRANCH   2   3
ENDBRANCH   1   2
BRANCH   1  29
ATOM     29  C   UNL A   1      32.648  29.748  25.933  1.00  0.00     0.118 C 
BRANCH  29  30
ATOM     30  N   UNL A   1      32.476  31.101  26.456  1.00  0.00    -0.352 N 
ATOM     31  C   UNL A   1      33.291  31.859  27.266  1.00  0.00     0.251 C 
ATOM     32  H   UNL A   1      31.640  31.544  26.184  1.00  0.00     0.163 HD
ATOM     33  O   UNL A   1      32.924  32.976  27.625  1.00  0.00    -0.269 OA
BRANCH  31  34
ATOM     34  C   UNL A   1      34.577  31.319  27.761  1.00  0.00     0.039 A 
ATOM     35  C   UNL A   1      35.633  32.204  28.010  1.00  0.00     0.014 A 
ATOM     36  C   UNL A   1      34.738  29.962  28.027  1.00  0.00     0.014 A 
ATOM     37  C   UNL A   1      36.797  31.738  28.628  1.00  0.00     0.010 A 
ATOM     38  C   UNL A   1      35.828  29.531  28.769  1.00  0.00     0.010 A 
ATOM     39  C   UNL A   1      36.877  30.410  29.074  1.00  0.00    -0.014 A 
BRANCH  39  40
ATOM     40  C   UNL A   1      38.041  29.902  29.844  1.00  0.00     0.031 A 
ATOM     41  C   UNL A   1      38.266  30.376  31.257  1.00  0.00     0.074 A 
ATOM     42  C   UNL A   1      38.948  29.104  29.245  1.00  0.00     0.049 A 
ATOM     43  N   UNL A   1      39.291  30.177  32.047  1.00  0.00    -0.248 NA
ATOM     44  C   UNL A   1      37.223  31.234  31.841  1.00  0.00     0.031 C 
ATOM     45  C   UNL A   1      38.885  28.636  27.858  1.00  0.00     0.029 A 
ATOM     46  N   UNL A   1      40.112  28.554  29.723  1.00  0.00    -0.354 N 
ATOM     47  C   UNL A   1      39.031  30.918  33.193  1.00  0.00     0.074 A 
ATOM     48  C   UNL A   1      37.790  31.623  32.973  1.00  0.00     0.031 C 
ATOM     49  C   UNL A   1      39.940  27.845  27.609  1.00  0.00     0.029 A 
ATOM     50  C   UNL A   1      40.780  27.785  28.800  1.00  0.00     0.049 A 
ATOM     51  H   UNL A   1      40.439  28.698  30.641  1.00  0.00     0.167 HD
ATOM     52  C   UNL A   1      39.745  30.976  34.341  1.00  0.00     0.037 A 
ATOM     53  C   UNL A   1      41.942  27.113  28.904  1.00  0.00     0.037 A 
ATOM     54  C   UNL A   1      40.943  30.218  34.578  1.00  0.00     0.049 A 
ATOM     55  C   UNL A   1      42.690  27.153  30.210  1.00  0.00     0.074 A 
ATOM     56  C   UNL A   1      41.697  30.132  35.736  1.00  0.00     0.029 A 
ATOM     57  N   UNL A   1      41.554  29.400  33.639  1.00  0.00    -0.354 N 
ATOM     58  N   UNL A   1      42.396  27.798  31.312  1.00  0.00    -0.248 NA
ATOM     59  C   UNL A   1      43.928  26.365  30.288  1.00  0.00     0.031 C 
ATOM     60  C   UNL A   1      42.785  29.293  35.484  1.00  0.00     0.029 A 
ATOM     61  C   UNL A   1      42.684  28.817  34.187  1.00  0.00     0.049 A 
ATOM     62  H   UNL A   1      41.233  29.256  32.720  1.00  0.00     0.167 HD
ATOM     63  C   UNL A   1      43.392  27.474  32.222  1.00  0.00     0.074 A 
ATOM     64  C   UNL A   1      44.291  26.559  31.548  1.00  0.00     0.031 C 
ATOM     65  C   UNL A   1      43.554  27.897  33.499  1.00  0.00     0.037 A 
BRANCH  52  66
ATOM     66  C   UNL A   1      39.239  31.874  35.435  1.00  0.00     0.064 A 
ATOM     67  C   UNL A   1      39.572  33.237  35.484  1.00  0.00     0.173 A 
ATOM     68  C   UNL A   1      38.383  31.374  36.428  1.00  0.00     0.173 A 
ATOM     69  F   UNL A   1      40.396  33.763  34.565  1.00  0.00    -0.203 F 
ATOM     70  C   UNL A   1      39.095  34.056  36.502  1.00  0.00     0.198 A 
ATOM     71  C   UNL A   1      37.881  32.204  37.427  1.00  0.00     0.198 A 
ATOM     72  F   UNL A   1      38.030  30.080  36.429  1.00  0.00    -0.203 F 
ATOM     73  F   UNL A   1      39.473  35.341  36.559  1.00  0.00    -0.200 F 
ATOM     74  C   UNL A   1      38.244  33.542  37.469  1.00  0.00     0.200 A 
ATOM     75  F   UNL A   1      37.048  31.708  38.353  1.00  0.00    -0.200 F 
ATOM     76  F   UNL A   1      37.779  34.334  38.444  1.00  0.00    -0.200 F 
ENDBRANCH  52  66
BRANCH  53  77
ATOM     77  C   UNL A   1      42.453  26.317  27.756  1.00  0.00     0.064 A 
ATOM     78  C   UNL A   1      42.003  25.008  27.530  1.00  0.00     0.173 A 
ATOM     79  C   UNL A   1      43.402  26.839  26.865  1.00  0.00     0.173 A 
ATOM     80  F   UNL A   1      41.108  24.457  28.365  1.00  0.00    -0.203 F 
ATOM     81  C   UNL A   1      42.502  24.244  26.478  1.00  0.00     0.198 A 
ATOM     82  C   UNL A   1      43.878  26.085  25.794  1.00  0.00     0.198 A 
ATOM     83  F   UNL A   1      43.861  28.089  27.027  1.00  0.00    -0.203 F 
ATOM     84  F   UNL A   1      42.090  22.978  26.319  1.00  0.00    -0.200 F 
ATOM     85  C   UNL A   1      43.435  24.784  25.607  1.00  0.00     0.200 A 
ATOM     86  F   UNL A   1      44.768  26.616  24.944  1.00  0.00    -0.200 F 
ATOM     87  F   UNL A   1      43.912  24.049  24.593  1.00  0.00    -0.200 F 
ENDBRANCH  53  77
BRANCH  65  88
ATOM     88  C   UNL A   1      44.722  27.345  34.262  1.00  0.00     0.064 A 
ATOM     89  C   UNL A   1      45.952  28.016  34.310  1.00  0.00     0.173 A 
ATOM     90  C   UNL A   1      44.591  26.154  34.992  1.00  0.00     0.173 A 
ATOM     91  F   UNL A   1      46.129  29.151  33.618  1.00  0.00    -0.203 F 
ATOM     92  C   UNL A   1      47.018  27.499  35.040  1.00  0.00     0.198 A 
ATOM     93  C   UNL A   1      45.649  25.657  35.745  1.00  0.00     0.198 A 
ATOM     94  F   UNL A   1      43.431  25.480  34.984  1.00  0.00    -0.203 F 
ATOM     95  F   UNL A   1      48.200  28.131  35.034  1.00  0.00    -0.200 F 
ATOM     96  C   UNL A   1      46.864  26.326  35.763  1.00  0.00     0.200 A 
ATOM     97  F   UNL A   1      45.493  24.531  36.456  1.00  0.00    -0.200 F 
ATOM     98  F   UNL A   1      47.889  25.834  36.473  1.00  0.00    -0.200 F 
ENDBRANCH  65  88
ENDBRANCH  39  40
ENDBRANCH  31  34
ENDBRANCH  29  30
ENDBRANCH   1  29
TORSDOF 13
ENDMDL
MODEL 2
REMARK VINA RESULT:     -13.6      0.454      7.311
REMARK SMILES O=C(NCCCNC(=O)c1ccc(-c2c3nc(c(-c4c(F)c(F)c(F)c(F)c4F)c4ccc([nH]4)c(-c4c(F)c(F)c(F)c(F)c4F)c4nc(c(-c5c(F)c(F)c(F)c(F)c5F)c5ccc2[nH]5)C=C4)C=C3)cc1)C1=Cc2c(ccc(Cl)c2Sc2ccccc2)O[C@H]1C(F)(F)F
REMARK SMILES IDX 5 1 4 2 3 3 1 4 2 5 73 7 74 8 90 9 75 10 89 11 76 12 81 13
REMARK SMILES IDX 77 14 79 15 78 16 80 17 91 18 92 19 93 20 94 21 82 22 83 23
REMARK SMILES IDX 84 24 88 25 85 26 87 27 86 28 6 29 7 30 8 31 9 33 10 34
REMARK SMILES IDX 11 35 72 36 12 37 71 38 13 39 14 40 15 41 65 42 16 43 70 44
REMARK SMILES IDX 64 45 66 46 17 47 69 48 63 49 62 50 18 52 50 53 30 54 49 55
REMARK SMILES IDX 31 56 34 57 48 58 67 59 32 60 33 61 47 63 68 64 35 65 19 66
REMARK SMILES IDX 20 67 28 68 21 69 22 70 26 71 29 72 23 73 24 74 27 75 25 76
REMARK SMILES IDX 51 77 52 78 60 79 53 80 54 81 58 82 61 83 55 84 56 85 59 86
REMARK SMILES IDX 57 87 36 88 37 89 45 90 38 91 39 92 43 93 46 94 40 95 41 96
REMARK SMILES IDX 44 97 42 98
REMARK H PARENT 3 6 7 32 66 51 34 62
REMARK Flexibility Score: inf
ROOT
ATOM      1  C   UNL A   1      31.778  28.570  26.509  1.00  0.00     0.042 C 
ENDROOT
BRANCH   1   2
ATOM      2  C   UNL A   1      32.492  27.267  26.826  1.00  0.00     0.118 C 
BRANCH   2   3
ATOM      3  N   UNL A   1      31.588  26.140  26.961  1.00  0.00    -0.352 N 
ATOM      4  O   UNL A   1      30.749  24.079  26.720  1.00  0.00    -0.270 OA
ATOM      5  C   UNL A   1      31.707  24.836  26.591  1.00  0.00     0.251 C 
ATOM      6  H   UNL A   1      30.735  26.358  27.401  1.00  0.00     0.163 HD
BRANCH   5   7
ATOM      7  C   UNL A   1      32.946  24.324  25.986  1.00  0.00     0.067 C 
ATOM      8  C   UNL A   1      33.690  25.050  25.144  1.00  0.00     0.026 C 
ATOM      9  C   UNL A   1      33.274  22.878  26.131  1.00  0.00     0.314 C 
ATOM     10  C   UNL A   1      33.595  24.492  23.775  1.00  0.00     0.033 A 
ATOM     11  O   UNL A   1      33.458  22.254  24.816  1.00  0.00    -0.475 OA
ATOM     12  C   UNL A   1      33.427  23.083  23.709  1.00  0.00     0.129 A 
ATOM     13  C   UNL A   1      33.429  25.323  22.632  1.00  0.00     0.042 A 
ATOM     14  C   UNL A   1      33.085  22.479  22.509  1.00  0.00     0.049 A 
ATOM     15  C   UNL A   1      33.018  24.672  21.444  1.00  0.00     0.055 A 
ATOM     16  C   UNL A   1      32.852  23.276  21.389  1.00  0.00     0.025 A 
ATOM     17  Cl  UNL A   1      32.581  25.533  20.001  1.00  0.00    -0.083 Cl
BRANCH   9  18
ATOM     18  C   UNL A   1      34.511  22.670  27.024  1.00  0.00     0.429 C 
ATOM     19  F   UNL A   1      35.536  23.488  26.686  1.00  0.00    -0.167 F 
ATOM     20  F   UNL A   1      34.223  22.912  28.324  1.00  0.00    -0.167 F 
ATOM     21  F   UNL A   1      34.981  21.400  26.944  1.00  0.00    -0.167 F 
ENDBRANCH   9  18
BRANCH  13  22
ATOM     22  S   UNL A   1      33.486  27.148  22.643  1.00  0.00    -0.088 SA
BRANCH  22  23
ATOM     23  C   UNL A   1      31.826  27.715  22.946  1.00  0.00     0.012 A 
ATOM     24  C   UNL A   1      31.452  29.014  22.567  1.00  0.00     0.015 A 
ATOM     25  C   UNL A   1      30.856  26.837  23.442  1.00  0.00     0.015 A 
ATOM     26  C   UNL A   1      30.105  29.384  22.568  1.00  0.00     0.001 A 
ATOM     27  C   UNL A   1      29.511  27.214  23.449  1.00  0.00     0.001 A 
ATOM     28  C   UNL A   1      29.134  28.476  22.989  1.00  0.00     0.000 A 
ENDBRANCH  22  23
ENDBRANCH  13  22
ENDBRANCH   5   7
ENDBRANCH   2   3
ENDBRANCH   1   2
BRANCH   1  29
ATOM     29  C   UNL A   1      32.728  29.625  25.965  1.00  0.00     0.118 C 
BRANCH  29  30
ATOM     30  N   UNL A   1      32.447  30.982  26.423  1.00  0.00    -0.352 N 
ATOM     31  C   UNL A   1      33.192  31.837  27.204  1.00  0.00     0.251 C 
ATOM     32  H   UNL A   1      31.582  31.346  26.124  1.00  0.00     0.163 HD
ATOM     33  O   UNL A   1      32.736  32.938  27.508  1.00  0.00    -0.269 OA
BRANCH  31  34
ATOM     34  C   UNL A   1      34.509  31.422  27.735  1.00  0.00     0.039 A 
ATOM     35  C   UNL A   1      35.513  32.384  27.887  1.00  0.00     0.014 A 
ATOM     36  C   UNL A   1      34.750  30.107  28.126  1.00  0.00     0.014 A 
ATOM     37  C   UNL A   1      36.705  32.047  28.535  1.00  0.00     0.010 A 
ATOM     38  C   UNL A   1      35.866  29.811  28.895  1.00  0.00     0.010 A 
ATOM     39  C   UNL A   1      36.864  30.774  29.104  1.00  0.00    -0.014 A 
BRANCH  39  40
ATOM     40  C   UNL A   1      38.060  30.409  29.907  1.00  0.00     0.031 A 
ATOM     41  C   UNL A   1      39.079  29.456  29.337  1.00  0.00     0.074 A 
ATOM     42  C   UNL A   1      38.177  30.845  31.177  1.00  0.00     0.049 A 
ATOM     43  N   UNL A   1      40.107  28.893  29.920  1.00  0.00    -0.248 NA
ATOM     44  C   UNL A   1      38.886  29.038  27.939  1.00  0.00     0.031 C 
ATOM     45  C   UNL A   1      37.218  31.709  31.871  1.00  0.00     0.029 A 
ATOM     46  N   UNL A   1      39.146  30.609  32.120  1.00  0.00    -0.354 N 
ATOM     47  C   UNL A   1      40.648  28.030  28.975  1.00  0.00     0.074 A 
ATOM     48  C   UNL A   1      39.800  28.090  27.808  1.00  0.00     0.031 C 
ATOM     49  C   UNL A   1      37.664  31.958  33.112  1.00  0.00     0.029 A 
ATOM     50  C   UNL A   1      38.914  31.236  33.321  1.00  0.00     0.049 A 
ATOM     51  H   UNL A   1      39.934  30.042  31.952  1.00  0.00     0.167 HD
ATOM     52  C   UNL A   1      41.773  27.281  29.061  1.00  0.00     0.037 A 
ATOM     53  C   UNL A   1      39.628  31.223  34.463  1.00  0.00     0.037 A 
ATOM     54  C   UNL A   1      42.649  27.280  30.201  1.00  0.00     0.049 A 
ATOM     55  C   UNL A   1      40.902  30.423  34.514  1.00  0.00     0.074 A 
ATOM     56  C   UNL A   1      43.859  26.629  30.359  1.00  0.00     0.029 A 
ATOM     57  N   UNL A   1      42.411  27.979  31.375  1.00  0.00    -0.354 N 
ATOM     58  N   UNL A   1      41.442  29.669  33.588  1.00  0.00    -0.248 NA
ATOM     59  C   UNL A   1      41.669  30.479  35.765  1.00  0.00     0.031 C 
ATOM     60  C   UNL A   1      44.335  26.904  31.644  1.00  0.00     0.029 A 
ATOM     61  C   UNL A   1      43.446  27.763  32.269  1.00  0.00     0.049 A 
ATOM     62  H   UNL A   1      41.623  28.543  31.548  1.00  0.00     0.167 HD
ATOM     63  C   UNL A   1      42.623  29.183  34.132  1.00  0.00     0.074 A 
ATOM     64  C   UNL A   1      42.730  29.744  35.464  1.00  0.00     0.031 C 
ATOM     65  C   UNL A   1      43.537  28.346  33.584  1.00  0.00     0.037 A 
BRANCH  52  66
ATOM     66  C   UNL A   1      42.130  26.419  27.884  1.00  0.00     0.064 A 
ATOM     67  C   UNL A   1      41.536  25.162  27.683  1.00  0.00     0.173 A 
ATOM     68  C   UNL A   1      43.052  26.866  26.926  1.00  0.00     0.173 A 
ATOM     69  F   UNL A   1      40.657  24.681  28.576  1.00  0.00    -0.203 F 
ATOM     70  C   UNL A   1      41.876  24.374  26.588  1.00  0.00     0.198 A 
ATOM     71  C   UNL A   1      43.365  26.089  25.813  1.00  0.00     0.198 A 
ATOM     72  F   UNL A   1      43.647  28.060  27.066  1.00  0.00    -0.203 F 
ATOM     73  F   UNL A   1      41.338  23.154  26.449  1.00  0.00    -0.200 F 
ATOM     74  C   UNL A   1      42.784  24.841  25.650  1.00  0.00     0.200 A 
ATOM     75  F   UNL A   1      44.233  26.548  24.901  1.00  0.00    -0.200 F 
ATOM     76  F   UNL A   1      43.104  24.084  24.591  1.00  0.00    -0.200 F 
ENDBRANCH  52  66
BRANCH  53  77
ATOM     77  C   UNL A   1      39.177  32.018  35.637  1.00  0.00     0.064 A 
ATOM     78  C   UNL A   1      39.579  33.351  35.800  1.00  0.00     0.173 A 
ATOM     79  C   UNL A   1      38.345  31.465  36.622  1.00  0.00     0.173 A 
ATOM     80  F   UNL A   1      40.390  33.920  34.896  1.00  0.00    -0.203 F 
ATOM     81  C   UNL A   1      39.190  34.091  36.915  1.00  0.00     0.198 A 
ATOM     82  C   UNL A   1      37.932  32.215  37.721  1.00  0.00     0.198 A 
ATOM     83  F   UNL A   1      37.923  30.197  36.511  1.00  0.00    -0.203 F 
ATOM     84  F   UNL A   1      39.632  35.347  37.069  1.00  0.00    -0.200 F 
ATOM     85  C   UNL A   1      38.363  33.525  37.872  1.00  0.00     0.200 A 
ATOM     86  F   UNL A   1      37.117  31.671  38.636  1.00  0.00    -0.200 F 
ATOM     87  F   UNL A   1      37.986  34.238  38.942  1.00  0.00    -0.200 F 
ENDBRANCH  53  77
BRANCH  65  88
ATOM     88  C   UNL A   1      44.747  28.018  34.405  1.00  0.00     0.064 A 
ATOM     89  C   UNL A   1      44.786  26.894  35.242  1.00  0.00     0.173 A 
ATOM     90  C   UNL A   1      45.899  28.814  34.318  1.00  0.00     0.173 A 
ATOM     91  F   UNL A   1      43.705  26.109  35.369  1.00  0.00    -0.203 F 
ATOM     92  C   UNL A   1      45.926  26.593  35.981  1.00  0.00     0.198 A 
ATOM     93  C   UNL A   1      47.047  28.493  35.034  1.00  0.00     0.198 A 
ATOM     94  F   UNL A   1      45.914  29.896  33.524  1.00  0.00    -0.203 F 
ATOM     95  F   UNL A   1      45.926  25.541  36.811  1.00  0.00    -0.200 F 
ATOM     96  C   UNL A   1      47.057  27.387  35.871  1.00  0.00     0.200 A 
ATOM     97  F   UNL A   1      48.145  29.254  34.914  1.00  0.00    -0.200 F 
ATOM     98  F   UNL A   1      48.157  27.092  36.578  1.00  0.00    -0.200 F 
ENDBRANCH  65  88
ENDBRANCH  39  40
ENDBRANCH  31  34
ENDBRANCH  29  30
ENDBRANCH   1  29
TORSDOF 13
ENDMDL
MODEL 3
REMARK VINA RESULT:     -13.5      2.640      3.983
REMARK SMILES O=C(NCCCNC(=O)c1ccc(-c2c3nc(c(-c4c(F)c(F)c(F)c(F)c4F)c4ccc([nH]4)c(-c4c(F)c(F)c(F)c(F)c4F)c4nc(c(-c5c(F)c(F)c(F)c(F)c5F)c5ccc2[nH]5)C=C4)C=C3)cc1)C1=Cc2c(ccc(Cl)c2Sc2ccccc2)O[C@H]1C(F)(F)F
REMARK SMILES IDX 5 1 4 2 3 3 1 4 2 5 73 7 74 8 90 9 75 10 89 11 76 12 81 13
REMARK SMILES IDX 77 14 79 15 78 16 80 17 91 18 92 19 93 20 94 21 82 22 83 23
REMARK SMILES IDX 84 24 88 25 85 26 87 27 86 28 6 29 7 30 8 31 9 33 10 34
REMARK SMILES IDX 11 35 72 36 12 37 71 38 13 39 14 40 15 41 65 42 16 43 70 44
REMARK SMILES IDX 64 45 66 46 17 47 69 48 63 49 62 50 18 52 50 53 30 54 49 55
REMARK SMILES IDX 31 56 34 57 48 58 67 59 32 60 33 61 47 63 68 64 35 65 19 66
REMARK SMILES IDX 20 67 28 68 21 69 22 70 26 71 29 72 23 73 24 74 27 75 25 76
REMARK SMILES IDX 51 77 52 78 60 79 53 80 54 81 58 82 61 83 55 84 56 85 59 86
REMARK SMILES IDX 57 87 36 88 37 89 45 90 38 91 39 92 43 93 46 94 40 95 41 96
REMARK SMILES IDX 44 97 42 98
REMARK H PARENT 3 6 7 32 66 51 34 62
REMARK Flexibility Score: inf
ROOT
ATOM      1  C   UNL A   1      31.403  32.139  26.582  1.00  0.00     0.042 C 
ENDROOT
BRANCH   1   2
ATOM      2  C   UNL A   1      31.509  30.625  26.654  1.00  0.00     0.118 C 
BRANCH   2   3
ATOM      3  N   UNL A   1      32.657  30.100  25.939  1.00  0.00    -0.352 N 
ATOM      4  O   UNL A   1      33.864  28.827  24.548  1.00  0.00    -0.270 OA
ATOM      5  C   UNL A   1      32.756  29.196  24.926  1.00  0.00     0.251 C 
ATOM      6  H   UNL A   1      33.521  30.463  26.241  1.00  0.00     0.163 HD
BRANCH   5   7
ATOM      7  C   UNL A   1      31.558  28.609  24.306  1.00  0.00     0.067 C 
ATOM      8  C   UNL A   1      31.014  27.465  24.735  1.00  0.00     0.026 C 
ATOM      9  C   UNL A   1      31.059  29.178  23.023  1.00  0.00     0.314 C 
ATOM     10  C   UNL A   1      31.226  26.397  23.730  1.00  0.00     0.033 A 
ATOM     11  O   UNL A   1      30.981  28.138  21.992  1.00  0.00    -0.475 OA
ATOM     12  C   UNL A   1      31.246  26.837  22.379  1.00  0.00     0.129 A 
ATOM     13  C   UNL A   1      31.629  25.083  24.097  1.00  0.00     0.042 A 
ATOM     14  C   UNL A   1      31.674  25.981  21.375  1.00  0.00     0.049 A 
ATOM     15  C   UNL A   1      32.117  24.265  23.051  1.00  0.00     0.055 A 
ATOM     16  C   UNL A   1      32.136  24.711  21.716  1.00  0.00     0.025 A 
ATOM     17  Cl  UNL A   1      32.830  22.707  23.328  1.00  0.00    -0.083 Cl
BRANCH   9  18
ATOM     18  C   UNL A   1      29.701  29.878  23.211  1.00  0.00     0.429 C 
ATOM     19  F   UNL A   1      29.706  30.748  24.249  1.00  0.00    -0.167 F 
ATOM     20  F   UNL A   1      29.356  30.583  22.108  1.00  0.00    -0.167 F 
ATOM     21  F   UNL A   1      28.705  28.989  23.450  1.00  0.00    -0.167 F 
ENDBRANCH   9  18
BRANCH  13  22
ATOM     22  S   UNL A   1      31.770  24.469  25.812  1.00  0.00    -0.088 SA
BRANCH  22  23
ATOM     23  C   UNL A   1      33.487  24.088  26.084  1.00  0.00     0.012 A 
ATOM     24  C   UNL A   1      33.841  22.908  26.757  1.00  0.00     0.015 A 
ATOM     25  C   UNL A   1      34.489  24.886  25.522  1.00  0.00     0.015 A 
ATOM     26  C   UNL A   1      35.169  22.472  26.758  1.00  0.00     0.001 A 
ATOM     27  C   UNL A   1      35.817  24.451  25.532  1.00  0.00     0.001 A 
ATOM     28  C   UNL A   1      36.152  23.234  26.126  1.00  0.00     0.000 A 
ENDBRANCH  22  23
ENDBRANCH  13  22
ENDBRANCH   5   7
ENDBRANCH   2   3
ENDBRANCH   1   2
BRANCH   1  29
ATOM     29  C   UNL A   1      32.608  32.826  27.204  1.00  0.00     0.118 C 
BRANCH  29  30
ATOM     30  N   UNL A   1      32.364  34.203  27.626  1.00  0.00    -0.352 N 
ATOM     31  C   UNL A   1      33.014  34.984  28.554  1.00  0.00     0.251 C 
ATOM     32  H   UNL A   1      31.611  34.645  27.171  1.00  0.00     0.163 HD
ATOM     33  O   UNL A   1      32.608  36.121  28.785  1.00  0.00    -0.269 OA
BRANCH  31  34
ATOM     34  C   UNL A   1      34.160  34.449  29.323  1.00  0.00     0.039 A 
ATOM     35  C   UNL A   1      33.914  33.760  30.516  1.00  0.00     0.014 A 
ATOM     36  C   UNL A   1      35.466  34.578  28.858  1.00  0.00     0.014 A 
ATOM     37  C   UNL A   1      34.964  33.110  31.170  1.00  0.00     0.010 A 
ATOM     38  C   UNL A   1      36.477  33.815  29.425  1.00  0.00     0.010 A 
ATOM     39  C   UNL A   1      36.243  33.076  30.593  1.00  0.00    -0.014 A 
BRANCH  39  40
ATOM     40  C   UNL A   1      37.360  32.295  31.187  1.00  0.00     0.031 A 
ATOM     41  C   UNL A   1      37.854  32.634  32.570  1.00  0.00     0.074 A 
ATOM     42  C   UNL A   1      37.994  31.361  30.450  1.00  0.00     0.049 A 
ATOM     43  N   UNL A   1      38.903  32.183  33.210  1.00  0.00    -0.248 NA
ATOM     44  C   UNL A   1      37.097  33.655  33.312  1.00  0.00     0.031 C 
ATOM     45  C   UNL A   1      37.662  30.995  29.071  1.00  0.00     0.029 A 
ATOM     46  N   UNL A   1      39.065  30.557  30.752  1.00  0.00    -0.354 N 
ATOM     47  C   UNL A   1      38.950  32.897  34.401  1.00  0.00     0.074 A 
ATOM     48  C   UNL A   1      37.870  33.854  34.368  1.00  0.00     0.031 C 
ATOM     49  C   UNL A   1      38.485  30.018  28.661  1.00  0.00     0.029 A 
ATOM     50  C   UNL A   1      39.434  29.719  29.728  1.00  0.00     0.049 A 
ATOM     51  H   UNL A   1      39.526  30.580  31.623  1.00  0.00     0.167 HD
ATOM     52  C   UNL A   1      39.798  32.742  35.446  1.00  0.00     0.037 A 
ATOM     53  C   UNL A   1      40.431  28.816  29.657  1.00  0.00     0.037 A 
ATOM     54  C   UNL A   1      40.827  31.740  35.499  1.00  0.00     0.049 A 
ATOM     55  C   UNL A   1      41.327  28.628  30.852  1.00  0.00     0.074 A 
ATOM     56  C   UNL A   1      41.683  31.436  36.543  1.00  0.00     0.029 A 
ATOM     57  N   UNL A   1      41.129  30.867  34.464  1.00  0.00    -0.354 N 
ATOM     58  N   UNL A   1      41.316  29.258  32.001  1.00  0.00    -0.248 NA
ATOM     59  C   UNL A   1      42.369  27.599  30.742  1.00  0.00     0.031 C 
ATOM     60  C   UNL A   1      42.529  30.405  36.125  1.00  0.00     0.029 A 
ATOM     61  C   UNL A   1      42.169  30.033  34.840  1.00  0.00     0.049 A 
ATOM     62  H   UNL A   1      40.673  30.844  33.592  1.00  0.00     0.167 HD
ATOM     63  C   UNL A   1      42.326  28.685  32.761  1.00  0.00     0.074 A 
ATOM     64  C   UNL A   1      42.918  27.642  31.948  1.00  0.00     0.031 C 
ATOM     65  C   UNL A   1      42.731  28.993  34.017  1.00  0.00     0.037 A 
BRANCH  52  66
ATOM     66  C   UNL A   1      39.633  33.662  36.622  1.00  0.00     0.064 A 
ATOM     67  C   UNL A   1      40.283  34.906  36.682  1.00  0.00     0.173 A 
ATOM     68  C   UNL A   1      38.791  33.313  37.688  1.00  0.00     0.173 A 
ATOM     69  F   UNL A   1      41.110  35.283  35.695  1.00  0.00    -0.203 F 
ATOM     70  C   UNL A   1      40.121  35.748  37.778  1.00  0.00     0.198 A 
ATOM     71  C   UNL A   1      38.605  34.173  38.767  1.00  0.00     0.198 A 
ATOM     72  F   UNL A   1      38.143  32.138  37.682  1.00  0.00    -0.203 F 
ATOM     73  F   UNL A   1      40.796  36.904  37.837  1.00  0.00    -0.200 F 
ATOM     74  C   UNL A   1      39.276  35.385  38.816  1.00  0.00     0.200 A 
ATOM     75  F   UNL A   1      37.778  33.827  39.763  1.00  0.00    -0.200 F 
ATOM     76  F   UNL A   1      39.115  36.202  39.866  1.00  0.00    -0.200 F 
ENDBRANCH  52  66
BRANCH  53  77
ATOM     77  C   UNL A   1      40.615  27.997  28.429  1.00  0.00     0.064 A 
ATOM     78  C   UNL A   1      40.006  26.740  28.305  1.00  0.00     0.173 A 
ATOM     79  C   UNL A   1      41.403  28.446  27.358  1.00  0.00     0.173 A 
ATOM     80  F   UNL A   1      39.258  26.259  29.309  1.00  0.00    -0.203 F 
ATOM     81  C   UNL A   1      40.201  25.952  27.173  1.00  0.00     0.198 A 
ATOM     82  C   UNL A   1      41.572  27.670  26.213  1.00  0.00     0.198 A 
ATOM     83  F   UNL A   1      42.000  29.645  27.419  1.00  0.00    -0.203 F 
ATOM     84  F   UNL A   1      39.648  24.733  27.106  1.00  0.00    -0.200 F 
ATOM     85  C   UNL A   1      40.979  26.419  26.125  1.00  0.00     0.200 A 
ATOM     86  F   UNL A   1      42.311  28.132  25.195  1.00  0.00    -0.200 F 
ATOM     87  F   UNL A   1      41.164  25.662  25.035  1.00  0.00    -0.200 F 
ENDBRANCH  53  77
BRANCH  65  88
ATOM     88  C   UNL A   1      43.840  28.170  34.602  1.00  0.00     0.064 A 
ATOM     89  C   UNL A   1      45.180  28.575  34.517  1.00  0.00     0.173 A 
ATOM     90  C   UNL A   1      43.552  26.985  35.295  1.00  0.00     0.173 A 
ATOM     91  F   UNL A   1      45.506  29.694  33.852  1.00  0.00    -0.203 F 
ATOM     92  C   UNL A   1      46.194  27.809  35.083  1.00  0.00     0.198 A 
ATOM     93  C   UNL A   1      44.565  26.239  35.887  1.00  0.00     0.198 A 
ATOM     94  F   UNL A   1      42.285  26.560  35.411  1.00  0.00    -0.203 F 
ATOM     95  F   UNL A   1      47.472  28.189  34.950  1.00  0.00    -0.200 F 
ATOM     96  C   UNL A   1      45.886  26.647  35.775  1.00  0.00     0.200 A 
ATOM     97  F   UNL A   1      44.264  25.124  36.568  1.00  0.00    -0.200 F 
ATOM     98  F   UNL A   1      46.863  25.914  36.327  1.00  0.00    -0.200 F 
ENDBRANCH  65  88
ENDBRANCH  39  40
ENDBRANCH  31  34
ENDBRANCH  29  30
ENDBRANCH   1  29
TORSDOF 13
ENDMDL
