MODEL 1
REMARK VINA RESULT:     -13.0      0.000      0.000
REMARK SMILES CC(C)(C)c1n[nH]c2c1CC[C@@H](C(=O)NCCCNC(=O)c1ccc(-c3c4nc(c(-c5c(F)c(F)c(F)c(F)c5F)c5ccc([nH]5)c(-c5c(F)c(F)c(F)c(F)c5F)c5nc(c(-c6c(F)c(F)c(F)c(F)c6F)c6ccc3[nH]6)C=C5)C=C4)cc1)C2
REMARK SMILES IDX 17 1 16 2 15 3 13 4 14 5 12 7 5 8 6 9 9 10 7 11 8 12 10 13
REMARK SMILES IDX 85 15 11 16 2 17 1 18 3 19 4 20 18 21 19 22 20 23 21 25
REMARK SMILES IDX 22 26 23 27 84 28 24 29 83 30 25 31 26 32 27 33 77 34 28 35
REMARK SMILES IDX 82 36 76 37 78 38 29 39 81 40 75 41 74 42 30 44 62 45 42 46
REMARK SMILES IDX 61 47 43 48 46 49 60 50 79 51 44 52 45 53 59 55 80 56 47 57
REMARK SMILES IDX 31 58 32 59 40 60 33 61 34 62 38 63 41 64 35 65 36 66 39 67
REMARK SMILES IDX 37 68 63 69 64 70 72 71 65 72 66 73 70 74 73 75 67 76 68 77
REMARK SMILES IDX 71 78 69 79 48 80 49 81 57 82 50 83 51 84 55 85 58 86 52 87
REMARK SMILES IDX 53 88 56 89 54 90
REMARK H PARENT 15 6 7 14 19 24 78 43 46 54
REMARK Flexibility Score: inf
ROOT
ATOM      1  C   UNL A   1      31.513  32.120  26.754  1.00  0.00     0.042 C 
ENDROOT
BRANCH   1   2
ATOM      2  C   UNL A   1      31.732  30.669  26.326  1.00  0.00     0.117 C 
BRANCH   2   3
ATOM      3  N   UNL A   1      31.215  30.335  25.000  1.00  0.00    -0.356 N 
ATOM      4  C   UNL A   1      31.130  29.119  24.366  1.00  0.00     0.223 C 
ATOM      5  O   UNL A   1      30.503  29.038  23.313  1.00  0.00    -0.275 OA
ATOM      6  H   UNL A   1      30.876  31.099  24.481  1.00  0.00     0.163 HD
BRANCH   4   7
ATOM      7  C   UNL A   1      31.863  27.943  24.975  1.00  0.00     0.084 C 
ATOM      8  C   UNL A   1      33.324  24.111  25.983  1.00  0.00     0.071 A 
ATOM      9  N   UNL A   1      32.387  23.702  26.855  1.00  0.00    -0.180 NA
ATOM     10  C   UNL A   1      32.993  25.389  25.471  1.00  0.00    -0.003 A 
ATOM     11  N   UNL A   1      31.470  24.689  26.876  1.00  0.00    -0.282 N 
ATOM     12  C   UNL A   1      31.793  25.729  26.065  1.00  0.00     0.039 A 
ATOM     13  C   UNL A   1      33.653  26.272  24.477  1.00  0.00     0.040 C 
ATOM     14  H   UNL A   1      30.652  24.659  27.421  1.00  0.00     0.190 HD
ATOM     15  C   UNL A   1      30.978  26.958  25.788  1.00  0.00     0.069 C 
ATOM     16  C   UNL A   1      32.582  27.165  23.851  1.00  0.00     0.019 C 
BRANCH   8  17
ATOM     17  C   UNL A   1      34.527  23.242  25.630  1.00  0.00     0.006 C 
ATOM     18  C   UNL A   1      35.859  24.013  25.751  1.00  0.00     0.017 C 
ATOM     19  C   UNL A   1      34.414  22.733  24.177  1.00  0.00     0.017 C 
ATOM     20  C   UNL A   1      34.617  22.033  26.587  1.00  0.00     0.017 C 
ENDBRANCH   8  17
ENDBRANCH   4   7
ENDBRANCH   2   3
ENDBRANCH   1   2
BRANCH   1  21
ATOM     21  C   UNL A   1      32.766  32.823  27.251  1.00  0.00     0.118 C 
BRANCH  21  22
ATOM     22  N   UNL A   1      32.501  34.203  27.626  1.00  0.00    -0.352 N 
ATOM     23  C   UNL A   1      33.036  34.944  28.651  1.00  0.00     0.251 C 
ATOM     24  H   UNL A   1      31.842  34.674  27.064  1.00  0.00     0.163 HD
ATOM     25  O   UNL A   1      32.528  36.018  28.964  1.00  0.00    -0.269 OA
BRANCH  23  26
ATOM     26  C   UNL A   1      34.211  34.440  29.396  1.00  0.00     0.039 A 
ATOM     27  C   UNL A   1      34.019  33.822  30.636  1.00  0.00     0.014 A 
ATOM     28  C   UNL A   1      35.501  34.578  28.878  1.00  0.00     0.014 A 
ATOM     29  C   UNL A   1      35.111  33.277  31.317  1.00  0.00     0.010 A 
ATOM     30  C   UNL A   1      36.573  33.962  29.515  1.00  0.00     0.010 A 
ATOM     31  C   UNL A   1      36.392  33.305  30.743  1.00  0.00    -0.014 A 
BRANCH  31  32
ATOM     32  C   UNL A   1      37.563  32.667  31.400  1.00  0.00     0.031 A 
ATOM     33  C   UNL A   1      38.259  31.513  30.734  1.00  0.00     0.074 A 
ATOM     34  C   UNL A   1      37.943  33.064  32.632  1.00  0.00     0.049 A 
ATOM     35  N   UNL A   1      39.200  30.731  31.198  1.00  0.00    -0.248 NA
ATOM     36  C   UNL A   1      37.816  31.174  29.373  1.00  0.00     0.031 C 
ATOM     37  C   UNL A   1      37.331  34.150  33.398  1.00  0.00     0.029 A 
ATOM     38  N   UNL A   1      38.922  32.581  33.465  1.00  0.00    -0.354 N 
ATOM     39  C   UNL A   1      39.444  29.798  30.198  1.00  0.00     0.074 A 
ATOM     40  C   UNL A   1      38.517  30.079  29.123  1.00  0.00     0.031 C 
ATOM     41  C   UNL A   1      37.955  34.258  34.582  1.00  0.00     0.029 A 
ATOM     42  C   UNL A   1      38.975  33.219  34.681  1.00  0.00     0.049 A 
ATOM     43  H   UNL A   1      39.530  31.847  33.214  1.00  0.00     0.167 HD
ATOM     44  C   UNL A   1      40.370  28.811  30.170  1.00  0.00     0.037 A 
ATOM     45  C   UNL A   1      39.742  32.978  35.762  1.00  0.00     0.037 A 
ATOM     46  C   UNL A   1      41.306  28.551  31.232  1.00  0.00     0.049 A 
ATOM     47  C   UNL A   1      40.744  31.853  35.717  1.00  0.00     0.074 A 
ATOM     48  C   UNL A   1      42.321  27.611  31.276  1.00  0.00     0.029 A 
ATOM     49  N   UNL A   1      41.340  29.231  32.441  1.00  0.00    -0.354 N 
ATOM     50  N   UNL A   1      41.007  31.017  34.743  1.00  0.00    -0.248 NA
ATOM     51  C   UNL A   1      41.558  31.641  36.923  1.00  0.00     0.031 C 
ATOM     52  C   UNL A   1      42.929  27.682  32.532  1.00  0.00     0.029 A 
ATOM     53  C   UNL A   1      42.339  28.712  33.247  1.00  0.00     0.049 A 
ATOM     54  H   UNL A   1      40.742  29.973  32.688  1.00  0.00     0.167 HD
ATOM     55  C   UNL A   1      42.037  30.206  35.202  1.00  0.00     0.074 A 
ATOM     56  C   UNL A   1      42.359  30.657  36.540  1.00  0.00     0.031 C 
ATOM     57  C   UNL A   1      42.662  29.184  34.569  1.00  0.00     0.037 A 
BRANCH  44  58
ATOM     58  C   UNL A   1      40.418  27.931  28.954  1.00  0.00     0.064 A 
ATOM     59  C   UNL A   1      39.659  26.755  28.863  1.00  0.00     0.173 A 
ATOM     60  C   UNL A   1      41.199  28.293  27.845  1.00  0.00     0.173 A 
ATOM     61  F   UNL A   1      38.903  26.357  29.898  1.00  0.00    -0.203 F 
ATOM     62  C   UNL A   1      39.703  25.957  27.722  1.00  0.00     0.198 A 
ATOM     63  C   UNL A   1      41.215  27.511  26.692  1.00  0.00     0.198 A 
ATOM     64  F   UNL A   1      41.939  29.411  27.873  1.00  0.00    -0.203 F 
ATOM     65  F   UNL A   1      39.010  24.812  27.681  1.00  0.00    -0.200 F 
ATOM     66  C   UNL A   1      40.474  26.340  26.635  1.00  0.00     0.200 A 
ATOM     67  F   UNL A   1      41.946  27.892  25.637  1.00  0.00    -0.200 F 
ATOM     68  F   UNL A   1      40.507  25.578  25.534  1.00  0.00    -0.200 F 
ENDBRANCH  44  58
BRANCH  45  69
ATOM     69  C   UNL A   1      39.601  33.819  36.981  1.00  0.00     0.064 A 
ATOM     70  C   UNL A   1      38.782  33.416  38.045  1.00  0.00     0.173 A 
ATOM     71  C   UNL A   1      40.265  35.050  37.101  1.00  0.00     0.173 A 
ATOM     72  F   UNL A   1      38.109  32.258  37.968  1.00  0.00    -0.203 F 
ATOM     73  C   UNL A   1      38.610  34.222  39.168  1.00  0.00     0.198 A 
ATOM     74  C   UNL A   1      40.119  35.839  38.241  1.00  0.00     0.198 A 
ATOM     75  F   UNL A   1      41.066  35.482  36.116  1.00  0.00    -0.203 F 
ATOM     76  F   UNL A   1      37.777  33.836  40.145  1.00  0.00    -0.200 F 
ATOM     77  C   UNL A   1      39.282  35.429  39.269  1.00  0.00     0.200 A 
ATOM     78  F   UNL A   1      40.785  36.998  38.341  1.00  0.00    -0.200 F 
ATOM     79  F   UNL A   1      39.119  36.203  40.350  1.00  0.00    -0.200 F 
ENDBRANCH  45  69
BRANCH  57  80
ATOM     80  C   UNL A   1      43.797  28.509  35.288  1.00  0.00     0.064 A 
ATOM     81  C   UNL A   1      45.119  28.961  35.175  1.00  0.00     0.173 A 
ATOM     82  C   UNL A   1      43.542  27.434  36.154  1.00  0.00     0.173 A 
ATOM     83  F   UNL A   1      45.418  29.975  34.350  1.00  0.00    -0.203 F 
ATOM     84  C   UNL A   1      46.146  28.350  35.890  1.00  0.00     0.198 A 
ATOM     85  C   UNL A   1      44.565  26.847  36.892  1.00  0.00     0.198 A 
ATOM     86  F   UNL A   1      42.292  26.967  36.302  1.00  0.00    -0.203 F 
ATOM     87  F   UNL A   1      47.410  28.772  35.736  1.00  0.00    -0.200 F 
ATOM     88  C   UNL A   1      45.868  27.302  36.755  1.00  0.00     0.200 A 
ATOM     89  F   UNL A   1      44.291  25.847  37.740  1.00  0.00    -0.200 F 
ATOM     90  F   UNL A   1      46.856  26.728  37.455  1.00  0.00    -0.200 F 
ENDBRANCH  57  80
ENDBRANCH  31  32
ENDBRANCH  23  26
ENDBRANCH  21  22
ENDBRANCH   1  21
TORSDOF 11
ENDMDL
MODEL 2
REMARK VINA RESULT:     -13.0      0.152      1.251
REMARK SMILES CC(C)(C)c1n[nH]c2c1CC[C@@H](C(=O)NCCCNC(=O)c1ccc(-c3c4nc(c(-c5c(F)c(F)c(F)c(F)c5F)c5ccc([nH]5)c(-c5c(F)c(F)c(F)c(F)c5F)c5nc(c(-c6c(F)c(F)c(F)c(F)c6F)c6ccc3[nH]6)C=C5)C=C4)cc1)C2
REMARK SMILES IDX 17 1 16 2 15 3 13 4 14 5 12 7 5 8 6 9 9 10 7 11 8 12 10 13
REMARK SMILES IDX 85 15 11 16 2 17 1 18 3 19 4 20 18 21 19 22 20 23 21 25
REMARK SMILES IDX 22 26 23 27 84 28 24 29 83 30 25 31 26 32 27 33 77 34 28 35
REMARK SMILES IDX 82 36 76 37 78 38 29 39 81 40 75 41 74 42 30 44 62 45 42 46
REMARK SMILES IDX 61 47 43 48 46 49 60 50 79 51 44 52 45 53 59 55 80 56 47 57
REMARK SMILES IDX 31 58 32 59 40 60 33 61 34 62 38 63 41 64 35 65 36 66 39 67
REMARK SMILES IDX 37 68 63 69 64 70 72 71 65 72 66 73 70 74 73 75 67 76 68 77
REMARK SMILES IDX 71 78 69 79 48 80 49 81 57 82 50 83 51 84 55 85 58 86 52 87
REMARK SMILES IDX 53 88 56 89 54 90
REMARK H PARENT 15 6 7 14 19 24 78 43 46 54
REMARK Flexibility Score: inf
ROOT
ATOM      1  C   UNL A   1      31.525  32.110  26.770  1.00  0.00     0.042 C 
ENDROOT
BRANCH   1   2
ATOM      2  C   UNL A   1      31.752  30.665  26.329  1.00  0.00     0.117 C 
BRANCH   2   3
ATOM      3  N   UNL A   1      31.236  30.339  25.001  1.00  0.00    -0.356 N 
ATOM      4  C   UNL A   1      31.150  29.127  24.360  1.00  0.00     0.223 C 
ATOM      5  O   UNL A   1      30.523  29.052  23.307  1.00  0.00    -0.275 OA
ATOM      6  H   UNL A   1      30.897  31.106  24.487  1.00  0.00     0.163 HD
BRANCH   4   7
ATOM      7  C   UNL A   1      31.882  27.946  24.963  1.00  0.00     0.084 C 
ATOM      8  C   UNL A   1      33.329  24.106  25.961  1.00  0.00     0.071 A 
ATOM      9  N   UNL A   1      32.400  23.706  26.846  1.00  0.00    -0.180 NA
ATOM     10  C   UNL A   1      33.000  25.385  25.451  1.00  0.00    -0.003 A 
ATOM     11  N   UNL A   1      31.490  24.699  26.876  1.00  0.00    -0.282 N 
ATOM     12  C   UNL A   1      31.810  25.735  26.058  1.00  0.00     0.039 A 
ATOM     13  C   UNL A   1      33.654  26.262  24.447  1.00  0.00     0.040 C 
ATOM     14  H   UNL A   1      30.678  24.676  27.432  1.00  0.00     0.190 HD
ATOM     15  C   UNL A   1      31.001  26.970  25.789  1.00  0.00     0.069 C 
ATOM     16  C   UNL A   1      32.581  27.161  23.832  1.00  0.00     0.019 C 
BRANCH   8  17
ATOM     17  C   UNL A   1      34.521  23.228  25.596  1.00  0.00     0.006 C 
ATOM     18  C   UNL A   1      34.457  22.739  24.133  1.00  0.00     0.017 C 
ATOM     19  C   UNL A   1      34.566  21.980  26.502  1.00  0.00     0.017 C 
ATOM     20  C   UNL A   1      35.840  24.017  25.751  1.00  0.00     0.017 C 
ENDBRANCH   8  17
ENDBRANCH   4   7
ENDBRANCH   2   3
ENDBRANCH   1   2
BRANCH   1  21
ATOM     21  C   UNL A   1      32.773  32.818  27.270  1.00  0.00     0.118 C 
BRANCH  21  22
ATOM     22  N   UNL A   1      32.506  34.203  27.626  1.00  0.00    -0.352 N 
ATOM     23  C   UNL A   1      33.038  34.958  28.643  1.00  0.00     0.251 C 
ATOM     24  H   UNL A   1      31.850  34.666  27.055  1.00  0.00     0.163 HD
ATOM     25  O   UNL A   1      32.528  36.036  28.939  1.00  0.00    -0.269 OA
BRANCH  23  26
ATOM     26  C   UNL A   1      34.209  34.464  29.399  1.00  0.00     0.039 A 
ATOM     27  C   UNL A   1      34.014  33.876  30.653  1.00  0.00     0.014 A 
ATOM     28  C   UNL A   1      35.500  34.583  28.878  1.00  0.00     0.014 A 
ATOM     29  C   UNL A   1      35.103  33.341  31.345  1.00  0.00     0.010 A 
ATOM     30  C   UNL A   1      36.569  33.976  29.529  1.00  0.00     0.010 A 
ATOM     31  C   UNL A   1      36.384  33.348  30.771  1.00  0.00    -0.014 A 
BRANCH  31  32
ATOM     32  C   UNL A   1      37.552  32.719  31.443  1.00  0.00     0.031 A 
ATOM     33  C   UNL A   1      38.239  31.544  30.805  1.00  0.00     0.074 A 
ATOM     34  C   UNL A   1      37.936  33.143  32.664  1.00  0.00     0.049 A 
ATOM     35  N   UNL A   1      39.176  30.767  31.287  1.00  0.00    -0.248 NA
ATOM     36  C   UNL A   1      37.792  31.174  29.452  1.00  0.00     0.031 C 
ATOM     37  C   UNL A   1      37.332  34.251  33.403  1.00  0.00     0.029 A 
ATOM     38  N   UNL A   1      38.913  32.674  33.508  1.00  0.00    -0.354 N 
ATOM     39  C   UNL A   1      39.412  29.808  30.309  1.00  0.00     0.074 A 
ATOM     40  C   UNL A   1      38.486  30.069  29.229  1.00  0.00     0.031 C 
ATOM     41  C   UNL A   1      37.958  34.385  34.584  1.00  0.00     0.029 A 
ATOM     42  C   UNL A   1      38.971  33.341  34.708  1.00  0.00     0.049 A 
ATOM     43  H   UNL A   1      39.515  31.930  33.275  1.00  0.00     0.167 HD
ATOM     44  C   UNL A   1      40.332  28.815  30.306  1.00  0.00     0.037 A 
ATOM     45  C   UNL A   1      39.738  33.122  35.794  1.00  0.00     0.037 A 
ATOM     46  C   UNL A   1      41.267  28.574  31.373  1.00  0.00     0.049 A 
ATOM     47  C   UNL A   1      40.733  31.990  35.775  1.00  0.00     0.074 A 
ATOM     48  C   UNL A   1      42.275  27.629  31.438  1.00  0.00     0.029 A 
ATOM     49  N   UNL A   1      41.307  29.284  32.564  1.00  0.00    -0.354 N 
ATOM     50  N   UNL A   1      40.989  31.128  34.821  1.00  0.00    -0.248 NA
ATOM     51  C   UNL A   1      41.547  31.802  36.985  1.00  0.00     0.031 C 
ATOM     52  C   UNL A   1      42.886  27.727  32.691  1.00  0.00     0.029 A 
ATOM     53  C   UNL A   1      42.303  28.778  33.382  1.00  0.00     0.049 A 
ATOM     54  H   UNL A   1      40.714  30.036  32.794  1.00  0.00     0.167 HD
ATOM     55  C   UNL A   1      42.014  30.322  35.299  1.00  0.00     0.074 A 
ATOM     56  C   UNL A   1      42.341  30.803  36.625  1.00  0.00     0.031 C 
ATOM     57  C   UNL A   1      42.631  29.280  34.692  1.00  0.00     0.037 A 
BRANCH  44  58
ATOM     58  C   UNL A   1      40.372  27.905  29.111  1.00  0.00     0.064 A 
ATOM     59  C   UNL A   1      39.632  26.713  29.065  1.00  0.00     0.173 A 
ATOM     60  C   UNL A   1      41.126  28.251  27.978  1.00  0.00     0.173 A 
ATOM     61  F   UNL A   1      38.903  26.330  30.124  1.00  0.00    -0.203 F 
ATOM     62  C   UNL A   1      39.669  25.887  27.944  1.00  0.00     0.198 A 
ATOM     63  C   UNL A   1      41.133  27.440  26.846  1.00  0.00     0.198 A 
ATOM     64  F   UNL A   1      41.846  29.383  27.964  1.00  0.00    -0.203 F 
ATOM     65  F   UNL A   1      38.996  24.729  27.945  1.00  0.00    -0.200 F 
ATOM     66  C   UNL A   1      40.412  26.256  26.833  1.00  0.00     0.200 A 
ATOM     67  F   UNL A   1      41.838  27.807  25.767  1.00  0.00    -0.200 F 
ATOM     68  F   UNL A   1      40.438  25.466  25.751  1.00  0.00    -0.200 F 
ENDBRANCH  44  58
BRANCH  45  69
ATOM     69  C   UNL A   1      39.604  33.994  36.991  1.00  0.00     0.064 A 
ATOM     70  C   UNL A   1      40.285  35.217  37.073  1.00  0.00     0.173 A 
ATOM     71  C   UNL A   1      38.811  33.617  38.086  1.00  0.00     0.173 A 
ATOM     72  F   UNL A   1      41.073  35.612  36.062  1.00  0.00    -0.203 F 
ATOM     73  C   UNL A   1      40.200  36.016  38.212  1.00  0.00     0.198 A 
ATOM     74  C   UNL A   1      38.699  34.433  39.210  1.00  0.00     0.198 A 
ATOM     75  F   UNL A   1      38.133  32.460  38.058  1.00  0.00    -0.203 F 
ATOM     76  F   UNL A   1      40.905  37.152  38.283  1.00  0.00    -0.200 F 
ATOM     77  C   UNL A   1      39.402  35.626  39.277  1.00  0.00     0.200 A 
ATOM     78  F   UNL A   1      37.913  34.061  40.229  1.00  0.00    -0.200 F 
ATOM     79  F   UNL A   1      39.318  36.395  40.370  1.00  0.00    -0.200 F 
ENDBRANCH  45  69
BRANCH  57  80
ATOM     80  C   UNL A   1      43.762  28.615  35.425  1.00  0.00     0.064 A 
ATOM     81  C   UNL A   1      45.090  29.039  35.281  1.00  0.00     0.173 A 
ATOM     82  C   UNL A   1      43.498  27.581  36.337  1.00  0.00     0.173 A 
ATOM     83  F   UNL A   1      45.397  30.014  34.412  1.00  0.00    -0.203 F 
ATOM     84  C   UNL A   1      46.115  28.441  36.010  1.00  0.00     0.198 A 
ATOM     85  C   UNL A   1      44.520  27.007  37.088  1.00  0.00     0.198 A 
ATOM     86  F   UNL A   1      42.243  27.142  36.517  1.00  0.00    -0.203 F 
ATOM     87  F   UNL A   1      47.384  28.834  35.825  1.00  0.00    -0.200 F 
ATOM     88  C   UNL A   1      45.829  27.434  36.919  1.00  0.00     0.200 A 
ATOM     89  F   UNL A   1      44.238  26.047  37.979  1.00  0.00    -0.200 F 
ATOM     90  F   UNL A   1      46.814  26.872  37.631  1.00  0.00    -0.200 F 
ENDBRANCH  57  80
ENDBRANCH  31  32
ENDBRANCH  23  26
ENDBRANCH  21  22
ENDBRANCH   1  21
TORSDOF 11
ENDMDL
MODEL 3
REMARK VINA RESULT:     -12.8      1.433      2.077
REMARK SMILES CC(C)(C)c1n[nH]c2c1CC[C@@H](C(=O)NCCCNC(=O)c1ccc(-c3c4nc(c(-c5c(F)c(F)c(F)c(F)c5F)c5ccc([nH]5)c(-c5c(F)c(F)c(F)c(F)c5F)c5nc(c(-c6c(F)c(F)c(F)c(F)c6F)c6ccc3[nH]6)C=C5)C=C4)cc1)C2
REMARK SMILES IDX 17 1 16 2 15 3 13 4 14 5 12 7 5 8 6 9 9 10 7 11 8 12 10 13
REMARK SMILES IDX 85 15 11 16 2 17 1 18 3 19 4 20 18 21 19 22 20 23 21 25
REMARK SMILES IDX 22 26 23 27 84 28 24 29 83 30 25 31 26 32 27 33 77 34 28 35
REMARK SMILES IDX 82 36 76 37 78 38 29 39 81 40 75 41 74 42 30 44 62 45 42 46
REMARK SMILES IDX 61 47 43 48 46 49 60 50 79 51 44 52 45 53 59 55 80 56 47 57
REMARK SMILES IDX 31 58 32 59 40 60 33 61 34 62 38 63 41 64 35 65 36 66 39 67
REMARK SMILES IDX 37 68 63 69 64 70 72 71 65 72 66 73 70 74 73 75 67 76 68 77
REMARK SMILES IDX 71 78 69 79 48 80 49 81 57 82 50 83 51 84 55 85 58 86 52 87
REMARK SMILES IDX 53 88 56 89 54 90
REMARK H PARENT 15 6 7 14 19 24 78 43 46 54
REMARK Flexibility Score: inf
ROOT
ATOM      1  C   UNL A   1      31.546  32.077  26.800  1.00  0.00     0.042 C 
ENDROOT
BRANCH   1   2
ATOM      2  C   UNL A   1      31.754  30.563  26.775  1.00  0.00     0.117 C 
BRANCH   2   3
ATOM      3  N   UNL A   1      32.985  30.101  27.414  1.00  0.00    -0.356 N 
ATOM      4  C   UNL A   1      33.869  29.124  27.025  1.00  0.00     0.223 C 
ATOM      5  O   UNL A   1      34.936  29.012  27.623  1.00  0.00    -0.275 OA
ATOM      6  H   UNL A   1      33.217  30.561  28.253  1.00  0.00     0.163 HD
BRANCH   4   7
ATOM      7  C   UNL A   1      33.458  28.194  25.903  1.00  0.00     0.084 C 
ATOM      8  C   UNL A   1      33.356  25.445  22.699  1.00  0.00     0.071 A 
ATOM      9  N   UNL A   1      33.566  26.263  21.654  1.00  0.00    -0.180 NA
ATOM     10  C   UNL A   1      33.401  26.176  23.911  1.00  0.00    -0.003 A 
ATOM     11  N   UNL A   1      33.766  27.481  22.194  1.00  0.00    -0.282 N 
ATOM     12  C   UNL A   1      33.670  27.481  23.549  1.00  0.00     0.039 A 
ATOM     13  C   UNL A   1      33.265  25.770  25.332  1.00  0.00     0.040 C 
ATOM     14  H   UNL A   1      33.961  28.286  21.663  1.00  0.00     0.190 HD
ATOM     15  C   UNL A   1      33.899  28.636  24.480  1.00  0.00     0.069 C 
ATOM     16  C   UNL A   1      34.019  26.785  26.190  1.00  0.00     0.019 C 
BRANCH   8  17
ATOM     17  C   UNL A   1      33.138  23.947  22.515  1.00  0.00     0.006 C 
ATOM     18  C   UNL A   1      33.120  23.539  21.026  1.00  0.00     0.017 C 
ATOM     19  C   UNL A   1      31.788  23.520  23.130  1.00  0.00     0.017 C 
ATOM     20  C   UNL A   1      34.277  23.149  23.188  1.00  0.00     0.017 C 
ENDBRANCH   8  17
ENDBRANCH   4   7
ENDBRANCH   2   3
ENDBRANCH   1   2
BRANCH   1  21
ATOM     21  C   UNL A   1      32.794  32.877  27.136  1.00  0.00     0.118 C 
BRANCH  21  22
ATOM     22  N   UNL A   1      32.472  34.229  27.566  1.00  0.00    -0.352 N 
ATOM     23  C   UNL A   1      32.978  34.949  28.620  1.00  0.00     0.251 C 
ATOM     24  H   UNL A   1      31.795  34.694  27.023  1.00  0.00     0.163 HD
ATOM     25  O   UNL A   1      32.426  35.988  28.975  1.00  0.00    -0.269 OA
BRANCH  23  26
ATOM     26  C   UNL A   1      34.172  34.465  29.346  1.00  0.00     0.039 A 
ATOM     27  C   UNL A   1      34.009  33.822  30.577  1.00  0.00     0.014 A 
ATOM     28  C   UNL A   1      35.453  34.644  28.817  1.00  0.00     0.014 A 
ATOM     29  C   UNL A   1      35.121  33.296  31.238  1.00  0.00     0.010 A 
ATOM     30  C   UNL A   1      36.547  34.047  29.434  1.00  0.00     0.010 A 
ATOM     31  C   UNL A   1      36.395  33.367  30.653  1.00  0.00    -0.014 A 
BRANCH  31  32
ATOM     32  C   UNL A   1      37.589  32.749  31.289  1.00  0.00     0.031 A 
ATOM     33  C   UNL A   1      38.283  31.597  30.618  1.00  0.00     0.074 A 
ATOM     34  C   UNL A   1      37.993  33.163  32.507  1.00  0.00     0.049 A 
ATOM     35  N   UNL A   1      39.245  30.830  31.067  1.00  0.00    -0.248 NA
ATOM     36  C   UNL A   1      37.812  31.238  29.271  1.00  0.00     0.031 C 
ATOM     37  C   UNL A   1      37.387  34.249  33.276  1.00  0.00     0.029 A 
ATOM     38  N   UNL A   1      38.998  32.700  33.321  1.00  0.00    -0.354 N 
ATOM     39  C   UNL A   1      39.476  29.890  30.070  1.00  0.00     0.074 A 
ATOM     40  C   UNL A   1      38.521  30.149  29.016  1.00  0.00     0.031 C 
ATOM     41  C   UNL A   1      38.037  34.377  34.444  1.00  0.00     0.029 A 
ATOM     42  C   UNL A   1      39.072  33.351  34.530  1.00  0.00     0.049 A 
ATOM     43  H   UNL A   1      39.608  31.971  33.064  1.00  0.00     0.167 HD
ATOM     44  C   UNL A   1      40.413  28.914  30.031  1.00  0.00     0.037 A 
ATOM     45  C   UNL A   1      39.867  33.131  35.594  1.00  0.00     0.037 A 
ATOM     46  C   UNL A   1      41.377  28.675  31.073  1.00  0.00     0.049 A 
ATOM     47  C   UNL A   1      40.881  32.018  35.536  1.00  0.00     0.074 A 
ATOM     48  C   UNL A   1      42.404  27.748  31.102  1.00  0.00     0.029 A 
ATOM     49  N   UNL A   1      41.431  29.369  32.274  1.00  0.00    -0.354 N 
ATOM     50  N   UNL A   1      41.131  31.174  34.565  1.00  0.00    -0.248 NA
ATOM     51  C   UNL A   1      41.726  31.827  36.725  1.00  0.00     0.031 C 
ATOM     52  C   UNL A   1      43.041  27.839  32.342  1.00  0.00     0.029 A 
ATOM     53  C   UNL A   1      42.455  28.870  33.061  1.00  0.00     0.049 A 
ATOM     54  H   UNL A   1      40.830  30.106  32.528  1.00  0.00     0.167 HD
ATOM     55  C   UNL A   1      42.182  30.381  35.007  1.00  0.00     0.074 A 
ATOM     56  C   UNL A   1      42.530  30.849  36.333  1.00  0.00     0.031 C 
ATOM     57  C   UNL A   1      42.804  29.359  34.371  1.00  0.00     0.037 A 
BRANCH  44  58
ATOM     58  C   UNL A   1      40.442  28.022  28.823  1.00  0.00     0.064 A 
ATOM     59  C   UNL A   1      41.208  28.338  27.690  1.00  0.00     0.173 A 
ATOM     60  C   UNL A   1      39.730  26.812  28.815  1.00  0.00     0.173 A 
ATOM     61  F   UNL A   1      41.899  29.487  27.641  1.00  0.00    -0.203 F 
ATOM     62  C   UNL A   1      41.235  27.493  26.583  1.00  0.00     0.198 A 
ATOM     63  C   UNL A   1      39.787  25.953  27.720  1.00  0.00     0.198 A 
ATOM     64  F   UNL A   1      38.988  26.456  29.874  1.00  0.00    -0.203 F 
ATOM     65  F   UNL A   1      41.932  27.842  25.493  1.00  0.00    -0.200 F 
ATOM     66  C   UNL A   1      40.532  26.298  26.602  1.00  0.00     0.200 A 
ATOM     67  F   UNL A   1      39.121  24.791  27.748  1.00  0.00    -0.200 F 
ATOM     68  F   UNL A   1      40.568  25.481  25.542  1.00  0.00    -0.200 F 
ENDBRANCH  44  58
BRANCH  45  69
ATOM     69  C   UNL A   1      39.745  33.983  36.807  1.00  0.00     0.064 A 
ATOM     70  C   UNL A   1      38.927  33.598  37.879  1.00  0.00     0.173 A 
ATOM     71  C   UNL A   1      40.425  35.206  36.915  1.00  0.00     0.173 A 
ATOM     72  F   UNL A   1      38.239  32.448  37.816  1.00  0.00    -0.203 F 
ATOM     73  C   UNL A   1      38.772  34.415  38.998  1.00  0.00     0.198 A 
ATOM     74  C   UNL A   1      40.297  36.005  38.049  1.00  0.00     0.198 A 
ATOM     75  F   UNL A   1      41.226  35.620  35.922  1.00  0.00    -0.203 F 
ATOM     76  F   UNL A   1      37.941  34.047  39.982  1.00  0.00    -0.200 F 
ATOM     77  C   UNL A   1      39.462  35.614  39.085  1.00  0.00     0.200 A 
ATOM     78  F   UNL A   1      40.978  37.155  38.136  1.00  0.00    -0.200 F 
ATOM     79  F   UNL A   1      39.315  36.397  40.162  1.00  0.00    -0.200 F 
ENDBRANCH  45  69
BRANCH  57  80
ATOM     80  C   UNL A   1      43.963  28.705  35.069  1.00  0.00     0.064 A 
ATOM     81  C   UNL A   1      45.272  29.189  34.944  1.00  0.00     0.173 A 
ATOM     82  C   UNL A   1      43.744  27.616  35.928  1.00  0.00     0.173 A 
ATOM     83  F   UNL A   1      45.537  30.218  34.124  1.00  0.00    -0.203 F 
ATOM     84  C   UNL A   1      46.323  28.597  35.641  1.00  0.00     0.198 A 
ATOM     85  C   UNL A   1      44.791  27.048  36.648  1.00  0.00     0.198 A 
ATOM     86  F   UNL A   1      42.508  27.118  36.088  1.00  0.00    -0.203 F 
ATOM     87  F   UNL A   1      47.574  29.050  35.474  1.00  0.00    -0.200 F 
ATOM     88  C   UNL A   1      46.080  27.535  36.498  1.00  0.00     0.200 A 
ATOM     89  F   UNL A   1      44.551  26.034  37.490  1.00  0.00    -0.200 F 
ATOM     90  F   UNL A   1      47.090  26.979  37.181  1.00  0.00    -0.200 F 
ENDBRANCH  57  80
ENDBRANCH  31  32
ENDBRANCH  23  26
ENDBRANCH  21  22
ENDBRANCH   1  21
TORSDOF 11
ENDMDL
