MODEL 1
REMARK VINA RESULT:     -13.2      0.000      0.000
REMARK SMILES O=C(CN1C(=O)/C(=C/c2cccs2)SC1=S)Nc1ccc(O)cc1C(=O)NCCCNC(=O)c1ccc(-c2c3nc(c(-c4c(F)c(F)c(F)c(F)c4F)c4ccc([nH]4)c(-c4c(F)c(F)c(F)c(F)c4F)c4nc(c(-c5c(F)c(F)c(F)c(F)c5F)c5ccc2[nH]5)C=C4)C=C3)cc1
REMARK SMILES IDX 28 1 27 2 25 3 26 4 24 6 18 7 19 8 20 9 23 10 21 11 17 12
REMARK SMILES IDX 1 13 2 14 3 16 4 17 5 18 15 19 6 20 7 21 14 22 16 23 8 24
REMARK SMILES IDX 9 25 10 26 13 27 11 28 12 29 22 30 29 32 30 33 31 34 32 35
REMARK SMILES IDX 33 37 34 38 35 39 96 40 36 41 95 42 37 43 38 44 39 45 89 46
REMARK SMILES IDX 40 47 94 48 88 49 90 50 41 51 93 52 87 53 86 54 42 56 74 57
REMARK SMILES IDX 54 58 73 59 55 60 58 61 72 62 91 63 56 64 57 65 71 67 92 68
REMARK SMILES IDX 59 69 43 70 44 71 52 72 45 73 46 74 50 75 53 76 47 77 48 78
REMARK SMILES IDX 51 79 49 80 75 81 76 82 84 83 77 84 78 85 82 86 85 87 79 88
REMARK SMILES IDX 80 89 83 90 81 91 60 92 61 93 69 94 62 95 63 96 67 97 70 98
REMARK SMILES IDX 64 99 65 100 68 101 66 102
REMARK H PARENT 27 5 17 15 22 31 31 36 90 55 58 66
REMARK Flexibility Score: inf
ROOT
ATOM      1  C   UNL A   1      33.814  28.596  23.124  1.00  0.00     0.118 C 
ENDROOT
BRANCH   1   2
ATOM      2  N   UNL A   1      33.435  27.220  22.799  1.00  0.00    -0.352 N 
ATOM      3  C   UNL A   1      32.298  26.453  22.843  1.00  0.00     0.253 C 
ATOM      4  O   UNL A   1      32.424  25.310  22.388  1.00  0.00    -0.269 OA
ATOM      5  H   UNL A   1      34.202  26.708  22.455  1.00  0.00     0.163 HD
BRANCH   3   6
ATOM      6  C   UNL A   1      30.942  26.858  23.317  1.00  0.00     0.067 A 
ATOM      7  C   UNL A   1      30.137  26.203  24.269  1.00  0.00     0.054 A 
ATOM      8  C   UNL A   1      28.797  26.623  24.444  1.00  0.00     0.031 A 
ATOM      9  C   UNL A   1      28.221  27.616  23.648  1.00  0.00     0.048 A 
ATOM     10  C   UNL A   1      30.322  27.834  22.492  1.00  0.00     0.062 A 
ATOM     11  C   UNL A   1      28.984  28.194  22.652  1.00  0.00     0.116 A 
BRANCH   7  12
ATOM     12  N   UNL A   1      30.571  25.080  25.016  1.00  0.00    -0.324 N 
ATOM     13  O   UNL A   1      31.626  26.310  26.659  1.00  0.00    -0.273 OA
ATOM     14  C   UNL A   1      31.334  25.219  26.171  1.00  0.00     0.244 C 
ATOM     15  H   UNL A   1      30.326  24.177  24.710  1.00  0.00     0.170 HD
BRANCH  14  16
ATOM     16  C   UNL A   1      31.676  23.917  26.910  1.00  0.00     0.227 C 
BRANCH  16  17
ATOM     17  N   UNL A   1      32.449  23.014  26.040  1.00  0.00    -0.283 N 
ATOM     18  C   UNL A   1      31.823  21.909  25.539  1.00  0.00     0.266 C 
ATOM     19  C   UNL A   1      33.675  23.232  25.466  1.00  0.00     0.148 C 
ATOM     20  O   UNL A   1      30.612  21.783  25.496  1.00  0.00    -0.268 OA
ATOM     21  C   UNL A   1      32.806  20.911  25.012  1.00  0.00     0.081 C 
ATOM     22  S   UNL A   1      34.285  21.707  24.753  1.00  0.00    -0.054 SA
ATOM     23  S   UNL A   1      34.500  24.670  25.348  1.00  0.00    -0.052 S 
ATOM     24  C   UNL A   1      32.387  19.646  24.911  1.00  0.00     0.040 C 
BRANCH  24  25
ATOM     25  C   UNL A   1      32.964  18.410  24.500  1.00  0.00     0.028 A 
ATOM     26  C   UNL A   1      33.652  17.976  23.385  1.00  0.00     0.020 A 
ATOM     27  S   UNL A   1      32.882  17.076  25.638  1.00  0.00    -0.144 S 
ATOM     28  C   UNL A   1      33.877  16.557  23.378  1.00  0.00     0.012 A 
ATOM     29  C   UNL A   1      33.387  15.934  24.500  1.00  0.00     0.065 A 
ENDBRANCH  24  25
ENDBRANCH  16  17
ENDBRANCH  14  16
ENDBRANCH   7  12
BRANCH  11  30
ATOM     30  O   UNL A   1      28.451  29.100  21.785  1.00  0.00    -0.508 OA
ATOM     31  H   UNL A   1      28.874  29.925  21.651  1.00  0.00     0.293 HD
ENDBRANCH  11  30
ENDBRANCH   3   6
ENDBRANCH   1   2
BRANCH   1  32
ATOM     32  C   UNL A   1      33.478  28.932  24.601  1.00  0.00     0.042 C 
BRANCH  32  33
ATOM     33  C   UNL A   1      32.130  29.640  24.926  1.00  0.00     0.118 C 
BRANCH  33  34
ATOM     34  N   UNL A   1      32.207  30.814  25.846  1.00  0.00    -0.352 N 
ATOM     35  C   UNL A   1      32.910  31.434  26.873  1.00  0.00     0.251 C 
ATOM     36  H   UNL A   1      31.436  31.391  25.639  1.00  0.00     0.163 HD
ATOM     37  O   UNL A   1      32.399  32.501  27.245  1.00  0.00    -0.269 OA
BRANCH  35  38
ATOM     38  C   UNL A   1      34.163  31.048  27.623  1.00  0.00     0.039 A 
ATOM     39  C   UNL A   1      35.091  32.035  28.001  1.00  0.00     0.014 A 
ATOM     40  C   UNL A   1      34.587  29.756  27.854  1.00  0.00     0.014 A 
ATOM     41  C   UNL A   1      36.332  31.726  28.648  1.00  0.00     0.010 A 
ATOM     42  C   UNL A   1      35.726  29.460  28.664  1.00  0.00     0.010 A 
ATOM     43  C   UNL A   1      36.674  30.422  29.053  1.00  0.00    -0.014 A 
BRANCH  43  44
ATOM     44  C   UNL A   1      37.996  30.067  29.777  1.00  0.00     0.031 A 
ATOM     45  C   UNL A   1      38.311  30.544  31.212  1.00  0.00     0.074 A 
ATOM     46  C   UNL A   1      38.996  29.353  29.190  1.00  0.00     0.049 A 
ATOM     47  N   UNL A   1      39.395  30.361  31.948  1.00  0.00    -0.248 NA
ATOM     48  C   UNL A   1      37.315  31.385  31.888  1.00  0.00     0.031 C 
ATOM     49  C   UNL A   1      39.027  28.891  27.802  1.00  0.00     0.029 A 
ATOM     50  N   UNL A   1      40.206  28.890  29.696  1.00  0.00    -0.354 N 
ATOM     51  C   UNL A   1      39.218  31.111  33.113  1.00  0.00     0.074 A 
ATOM     52  C   UNL A   1      37.983  31.838  32.936  1.00  0.00     0.031 C 
ATOM     53  C   UNL A   1      40.143  28.172  27.588  1.00  0.00     0.029 A 
ATOM     54  C   UNL A   1      40.944  28.132  28.808  1.00  0.00     0.049 A 
ATOM     55  H   UNL A   1      40.511  29.088  30.610  1.00  0.00     0.167 HD
ATOM     56  C   UNL A   1      39.941  31.159  34.265  1.00  0.00     0.037 A 
ATOM     57  C   UNL A   1      42.115  27.464  28.939  1.00  0.00     0.037 A 
ATOM     58  C   UNL A   1      41.122  30.383  34.547  1.00  0.00     0.049 A 
ATOM     59  C   UNL A   1      42.871  27.453  30.249  1.00  0.00     0.074 A 
ATOM     60  C   UNL A   1      41.829  30.284  35.736  1.00  0.00     0.029 A 
ATOM     61  N   UNL A   1      41.764  29.563  33.638  1.00  0.00    -0.354 N 
ATOM     62  N   UNL A   1      42.593  28.057  31.376  1.00  0.00    -0.248 NA
ATOM     63  C   UNL A   1      44.100  26.639  30.307  1.00  0.00     0.031 C 
ATOM     64  C   UNL A   1      42.925  29.436  35.535  1.00  0.00     0.029 A 
ATOM     65  C   UNL A   1      42.865  28.964  34.237  1.00  0.00     0.049 A 
ATOM     66  H   UNL A   1      41.484  29.424  32.705  1.00  0.00     0.167 HD
ATOM     67  C   UNL A   1      43.579  27.664  32.278  1.00  0.00     0.074 A 
ATOM     68  C   UNL A   1      44.454  26.753  31.578  1.00  0.00     0.031 C 
ATOM     69  C   UNL A   1      43.737  28.033  33.572  1.00  0.00     0.037 A 
BRANCH  56  70
ATOM     70  C   UNL A   1      39.435  32.051  35.377  1.00  0.00     0.064 A 
ATOM     71  C   UNL A   1      38.566  31.563  36.369  1.00  0.00     0.173 A 
ATOM     72  C   UNL A   1      39.867  33.382  35.494  1.00  0.00     0.173 A 
ATOM     73  F   UNL A   1      38.126  30.296  36.316  1.00  0.00    -0.203 F 
ATOM     74  C   UNL A   1      38.106  32.384  37.395  1.00  0.00     0.198 A 
ATOM     75  C   UNL A   1      39.440  34.188  36.550  1.00  0.00     0.198 A 
ATOM     76  F   UNL A   1      40.722  33.899  34.598  1.00  0.00    -0.203 F 
ATOM     77  F   UNL A   1      37.220  31.911  38.282  1.00  0.00    -0.200 F 
ATOM     78  C   UNL A   1      38.549  33.694  37.488  1.00  0.00     0.200 A 
ATOM     79  F   UNL A   1      39.890  35.445  36.656  1.00  0.00    -0.200 F 
ATOM     80  F   UNL A   1      38.112  34.479  38.483  1.00  0.00    -0.200 F 
ENDBRANCH  56  70
BRANCH  57  81
ATOM     81  C   UNL A   1      42.647  26.649  27.804  1.00  0.00     0.064 A 
ATOM     82  C   UNL A   1      43.549  27.209  26.883  1.00  0.00     0.173 A 
ATOM     83  C   UNL A   1      42.224  25.332  27.574  1.00  0.00     0.173 A 
ATOM     84  F   UNL A   1      43.951  28.480  27.032  1.00  0.00    -0.203 F 
ATOM     85  C   UNL A   1      43.987  26.495  25.769  1.00  0.00     0.198 A 
ATOM     86  C   UNL A   1      42.690  24.607  26.476  1.00  0.00     0.198 A 
ATOM     87  F   UNL A   1      41.355  24.750  28.413  1.00  0.00    -0.203 F 
ATOM     88  F   UNL A   1      44.795  27.081  24.874  1.00  0.00    -0.200 F 
ATOM     89  C   UNL A   1      43.562  25.191  25.570  1.00  0.00     0.200 A 
ATOM     90  F   UNL A   1      42.283  23.343  26.288  1.00  0.00    -0.200 F 
ATOM     91  F   UNL A   1      43.981  24.504  24.498  1.00  0.00    -0.200 F 
ENDBRANCH  57  81
BRANCH  69  92
ATOM     92  C   UNL A   1      44.860  27.410  34.357  1.00  0.00     0.064 A 
ATOM     93  C   UNL A   1      46.118  28.022  34.474  1.00  0.00     0.173 A 
ATOM     94  C   UNL A   1      44.669  26.186  35.020  1.00  0.00     0.173 A 
ATOM     95  F   UNL A   1      46.360  29.188  33.858  1.00  0.00    -0.203 F 
ATOM     96  C   UNL A   1      47.150  27.414  35.186  1.00  0.00     0.198 A 
ATOM     97  C   UNL A   1      45.693  25.598  35.760  1.00  0.00     0.198 A 
ATOM     98  F   UNL A   1      43.484  25.560  34.957  1.00  0.00    -0.203 F 
ATOM     99  F   UNL A   1      48.360  27.989  35.230  1.00  0.00    -0.200 F 
ATOM    100  C   UNL A   1      46.937  26.206  35.831  1.00  0.00     0.200 A 
ATOM    101  F   UNL A   1      45.478  24.438  36.397  1.00  0.00    -0.200 F 
ATOM    102  F   UNL A   1      47.931  25.622  36.514  1.00  0.00    -0.200 F 
ENDBRANCH  69  92
ENDBRANCH  43  44
ENDBRANCH  35  38
ENDBRANCH  33  34
ENDBRANCH  32  33
ENDBRANCH   1  32
TORSDOF 15
ENDMDL
MODEL 2
REMARK VINA RESULT:     -13.1      2.004      3.096
REMARK SMILES O=C(CN1C(=O)/C(=C/c2cccs2)SC1=S)Nc1ccc(O)cc1C(=O)NCCCNC(=O)c1ccc(-c2c3nc(c(-c4c(F)c(F)c(F)c(F)c4F)c4ccc([nH]4)c(-c4c(F)c(F)c(F)c(F)c4F)c4nc(c(-c5c(F)c(F)c(F)c(F)c5F)c5ccc2[nH]5)C=C4)C=C3)cc1
REMARK SMILES IDX 28 1 27 2 25 3 26 4 24 6 18 7 19 8 20 9 23 10 21 11 17 12
REMARK SMILES IDX 1 13 2 14 3 16 4 17 5 18 15 19 6 20 7 21 14 22 16 23 8 24
REMARK SMILES IDX 9 25 10 26 13 27 11 28 12 29 22 30 29 32 30 33 31 34 32 35
REMARK SMILES IDX 33 37 34 38 35 39 96 40 36 41 95 42 37 43 38 44 39 45 89 46
REMARK SMILES IDX 40 47 94 48 88 49 90 50 41 51 93 52 87 53 86 54 42 56 74 57
REMARK SMILES IDX 54 58 73 59 55 60 58 61 72 62 91 63 56 64 57 65 71 67 92 68
REMARK SMILES IDX 59 69 43 70 44 71 52 72 45 73 46 74 50 75 53 76 47 77 48 78
REMARK SMILES IDX 51 79 49 80 75 81 76 82 84 83 77 84 78 85 82 86 85 87 79 88
REMARK SMILES IDX 80 89 83 90 81 91 60 92 61 93 69 94 62 95 63 96 67 97 70 98
REMARK SMILES IDX 64 99 65 100 68 101 66 102
REMARK H PARENT 27 5 17 15 22 31 31 36 90 55 58 66
REMARK Flexibility Score: inf
ROOT
ATOM      1  C   UNL A   1      32.028  28.587  26.335  1.00  0.00     0.118 C 
ENDROOT
BRANCH   1   2
ATOM      2  N   UNL A   1      32.335  28.867  24.932  1.00  0.00    -0.352 N 
ATOM      3  C   UNL A   1      31.636  29.068  23.769  1.00  0.00     0.253 C 
ATOM      4  O   UNL A   1      32.330  29.354  22.787  1.00  0.00    -0.269 OA
ATOM      5  H   UNL A   1      33.306  28.929  24.783  1.00  0.00     0.163 HD
BRANCH   3   6
ATOM      6  C   UNL A   1      30.155  29.036  23.578  1.00  0.00     0.067 A 
ATOM      7  C   UNL A   1      29.359  27.924  23.245  1.00  0.00     0.054 A 
ATOM      8  C   UNL A   1      27.999  28.126  22.909  1.00  0.00     0.031 A 
ATOM      9  C   UNL A   1      27.438  29.403  22.823  1.00  0.00     0.048 A 
ATOM     10  C   UNL A   1      29.575  30.325  23.442  1.00  0.00     0.062 A 
ATOM     11  C   UNL A   1      28.245  30.499  23.060  1.00  0.00     0.116 A 
BRANCH   7  12
ATOM     12  N   UNL A   1      29.866  26.605  23.145  1.00  0.00    -0.324 N 
ATOM     13  O   UNL A   1      29.569  26.092  25.375  1.00  0.00    -0.273 OA
ATOM     14  C   UNL A   1      29.968  25.773  24.256  1.00  0.00     0.244 C 
ATOM     15  H   UNL A   1      30.152  26.267  22.266  1.00  0.00     0.170 HD
BRANCH  14  16
ATOM     16  C   UNL A   1      30.474  24.349  23.984  1.00  0.00     0.227 C 
BRANCH  16  17
ATOM     17  N   UNL A   1      31.533  23.984  24.940  1.00  0.00    -0.283 N 
ATOM     18  C   UNL A   1      32.752  24.585  24.812  1.00  0.00     0.266 C 
ATOM     19  C   UNL A   1      31.416  23.270  26.106  1.00  0.00     0.148 C 
ATOM     20  O   UNL A   1      32.934  25.611  24.183  1.00  0.00    -0.268 OA
ATOM     21  C   UNL A   1      33.810  23.852  25.578  1.00  0.00     0.081 C 
ATOM     22  S   UNL A   1      33.044  22.860  26.726  1.00  0.00    -0.054 SA
ATOM     23  S   UNL A   1      30.020  22.868  26.914  1.00  0.00    -0.052 S 
ATOM     24  C   UNL A   1      35.075  24.049  25.198  1.00  0.00     0.040 C 
BRANCH  24  25
ATOM     25  C   UNL A   1      36.351  23.563  25.608  1.00  0.00     0.028 A 
ATOM     26  C   UNL A   1      37.469  24.124  26.190  1.00  0.00     0.020 A 
ATOM     27  S   UNL A   1      36.644  21.842  25.420  1.00  0.00    -0.144 S 
ATOM     28  C   UNL A   1      38.588  23.223  26.247  1.00  0.00     0.012 A 
ATOM     29  C   UNL A   1      38.298  21.981  25.737  1.00  0.00     0.065 A 
ENDBRANCH  24  25
ENDBRANCH  16  17
ENDBRANCH  14  16
ENDBRANCH   7  12
BRANCH  11  30
ATOM     30  O   UNL A   1      27.780  31.770  22.900  1.00  0.00    -0.508 OA
ATOM     31  H   UNL A   1      27.046  32.068  23.402  1.00  0.00     0.293 HD
ENDBRANCH  11  30
ENDBRANCH   3   6
ENDBRANCH   1   2
BRANCH   1  32
ATOM     32  C   UNL A   1      31.885  29.902  27.147  1.00  0.00     0.042 C 
BRANCH  32  33
ATOM     33  C   UNL A   1      31.392  31.187  26.421  1.00  0.00     0.118 C 
BRANCH  33  34
ATOM     34  N   UNL A   1      31.938  32.482  26.928  1.00  0.00    -0.352 N 
ATOM     35  C   UNL A   1      32.978  33.113  27.601  1.00  0.00     0.251 C 
ATOM     36  H   UNL A   1      31.289  33.181  26.685  1.00  0.00     0.163 HD
ATOM     37  O   UNL A   1      32.817  34.338  27.716  1.00  0.00    -0.269 OA
BRANCH  35  38
ATOM     38  C   UNL A   1      34.251  32.590  28.222  1.00  0.00     0.039 A 
ATOM     39  C   UNL A   1      34.457  31.204  28.348  1.00  0.00     0.014 A 
ATOM     40  C   UNL A   1      35.209  33.362  28.845  1.00  0.00     0.014 A 
ATOM     41  C   UNL A   1      35.608  30.646  28.994  1.00  0.00     0.010 A 
ATOM     42  C   UNL A   1      36.442  32.815  29.317  1.00  0.00     0.010 A 
ATOM     43  C   UNL A   1      36.676  31.437  29.460  1.00  0.00    -0.014 A 
BRANCH  43  44
ATOM     44  C   UNL A   1      37.941  30.856  30.137  1.00  0.00     0.031 A 
ATOM     45  C   UNL A   1      38.301  31.143  31.613  1.00  0.00     0.074 A 
ATOM     46  C   UNL A   1      38.855  30.093  29.475  1.00  0.00     0.049 A 
ATOM     47  N   UNL A   1      39.350  30.759  32.320  1.00  0.00    -0.248 NA
ATOM     48  C   UNL A   1      37.406  32.022  32.376  1.00  0.00     0.031 C 
ATOM     49  C   UNL A   1      38.841  29.776  28.047  1.00  0.00     0.029 A 
ATOM     50  N   UNL A   1      39.998  29.441  29.924  1.00  0.00    -0.354 N 
ATOM     51  C   UNL A   1      39.254  31.401  33.556  1.00  0.00     0.074 A 
ATOM     52  C   UNL A   1      38.115  32.282  33.462  1.00  0.00     0.031 C 
ATOM     53  C   UNL A   1      39.865  28.956  27.754  1.00  0.00     0.029 A 
ATOM     54  C   UNL A   1      40.648  28.697  28.960  1.00  0.00     0.049 A 
ATOM     55  H   UNL A   1      40.318  29.507  30.853  1.00  0.00     0.167 HD
ATOM     56  C   UNL A   1      39.970  31.245  34.704  1.00  0.00     0.037 A 
ATOM     57  C   UNL A   1      41.731  27.885  29.016  1.00  0.00     0.037 A 
ATOM     58  C   UNL A   1      41.049  30.310  34.899  1.00  0.00     0.049 A 
ATOM     59  C   UNL A   1      42.471  27.651  30.314  1.00  0.00     0.074 A 
ATOM     60  C   UNL A   1      41.732  30.007  36.068  1.00  0.00     0.029 A 
ATOM     61  N   UNL A   1      41.597  29.517  33.907  1.00  0.00    -0.354 N 
ATOM     62  N   UNL A   1      42.258  28.164  31.498  1.00  0.00    -0.248 NA
ATOM     63  C   UNL A   1      43.595  26.695  30.281  1.00  0.00     0.031 C 
ATOM     64  C   UNL A   1      42.721  29.060  35.775  1.00  0.00     0.029 A 
ATOM     65  C   UNL A   1      42.615  28.734  34.436  1.00  0.00     0.049 A 
ATOM     66  H   UNL A   1      41.308  29.509  32.966  1.00  0.00     0.167 HD
ATOM     67  C   UNL A   1      43.185  27.567  32.349  1.00  0.00     0.074 A 
ATOM     68  C   UNL A   1      43.950  26.636  31.555  1.00  0.00     0.031 C 
ATOM     69  C   UNL A   1      43.375  27.780  33.674  1.00  0.00     0.037 A 
BRANCH  56  70
ATOM     70  C   UNL A   1      39.565  32.071  35.905  1.00  0.00     0.064 A 
ATOM     71  C   UNL A   1      40.194  33.293  36.198  1.00  0.00     0.173 A 
ATOM     72  C   UNL A   1      38.501  31.676  36.732  1.00  0.00     0.173 A 
ATOM     73  F   UNL A   1      41.212  33.728  35.439  1.00  0.00    -0.203 F 
ATOM     74  C   UNL A   1      39.816  34.054  37.302  1.00  0.00     0.198 A 
ATOM     75  C   UNL A   1      38.095  32.464  37.809  1.00  0.00     0.198 A 
ATOM     76  F   UNL A   1      37.838  30.535  36.487  1.00  0.00    -0.203 F 
ATOM     77  F   UNL A   1      40.484  35.177  37.598  1.00  0.00    -0.200 F 
ATOM     78  C   UNL A   1      38.762  33.643  38.102  1.00  0.00     0.200 A 
ATOM     79  F   UNL A   1      37.057  32.080  38.565  1.00  0.00    -0.200 F 
ATOM     80  F   UNL A   1      38.393  34.382  39.157  1.00  0.00    -0.200 F 
ENDBRANCH  56  70
BRANCH  57  81
ATOM     81  C   UNL A   1      42.170  27.133  27.800  1.00  0.00     0.064 A 
ATOM     82  C   UNL A   1      41.704  25.829  27.559  1.00  0.00     0.173 A 
ATOM     83  C   UNL A   1      43.101  27.664  26.896  1.00  0.00     0.173 A 
ATOM     84  F   UNL A   1      40.847  25.258  28.417  1.00  0.00    -0.203 F 
ATOM     85  C   UNL A   1      42.170  25.080  26.480  1.00  0.00     0.198 A 
ATOM     86  C   UNL A   1      43.541  26.924  25.797  1.00  0.00     0.198 A 
ATOM     87  F   UNL A   1      43.588  28.899  27.081  1.00  0.00    -0.203 F 
ATOM     88  F   UNL A   1      41.757  23.815  26.316  1.00  0.00    -0.200 F 
ATOM     89  C   UNL A   1      43.083  25.631  25.595  1.00  0.00     0.200 A 
ATOM     90  F   UNL A   1      44.420  27.461  24.938  1.00  0.00    -0.200 F 
ATOM     91  F   UNL A   1      43.532  24.911  24.558  1.00  0.00    -0.200 F 
ENDBRANCH  57  81
BRANCH  69  92
ATOM     92  C   UNL A   1      44.412  26.952  34.385  1.00  0.00     0.064 A 
ATOM     93  C   UNL A   1      44.116  25.694  34.933  1.00  0.00     0.173 A 
ATOM     94  C   UNL A   1      45.732  27.419  34.505  1.00  0.00     0.173 A 
ATOM     95  F   UNL A   1      42.872  25.200  34.854  1.00  0.00    -0.203 F 
ATOM     96  C   UNL A   1      45.088  24.957  35.608  1.00  0.00     0.198 A 
ATOM     97  C   UNL A   1      46.709  26.663  35.150  1.00  0.00     0.198 A 
ATOM     98  F   UNL A   1      46.080  28.607  33.989  1.00  0.00    -0.203 F 
ATOM     99  F   UNL A   1      44.764  23.787  36.176  1.00  0.00    -0.200 F 
ATOM    100  C   UNL A   1      46.383  25.439  35.712  1.00  0.00     0.200 A 
ATOM    101  F   UNL A   1      47.965  27.125  35.234  1.00  0.00    -0.200 F 
ATOM    102  F   UNL A   1      47.316  24.730  36.363  1.00  0.00    -0.200 F 
ENDBRANCH  69  92
ENDBRANCH  43  44
ENDBRANCH  35  38
ENDBRANCH  33  34
ENDBRANCH  32  33
ENDBRANCH   1  32
TORSDOF 15
ENDMDL
MODEL 3
REMARK VINA RESULT:     -13.0      1.501      2.473
REMARK SMILES O=C(CN1C(=O)/C(=C/c2cccs2)SC1=S)Nc1ccc(O)cc1C(=O)NCCCNC(=O)c1ccc(-c2c3nc(c(-c4c(F)c(F)c(F)c(F)c4F)c4ccc([nH]4)c(-c4c(F)c(F)c(F)c(F)c4F)c4nc(c(-c5c(F)c(F)c(F)c(F)c5F)c5ccc2[nH]5)C=C4)C=C3)cc1
REMARK SMILES IDX 28 1 27 2 25 3 26 4 24 6 18 7 19 8 20 9 23 10 21 11 17 12
REMARK SMILES IDX 1 13 2 14 3 16 4 17 5 18 15 19 6 20 7 21 14 22 16 23 8 24
REMARK SMILES IDX 9 25 10 26 13 27 11 28 12 29 22 30 29 32 30 33 31 34 32 35
REMARK SMILES IDX 33 37 34 38 35 39 96 40 36 41 95 42 37 43 38 44 39 45 89 46
REMARK SMILES IDX 40 47 94 48 88 49 90 50 41 51 93 52 87 53 86 54 42 56 74 57
REMARK SMILES IDX 54 58 73 59 55 60 58 61 72 62 91 63 56 64 57 65 71 67 92 68
REMARK SMILES IDX 59 69 43 70 44 71 52 72 45 73 46 74 50 75 53 76 47 77 48 78
REMARK SMILES IDX 51 79 49 80 75 81 76 82 84 83 77 84 78 85 82 86 85 87 79 88
REMARK SMILES IDX 80 89 83 90 81 91 60 92 61 93 69 94 62 95 63 96 67 97 70 98
REMARK SMILES IDX 64 99 65 100 68 101 66 102
REMARK H PARENT 27 5 17 15 22 31 31 36 90 55 58 66
REMARK Flexibility Score: inf
ROOT
ATOM      1  C   UNL A   1      33.263  28.953  22.977  1.00  0.00     0.118 C 
ENDROOT
BRANCH   1   2
ATOM      2  N   UNL A   1      32.835  27.718  22.320  1.00  0.00    -0.352 N 
ATOM      3  C   UNL A   1      31.682  26.981  22.214  1.00  0.00     0.253 C 
ATOM      4  O   UNL A   1      31.759  25.998  21.468  1.00  0.00    -0.269 OA
ATOM      5  H   UNL A   1      33.573  27.305  21.817  1.00  0.00     0.163 HD
BRANCH   3   6
ATOM      6  C   UNL A   1      30.358  27.265  22.842  1.00  0.00     0.067 A 
ATOM      7  C   UNL A   1      29.539  26.368  23.554  1.00  0.00     0.054 A 
ATOM      8  C   UNL A   1      28.226  26.762  23.904  1.00  0.00     0.031 A 
ATOM      9  C   UNL A   1      27.687  27.986  23.499  1.00  0.00     0.048 A 
ATOM     10  C   UNL A   1      29.773  28.483  22.405  1.00  0.00     0.062 A 
ATOM     11  C   UNL A   1      28.459  28.826  22.721  1.00  0.00     0.116 A 
BRANCH   7  12
ATOM     12  N   UNL A   1      29.929  25.044  23.876  1.00  0.00    -0.324 N 
ATOM     13  O   UNL A   1      31.101  25.622  25.777  1.00  0.00    -0.273 OA
ATOM     14  C   UNL A   1      30.733  24.764  24.976  1.00  0.00     0.244 C 
ATOM     15  H   UNL A   1      29.623  24.302  23.306  1.00  0.00     0.170 HD
BRANCH  14  16
ATOM     16  C   UNL A   1      31.020  23.278  25.237  1.00  0.00     0.227 C 
BRANCH  16  17
ATOM     17  N   UNL A   1      32.426  22.960  24.932  1.00  0.00    -0.283 N 
ATOM     18  C   UNL A   1      33.297  22.829  25.974  1.00  0.00     0.266 C 
ATOM     19  C   UNL A   1      32.965  22.554  23.738  1.00  0.00     0.148 C 
ATOM     20  O   UNL A   1      32.947  22.643  27.125  1.00  0.00    -0.268 OA
ATOM     21  C   UNL A   1      34.720  22.894  25.512  1.00  0.00     0.081 C 
ATOM     22  S   UNL A   1      34.751  22.592  23.840  1.00  0.00    -0.054 SA
ATOM     23  S   UNL A   1      32.154  22.026  22.386  1.00  0.00    -0.052 S 
ATOM     24  C   UNL A   1      35.637  23.222  26.428  1.00  0.00     0.040 C 
BRANCH  24  25
ATOM     25  C   UNL A   1      37.048  23.418  26.433  1.00  0.00     0.028 A 
ATOM     26  C   UNL A   1      37.894  24.425  26.849  1.00  0.00     0.020 A 
ATOM     27  S   UNL A   1      38.037  22.093  25.839  1.00  0.00    -0.144 S 
ATOM     28  C   UNL A   1      39.262  24.207  26.469  1.00  0.00     0.012 A 
ATOM     29  C   UNL A   1      39.447  23.024  25.797  1.00  0.00     0.065 A 
ENDBRANCH  24  25
ENDBRANCH  16  17
ENDBRANCH  14  16
ENDBRANCH   7  12
BRANCH  11  30
ATOM     30  O   UNL A   1      27.956  29.989  22.218  1.00  0.00    -0.508 OA
ATOM     31  H   UNL A   1      27.493  29.985  21.403  1.00  0.00     0.293 HD
ENDBRANCH  11  30
ENDBRANCH   3   6
ENDBRANCH   1   2
BRANCH   1  32
ATOM     32  C   UNL A   1      33.244  28.798  24.520  1.00  0.00     0.042 C 
BRANCH  32  33
ATOM     33  C   UNL A   1      32.003  29.297  25.315  1.00  0.00     0.118 C 
BRANCH  33  34
ATOM     34  N   UNL A   1      32.164  30.590  26.047  1.00  0.00    -0.352 N 
ATOM     35  C   UNL A   1      32.949  31.332  26.922  1.00  0.00     0.251 C 
ATOM     36  H   UNL A   1      31.390  31.150  25.812  1.00  0.00     0.163 HD
ATOM     37  O   UNL A   1      32.483  32.454  27.169  1.00  0.00    -0.269 OA
BRANCH  35  38
ATOM     38  C   UNL A   1      34.247  31.025  27.632  1.00  0.00     0.039 A 
ATOM     39  C   UNL A   1      34.637  29.690  27.843  1.00  0.00     0.014 A 
ATOM     40  C   UNL A   1      35.051  31.954  28.257  1.00  0.00     0.014 A 
ATOM     41  C   UNL A   1      35.817  29.333  28.573  1.00  0.00     0.010 A 
ATOM     42  C   UNL A   1      36.320  31.612  28.817  1.00  0.00     0.010 A 
ATOM     43  C   UNL A   1      36.736  30.289  29.047  1.00  0.00    -0.014 A 
BRANCH  43  44
ATOM     44  C   UNL A   1      38.031  29.928  29.814  1.00  0.00     0.031 A 
ATOM     45  C   UNL A   1      38.296  30.393  31.264  1.00  0.00     0.074 A 
ATOM     46  C   UNL A   1      39.051  29.217  29.258  1.00  0.00     0.049 A 
ATOM     47  N   UNL A   1      39.353  30.204  32.036  1.00  0.00    -0.248 NA
ATOM     48  C   UNL A   1      37.277  31.231  31.909  1.00  0.00     0.031 C 
ATOM     49  C   UNL A   1      39.131  28.765  27.869  1.00  0.00     0.029 A 
ATOM     50  N   UNL A   1      40.242  28.749  29.803  1.00  0.00    -0.354 N 
ATOM     51  C   UNL A   1      39.135  30.946  33.199  1.00  0.00     0.074 A 
ATOM     52  C   UNL A   1      37.908  31.675  32.985  1.00  0.00     0.031 C 
ATOM     53  C   UNL A   1      40.252  28.046  27.689  1.00  0.00     0.029 A 
ATOM     54  C   UNL A   1      41.010  27.996  28.937  1.00  0.00     0.049 A 
ATOM     55  H   UNL A   1      40.515  28.939  30.729  1.00  0.00     0.167 HD
ATOM     56  C   UNL A   1      39.817  30.984  34.377  1.00  0.00     0.037 A 
ATOM     57  C   UNL A   1      42.175  27.326  29.104  1.00  0.00     0.037 A 
ATOM     58  C   UNL A   1      40.986  30.204  34.695  1.00  0.00     0.049 A 
ATOM     59  C   UNL A   1      42.884  27.304  30.440  1.00  0.00     0.074 A 
ATOM     60  C   UNL A   1      41.651  30.096  35.907  1.00  0.00     0.029 A 
ATOM     61  N   UNL A   1      41.660  29.390  33.803  1.00  0.00    -0.354 N 
ATOM     62  N   UNL A   1      42.567  27.900  31.561  1.00  0.00    -0.248 NA
ATOM     63  C   UNL A   1      44.109  26.488  30.535  1.00  0.00     0.031 C 
ATOM     64  C   UNL A   1      42.752  29.248  35.739  1.00  0.00     0.029 A 
ATOM     65  C   UNL A   1      42.738  28.785  34.436  1.00  0.00     0.049 A 
ATOM     66  H   UNL A   1      41.412  29.258  32.860  1.00  0.00     0.167 HD
ATOM     67  C   UNL A   1      43.520  27.499  32.494  1.00  0.00     0.074 A 
ATOM     68  C   UNL A   1      44.418  26.592  31.819  1.00  0.00     0.031 C 
ATOM     69  C   UNL A   1      43.632  27.858  33.796  1.00  0.00     0.037 A 
BRANCH  56  70
ATOM     70  C   UNL A   1      39.273  31.868  35.477  1.00  0.00     0.064 A 
ATOM     71  C   UNL A   1      38.415  31.360  36.468  1.00  0.00     0.173 A 
ATOM     72  C   UNL A   1      39.657  33.215  35.583  1.00  0.00     0.173 A 
ATOM     73  F   UNL A   1      38.020  30.078  36.425  1.00  0.00    -0.203 F 
ATOM     74  C   UNL A   1      37.920  32.174  37.482  1.00  0.00     0.198 A 
ATOM     75  C   UNL A   1      39.195  34.016  36.628  1.00  0.00     0.198 A 
ATOM     76  F   UNL A   1      40.498  33.753  34.687  1.00  0.00    -0.203 F 
ATOM     77  F   UNL A   1      37.046  31.679  38.369  1.00  0.00    -0.200 F 
ATOM     78  C   UNL A   1      38.315  33.500  37.566  1.00  0.00     0.200 A 
ATOM     79  F   UNL A   1      39.600  35.289  36.725  1.00  0.00    -0.200 F 
ATOM     80  F   UNL A   1      37.845  34.279  38.550  1.00  0.00    -0.200 F 
ENDBRANCH  56  70
BRANCH  57  81
ATOM     81  C   UNL A   1      42.745  26.518  27.982  1.00  0.00     0.064 A 
ATOM     82  C   UNL A   1      43.549  27.125  27.002  1.00  0.00     0.173 A 
ATOM     83  C   UNL A   1      42.455  25.156  27.826  1.00  0.00     0.173 A 
ATOM     84  F   UNL A   1      43.821  28.437  27.080  1.00  0.00    -0.203 F 
ATOM     85  C   UNL A   1      44.017  26.410  25.901  1.00  0.00     0.198 A 
ATOM     86  C   UNL A   1      42.952  24.432  26.740  1.00  0.00     0.198 A 
ATOM     87  F   UNL A   1      41.684  24.527  28.724  1.00  0.00    -0.203 F 
ATOM     88  F   UNL A   1      44.725  27.034  24.949  1.00  0.00    -0.200 F 
ATOM     89  C   UNL A   1      43.723  25.061  25.775  1.00  0.00     0.200 A 
ATOM     90  F   UNL A   1      42.672  23.127  26.622  1.00  0.00    -0.200 F 
ATOM     91  F   UNL A   1      44.172  24.372  24.716  1.00  0.00    -0.200 F 
ENDBRANCH  57  81
BRANCH  69  92
ATOM     92  C   UNL A   1      44.726  27.229  34.615  1.00  0.00     0.064 A 
ATOM     93  C   UNL A   1      44.539  26.026  35.314  1.00  0.00     0.173 A 
ATOM     94  C   UNL A   1      45.993  27.832  34.689  1.00  0.00     0.173 A 
ATOM     95  F   UNL A   1      43.348  25.408  35.285  1.00  0.00    -0.203 F 
ATOM     96  C   UNL A   1      45.560  25.475  36.085  1.00  0.00     0.198 A 
ATOM     97  C   UNL A   1      47.023  27.260  35.434  1.00  0.00     0.198 A 
ATOM     98  F   UNL A   1      46.238  28.975  34.032  1.00  0.00    -0.203 F 
ATOM     99  F   UNL A   1      45.336  24.358  36.792  1.00  0.00    -0.200 F 
ATOM    100  C   UNL A   1      46.801  26.089  36.142  1.00  0.00     0.200 A 
ATOM    101  F   UNL A   1      48.227  27.847  35.472  1.00  0.00    -0.200 F 
ATOM    102  F   UNL A   1      47.782  25.559  36.886  1.00  0.00    -0.200 F 
ENDBRANCH  69  92
ENDBRANCH  43  44
ENDBRANCH  35  38
ENDBRANCH  33  34
ENDBRANCH  32  33
ENDBRANCH   1  32
TORSDOF 15
ENDMDL
