MODEL 1
REMARK VINA RESULT:     -14.3      0.000      0.000
REMARK SMILES O=C(NCCCNC(=O)[C@@H]1CCCC[C@H]1C(=O)Nc1ccccc1C(=O)N1CCOCC1)c1ccc(-c2c3nc(c(-c4c(F)c(F)c(F)c(F)c4F)c4ccc([nH]4)c(-c4c(F)c(F)c(F)c(F)c4F)c4nc(c(-c5c(F)c(F)c(F)c(F)c5F)c5ccc2[nH]5)C=C4)C=C3)cc1
REMARK SMILES IDX 5 1 4 2 3 3 1 4 2 5 33 7 34 8 95 9 35 10 94 11 36 12 37 13
REMARK SMILES IDX 38 14 88 15 39 16 93 17 87 18 89 19 40 20 92 21 86 22 85 23
REMARK SMILES IDX 41 25 73 26 53 27 72 28 54 29 57 30 71 31 90 32 55 33 56 34
REMARK SMILES IDX 70 36 91 37 58 38 42 39 43 40 51 41 44 42 45 43 49 44 52 45
REMARK SMILES IDX 46 46 47 47 50 48 48 49 74 50 75 51 83 52 76 53 77 54 81 55
REMARK SMILES IDX 84 56 78 57 79 58 82 59 80 60 59 61 60 62 68 63 61 64 62 65
REMARK SMILES IDX 66 66 69 67 63 68 64 69 67 70 65 71 6 72 7 73 8 74 9 76
REMARK SMILES IDX 10 77 11 78 15 79 12 80 14 81 13 82 16 83 17 84 18 85 19 87
REMARK SMILES IDX 20 88 24 89 21 90 23 91 22 92 25 93 26 94 27 95 28 96 32 97
REMARK SMILES IDX 29 98 31 99 30 100
REMARK H PARENT 3 6 89 24 57 35 7 75 18 86
REMARK Flexibility Score: inf
ROOT
ATOM      1  C   UNL A   1      32.921  30.977  26.659  1.00  0.00     0.042 C 
ENDROOT
BRANCH   1   2
ATOM      2  C   UNL A   1      31.805  32.023  26.800  1.00  0.00     0.118 C 
BRANCH   2   3
ATOM      3  N   UNL A   1      32.234  33.348  27.252  1.00  0.00    -0.352 N 
ATOM      4  O   UNL A   1      33.283  35.138  28.022  1.00  0.00    -0.269 OA
ATOM      5  C   UNL A   1      33.324  33.902  27.887  1.00  0.00     0.251 C 
ATOM      6  H   UNL A   1      31.557  34.032  27.046  1.00  0.00     0.163 HD
BRANCH   5   7
ATOM      7  C   UNL A   1      34.537  33.203  28.426  1.00  0.00     0.039 A 
ATOM      8  C   UNL A   1      35.856  33.504  28.104  1.00  0.00     0.014 A 
ATOM      9  C   UNL A   1      34.333  32.214  29.417  1.00  0.00     0.014 A 
ATOM     10  C   UNL A   1      36.925  32.795  28.685  1.00  0.00     0.010 A 
ATOM     11  C   UNL A   1      35.403  31.559  30.060  1.00  0.00     0.010 A 
ATOM     12  C   UNL A   1      36.724  31.836  29.693  1.00  0.00    -0.014 A 
BRANCH  12  13
ATOM     13  C   UNL A   1      37.893  31.216  30.400  1.00  0.00     0.031 A 
ATOM     14  C   UNL A   1      38.239  31.564  31.827  1.00  0.00     0.074 A 
ATOM     15  C   UNL A   1      38.660  30.320  29.745  1.00  0.00     0.049 A 
ATOM     16  N   UNL A   1      39.228  31.129  32.573  1.00  0.00    -0.248 NA
ATOM     17  C   UNL A   1      37.367  32.532  32.505  1.00  0.00     0.031 C 
ATOM     18  C   UNL A   1      38.463  29.906  28.355  1.00  0.00     0.029 A 
ATOM     19  N   UNL A   1      39.750  29.583  30.152  1.00  0.00    -0.354 N 
ATOM     20  C   UNL A   1      39.111  31.785  33.794  1.00  0.00     0.074 A 
ATOM     21  C   UNL A   1      37.969  32.667  33.680  1.00  0.00     0.031 C 
ATOM     22  C   UNL A   1      39.356  28.957  28.042  1.00  0.00     0.029 A 
ATOM     23  C   UNL A   1      40.246  28.747  29.179  1.00  0.00     0.049 A 
ATOM     24  H   UNL A   1      40.137  29.647  31.055  1.00  0.00     0.167 HD
ATOM     25  C   UNL A   1      39.880  31.659  34.906  1.00  0.00     0.037 A 
ATOM     26  C   UNL A   1      41.312  27.924  29.177  1.00  0.00     0.037 A 
ATOM     27  C   UNL A   1      41.013  30.772  35.023  1.00  0.00     0.049 A 
ATOM     28  C   UNL A   1      42.164  27.824  30.411  1.00  0.00     0.074 A 
ATOM     29  C   UNL A   1      41.832  30.553  36.118  1.00  0.00     0.029 A 
ATOM     30  N   UNL A   1      41.494  29.962  34.002  1.00  0.00    -0.354 N 
ATOM     31  N   UNL A   1      42.022  28.430  31.564  1.00  0.00    -0.248 NA
ATOM     32  C   UNL A   1      43.331  26.933  30.341  1.00  0.00     0.031 C 
ATOM     33  C   UNL A   1      42.839  29.656  35.745  1.00  0.00     0.029 A 
ATOM     34  C   UNL A   1      42.612  29.264  34.436  1.00  0.00     0.049 A 
ATOM     35  H   UNL A   1      41.100  29.894  33.102  1.00  0.00     0.167 HD
ATOM     36  C   UNL A   1      43.063  27.980  32.363  1.00  0.00     0.074 A 
ATOM     37  C   UNL A   1      43.822  27.037  31.568  1.00  0.00     0.031 C 
ATOM     38  C   UNL A   1      43.360  28.321  33.641  1.00  0.00     0.037 A 
BRANCH  25  39
ATOM     39  C   UNL A   1      39.543  32.529  36.089  1.00  0.00     0.064 A 
ATOM     40  C   UNL A   1      40.150  33.778  36.290  1.00  0.00     0.173 A 
ATOM     41  C   UNL A   1      38.571  32.122  37.018  1.00  0.00     0.173 A 
ATOM     42  F   UNL A   1      41.085  34.221  35.435  1.00  0.00    -0.203 F 
ATOM     43  C   UNL A   1      39.831  34.563  37.397  1.00  0.00     0.198 A 
ATOM     44  C   UNL A   1      38.230  32.924  38.105  1.00  0.00     0.198 A 
ATOM     45  F   UNL A   1      37.942  30.946  36.868  1.00  0.00    -0.203 F 
ATOM     46  F   UNL A   1      40.469  35.726  37.598  1.00  0.00    -0.200 F 
ATOM     47  C   UNL A   1      38.869  34.139  38.301  1.00  0.00     0.200 A 
ATOM     48  F   UNL A   1      37.285  32.521  38.966  1.00  0.00    -0.200 F 
ATOM     49  F   UNL A   1      38.562  34.897  39.362  1.00  0.00    -0.200 F 
ENDBRANCH  25  39
BRANCH  26  50
ATOM     50  C   UNL A   1      41.636  27.139  27.954  1.00  0.00     0.064 A 
ATOM     51  C   UNL A   1      42.462  27.663  26.951  1.00  0.00     0.173 A 
ATOM     52  C   UNL A   1      41.144  25.836  27.777  1.00  0.00     0.173 A 
ATOM     53  F   UNL A   1      42.939  28.912  27.061  1.00  0.00    -0.203 F 
ATOM     54  C   UNL A   1      42.778  26.919  25.817  1.00  0.00     0.198 A 
ATOM     55  C   UNL A   1      41.489  25.080  26.659  1.00  0.00     0.198 A 
ATOM     56  F   UNL A   1      40.350  25.285  28.707  1.00  0.00    -0.203 F 
ATOM     57  F   UNL A   1      43.540  27.458  24.855  1.00  0.00    -0.200 F 
ATOM     58  C   UNL A   1      42.301  25.624  25.676  1.00  0.00     0.200 A 
ATOM     59  F   UNL A   1      41.041  23.824  26.538  1.00  0.00    -0.200 F 
ATOM     60  F   UNL A   1      42.620  24.903  24.593  1.00  0.00    -0.200 F 
ENDBRANCH  26  50
BRANCH  38  61
ATOM     61  C   UNL A   1      44.534  27.636  34.281  1.00  0.00     0.064 A 
ATOM     62  C   UNL A   1      45.821  28.190  34.256  1.00  0.00     0.173 A 
ATOM     63  C   UNL A   1      44.356  26.419  34.959  1.00  0.00     0.173 A 
ATOM     64  F   UNL A   1      46.048  29.342  33.605  1.00  0.00    -0.203 F 
ATOM     65  C   UNL A   1      46.893  27.542  34.867  1.00  0.00     0.198 A 
ATOM     66  C   UNL A   1      45.423  25.791  35.596  1.00  0.00     0.198 A 
ATOM     67  F   UNL A   1      43.145  25.846  35.015  1.00  0.00    -0.203 F 
ATOM     68  F   UNL A   1      48.124  28.066  34.787  1.00  0.00    -0.200 F 
ATOM     69  C   UNL A   1      46.692  26.348  35.542  1.00  0.00     0.200 A 
ATOM     70  F   UNL A   1      45.223  24.644  36.260  1.00  0.00    -0.200 F 
ATOM     71  F   UNL A   1      47.722  25.730  36.137  1.00  0.00    -0.200 F 
ENDBRANCH  38  61
ENDBRANCH  12  13
ENDBRANCH   5   7
ENDBRANCH   2   3
ENDBRANCH   1   2
BRANCH   1  72
ATOM     72  C   UNL A   1      32.728  29.540  27.260  1.00  0.00     0.117 C 
BRANCH  72  73
ATOM     73  N   UNL A   1      32.527  28.450  26.233  1.00  0.00    -0.356 N 
ATOM     74  C   UNL A   1      31.852  27.261  26.465  1.00  0.00     0.223 C 
ATOM     75  H   UNL A   1      32.902  28.595  25.334  1.00  0.00     0.163 HD
ATOM     76  O   UNL A   1      31.040  27.266  27.397  1.00  0.00    -0.275 OA
BRANCH  74  77
ATOM     77  C   UNL A   1      32.043  25.907  25.510  1.00  0.00     0.091 C 
ATOM     78  C   UNL A   1      31.506  26.476  24.133  1.00  0.00     0.014 C 
ATOM     79  C   UNL A   1      31.243  24.505  25.754  1.00  0.00     0.091 C 
ATOM     80  C   UNL A   1      31.339  25.521  22.960  1.00  0.00     0.001 C 
ATOM     81  C   UNL A   1      31.179  23.627  24.472  1.00  0.00     0.014 C 
ATOM     82  C   UNL A   1      30.483  24.339  23.345  1.00  0.00     0.001 C 
BRANCH  79  83
ATOM     83  C   UNL A   1      31.327  23.321  26.808  1.00  0.00     0.228 C 
ATOM     84  O   UNL A   1      30.372  23.181  27.590  1.00  0.00    -0.274 OA
ATOM     85  N   UNL A   1      32.221  22.287  26.816  1.00  0.00    -0.325 N 
ATOM     86  H   UNL A   1      31.964  21.508  27.362  1.00  0.00     0.169 HD
BRANCH  85  87
ATOM     87  C   UNL A   1      33.443  22.183  26.164  1.00  0.00     0.054 A 
ATOM     88  C   UNL A   1      34.285  23.300  26.173  1.00  0.00     0.027 A 
ATOM     89  C   UNL A   1      33.873  20.993  25.600  1.00  0.00     0.063 A 
ATOM     90  C   UNL A   1      35.649  23.127  25.945  1.00  0.00     0.002 A 
ATOM     91  C   UNL A   1      35.255  20.795  25.456  1.00  0.00     0.016 A 
ATOM     92  C   UNL A   1      36.145  21.852  25.683  1.00  0.00     0.001 A 
BRANCH  89  93
ATOM     93  C   UNL A   1      32.892  20.012  25.022  1.00  0.00     0.256 C 
ATOM     94  O   UNL A   1      31.726  20.367  24.870  1.00  0.00    -0.269 OA
ATOM     95  N   UNL A   1      33.304  18.677  24.808  1.00  0.00    -0.334 N 
ATOM     96  C   UNL A   1      32.717  17.708  25.719  1.00  0.00     0.148 C 
ATOM     97  C   UNL A   1      33.432  18.096  23.454  1.00  0.00     0.148 C 
ATOM     98  C   UNL A   1      33.417  16.350  25.598  1.00  0.00     0.181 C 
ATOM     99  C   UNL A   1      34.036  16.704  23.364  1.00  0.00     0.181 C 
ATOM    100  O   UNL A   1      33.346  15.828  24.262  1.00  0.00    -0.378 OA
ENDBRANCH  89  93
ENDBRANCH  85  87
ENDBRANCH  79  83
ENDBRANCH  74  77
ENDBRANCH  72  73
ENDBRANCH   1  72
TORSDOF 13
ENDMDL
MODEL 2
REMARK VINA RESULT:     -14.1      0.343      7.164
REMARK SMILES O=C(NCCCNC(=O)[C@@H]1CCCC[C@H]1C(=O)Nc1ccccc1C(=O)N1CCOCC1)c1ccc(-c2c3nc(c(-c4c(F)c(F)c(F)c(F)c4F)c4ccc([nH]4)c(-c4c(F)c(F)c(F)c(F)c4F)c4nc(c(-c5c(F)c(F)c(F)c(F)c5F)c5ccc2[nH]5)C=C4)C=C3)cc1
REMARK SMILES IDX 5 1 4 2 3 3 1 4 2 5 33 7 34 8 95 9 35 10 94 11 36 12 37 13
REMARK SMILES IDX 38 14 88 15 39 16 93 17 87 18 89 19 40 20 92 21 86 22 85 23
REMARK SMILES IDX 41 25 73 26 53 27 72 28 54 29 57 30 71 31 90 32 55 33 56 34
REMARK SMILES IDX 70 36 91 37 58 38 42 39 43 40 51 41 44 42 45 43 49 44 52 45
REMARK SMILES IDX 46 46 47 47 50 48 48 49 74 50 75 51 83 52 76 53 77 54 81 55
REMARK SMILES IDX 84 56 78 57 79 58 82 59 80 60 59 61 60 62 68 63 61 64 62 65
REMARK SMILES IDX 66 66 69 67 63 68 64 69 67 70 65 71 6 72 7 73 8 74 9 76
REMARK SMILES IDX 10 77 11 78 15 79 12 80 14 81 13 82 16 83 17 84 18 85 19 87
REMARK SMILES IDX 20 88 24 89 21 90 23 91 22 92 25 93 26 94 27 95 28 96 32 97
REMARK SMILES IDX 29 98 31 99 30 100
REMARK H PARENT 3 6 89 24 57 35 7 75 18 86
REMARK Flexibility Score: inf
ROOT
ATOM      1  C   UNL A   1      32.831  30.969  26.539  1.00  0.00     0.042 C 
ENDROOT
BRANCH   1   2
ATOM      2  C   UNL A   1      31.756  31.991  26.939  1.00  0.00     0.118 C 
BRANCH   2   3
ATOM      3  N   UNL A   1      32.248  33.335  27.252  1.00  0.00    -0.352 N 
ATOM      4  O   UNL A   1      33.385  35.145  27.823  1.00  0.00    -0.269 OA
ATOM      5  C   UNL A   1      33.375  33.902  27.806  1.00  0.00     0.251 C 
ATOM      6  H   UNL A   1      31.592  34.023  26.996  1.00  0.00     0.163 HD
BRANCH   5   7
ATOM      7  C   UNL A   1      34.575  33.208  28.382  1.00  0.00     0.039 A 
ATOM      8  C   UNL A   1      35.901  33.525  28.111  1.00  0.00     0.014 A 
ATOM      9  C   UNL A   1      34.344  32.207  29.354  1.00  0.00     0.014 A 
ATOM     10  C   UNL A   1      36.955  32.819  28.723  1.00  0.00     0.010 A 
ATOM     11  C   UNL A   1      35.396  31.556  30.029  1.00  0.00     0.010 A 
ATOM     12  C   UNL A   1      36.727  31.848  29.713  1.00  0.00    -0.014 A 
BRANCH  12  13
ATOM     13  C   UNL A   1      37.875  31.232  30.455  1.00  0.00     0.031 A 
ATOM     14  C   UNL A   1      38.808  30.241  29.803  1.00  0.00     0.074 A 
ATOM     15  C   UNL A   1      38.086  31.572  31.745  1.00  0.00     0.049 A 
ATOM     16  N   UNL A   1      39.836  29.605  30.315  1.00  0.00    -0.248 NA
ATOM     17  C   UNL A   1      38.549  29.913  28.395  1.00  0.00     0.031 C 
ATOM     18  C   UNL A   1      37.252  32.497  32.514  1.00  0.00     0.029 A 
ATOM     19  N   UNL A   1      39.066  31.197  32.637  1.00  0.00    -0.354 N 
ATOM     20  C   UNL A   1      40.330  28.788  29.303  1.00  0.00     0.074 A 
ATOM     21  C   UNL A   1      39.472  28.990  28.154  1.00  0.00     0.031 C 
ATOM     22  C   UNL A   1      37.780  32.661  33.735  1.00  0.00     0.029 A 
ATOM     23  C   UNL A   1      38.945  31.793  33.871  1.00  0.00     0.049 A 
ATOM     24  H   UNL A   1      39.785  30.563  32.413  1.00  0.00     0.167 HD
ATOM     25  C   UNL A   1      41.400  27.953  29.328  1.00  0.00     0.037 A 
ATOM     26  C   UNL A   1      39.664  31.645  35.001  1.00  0.00     0.037 A 
ATOM     27  C   UNL A   1      42.261  27.759  30.470  1.00  0.00     0.049 A 
ATOM     28  C   UNL A   1      40.826  30.693  35.011  1.00  0.00     0.074 A 
ATOM     29  C   UNL A   1      43.387  26.959  30.580  1.00  0.00     0.029 A 
ATOM     30  N   UNL A   1      42.086  28.365  31.708  1.00  0.00    -0.354 N 
ATOM     31  N   UNL A   1      41.295  29.952  34.038  1.00  0.00    -0.248 NA
ATOM     32  C   UNL A   1      41.555  30.550  36.280  1.00  0.00     0.031 C 
ATOM     33  C   UNL A   1      43.858  27.037  31.895  1.00  0.00     0.029 A 
ATOM     34  C   UNL A   1      43.067  27.936  32.590  1.00  0.00     0.049 A 
ATOM     35  H   UNL A   1      41.370  29.004  31.926  1.00  0.00     0.167 HD
ATOM     36  C   UNL A   1      42.383  29.271  34.565  1.00  0.00     0.074 A 
ATOM     37  C   UNL A   1      42.515  29.699  35.942  1.00  0.00     0.031 C 
ATOM     38  C   UNL A   1      43.197  28.372  33.960  1.00  0.00     0.037 A 
BRANCH  25  39
ATOM     39  C   UNL A   1      41.690  27.152  28.085  1.00  0.00     0.064 A 
ATOM     40  C   UNL A   1      41.089  25.906  27.847  1.00  0.00     0.173 A 
ATOM     41  C   UNL A   1      42.555  27.655  27.100  1.00  0.00     0.173 A 
ATOM     42  F   UNL A   1      40.253  25.375  28.752  1.00  0.00    -0.203 F 
ATOM     43  C   UNL A   1      41.378  25.177  26.694  1.00  0.00     0.198 A 
ATOM     44  C   UNL A   1      42.815  26.939  25.933  1.00  0.00     0.198 A 
ATOM     45  F   UNL A   1      43.143  28.851  27.262  1.00  0.00    -0.203 F 
ATOM     46  F   UNL A   1      40.837  23.962  26.519  1.00  0.00    -0.200 F 
ATOM     47  C   UNL A   1      42.236  25.695  25.737  1.00  0.00     0.200 A 
ATOM     48  F   UNL A   1      43.629  27.452  24.999  1.00  0.00    -0.200 F 
ATOM     49  F   UNL A   1      42.510  24.993  24.629  1.00  0.00    -0.200 F 
ENDBRANCH  25  39
BRANCH  26  50
ATOM     50  C   UNL A   1      39.289  32.412  36.220  1.00  0.00     0.064 A 
ATOM     51  C   UNL A   1      38.372  31.902  37.148  1.00  0.00     0.173 A 
ATOM     52  C   UNL A   1      39.861  33.665  36.493  1.00  0.00     0.173 A 
ATOM     53  F   UNL A   1      37.778  30.720  36.922  1.00  0.00    -0.203 F 
ATOM     54  C   UNL A   1      38.037  32.615  38.297  1.00  0.00     0.198 A 
ATOM     55  C   UNL A   1      39.552  34.361  37.659  1.00  0.00     0.198 A 
ATOM     56  F   UNL A   1      40.746  34.200  35.639  1.00  0.00    -0.203 F 
ATOM     57  F   UNL A   1      37.129  32.120  39.149  1.00  0.00    -0.200 F 
ATOM     58  C   UNL A   1      38.635  33.839  38.557  1.00  0.00     0.200 A 
ATOM     59  F   UNL A   1      40.148  35.533  37.915  1.00  0.00    -0.200 F 
ATOM     60  F   UNL A   1      38.326  34.516  39.671  1.00  0.00    -0.200 F 
ENDBRANCH  26  50
BRANCH  38  61
ATOM     61  C   UNL A   1      44.337  27.821  34.768  1.00  0.00     0.064 A 
ATOM     62  C   UNL A   1      45.578  28.468  34.838  1.00  0.00     0.173 A 
ATOM     63  C   UNL A   1      44.169  26.641  35.510  1.00  0.00     0.173 A 
ATOM     64  F   UNL A   1      45.796  29.589  34.133  1.00  0.00    -0.203 F 
ATOM     65  C   UNL A   1      46.618  27.944  35.604  1.00  0.00     0.198 A 
ATOM     66  C   UNL A   1      45.200  26.137  36.299  1.00  0.00     0.198 A 
ATOM     67  F   UNL A   1      43.001  25.982  35.480  1.00  0.00    -0.203 F 
ATOM     68  F   UNL A   1      47.811  28.553  35.616  1.00  0.00    -0.200 F 
ATOM     69  C   UNL A   1      46.425  26.785  36.339  1.00  0.00     0.200 A 
ATOM     70  F   UNL A   1      45.007  25.023  37.021  1.00  0.00    -0.200 F 
ATOM     71  F   UNL A   1      47.424  26.286  37.082  1.00  0.00    -0.200 F 
ENDBRANCH  38  61
ENDBRANCH  12  13
ENDBRANCH   5   7
ENDBRANCH   2   3
ENDBRANCH   1   2
BRANCH   1  72
ATOM     72  C   UNL A   1      32.813  29.530  27.165  1.00  0.00     0.117 C 
BRANCH  72  73
ATOM     73  N   UNL A   1      32.524  28.419  26.183  1.00  0.00    -0.356 N 
ATOM     74  C   UNL A   1      31.980  27.188  26.518  1.00  0.00     0.223 C 
ATOM     75  H   UNL A   1      32.736  28.582  25.235  1.00  0.00     0.163 HD
ATOM     76  O   UNL A   1      31.331  27.146  27.570  1.00  0.00    -0.275 OA
BRANCH  74  77
ATOM     77  C   UNL A   1      32.106  25.842  25.542  1.00  0.00     0.091 C 
ATOM     78  C   UNL A   1      31.533  26.439  24.192  1.00  0.00     0.014 C 
ATOM     79  C   UNL A   1      31.285  24.455  25.799  1.00  0.00     0.091 C 
ATOM     80  C   UNL A   1      31.303  25.502  23.014  1.00  0.00     0.001 C 
ATOM     81  C   UNL A   1      31.155  23.595  24.511  1.00  0.00     0.014 C 
ATOM     82  C   UNL A   1      30.436  24.335  23.417  1.00  0.00     0.001 C 
BRANCH  79  83
ATOM     83  C   UNL A   1      31.380  23.257  26.835  1.00  0.00     0.228 C 
ATOM     84  O   UNL A   1      30.433  23.106  27.626  1.00  0.00    -0.274 OA
ATOM     85  N   UNL A   1      32.275  22.223  26.821  1.00  0.00    -0.325 N 
ATOM     86  H   UNL A   1      32.023  21.437  27.358  1.00  0.00     0.169 HD
BRANCH  85  87
ATOM     87  C   UNL A   1      33.490  22.129  26.154  1.00  0.00     0.054 A 
ATOM     88  C   UNL A   1      34.334  23.245  26.174  1.00  0.00     0.027 A 
ATOM     89  C   UNL A   1      33.913  20.948  25.567  1.00  0.00     0.063 A 
ATOM     90  C   UNL A   1      35.695  23.075  25.928  1.00  0.00     0.002 A 
ATOM     91  C   UNL A   1      35.294  20.752  25.406  1.00  0.00     0.016 A 
ATOM     92  C   UNL A   1      36.187  21.803  25.641  1.00  0.00     0.001 A 
BRANCH  89  93
ATOM     93  C   UNL A   1      32.925  19.977  24.983  1.00  0.00     0.256 C 
ATOM     94  O   UNL A   1      31.778  20.362  24.770  1.00  0.00    -0.269 OA
ATOM     95  N   UNL A   1      33.303  18.624  24.832  1.00  0.00    -0.334 N 
ATOM     96  C   UNL A   1      32.648  17.707  25.751  1.00  0.00     0.148 C 
ATOM     97  C   UNL A   1      33.466  17.991  23.505  1.00  0.00     0.148 C 
ATOM     98  C   UNL A   1      33.308  16.324  25.707  1.00  0.00     0.181 C 
ATOM     99  C   UNL A   1      34.028  16.579  23.489  1.00  0.00     0.181 C 
ATOM    100  O   UNL A   1      33.274  15.757  24.388  1.00  0.00    -0.378 OA
ENDBRANCH  89  93
ENDBRANCH  85  87
ENDBRANCH  79  83
ENDBRANCH  74  77
ENDBRANCH  72  73
ENDBRANCH   1  72
TORSDOF 13
ENDMDL
MODEL 3
REMARK VINA RESULT:     -13.9      4.833     10.285
REMARK SMILES O=C(NCCCNC(=O)[C@@H]1CCCC[C@H]1C(=O)Nc1ccccc1C(=O)N1CCOCC1)c1ccc(-c2c3nc(c(-c4c(F)c(F)c(F)c(F)c4F)c4ccc([nH]4)c(-c4c(F)c(F)c(F)c(F)c4F)c4nc(c(-c5c(F)c(F)c(F)c(F)c5F)c5ccc2[nH]5)C=C4)C=C3)cc1
REMARK SMILES IDX 5 1 4 2 3 3 1 4 2 5 33 7 34 8 95 9 35 10 94 11 36 12 37 13
REMARK SMILES IDX 38 14 88 15 39 16 93 17 87 18 89 19 40 20 92 21 86 22 85 23
REMARK SMILES IDX 41 25 73 26 53 27 72 28 54 29 57 30 71 31 90 32 55 33 56 34
REMARK SMILES IDX 70 36 91 37 58 38 42 39 43 40 51 41 44 42 45 43 49 44 52 45
REMARK SMILES IDX 46 46 47 47 50 48 48 49 74 50 75 51 83 52 76 53 77 54 81 55
REMARK SMILES IDX 84 56 78 57 79 58 82 59 80 60 59 61 60 62 68 63 61 64 62 65
REMARK SMILES IDX 66 66 69 67 63 68 64 69 67 70 65 71 6 72 7 73 8 74 9 76
REMARK SMILES IDX 10 77 11 78 15 79 12 80 14 81 13 82 16 83 17 84 18 85 19 87
REMARK SMILES IDX 20 88 24 89 21 90 23 91 22 92 25 93 26 94 27 95 28 96 32 97
REMARK SMILES IDX 29 98 31 99 30 100
REMARK H PARENT 3 6 89 24 57 35 7 75 18 86
REMARK Flexibility Score: inf
ROOT
ATOM      1  C   UNL A   1      39.277  20.985  25.750  1.00  0.00     0.042 C 
ENDROOT
BRANCH   1   2
ATOM      2  C   UNL A   1      39.259  19.449  25.793  1.00  0.00     0.118 C 
BRANCH   2   3
ATOM      3  N   UNL A   1      40.573  18.803  25.797  1.00  0.00    -0.352 N 
ATOM      4  O   UNL A   1      42.702  18.228  25.977  1.00  0.00    -0.269 OA
ATOM      5  C   UNL A   1      41.882  19.162  26.034  1.00  0.00     0.251 C 
ATOM      6  H   UNL A   1      40.502  17.848  25.565  1.00  0.00     0.163 HD
BRANCH   5   7
ATOM      7  C   UNL A   1      42.428  20.523  26.349  1.00  0.00     0.039 A 
ATOM      8  C   UNL A   1      42.927  21.431  25.421  1.00  0.00     0.014 A 
ATOM      9  C   UNL A   1      42.345  20.964  27.690  1.00  0.00     0.014 A 
ATOM     10  C   UNL A   1      43.399  22.695  25.824  1.00  0.00     0.010 A 
ATOM     11  C   UNL A   1      42.740  22.259  28.083  1.00  0.00     0.010 A 
ATOM     12  C   UNL A   1      43.285  23.146  27.150  1.00  0.00    -0.014 A 
BRANCH  12  13
ATOM     13  C   UNL A   1      43.652  24.555  27.510  1.00  0.00     0.031 A 
ATOM     14  C   UNL A   1      45.085  25.028  27.528  1.00  0.00     0.074 A 
ATOM     15  C   UNL A   1      42.674  25.431  27.826  1.00  0.00     0.049 A 
ATOM     16  N   UNL A   1      45.567  26.210  27.835  1.00  0.00    -0.248 NA
ATOM     17  C   UNL A   1      46.113  24.045  27.161  1.00  0.00     0.031 C 
ATOM     18  C   UNL A   1      41.247  25.110  27.877  1.00  0.00     0.029 A 
ATOM     19  N   UNL A   1      42.719  26.767  28.153  1.00  0.00    -0.354 N 
ATOM     20  C   UNL A   1      46.949  26.106  27.722  1.00  0.00     0.074 A 
ATOM     21  C   UNL A   1      47.231  24.737  27.343  1.00  0.00     0.031 C 
ATOM     22  C   UNL A   1      40.551  26.220  28.157  1.00  0.00     0.029 A 
ATOM     23  C   UNL A   1      41.482  27.320  28.389  1.00  0.00     0.049 A 
ATOM     24  H   UNL A   1      43.558  27.280  28.212  1.00  0.00     0.167 HD
ATOM     25  C   UNL A   1      47.894  27.062  27.912  1.00  0.00     0.037 A 
ATOM     26  C   UNL A   1      41.124  28.559  28.777  1.00  0.00     0.037 A 
ATOM     27  C   UNL A   1      47.613  28.430  28.281  1.00  0.00     0.049 A 
ATOM     28  C   UNL A   1      42.191  29.592  29.007  1.00  0.00     0.074 A 
ATOM     29  C   UNL A   1      48.501  29.477  28.464  1.00  0.00     0.029 A 
ATOM     30  N   UNL A   1      46.346  28.938  28.533  1.00  0.00    -0.354 N 
ATOM     31  N   UNL A   1      43.489  29.484  28.868  1.00  0.00    -0.248 NA
ATOM     32  C   UNL A   1      41.744  30.918  29.459  1.00  0.00     0.031 C 
ATOM     33  C   UNL A   1      47.779  30.600  28.881  1.00  0.00     0.029 A 
ATOM     34  C   UNL A   1      46.433  30.275  28.895  1.00  0.00     0.049 A 
ATOM     35  H   UNL A   1      45.508  28.425  28.467  1.00  0.00     0.167 HD
ATOM     36  C   UNL A   1      44.013  30.727  29.192  1.00  0.00     0.074 A 
ATOM     37  C   UNL A   1      42.891  31.581  29.520  1.00  0.00     0.031 C 
ATOM     38  C   UNL A   1      45.310  31.122  29.215  1.00  0.00     0.037 A 
BRANCH  25  39
ATOM     39  C   UNL A   1      49.338  26.659  27.754  1.00  0.00     0.064 A 
ATOM     40  C   UNL A   1      49.942  26.541  26.493  1.00  0.00     0.173 A 
ATOM     41  C   UNL A   1      50.138  26.420  28.883  1.00  0.00     0.173 A 
ATOM     42  F   UNL A   1      49.228  26.757  25.378  1.00  0.00    -0.203 F 
ATOM     43  C   UNL A   1      51.276  26.156  26.368  1.00  0.00     0.198 A 
ATOM     44  C   UNL A   1      51.480  26.069  28.756  1.00  0.00     0.198 A 
ATOM     45  F   UNL A   1      49.621  26.537  30.116  1.00  0.00    -0.203 F 
ATOM     46  F   UNL A   1      51.814  25.992  25.150  1.00  0.00    -0.200 F 
ATOM     47  C   UNL A   1      52.045  25.925  27.498  1.00  0.00     0.200 A 
ATOM     48  F   UNL A   1      52.227  25.867  29.851  1.00  0.00    -0.200 F 
ATOM     49  F   UNL A   1      53.328  25.558  27.376  1.00  0.00    -0.200 F 
ENDBRANCH  25  39
BRANCH  26  50
ATOM     50  C   UNL A   1      39.686  28.882  28.983  1.00  0.00     0.064 A 
ATOM     51  C   UNL A   1      38.876  29.305  27.921  1.00  0.00     0.173 A 
ATOM     52  C   UNL A   1      39.086  28.748  30.245  1.00  0.00     0.173 A 
ATOM     53  F   UNL A   1      39.405  29.472  26.699  1.00  0.00    -0.203 F 
ATOM     54  C   UNL A   1      37.525  29.589  28.113  1.00  0.00     0.198 A 
ATOM     55  C   UNL A   1      37.728  28.999  30.429  1.00  0.00     0.198 A 
ATOM     56  F   UNL A   1      39.815  28.345  31.296  1.00  0.00    -0.203 F 
ATOM     57  F   UNL A   1      36.782  30.028  27.088  1.00  0.00    -0.200 F 
ATOM     58  C   UNL A   1      36.950  29.425  29.364  1.00  0.00     0.200 A 
ATOM     59  F   UNL A   1      37.174  28.820  31.635  1.00  0.00    -0.200 F 
ATOM     60  F   UNL A   1      35.647  29.681  29.545  1.00  0.00    -0.200 F 
ENDBRANCH  26  50
BRANCH  38  61
ATOM     61  C   UNL A   1      45.587  32.556  29.563  1.00  0.00     0.064 A 
ATOM     62  C   UNL A   1      45.848  32.964  30.879  1.00  0.00     0.173 A 
ATOM     63  C   UNL A   1      45.624  33.533  28.555  1.00  0.00     0.173 A 
ATOM     64  F   UNL A   1      45.806  32.073  31.883  1.00  0.00    -0.203 F 
ATOM     65  C   UNL A   1      46.114  34.298  31.177  1.00  0.00     0.198 A 
ATOM     66  C   UNL A   1      45.922  34.860  28.852  1.00  0.00     0.198 A 
ATOM     67  F   UNL A   1      45.384  33.197  27.279  1.00  0.00    -0.203 F 
ATOM     68  F   UNL A   1      46.311  34.672  32.449  1.00  0.00    -0.200 F 
ATOM     69  C   UNL A   1      46.158  35.243  30.163  1.00  0.00     0.200 A 
ATOM     70  F   UNL A   1      45.978  35.769  27.868  1.00  0.00    -0.200 F 
ATOM     71  F   UNL A   1      46.423  36.525  30.450  1.00  0.00    -0.200 F 
ENDBRANCH  38  61
ENDBRANCH  12  13
ENDBRANCH   5   7
ENDBRANCH   2   3
ENDBRANCH   1   2
BRANCH   1  72
ATOM     72  C   UNL A   1      37.932  21.778  25.592  1.00  0.00     0.117 C 
BRANCH  72  73
ATOM     73  N   UNL A   1      36.747  20.935  25.181  1.00  0.00    -0.356 N 
ATOM     74  C   UNL A   1      35.582  21.431  24.615  1.00  0.00     0.223 C 
ATOM     75  H   UNL A   1      36.808  19.963  25.325  1.00  0.00     0.163 HD
ATOM     76  O   UNL A   1      35.673  22.526  24.049  1.00  0.00    -0.275 OA
BRANCH  74  77
ATOM     77  C   UNL A   1      34.145  20.587  24.608  1.00  0.00     0.091 C 
ATOM     78  C   UNL A   1      34.695  19.121  24.849  1.00  0.00     0.014 C 
ATOM     79  C   UNL A   1      33.159  20.483  23.310  1.00  0.00     0.091 C 
ATOM     80  C   UNL A   1      33.727  17.950  24.762  1.00  0.00     0.001 C 
ATOM     81  C   UNL A   1      32.214  19.251  23.380  1.00  0.00     0.014 C 
ATOM     82  C   UNL A   1      32.983  17.962  23.450  1.00  0.00     0.001 C 
BRANCH  79  83
ATOM     83  C   UNL A   1      32.160  21.465  22.565  1.00  0.00     0.228 C 
ATOM     84  O   UNL A   1      31.781  21.143  21.427  1.00  0.00    -0.274 OA
ATOM     85  N   UNL A   1      31.481  22.520  23.110  1.00  0.00    -0.325 N 
ATOM     86  H   UNL A   1      30.709  22.841  22.589  1.00  0.00     0.169 HD
BRANCH  85  87
ATOM     87  C   UNL A   1      31.729  23.201  24.295  1.00  0.00     0.054 A 
ATOM     88  C   UNL A   1      31.070  22.765  25.449  1.00  0.00     0.027 A 
ATOM     89  C   UNL A   1      32.667  24.218  24.372  1.00  0.00     0.063 A 
ATOM     90  C   UNL A   1      31.593  23.093  26.698  1.00  0.00     0.002 A 
ATOM     91  C   UNL A   1      33.252  24.479  25.621  1.00  0.00     0.016 A 
ATOM     92  C   UNL A   1      32.746  23.872  26.776  1.00  0.00     0.001 A 
BRANCH  89  93
ATOM     93  C   UNL A   1      32.938  25.111  23.194  1.00  0.00     0.256 C 
ATOM     94  O   UNL A   1      33.721  24.723  22.330  1.00  0.00    -0.269 OA
ATOM     95  N   UNL A   1      32.402  26.418  23.188  1.00  0.00    -0.334 N 
ATOM     96  C   UNL A   1      33.384  27.476  23.367  1.00  0.00     0.148 C 
ATOM     97  C   UNL A   1      31.361  26.842  22.227  1.00  0.00     0.148 C 
ATOM     98  C   UNL A   1      32.696  28.822  23.621  1.00  0.00     0.181 C 
ATOM     99  C   UNL A   1      30.762  28.224  22.436  1.00  0.00     0.181 C 
ATOM    100  O   UNL A   1      31.818  29.186  22.545  1.00  0.00    -0.378 OA
ENDBRANCH  89  93
ENDBRANCH  85  87
ENDBRANCH  79  83
ENDBRANCH  74  77
ENDBRANCH  72  73
ENDBRANCH   1  72
TORSDOF 13
ENDMDL
