MODEL 1
REMARK VINA RESULT:     -11.6      0.000      0.000
REMARK SMILES C[C@H](Nc1ccc(N(C)C)cc1)[C@@H](C)C(=O)NCCCNC(=O)c1ccc(-c2c3nc(c(-c4c(F)c(F)c(F)c(F)c4F)c4ccc([nH]4)c(-c4c(F)c(F)c(F)c(F)c4F)c4nc(c(-c5c(F)c(F)c(F)c(F)c5F)c5ccc2[nH]5)C=C4)C=C3)cc1
REMARK SMILES IDX 18 1 17 2 15 3 16 4 13 6 14 7 2 8 1 9 3 10 4 12 5 13 12 14
REMARK SMILES IDX 6 15 11 16 7 17 8 18 9 19 10 20 19 21 20 22 21 23 22 24
REMARK SMILES IDX 23 26 24 27 25 28 86 29 26 30 85 31 27 32 28 33 29 34 79 35
REMARK SMILES IDX 30 36 84 37 78 38 80 39 31 40 83 41 77 42 76 43 32 45 64 46
REMARK SMILES IDX 44 47 63 48 45 49 48 50 62 51 81 52 46 53 47 54 61 56 82 57
REMARK SMILES IDX 49 58 33 59 34 60 42 61 35 62 36 63 40 64 43 65 37 66 38 67
REMARK SMILES IDX 41 68 39 69 65 70 66 71 74 72 67 73 68 74 72 75 75 76 69 77
REMARK SMILES IDX 70 78 73 79 71 80 50 81 51 82 59 83 52 84 53 85 57 86 60 87
REMARK SMILES IDX 54 88 55 89 58 90 56 91
REMARK H PARENT 17 5 3 11 21 25 80 44 48 55
REMARK Flexibility Score: inf
ROOT
ATOM      1  C   UNL A   1      31.407  30.994  26.124  1.00  0.00     0.117 C 
ENDROOT
BRANCH   1   2
ATOM      2  N   UNL A   1      32.689  30.400  26.459  1.00  0.00    -0.356 N 
ATOM      3  C   UNL A   1      33.296  29.252  26.058  1.00  0.00     0.224 C 
ATOM      4  O   UNL A   1      34.416  29.022  26.525  1.00  0.00    -0.275 OA
ATOM      5  H   UNL A   1      33.220  30.929  27.099  1.00  0.00     0.163 HD
BRANCH   3   6
ATOM      6  C   UNL A   1      32.656  28.265  25.085  1.00  0.00     0.097 C 
ATOM      7  C   UNL A   1      31.758  27.274  25.828  1.00  0.00     0.020 C 
BRANCH   6   8
ATOM      8  C   UNL A   1      33.702  27.651  24.130  1.00  0.00     0.088 C 
ATOM      9  C   UNL A   1      33.961  28.600  22.946  1.00  0.00     0.031 C 
BRANCH   8  10
ATOM     10  N   UNL A   1      33.248  26.357  23.613  1.00  0.00    -0.382 N 
ATOM     11  H   UNL A   1      32.410  26.324  23.097  1.00  0.00     0.160 HD
BRANCH  10  12
ATOM     12  C   UNL A   1      33.950  25.179  23.819  1.00  0.00     0.034 A 
ATOM     13  C   UNL A   1      34.690  25.022  24.989  1.00  0.00     0.028 A 
ATOM     14  C   UNL A   1      33.936  24.102  22.938  1.00  0.00     0.028 A 
ATOM     15  C   UNL A   1      35.327  23.807  25.300  1.00  0.00     0.028 A 
ATOM     16  C   UNL A   1      34.582  22.892  23.250  1.00  0.00     0.028 A 
ATOM     17  C   UNL A   1      35.277  22.691  24.453  1.00  0.00     0.036 A 
BRANCH  17  18
ATOM     18  N   UNL A   1      35.882  21.478  24.758  1.00  0.00    -0.378 N 
ATOM     19  C   UNL A   1      37.276  21.358  25.170  1.00  0.00     0.143 C 
ATOM     20  C   UNL A   1      35.068  20.282  24.965  1.00  0.00     0.143 C 
ENDBRANCH  17  18
ENDBRANCH  10  12
ENDBRANCH   8  10
ENDBRANCH   6   8
ENDBRANCH   3   6
ENDBRANCH   1   2
BRANCH   1  21
ATOM     21  C   UNL A   1      31.320  32.468  26.513  1.00  0.00     0.042 C 
BRANCH  21  22
ATOM     22  C   UNL A   1      32.538  32.997  27.261  1.00  0.00     0.118 C 
BRANCH  22  23
ATOM     23  N   UNL A   1      32.375  34.374  27.703  1.00  0.00    -0.352 N 
ATOM     24  C   UNL A   1      33.003  35.072  28.701  1.00  0.00     0.251 C 
ATOM     25  H   UNL A   1      31.701  34.890  27.202  1.00  0.00     0.163 HD
ATOM     26  O   UNL A   1      32.570  36.181  29.026  1.00  0.00    -0.269 OA
BRANCH  24  27
ATOM     27  C   UNL A   1      34.175  34.515  29.409  1.00  0.00     0.039 A 
ATOM     28  C   UNL A   1      33.983  33.903  30.653  1.00  0.00     0.014 A 
ATOM     29  C   UNL A   1      35.465  34.628  28.886  1.00  0.00     0.014 A 
ATOM     30  C   UNL A   1      35.069  33.350  31.335  1.00  0.00     0.010 A 
ATOM     31  C   UNL A   1      36.535  34.008  29.527  1.00  0.00     0.010 A 
ATOM     32  C   UNL A   1      36.349  33.367  30.762  1.00  0.00    -0.014 A 
BRANCH  32  33
ATOM     33  C   UNL A   1      37.508  32.723  31.435  1.00  0.00     0.031 A 
ATOM     34  C   UNL A   1      38.216  31.568  30.783  1.00  0.00     0.074 A 
ATOM     35  C   UNL A   1      37.873  33.130  32.666  1.00  0.00     0.049 A 
ATOM     36  N   UNL A   1      39.182  30.818  31.250  1.00  0.00    -0.248 NA
ATOM     37  C   UNL A   1      37.758  31.185  29.438  1.00  0.00     0.031 C 
ATOM     38  C   UNL A   1      37.233  34.205  33.425  1.00  0.00     0.029 A 
ATOM     39  N   UNL A   1      38.862  32.675  33.502  1.00  0.00    -0.354 N 
ATOM     40  C   UNL A   1      39.427  29.864  30.271  1.00  0.00     0.074 A 
ATOM     41  C   UNL A   1      38.481  30.101  29.202  1.00  0.00     0.031 C 
ATOM     42  C   UNL A   1      37.854  34.337  34.608  1.00  0.00     0.029 A 
ATOM     43  C   UNL A   1      38.910  33.334  34.707  1.00  0.00     0.049 A 
ATOM     44  H   UNL A   1      39.479  31.947  33.262  1.00  0.00     0.167 HD
ATOM     45  C   UNL A   1      40.370  28.891  30.257  1.00  0.00     0.037 A 
ATOM     46  C   UNL A   1      39.707  33.143  35.774  1.00  0.00     0.037 A 
ATOM     47  C   UNL A   1      41.337  28.683  31.303  1.00  0.00     0.049 A 
ATOM     48  C   UNL A   1      40.759  32.068  35.724  1.00  0.00     0.074 A 
ATOM     49  C   UNL A   1      42.382  27.776  31.345  1.00  0.00     0.029 A 
ATOM     50  N   UNL A   1      41.376  29.395  32.492  1.00  0.00    -0.354 N 
ATOM     51  N   UNL A   1      41.028  31.219  34.763  1.00  0.00    -0.248 NA
ATOM     52  C   UNL A   1      41.623  31.931  36.905  1.00  0.00     0.031 C 
ATOM     53  C   UNL A   1      43.027  27.911  32.578  1.00  0.00     0.029 A 
ATOM     54  C   UNL A   1      42.416  28.933  33.285  1.00  0.00     0.049 A 
ATOM     55  H   UNL A   1      40.759  30.121  32.738  1.00  0.00     0.167 HD
ATOM     56  C   UNL A   1      42.106  30.466  35.209  1.00  0.00     0.074 A 
ATOM     57  C   UNL A   1      42.451  30.968  36.523  1.00  0.00     0.031 C 
ATOM     58  C   UNL A   1      42.750  29.449  34.587  1.00  0.00     0.037 A 
BRANCH  45  59
ATOM     59  C   UNL A   1      40.408  27.975  29.069  1.00  0.00     0.064 A 
ATOM     60  C   UNL A   1      39.642  26.800  29.020  1.00  0.00     0.173 A 
ATOM     61  C   UNL A   1      41.187  28.297  27.947  1.00  0.00     0.173 A 
ATOM     62  F   UNL A   1      38.889  26.441  30.070  1.00  0.00    -0.203 F 
ATOM     63  C   UNL A   1      39.676  25.969  27.903  1.00  0.00     0.198 A 
ATOM     64  C   UNL A   1      41.195  27.478  26.820  1.00  0.00     0.198 A 
ATOM     65  F   UNL A   1      41.933  29.412  27.939  1.00  0.00    -0.203 F 
ATOM     66  F   UNL A   1      38.971  24.829  27.897  1.00  0.00    -0.200 F 
ATOM     67  C   UNL A   1      40.445  26.312  26.802  1.00  0.00     0.200 A 
ATOM     68  F   UNL A   1      41.930  27.818  25.753  1.00  0.00    -0.200 F 
ATOM     69  F   UNL A   1      40.469  25.516  25.724  1.00  0.00    -0.200 F 
ENDBRANCH  45  59
BRANCH  46  70
ATOM     70  C   UNL A   1      39.556  34.004  36.976  1.00  0.00     0.064 A 
ATOM     71  C   UNL A   1      40.194  35.250  37.053  1.00  0.00     0.173 A 
ATOM     72  C   UNL A   1      38.775  33.601  38.069  1.00  0.00     0.173 A 
ATOM     73  F   UNL A   1      40.968  35.669  36.041  1.00  0.00    -0.203 F 
ATOM     74  C   UNL A   1      40.073  36.051  38.187  1.00  0.00     0.198 A 
ATOM     75  C   UNL A   1      38.632  34.416  39.190  1.00  0.00     0.198 A 
ATOM     76  F   UNL A   1      38.139  32.421  38.042  1.00  0.00    -0.203 F 
ATOM     77  F   UNL A   1      40.729  37.217  38.252  1.00  0.00    -0.200 F 
ATOM     78  C   UNL A   1      39.288  35.636  39.252  1.00  0.00     0.200 A 
ATOM     79  F   UNL A   1      37.861  34.018  40.212  1.00  0.00    -0.200 F 
ATOM     80  F   UNL A   1      39.169  36.409  40.340  1.00  0.00    -0.200 F 
ENDBRANCH  46  70
BRANCH  58  81
ATOM     81  C   UNL A   1      43.914  28.833  35.305  1.00  0.00     0.064 A 
ATOM     82  C   UNL A   1      45.223  29.300  35.118  1.00  0.00     0.173 A 
ATOM     83  C   UNL A   1      43.712  27.789  36.221  1.00  0.00     0.173 A 
ATOM     84  F   UNL A   1      45.470  30.284  34.242  1.00  0.00    -0.203 F 
ATOM     85  C   UNL A   1      46.290  28.729  35.807  1.00  0.00     0.198 A 
ATOM     86  C   UNL A   1      44.777  27.240  36.927  1.00  0.00     0.198 A 
ATOM     87  F   UNL A   1      42.477  27.311  36.439  1.00  0.00    -0.203 F 
ATOM     88  F   UNL A   1      47.539  29.160  35.580  1.00  0.00    -0.200 F 
ATOM     89  C   UNL A   1      46.066  27.706  36.715  1.00  0.00     0.200 A 
ATOM     90  F   UNL A   1      44.556  26.259  37.815  1.00  0.00    -0.200 F 
ATOM     91  F   UNL A   1      47.093  27.162  37.382  1.00  0.00    -0.200 F 
ENDBRANCH  58  81
ENDBRANCH  32  33
ENDBRANCH  24  27
ENDBRANCH  22  23
ENDBRANCH  21  22
ENDBRANCH   1  21
TORSDOF 14
ENDMDL
MODEL 2
REMARK VINA RESULT:     -11.5      0.332      2.011
REMARK SMILES C[C@H](Nc1ccc(N(C)C)cc1)[C@@H](C)C(=O)NCCCNC(=O)c1ccc(-c2c3nc(c(-c4c(F)c(F)c(F)c(F)c4F)c4ccc([nH]4)c(-c4c(F)c(F)c(F)c(F)c4F)c4nc(c(-c5c(F)c(F)c(F)c(F)c5F)c5ccc2[nH]5)C=C4)C=C3)cc1
REMARK SMILES IDX 18 1 17 2 15 3 16 4 13 6 14 7 2 8 1 9 3 10 4 12 5 13 12 14
REMARK SMILES IDX 6 15 11 16 7 17 8 18 9 19 10 20 19 21 20 22 21 23 22 24
REMARK SMILES IDX 23 26 24 27 25 28 86 29 26 30 85 31 27 32 28 33 29 34 79 35
REMARK SMILES IDX 30 36 84 37 78 38 80 39 31 40 83 41 77 42 76 43 32 45 64 46
REMARK SMILES IDX 44 47 63 48 45 49 48 50 62 51 81 52 46 53 47 54 61 56 82 57
REMARK SMILES IDX 49 58 33 59 34 60 42 61 35 62 36 63 40 64 43 65 37 66 38 67
REMARK SMILES IDX 41 68 39 69 65 70 66 71 74 72 67 73 68 74 72 75 75 76 69 77
REMARK SMILES IDX 70 78 73 79 71 80 50 81 51 82 59 83 52 84 53 85 57 86 60 87
REMARK SMILES IDX 54 88 55 89 58 90 56 91
REMARK H PARENT 17 5 3 11 21 25 80 44 48 55
REMARK Flexibility Score: inf
ROOT
ATOM      1  C   UNL A   1      31.422  30.897  26.046  1.00  0.00     0.117 C 
ENDROOT
BRANCH   1   2
ATOM      2  N   UNL A   1      32.669  30.278  26.462  1.00  0.00    -0.356 N 
ATOM      3  C   UNL A   1      33.247  29.088  26.146  1.00  0.00     0.224 C 
ATOM      4  O   UNL A   1      34.340  28.845  26.668  1.00  0.00    -0.275 OA
ATOM      5  H   UNL A   1      33.195  30.822  27.092  1.00  0.00     0.163 HD
BRANCH   3   6
ATOM      6  C   UNL A   1      32.607  28.073  25.203  1.00  0.00     0.097 C 
ATOM      7  C   UNL A   1      31.760  27.065  25.982  1.00  0.00     0.020 C 
BRANCH   6   8
ATOM      8  C   UNL A   1      33.641  27.478  24.224  1.00  0.00     0.088 C 
ATOM      9  C   UNL A   1      33.657  28.286  22.913  1.00  0.00     0.031 C 
BRANCH   8  10
ATOM     10  N   UNL A   1      33.332  26.079  23.916  1.00  0.00    -0.382 N 
ATOM     11  H   UNL A   1      32.446  25.862  23.547  1.00  0.00     0.160 HD
BRANCH  10  12
ATOM     12  C   UNL A   1      34.238  25.048  24.124  1.00  0.00     0.034 A 
ATOM     13  C   UNL A   1      34.896  24.955  25.348  1.00  0.00     0.028 A 
ATOM     14  C   UNL A   1      34.511  24.055  23.189  1.00  0.00     0.028 A 
ATOM     15  C   UNL A   1      35.737  23.869  25.651  1.00  0.00     0.028 A 
ATOM     16  C   UNL A   1      35.358  22.975  23.494  1.00  0.00     0.028 A 
ATOM     17  C   UNL A   1      35.980  22.828  24.744  1.00  0.00     0.036 A 
BRANCH  17  18
ATOM     18  N   UNL A   1      36.789  21.737  25.039  1.00  0.00    -0.378 N 
ATOM     19  C   UNL A   1      38.123  21.861  25.614  1.00  0.00     0.143 C 
ATOM     20  C   UNL A   1      36.226  20.388  25.059  1.00  0.00     0.143 C 
ENDBRANCH  17  18
ENDBRANCH  10  12
ENDBRANCH   8  10
ENDBRANCH   6   8
ENDBRANCH   3   6
ENDBRANCH   1   2
BRANCH   1  21
ATOM     21  C   UNL A   1      31.308  32.351  26.497  1.00  0.00     0.042 C 
BRANCH  21  22
ATOM     22  C   UNL A   1      32.536  32.887  27.223  1.00  0.00     0.118 C 
BRANCH  22  23
ATOM     23  N   UNL A   1      32.378  34.267  27.657  1.00  0.00    -0.352 N 
ATOM     24  C   UNL A   1      33.015  34.970  28.645  1.00  0.00     0.251 C 
ATOM     25  H   UNL A   1      31.700  34.780  27.159  1.00  0.00     0.163 HD
ATOM     26  O   UNL A   1      32.586  36.082  28.966  1.00  0.00    -0.269 OA
BRANCH  24  27
ATOM     27  C   UNL A   1      34.193  34.417  29.347  1.00  0.00     0.039 A 
ATOM     28  C   UNL A   1      33.996  33.700  30.532  1.00  0.00     0.014 A 
ATOM     29  C   UNL A   1      35.490  34.634  28.876  1.00  0.00     0.014 A 
ATOM     30  C   UNL A   1      35.088  33.149  31.206  1.00  0.00     0.010 A 
ATOM     31  C   UNL A   1      36.571  34.017  29.504  1.00  0.00     0.010 A 
ATOM     32  C   UNL A   1      36.382  33.273  30.678  1.00  0.00    -0.014 A 
BRANCH  32  33
ATOM     33  C   UNL A   1      37.552  32.635  31.337  1.00  0.00     0.031 A 
ATOM     34  C   UNL A   1      38.252  31.477  30.682  1.00  0.00     0.074 A 
ATOM     35  C   UNL A   1      37.935  33.050  32.560  1.00  0.00     0.049 A 
ATOM     36  N   UNL A   1      39.226  30.731  31.140  1.00  0.00    -0.248 NA
ATOM     37  C   UNL A   1      37.774  31.085  29.347  1.00  0.00     0.031 C 
ATOM     38  C   UNL A   1      37.305  34.129  33.323  1.00  0.00     0.029 A 
ATOM     39  N   UNL A   1      38.937  32.602  33.384  1.00  0.00    -0.354 N 
ATOM     40  C   UNL A   1      39.458  29.772  30.163  1.00  0.00     0.074 A 
ATOM     41  C   UNL A   1      38.495  30.000  29.107  1.00  0.00     0.031 C 
ATOM     42  C   UNL A   1      37.943  34.270  34.495  1.00  0.00     0.029 A 
ATOM     43  C   UNL A   1      39.002  33.268  34.584  1.00  0.00     0.049 A 
ATOM     44  H   UNL A   1      39.551  31.873  33.139  1.00  0.00     0.167 HD
ATOM     45  C   UNL A   1      40.402  28.799  30.140  1.00  0.00     0.037 A 
ATOM     46  C   UNL A   1      39.816  33.085  35.640  1.00  0.00     0.037 A 
ATOM     47  C   UNL A   1      41.384  28.600  31.173  1.00  0.00     0.049 A 
ATOM     48  C   UNL A   1      40.869  32.012  35.581  1.00  0.00     0.074 A 
ATOM     49  C   UNL A   1      42.431  27.695  31.205  1.00  0.00     0.029 A 
ATOM     50  N   UNL A   1      41.441  29.320  32.357  1.00  0.00    -0.354 N 
ATOM     51  N   UNL A   1      41.124  31.157  34.621  1.00  0.00    -0.248 NA
ATOM     52  C   UNL A   1      41.750  31.883  36.750  1.00  0.00     0.031 C 
ATOM     53  C   UNL A   1      43.095  27.838  32.428  1.00  0.00     0.029 A 
ATOM     54  C   UNL A   1      42.493  28.863  33.137  1.00  0.00     0.049 A 
ATOM     55  H   UNL A   1      40.826  30.046  32.608  1.00  0.00     0.167 HD
ATOM     56  C   UNL A   1      42.210  30.408  35.056  1.00  0.00     0.074 A 
ATOM     57  C   UNL A   1      42.573  30.919  36.361  1.00  0.00     0.031 C 
ATOM     58  C   UNL A   1      42.846  29.388  34.431  1.00  0.00     0.037 A 
BRANCH  45  59
ATOM     59  C   UNL A   1      40.423  27.876  28.958  1.00  0.00     0.064 A 
ATOM     60  C   UNL A   1      41.208  28.147  27.827  1.00  0.00     0.173 A 
ATOM     61  C   UNL A   1      39.683  26.684  28.973  1.00  0.00     0.173 A 
ATOM     62  F   UNL A   1      41.925  29.277  27.757  1.00  0.00    -0.203 F 
ATOM     63  C   UNL A   1      41.230  27.271  26.744  1.00  0.00     0.198 A 
ATOM     64  C   UNL A   1      39.731  25.796  27.901  1.00  0.00     0.198 A 
ATOM     65  F   UNL A   1      38.922  26.374  30.033  1.00  0.00    -0.203 F 
ATOM     66  F   UNL A   1      41.952  27.573  25.655  1.00  0.00    -0.200 F 
ATOM     67  C   UNL A   1      40.498  26.094  26.784  1.00  0.00     0.200 A 
ATOM     68  F   UNL A   1      39.033  24.654  27.948  1.00  0.00    -0.200 F 
ATOM     69  F   UNL A   1      40.528  25.248  25.745  1.00  0.00    -0.200 F 
ENDBRANCH  45  59
BRANCH  46  70
ATOM     70  C   UNL A   1      39.682  33.954  36.839  1.00  0.00     0.064 A 
ATOM     71  C   UNL A   1      38.885  33.564  37.925  1.00  0.00     0.173 A 
ATOM     72  C   UNL A   1      40.344  35.188  36.925  1.00  0.00     0.173 A 
ATOM     73  F   UNL A   1      38.217  32.402  37.880  1.00  0.00    -0.203 F 
ATOM     74  C   UNL A   1      38.739  34.384  39.041  1.00  0.00     0.198 A 
ATOM     75  C   UNL A   1      40.219  35.994  38.053  1.00  0.00     0.198 A 
ATOM     76  F   UNL A   1      41.123  35.603  35.916  1.00  0.00    -0.203 F 
ATOM     77  F   UNL A   1      37.936  34.007  40.044  1.00  0.00    -0.200 F 
ATOM     78  C   UNL A   1      39.410  35.596  39.107  1.00  0.00     0.200 A 
ATOM     79  F   UNL A   1      40.880  37.158  38.120  1.00  0.00    -0.200 F 
ATOM     80  F   UNL A   1      39.271  36.383  40.182  1.00  0.00    -0.200 F 
ENDBRANCH  46  70
BRANCH  58  81
ATOM     81  C   UNL A   1      44.022  28.778  35.134  1.00  0.00     0.064 A 
ATOM     82  C   UNL A   1      43.876  27.678  35.991  1.00  0.00     0.173 A 
ATOM     83  C   UNL A   1      45.316  29.276  34.916  1.00  0.00     0.173 A 
ATOM     84  F   UNL A   1      42.658  27.176  36.244  1.00  0.00    -0.203 F 
ATOM     85  C   UNL A   1      44.981  27.111  36.621  1.00  0.00     0.198 A 
ATOM     86  C   UNL A   1      46.420  28.690  35.526  1.00  0.00     0.198 A 
ATOM     87  F   UNL A   1      45.508  30.323  34.101  1.00  0.00    -0.203 F 
ATOM     88  F   UNL A   1      44.814  26.088  37.471  1.00  0.00    -0.200 F 
ATOM     89  C   UNL A   1      46.252  27.612  36.382  1.00  0.00     0.200 A 
ATOM     90  F   UNL A   1      47.650  29.167  35.284  1.00  0.00    -0.200 F 
ATOM     91  F   UNL A   1      47.315  27.061  36.984  1.00  0.00    -0.200 F 
ENDBRANCH  58  81
ENDBRANCH  32  33
ENDBRANCH  24  27
ENDBRANCH  22  23
ENDBRANCH  21  22
ENDBRANCH   1  21
TORSDOF 14
ENDMDL
MODEL 3
REMARK VINA RESULT:     -11.4      3.318      8.818
REMARK SMILES C[C@H](Nc1ccc(N(C)C)cc1)[C@@H](C)C(=O)NCCCNC(=O)c1ccc(-c2c3nc(c(-c4c(F)c(F)c(F)c(F)c4F)c4ccc([nH]4)c(-c4c(F)c(F)c(F)c(F)c4F)c4nc(c(-c5c(F)c(F)c(F)c(F)c5F)c5ccc2[nH]5)C=C4)C=C3)cc1
REMARK SMILES IDX 18 1 17 2 15 3 16 4 13 6 14 7 2 8 1 9 3 10 4 12 5 13 12 14
REMARK SMILES IDX 6 15 11 16 7 17 8 18 9 19 10 20 19 21 20 22 21 23 22 24
REMARK SMILES IDX 23 26 24 27 25 28 86 29 26 30 85 31 27 32 28 33 29 34 79 35
REMARK SMILES IDX 30 36 84 37 78 38 80 39 31 40 83 41 77 42 76 43 32 45 64 46
REMARK SMILES IDX 44 47 63 48 45 49 48 50 62 51 81 52 46 53 47 54 61 56 82 57
REMARK SMILES IDX 49 58 33 59 34 60 42 61 35 62 36 63 40 64 43 65 37 66 38 67
REMARK SMILES IDX 41 68 39 69 65 70 66 71 74 72 67 73 68 74 72 75 75 76 69 77
REMARK SMILES IDX 70 78 73 79 71 80 50 81 51 82 59 83 52 84 53 85 57 86 60 87
REMARK SMILES IDX 54 88 55 89 58 90 56 91
REMARK H PARENT 17 5 3 11 21 25 80 44 48 55
REMARK Flexibility Score: inf
ROOT
ATOM      1  C   UNL A   1      31.910  28.188  27.292  1.00  0.00     0.117 C 
ENDROOT
BRANCH   1   2
ATOM      2  N   UNL A   1      31.026  27.038  27.210  1.00  0.00    -0.356 N 
ATOM      3  C   UNL A   1      30.633  26.262  26.165  1.00  0.00     0.224 C 
ATOM      4  O   UNL A   1      29.864  25.330  26.423  1.00  0.00    -0.275 OA
ATOM      5  H   UNL A   1      30.639  26.769  28.074  1.00  0.00     0.163 HD
BRANCH   3   6
ATOM      6  C   UNL A   1      31.091  26.499  24.729  1.00  0.00     0.097 C 
ATOM      7  C   UNL A   1      29.948  27.053  23.878  1.00  0.00     0.020 C 
BRANCH   6   8
ATOM      8  C   UNL A   1      31.830  25.270  24.158  1.00  0.00     0.088 C 
ATOM      9  C   UNL A   1      30.899  24.480  23.220  1.00  0.00     0.031 C 
BRANCH   8  10
ATOM     10  N   UNL A   1      32.288  24.385  25.232  1.00  0.00    -0.382 N 
ATOM     11  H   UNL A   1      31.695  24.233  26.003  1.00  0.00     0.160 HD
BRANCH  10  12
ATOM     12  C   UNL A   1      33.521  23.750  25.206  1.00  0.00     0.034 A 
ATOM     13  C   UNL A   1      34.668  24.476  25.522  1.00  0.00     0.028 A 
ATOM     14  C   UNL A   1      33.695  22.400  24.920  1.00  0.00     0.028 A 
ATOM     15  C   UNL A   1      35.927  23.857  25.621  1.00  0.00     0.028 A 
ATOM     16  C   UNL A   1      34.957  21.788  25.012  1.00  0.00     0.028 A 
ATOM     17  C   UNL A   1      36.114  22.487  25.393  1.00  0.00     0.036 A 
BRANCH  17  18
ATOM     18  N   UNL A   1      37.347  21.858  25.510  1.00  0.00    -0.378 N 
ATOM     19  C   UNL A   1      37.665  20.588  24.868  1.00  0.00     0.143 C 
ATOM     20  C   UNL A   1      38.495  22.585  26.050  1.00  0.00     0.143 C 
ENDBRANCH  17  18
ENDBRANCH  10  12
ENDBRANCH   8  10
ENDBRANCH   6   8
ENDBRANCH   3   6
ENDBRANCH   1   2
BRANCH   1  21
ATOM     21  C   UNL A   1      33.340  27.864  26.866  1.00  0.00     0.042 C 
BRANCH  21  22
ATOM     22  C   UNL A   1      34.015  28.951  26.039  1.00  0.00     0.118 C 
BRANCH  22  23
ATOM     23  N   UNL A   1      33.883  30.275  26.631  1.00  0.00    -0.352 N 
ATOM     24  C   UNL A   1      34.629  30.899  27.597  1.00  0.00     0.251 C 
ATOM     25  H   UNL A   1      33.134  30.809  26.280  1.00  0.00     0.163 HD
ATOM     26  O   UNL A   1      34.220  31.957  28.084  1.00  0.00    -0.269 OA
BRANCH  24  27
ATOM     27  C   UNL A   1      35.901  30.322  28.080  1.00  0.00     0.039 A 
ATOM     28  C   UNL A   1      37.026  30.383  27.249  1.00  0.00     0.014 A 
ATOM     29  C   UNL A   1      35.990  29.683  29.318  1.00  0.00     0.014 A 
ATOM     30  C   UNL A   1      38.247  29.865  27.686  1.00  0.00     0.010 A 
ATOM     31  C   UNL A   1      37.224  29.238  29.786  1.00  0.00     0.010 A 
ATOM     32  C   UNL A   1      38.365  29.319  28.974  1.00  0.00    -0.014 A 
BRANCH  32  33
ATOM     33  C   UNL A   1      39.669  28.826  29.489  1.00  0.00     0.031 A 
ATOM     34  C   UNL A   1      40.454  29.648  30.473  1.00  0.00     0.074 A 
ATOM     35  C   UNL A   1      40.180  27.674  29.013  1.00  0.00     0.049 A 
ATOM     36  N   UNL A   1      41.649  29.434  30.965  1.00  0.00    -0.248 NA
ATOM     37  C   UNL A   1      39.826  30.892  30.945  1.00  0.00     0.031 C 
ATOM     38  C   UNL A   1      39.540  26.811  28.019  1.00  0.00     0.029 A 
ATOM     39  N   UNL A   1      41.365  27.039  29.291  1.00  0.00    -0.354 N 
ATOM     40  C   UNL A   1      41.922  30.524  31.780  1.00  0.00     0.074 A 
ATOM     41  C   UNL A   1      40.790  31.420  31.684  1.00  0.00     0.031 C 
ATOM     42  C   UNL A   1      40.331  25.753  27.780  1.00  0.00     0.029 A 
ATOM     43  C   UNL A   1      41.549  25.881  28.575  1.00  0.00     0.049 A 
ATOM     44  H   UNL A   1      42.021  27.380  29.941  1.00  0.00     0.167 HD
ATOM     45  C   UNL A   1      43.011  30.749  32.555  1.00  0.00     0.037 A 
ATOM     46  C   UNL A   1      42.587  25.024  28.554  1.00  0.00     0.037 A 
ATOM     47  C   UNL A   1      44.118  29.837  32.680  1.00  0.00     0.049 A 
ATOM     48  C   UNL A   1      43.776  25.286  29.438  1.00  0.00     0.074 A 
ATOM     49  C   UNL A   1      45.230  29.936  33.499  1.00  0.00     0.029 A 
ATOM     50  N   UNL A   1      44.251  28.655  31.966  1.00  0.00    -0.354 N 
ATOM     51  N   UNL A   1      43.991  26.285  30.259  1.00  0.00    -0.248 NA
ATOM     52  C   UNL A   1      44.862  24.297  29.398  1.00  0.00     0.031 C 
ATOM     53  C   UNL A   1      46.056  28.836  33.249  1.00  0.00     0.029 A 
ATOM     54  C   UNL A   1      45.438  28.027  32.310  1.00  0.00     0.049 A 
ATOM     55  H   UNL A   1      43.600  28.313  31.312  1.00  0.00     0.167 HD
ATOM     56  C   UNL A   1      45.222  26.033  30.851  1.00  0.00     0.074 A 
ATOM     57  C   UNL A   1      45.699  24.779  30.307  1.00  0.00     0.031 C 
ATOM     58  C   UNL A   1      45.895  26.775  31.764  1.00  0.00     0.037 A 
BRANCH  45  59
ATOM     59  C   UNL A   1      43.061  32.031  33.333  1.00  0.00     0.064 A 
ATOM     60  C   UNL A   1      43.633  33.195  32.799  1.00  0.00     0.173 A 
ATOM     61  C   UNL A   1      42.492  32.107  34.613  1.00  0.00     0.173 A 
ATOM     62  F   UNL A   1      44.200  33.172  31.584  1.00  0.00    -0.203 F 
ATOM     63  C   UNL A   1      43.657  34.382  33.528  1.00  0.00     0.198 A 
ATOM     64  C   UNL A   1      42.491  33.303  35.328  1.00  0.00     0.198 A 
ATOM     65  F   UNL A   1      41.926  31.025  35.169  1.00  0.00    -0.203 F 
ATOM     66  F   UNL A   1      44.248  35.469  33.015  1.00  0.00    -0.200 F 
ATOM     67  C   UNL A   1      43.080  34.437  34.787  1.00  0.00     0.200 A 
ATOM     68  F   UNL A   1      41.922  33.357  36.539  1.00  0.00    -0.200 F 
ATOM     69  F   UNL A   1      43.095  35.581  35.484  1.00  0.00    -0.200 F 
ENDBRANCH  45  59
BRANCH  46  70
ATOM     70  C   UNL A   1      42.540  23.824  27.678  1.00  0.00     0.064 A 
ATOM     71  C   UNL A   1      42.100  22.588  28.174  1.00  0.00     0.173 A 
ATOM     72  C   UNL A   1      42.933  23.885  26.333  1.00  0.00     0.173 A 
ATOM     73  F   UNL A   1      41.734  22.476  29.459  1.00  0.00    -0.203 F 
ATOM     74  C   UNL A   1      42.075  21.455  27.363  1.00  0.00     0.198 A 
ATOM     75  C   UNL A   1      42.880  22.758  25.516  1.00  0.00     0.198 A 
ATOM     76  F   UNL A   1      43.355  25.045  25.809  1.00  0.00    -0.203 F 
ATOM     77  F   UNL A   1      41.693  20.278  27.875  1.00  0.00    -0.200 F 
ATOM     78  C   UNL A   1      42.459  21.543  26.033  1.00  0.00     0.200 A 
ATOM     79  F   UNL A   1      43.239  22.849  24.228  1.00  0.00    -0.200 F 
ATOM     80  F   UNL A   1      42.432  20.454  25.254  1.00  0.00    -0.200 F 
ENDBRANCH  46  70
BRANCH  58  81
ATOM     81  C   UNL A   1      47.205  26.235  32.256  1.00  0.00     0.064 A 
ATOM     82  C   UNL A   1      47.274  25.356  33.346  1.00  0.00     0.173 A 
ATOM     83  C   UNL A   1      48.401  26.569  31.602  1.00  0.00     0.173 A 
ATOM     84  F   UNL A   1      46.161  25.019  34.013  1.00  0.00    -0.203 F 
ATOM     85  C   UNL A   1      48.497  24.849  33.778  1.00  0.00     0.198 A 
ATOM     86  C   UNL A   1      49.617  26.039  32.020  1.00  0.00     0.198 A 
ATOM     87  F   UNL A   1      48.386  27.402  30.551  1.00  0.00    -0.203 F 
ATOM     88  F   UNL A   1      48.546  24.045  34.851  1.00  0.00    -0.200 F 
ATOM     89  C   UNL A   1      49.665  25.184  33.111  1.00  0.00     0.200 A 
ATOM     90  F   UNL A   1      50.744  26.354  31.366  1.00  0.00    -0.200 F 
ATOM     91  F   UNL A   1      50.840  24.690  33.524  1.00  0.00    -0.200 F 
ENDBRANCH  58  81
ENDBRANCH  32  33
ENDBRANCH  24  27
ENDBRANCH  22  23
ENDBRANCH  21  22
ENDBRANCH   1  21
TORSDOF 14
ENDMDL
