MODEL 1
REMARK VINA RESULT:     -11.2      0.000      0.000
REMARK SMILES CC[C@@H](Oc1ccccc1)C(=O)NCCCNC(=O)c1ccc(-c2c3nc(c(-c4c(F)c(F)c(F)c(F)c4F)c4ccc([nH]4)c(-c4c(F)c(F)c(F)c(F)c4F)c4nc(c(-c5c(F)c(F)c(F)c(F)c5F)c5ccc2[nH]5)C=C4)C=C3)cc1
REMARK SMILES IDX 15 1 14 2 13 3 11 4 12 5 3 7 2 8 1 9 4 10 5 11 6 12 10 13
REMARK SMILES IDX 7 14 9 15 8 16 16 17 17 18 18 19 19 21 20 22 21 23 82 24
REMARK SMILES IDX 22 25 81 26 23 27 24 28 25 29 75 30 26 31 80 32 74 33 76 34
REMARK SMILES IDX 27 35 79 36 73 37 72 38 28 40 60 41 40 42 59 43 41 44 44 45
REMARK SMILES IDX 58 46 77 47 42 48 43 49 57 51 78 52 45 53 29 54 30 55 38 56
REMARK SMILES IDX 31 57 32 58 36 59 39 60 33 61 34 62 37 63 35 64 61 65 62 66
REMARK SMILES IDX 70 67 63 68 64 69 68 70 71 71 65 72 66 73 69 74 67 75 46 76
REMARK SMILES IDX 47 77 55 78 48 79 49 80 53 81 56 82 50 83 51 84 54 85 52 86
REMARK H PARENT 13 6 17 20 76 39 44 50
REMARK Flexibility Score: inf
ROOT
ATOM      1  C   UNL A   1      31.355  31.942  26.505  1.00  0.00     0.042 C 
ENDROOT
BRANCH   1   2
ATOM      2  C   UNL A   1      31.561  30.562  25.900  1.00  0.00     0.118 C 
BRANCH   2   3
ATOM      3  N   UNL A   1      30.878  30.401  24.625  1.00  0.00    -0.353 N 
ATOM      4  C   UNL A   1      30.645  29.263  23.896  1.00  0.00     0.261 C 
ATOM      5  O   UNL A   1      29.994  29.372  22.854  1.00  0.00    -0.271 OA
ATOM      6  H   UNL A   1      30.531  31.231  24.227  1.00  0.00     0.163 HD
BRANCH   4   7
ATOM      7  C   UNL A   1      31.252  27.914  24.320  1.00  0.00     0.261 C 
BRANCH   7   8
ATOM      8  C   UNL A   1      30.181  26.829  24.100  1.00  0.00     0.052 C 
ATOM      9  C   UNL A   1      29.960  25.954  25.329  1.00  0.00     0.008 C 
ENDBRANCH   7   8
BRANCH   7  10
ATOM     10  O   UNL A   1      32.443  27.769  23.533  1.00  0.00    -0.481 OA
BRANCH  10  11
ATOM     11  C   UNL A   1      33.204  26.676  23.802  1.00  0.00     0.120 A 
ATOM     12  C   UNL A   1      33.360  25.704  22.820  1.00  0.00     0.046 A 
ATOM     13  C   UNL A   1      33.653  26.446  25.101  1.00  0.00     0.046 A 
ATOM     14  C   UNL A   1      34.028  24.519  23.126  1.00  0.00     0.004 A 
ATOM     15  C   UNL A   1      34.341  25.274  25.401  1.00  0.00     0.004 A 
ATOM     16  C   UNL A   1      34.530  24.310  24.412  1.00  0.00     0.000 A 
ENDBRANCH  10  11
ENDBRANCH   7  10
ENDBRANCH   4   7
ENDBRANCH   2   3
ENDBRANCH   1   2
BRANCH   1  17
ATOM     17  C   UNL A   1      32.620  32.553  27.086  1.00  0.00     0.118 C 
BRANCH  17  18
ATOM     18  N   UNL A   1      32.440  33.945  27.481  1.00  0.00    -0.352 N 
ATOM     19  C   UNL A   1      33.051  34.682  28.462  1.00  0.00     0.251 C 
ATOM     20  H   UNL A   1      31.767  34.436  26.957  1.00  0.00     0.163 HD
ATOM     21  O   UNL A   1      32.607  35.791  28.751  1.00  0.00    -0.269 OA
BRANCH  19  22
ATOM     22  C   UNL A   1      34.226  34.155  29.189  1.00  0.00     0.039 A 
ATOM     23  C   UNL A   1      34.017  33.361  30.320  1.00  0.00     0.014 A 
ATOM     24  C   UNL A   1      35.528  34.468  28.790  1.00  0.00     0.014 A 
ATOM     25  C   UNL A   1      35.109  32.828  31.010  1.00  0.00     0.010 A 
ATOM     26  C   UNL A   1      36.613  33.870  29.426  1.00  0.00     0.010 A 
ATOM     27  C   UNL A   1      36.416  33.048  30.546  1.00  0.00    -0.014 A 
BRANCH  27  28
ATOM     28  C   UNL A   1      37.587  32.435  31.219  1.00  0.00     0.031 A 
ATOM     29  C   UNL A   1      38.341  31.316  30.554  1.00  0.00     0.074 A 
ATOM     30  C   UNL A   1      37.928  32.836  32.458  1.00  0.00     0.049 A 
ATOM     31  N   UNL A   1      39.334  30.598  31.014  1.00  0.00    -0.248 NA
ATOM     32  C   UNL A   1      37.904  30.937  29.201  1.00  0.00     0.031 C 
ATOM     33  C   UNL A   1      37.247  33.878  33.228  1.00  0.00     0.029 A 
ATOM     34  N   UNL A   1      38.926  32.404  33.296  1.00  0.00    -0.354 N 
ATOM     35  C   UNL A   1      39.626  29.675  30.019  1.00  0.00     0.074 A 
ATOM     36  C   UNL A   1      38.674  29.889  28.951  1.00  0.00     0.031 C 
ATOM     37  C   UNL A   1      37.858  34.019  34.414  1.00  0.00     0.029 A 
ATOM     38  C   UNL A   1      38.947  33.052  34.507  1.00  0.00     0.049 A 
ATOM     39  H   UNL A   1      39.567  31.696  33.052  1.00  0.00     0.167 HD
ATOM     40  C   UNL A   1      40.613  28.748  29.989  1.00  0.00     0.037 A 
ATOM     41  C   UNL A   1      39.747  32.878  35.575  1.00  0.00     0.037 A 
ATOM     42  C   UNL A   1      41.577  28.557  31.042  1.00  0.00     0.049 A 
ATOM     43  C   UNL A   1      40.833  31.837  35.518  1.00  0.00     0.074 A 
ATOM     44  C   UNL A   1      42.653  27.687  31.079  1.00  0.00     0.029 A 
ATOM     45  N   UNL A   1      41.577  29.245  32.245  1.00  0.00    -0.354 N 
ATOM     46  N   UNL A   1      41.142  31.015  34.545  1.00  0.00    -0.248 NA
ATOM     47  C   UNL A   1      41.686  31.706  36.707  1.00  0.00     0.031 C 
ATOM     48  C   UNL A   1      43.277  27.817  32.324  1.00  0.00     0.029 A 
ATOM     49  C   UNL A   1      42.621  28.803  33.043  1.00  0.00     0.049 A 
ATOM     50  H   UNL A   1      40.931  29.944  32.498  1.00  0.00     0.167 HD
ATOM     51  C   UNL A   1      42.238  30.289  34.991  1.00  0.00     0.074 A 
ATOM     52  C   UNL A   1      42.550  30.779  36.318  1.00  0.00     0.031 C 
ATOM     53  C   UNL A   1      42.922  29.305  34.359  1.00  0.00     0.037 A 
BRANCH  40  54
ATOM     54  C   UNL A   1      40.704  27.869  28.775  1.00  0.00     0.064 A 
ATOM     55  C   UNL A   1      39.981  26.670  28.677  1.00  0.00     0.173 A 
ATOM     56  C   UNL A   1      41.498  28.246  27.681  1.00  0.00     0.173 A 
ATOM     57  F   UNL A   1      39.216  26.259  29.699  1.00  0.00    -0.203 F 
ATOM     58  C   UNL A   1      40.072  25.868  27.542  1.00  0.00     0.198 A 
ATOM     59  C   UNL A   1      41.562  27.457  26.536  1.00  0.00     0.198 A 
ATOM     60  F   UNL A   1      42.206  29.385  27.719  1.00  0.00    -0.203 F 
ATOM     61  F   UNL A   1      39.411  24.703  27.492  1.00  0.00    -0.200 F 
ATOM     62  C   UNL A   1      40.856  26.265  26.470  1.00  0.00     0.200 A 
ATOM     63  F   UNL A   1      42.311  27.849  25.495  1.00  0.00    -0.200 F 
ATOM     64  F   UNL A   1      40.938  25.496  25.376  1.00  0.00    -0.200 F 
ENDBRANCH  40  54
BRANCH  41  65
ATOM     65  C   UNL A   1      39.567  33.724  36.783  1.00  0.00     0.064 A 
ATOM     66  C   UNL A   1      38.772  33.290  37.852  1.00  0.00     0.173 A 
ATOM     67  C   UNL A   1      40.183  34.979  36.895  1.00  0.00     0.173 A 
ATOM     68  F   UNL A   1      38.146  32.105  37.782  1.00  0.00    -0.203 F 
ATOM     69  C   UNL A   1      38.582  34.087  38.979  1.00  0.00     0.198 A 
ATOM     70  C   UNL A   1      40.016  35.763  38.034  1.00  0.00     0.198 A 
ATOM     71  F   UNL A   1      40.958  35.438  35.902  1.00  0.00    -0.203 F 
ATOM     72  F   UNL A   1      37.780  33.666  39.967  1.00  0.00    -0.200 F 
ATOM     73  C   UNL A   1      39.210  35.320  39.072  1.00  0.00     0.200 A 
ATOM     74  F   UNL A   1      40.636  36.947  38.126  1.00  0.00    -0.200 F 
ATOM     75  F   UNL A   1      39.031  36.084  40.158  1.00  0.00    -0.200 F 
ENDBRANCH  41  65
BRANCH  53  76
ATOM     76  C   UNL A   1      44.099  28.714  35.080  1.00  0.00     0.064 A 
ATOM     77  C   UNL A   1      45.383  29.266  34.969  1.00  0.00     0.173 A 
ATOM     78  C   UNL A   1      43.931  27.603  35.922  1.00  0.00     0.173 A 
ATOM     79  F   UNL A   1      45.599  30.318  34.165  1.00  0.00    -0.203 F 
ATOM     80  C   UNL A   1      46.462  28.714  35.656  1.00  0.00     0.198 A 
ATOM     81  C   UNL A   1      45.005  27.072  36.630  1.00  0.00     0.198 A 
ATOM     82  F   UNL A   1      42.722  27.041  36.066  1.00  0.00    -0.203 F 
ATOM     83  F   UNL A   1      47.689  29.228  35.498  1.00  0.00    -0.200 F 
ATOM     84  C   UNL A   1      46.270  27.623  36.491  1.00  0.00     0.200 A 
ATOM     85  F   UNL A   1      44.816  26.027  37.447  1.00  0.00    -0.200 F 
ATOM     86  F   UNL A   1      47.308  27.097  37.157  1.00  0.00    -0.200 F 
ENDBRANCH  53  76
ENDBRANCH  27  28
ENDBRANCH  19  22
ENDBRANCH  17  18
ENDBRANCH   1  17
TORSDOF 13
ENDMDL
MODEL 2
REMARK VINA RESULT:     -11.2      5.973     11.295
REMARK SMILES CC[C@@H](Oc1ccccc1)C(=O)NCCCNC(=O)c1ccc(-c2c3nc(c(-c4c(F)c(F)c(F)c(F)c4F)c4ccc([nH]4)c(-c4c(F)c(F)c(F)c(F)c4F)c4nc(c(-c5c(F)c(F)c(F)c(F)c5F)c5ccc2[nH]5)C=C4)C=C3)cc1
REMARK SMILES IDX 15 1 14 2 13 3 11 4 12 5 3 7 2 8 1 9 4 10 5 11 6 12 10 13
REMARK SMILES IDX 7 14 9 15 8 16 16 17 17 18 18 19 19 21 20 22 21 23 82 24
REMARK SMILES IDX 22 25 81 26 23 27 24 28 25 29 75 30 26 31 80 32 74 33 76 34
REMARK SMILES IDX 27 35 79 36 73 37 72 38 28 40 60 41 40 42 59 43 41 44 44 45
REMARK SMILES IDX 58 46 77 47 42 48 43 49 57 51 78 52 45 53 29 54 30 55 38 56
REMARK SMILES IDX 31 57 32 58 36 59 39 60 33 61 34 62 37 63 35 64 61 65 62 66
REMARK SMILES IDX 70 67 63 68 64 69 68 70 71 71 65 72 66 73 69 74 67 75 46 76
REMARK SMILES IDX 47 77 55 78 48 79 49 80 53 81 56 82 50 83 51 84 54 85 52 86
REMARK H PARENT 13 6 17 20 76 39 44 50
REMARK Flexibility Score: inf
ROOT
ATOM      1  C   UNL A   1      37.894  19.626  24.924  1.00  0.00     0.042 C 
ENDROOT
BRANCH   1   2
ATOM      2  C   UNL A   1      36.653  20.501  25.012  1.00  0.00     0.118 C 
BRANCH   2   3
ATOM      3  N   UNL A   1      35.423  19.725  25.062  1.00  0.00    -0.353 N 
ATOM      4  C   UNL A   1      34.129  20.123  24.847  1.00  0.00     0.261 C 
ATOM      5  O   UNL A   1      33.246  19.263  24.900  1.00  0.00    -0.271 OA
ATOM      6  H   UNL A   1      35.536  18.772  25.283  1.00  0.00     0.163 HD
BRANCH   4   7
ATOM      7  C   UNL A   1      33.784  21.609  24.636  1.00  0.00     0.261 C 
BRANCH   7   8
ATOM      8  C   UNL A   1      32.609  21.678  23.641  1.00  0.00     0.052 C 
ATOM      9  C   UNL A   1      32.882  22.610  22.465  1.00  0.00     0.008 C 
ENDBRANCH   7   8
BRANCH   7  10
ATOM     10  O   UNL A   1      33.509  22.125  25.946  1.00  0.00    -0.481 OA
BRANCH  10  11
ATOM     11  C   UNL A   1      33.361  23.473  26.034  1.00  0.00     0.120 A 
ATOM     12  C   UNL A   1      32.140  23.991  26.453  1.00  0.00     0.046 A 
ATOM     13  C   UNL A   1      34.350  24.313  25.528  1.00  0.00     0.046 A 
ATOM     14  C   UNL A   1      31.933  25.370  26.422  1.00  0.00     0.004 A 
ATOM     15  C   UNL A   1      34.153  25.692  25.519  1.00  0.00     0.004 A 
ATOM     16  C   UNL A   1      32.944  26.221  25.969  1.00  0.00     0.000 A 
ENDBRANCH  10  11
ENDBRANCH   7  10
ENDBRANCH   4   7
ENDBRANCH   2   3
ENDBRANCH   1   2
BRANCH   1  17
ATOM     17  C   UNL A   1      39.073  20.149  25.730  1.00  0.00     0.118 C 
BRANCH  17  18
ATOM     18  N   UNL A   1      40.136  19.162  25.872  1.00  0.00    -0.352 N 
ATOM     19  C   UNL A   1      41.481  19.321  26.086  1.00  0.00     0.251 C 
ATOM     20  H   UNL A   1      39.839  18.226  25.803  1.00  0.00     0.163 HD
ATOM     21  O   UNL A   1      42.230  18.351  25.981  1.00  0.00    -0.269 OA
BRANCH  19  22
ATOM     22  C   UNL A   1      42.046  20.645  26.423  1.00  0.00     0.039 A 
ATOM     23  C   UNL A   1      42.370  21.522  25.384  1.00  0.00     0.014 A 
ATOM     24  C   UNL A   1      42.296  21.013  27.747  1.00  0.00     0.014 A 
ATOM     25  C   UNL A   1      42.880  22.790  25.675  1.00  0.00     0.010 A 
ATOM     26  C   UNL A   1      42.725  22.305  28.041  1.00  0.00     0.010 A 
ATOM     27  C   UNL A   1      43.027  23.205  27.008  1.00  0.00    -0.014 A 
BRANCH  27  28
ATOM     28  C   UNL A   1      43.499  24.571  27.343  1.00  0.00     0.031 A 
ATOM     29  C   UNL A   1      42.538  25.592  27.888  1.00  0.00     0.074 A 
ATOM     30  C   UNL A   1      44.777  24.914  27.090  1.00  0.00     0.049 A 
ATOM     31  N   UNL A   1      42.738  26.856  28.161  1.00  0.00    -0.248 NA
ATOM     32  C   UNL A   1      41.161  25.137  28.133  1.00  0.00     0.031 C 
ATOM     33  C   UNL A   1      45.794  24.030  26.521  1.00  0.00     0.029 A 
ATOM     34  N   UNL A   1      45.436  26.106  27.269  1.00  0.00    -0.354 N 
ATOM     35  C   UNL A   1      41.513  27.348  28.591  1.00  0.00     0.074 A 
ATOM     36  C   UNL A   1      40.563  26.262  28.495  1.00  0.00     0.031 C 
ATOM     37  C   UNL A   1      46.951  24.700  26.415  1.00  0.00     0.029 A 
ATOM     38  C   UNL A   1      46.750  26.073  26.870  1.00  0.00     0.049 A 
ATOM     39  H   UNL A   1      45.007  26.908  27.646  1.00  0.00     0.167 HD
ATOM     40  C   UNL A   1      41.214  28.589  29.046  1.00  0.00     0.037 A 
ATOM     41  C   UNL A   1      47.683  27.042  26.862  1.00  0.00     0.037 A 
ATOM     42  C   UNL A   1      42.169  29.660  29.167  1.00  0.00     0.049 A 
ATOM     43  C   UNL A   1      47.323  28.413  27.369  1.00  0.00     0.074 A 
ATOM     44  C   UNL A   1      41.977  30.932  29.676  1.00  0.00     0.029 A 
ATOM     45  N   UNL A   1      43.495  29.582  28.770  1.00  0.00    -0.354 N 
ATOM     46  N   UNL A   1      46.178  28.849  27.835  1.00  0.00    -0.248 NA
ATOM     47  C   UNL A   1      48.388  29.425  27.352  1.00  0.00     0.031 C 
ATOM     48  C   UNL A   1      43.177  31.640  29.545  1.00  0.00     0.029 A 
ATOM     49  C   UNL A   1      44.129  30.793  29.001  1.00  0.00     0.049 A 
ATOM     50  H   UNL A   1      43.924  28.786  28.382  1.00  0.00     0.167 HD
ATOM     51  C   UNL A   1      46.390  30.174  28.192  1.00  0.00     0.074 A 
ATOM     52  C   UNL A   1      47.779  30.466  27.903  1.00  0.00     0.031 C 
ATOM     53  C   UNL A   1      45.514  31.066  28.713  1.00  0.00     0.037 A 
BRANCH  40  54
ATOM     54  C   UNL A   1      39.793  28.855  29.452  1.00  0.00     0.064 A 
ATOM     55  C   UNL A   1      38.849  29.358  28.544  1.00  0.00     0.173 A 
ATOM     56  C   UNL A   1      39.361  28.572  30.757  1.00  0.00     0.173 A 
ATOM     57  F   UNL A   1      39.214  29.656  27.288  1.00  0.00    -0.203 F 
ATOM     58  C   UNL A   1      37.533  29.596  28.934  1.00  0.00     0.198 A 
ATOM     59  C   UNL A   1      38.037  28.781  31.135  1.00  0.00     0.198 A 
ATOM     60  F   UNL A   1      40.220  28.084  31.664  1.00  0.00    -0.203 F 
ATOM     61  F   UNL A   1      36.663  30.123  28.063  1.00  0.00    -0.200 F 
ATOM     62  C   UNL A   1      37.127  29.300  30.227  1.00  0.00     0.200 A 
ATOM     63  F   UNL A   1      37.643  28.483  32.381  1.00  0.00    -0.200 F 
ATOM     64  F   UNL A   1      35.859  29.522  30.599  1.00  0.00    -0.200 F 
ENDBRANCH  40  54
BRANCH  41  65
ATOM     65  C   UNL A   1      49.057  26.746  26.379  1.00  0.00     0.064 A 
ATOM     66  C   UNL A   1      49.413  26.974  25.043  1.00  0.00     0.173 A 
ATOM     67  C   UNL A   1      50.039  26.232  27.238  1.00  0.00     0.173 A 
ATOM     68  F   UNL A   1      48.501  27.446  24.179  1.00  0.00    -0.203 F 
ATOM     69  C   UNL A   1      50.693  26.680  24.578  1.00  0.00     0.198 A 
ATOM     70  C   UNL A   1      51.327  25.965  26.779  1.00  0.00     0.198 A 
ATOM     71  F   UNL A   1      49.750  26.001  28.527  1.00  0.00    -0.203 F 
ATOM     72  F   UNL A   1      50.993  26.866  23.285  1.00  0.00    -0.200 F 
ATOM     73  C   UNL A   1      51.650  26.182  25.448  1.00  0.00     0.200 A 
ATOM     74  F   UNL A   1      52.253  25.498  27.627  1.00  0.00    -0.200 F 
ATOM     75  F   UNL A   1      52.883  25.904  25.003  1.00  0.00    -0.200 F 
ENDBRANCH  41  65
BRANCH  53  76
ATOM     76  C   UNL A   1      46.038  32.436  29.035  1.00  0.00     0.064 A 
ATOM     77  C   UNL A   1      45.973  33.486  28.108  1.00  0.00     0.173 A 
ATOM     78  C   UNL A   1      46.578  32.709  30.302  1.00  0.00     0.173 A 
ATOM     79  F   UNL A   1      45.480  33.272  26.879  1.00  0.00    -0.203 F 
ATOM     80  C   UNL A   1      46.451  34.754  28.428  1.00  0.00     0.198 A 
ATOM     81  C   UNL A   1      47.027  33.985  30.629  1.00  0.00     0.198 A 
ATOM     82  F   UNL A   1      46.658  31.741  31.226  1.00  0.00    -0.203 F 
ATOM     83  F   UNL A   1      46.422  35.731  27.511  1.00  0.00    -0.200 F 
ATOM     84  C   UNL A   1      46.970  35.004  29.690  1.00  0.00     0.200 A 
ATOM     85  F   UNL A   1      47.516  34.229  31.852  1.00  0.00    -0.200 F 
ATOM     86  F   UNL A   1      47.423  36.227  29.999  1.00  0.00    -0.200 F 
ENDBRANCH  53  76
ENDBRANCH  27  28
ENDBRANCH  19  22
ENDBRANCH  17  18
ENDBRANCH   1  17
TORSDOF 13
ENDMDL
MODEL 3
REMARK VINA RESULT:     -11.2      1.052      2.469
REMARK SMILES CC[C@@H](Oc1ccccc1)C(=O)NCCCNC(=O)c1ccc(-c2c3nc(c(-c4c(F)c(F)c(F)c(F)c4F)c4ccc([nH]4)c(-c4c(F)c(F)c(F)c(F)c4F)c4nc(c(-c5c(F)c(F)c(F)c(F)c5F)c5ccc2[nH]5)C=C4)C=C3)cc1
REMARK SMILES IDX 15 1 14 2 13 3 11 4 12 5 3 7 2 8 1 9 4 10 5 11 6 12 10 13
REMARK SMILES IDX 7 14 9 15 8 16 16 17 17 18 18 19 19 21 20 22 21 23 82 24
REMARK SMILES IDX 22 25 81 26 23 27 24 28 25 29 75 30 26 31 80 32 74 33 76 34
REMARK SMILES IDX 27 35 79 36 73 37 72 38 28 40 60 41 40 42 59 43 41 44 44 45
REMARK SMILES IDX 58 46 77 47 42 48 43 49 57 51 78 52 45 53 29 54 30 55 38 56
REMARK SMILES IDX 31 57 32 58 36 59 39 60 33 61 34 62 37 63 35 64 61 65 62 66
REMARK SMILES IDX 70 67 63 68 64 69 68 70 71 71 65 72 66 73 69 74 67 75 46 76
REMARK SMILES IDX 47 77 55 78 48 79 49 80 53 81 56 82 50 83 51 84 54 85 52 86
REMARK H PARENT 13 6 17 20 76 39 44 50
REMARK Flexibility Score: inf
ROOT
ATOM      1  C   UNL A   1      31.277  32.359  26.611  1.00  0.00     0.042 C 
ENDROOT
BRANCH   1   2
ATOM      2  C   UNL A   1      31.384  30.891  26.231  1.00  0.00     0.118 C 
BRANCH   2   3
ATOM      3  N   UNL A   1      32.665  30.308  26.602  1.00  0.00    -0.353 N 
ATOM      4  C   UNL A   1      33.450  29.416  25.918  1.00  0.00     0.261 C 
ATOM      5  O   UNL A   1      34.532  29.099  26.421  1.00  0.00    -0.271 OA
ATOM      6  H   UNL A   1      33.021  30.598  27.472  1.00  0.00     0.163 HD
BRANCH   4   7
ATOM      7  C   UNL A   1      32.956  28.766  24.613  1.00  0.00     0.261 C 
BRANCH   7   8
ATOM      8  C   UNL A   1      34.196  28.379  23.785  1.00  0.00     0.052 C 
ATOM      9  C   UNL A   1      33.893  28.227  22.298  1.00  0.00     0.008 C 
ENDBRANCH   7   8
BRANCH   7  10
ATOM     10  O   UNL A   1      32.128  27.669  25.025  1.00  0.00    -0.481 OA
BRANCH  10  11
ATOM     11  C   UNL A   1      30.923  27.569  24.405  1.00  0.00     0.120 A 
ATOM     12  C   UNL A   1      30.436  28.663  23.697  1.00  0.00     0.046 A 
ATOM     13  C   UNL A   1      30.111  26.461  24.640  1.00  0.00     0.046 A 
ATOM     14  C   UNL A   1      29.147  28.619  23.167  1.00  0.00     0.004 A 
ATOM     15  C   UNL A   1      28.833  26.407  24.092  1.00  0.00     0.004 A 
ATOM     16  C   UNL A   1      28.351  27.486  23.353  1.00  0.00     0.000 A 
ENDBRANCH  10  11
ENDBRANCH   7  10
ENDBRANCH   4   7
ENDBRANCH   2   3
ENDBRANCH   1   2
BRANCH   1  17
ATOM     17  C   UNL A   1      32.556  32.937  27.198  1.00  0.00     0.118 C 
BRANCH  17  18
ATOM     18  N   UNL A   1      32.401  34.323  27.622  1.00  0.00    -0.352 N 
ATOM     19  C   UNL A   1      33.028  35.028  28.617  1.00  0.00     0.251 C 
ATOM     20  H   UNL A   1      31.735  34.837  27.111  1.00  0.00     0.163 HD
ATOM     21  O   UNL A   1      32.604  36.139  28.931  1.00  0.00    -0.269 OA
BRANCH  19  22
ATOM     22  C   UNL A   1      34.195  34.465  29.329  1.00  0.00     0.039 A 
ATOM     23  C   UNL A   1      33.993  33.844  30.565  1.00  0.00     0.014 A 
ATOM     24  C   UNL A   1      35.487  34.578  28.811  1.00  0.00     0.014 A 
ATOM     25  C   UNL A   1      35.074  33.280  31.248  1.00  0.00     0.010 A 
ATOM     26  C   UNL A   1      36.550  33.943  29.448  1.00  0.00     0.010 A 
ATOM     27  C   UNL A   1      36.356  33.293  30.675  1.00  0.00    -0.014 A 
BRANCH  27  28
ATOM     28  C   UNL A   1      37.507  32.638  31.346  1.00  0.00     0.031 A 
ATOM     29  C   UNL A   1      38.204  31.477  30.691  1.00  0.00     0.074 A 
ATOM     30  C   UNL A   1      37.878  33.042  32.576  1.00  0.00     0.049 A 
ATOM     31  N   UNL A   1      39.169  30.723  31.152  1.00  0.00    -0.248 NA
ATOM     32  C   UNL A   1      37.736  31.098  29.349  1.00  0.00     0.031 C 
ATOM     33  C   UNL A   1      37.252  34.125  33.336  1.00  0.00     0.029 A 
ATOM     34  N   UNL A   1      38.865  32.579  33.410  1.00  0.00    -0.354 N 
ATOM     35  C   UNL A   1      39.409  29.773  30.169  1.00  0.00     0.074 A 
ATOM     36  C   UNL A   1      38.456  30.013  29.108  1.00  0.00     0.031 C 
ATOM     37  C   UNL A   1      37.881  34.257  34.514  1.00  0.00     0.029 A 
ATOM     38  C   UNL A   1      38.927  33.243  34.611  1.00  0.00     0.049 A 
ATOM     39  H   UNL A   1      39.472  31.840  33.171  1.00  0.00     0.167 HD
ATOM     40  C   UNL A   1      40.354  28.803  30.144  1.00  0.00     0.037 A 
ATOM     41  C   UNL A   1      39.730  33.050  35.674  1.00  0.00     0.037 A 
ATOM     42  C   UNL A   1      41.319  28.585  31.190  1.00  0.00     0.049 A 
ATOM     43  C   UNL A   1      40.768  31.962  35.622  1.00  0.00     0.074 A 
ATOM     44  C   UNL A   1      42.356  27.669  31.229  1.00  0.00     0.029 A 
ATOM     45  N   UNL A   1      41.363  29.290  32.383  1.00  0.00    -0.354 N 
ATOM     46  N   UNL A   1      41.030  31.112  34.659  1.00  0.00    -0.248 NA
ATOM     47  C   UNL A   1      41.627  31.810  36.805  1.00  0.00     0.031 C 
ATOM     48  C   UNL A   1      42.999  27.790  32.466  1.00  0.00     0.029 A 
ATOM     49  C   UNL A   1      42.395  28.815  33.177  1.00  0.00     0.049 A 
ATOM     50  H   UNL A   1      40.751  30.021  32.630  1.00  0.00     0.167 HD
ATOM     51  C   UNL A   1      42.098  30.345  35.105  1.00  0.00     0.074 A 
ATOM     52  C   UNL A   1      42.445  30.841  36.421  1.00  0.00     0.031 C 
ATOM     53  C   UNL A   1      42.731  29.322  34.482  1.00  0.00     0.037 A 
BRANCH  40  54
ATOM     54  C   UNL A   1      40.393  27.903  28.942  1.00  0.00     0.064 A 
ATOM     55  C   UNL A   1      41.166  28.215  27.813  1.00  0.00     0.173 A 
ATOM     56  C   UNL A   1      39.675  26.697  28.932  1.00  0.00     0.173 A 
ATOM     57  F   UNL A   1      41.862  29.361  27.768  1.00  0.00    -0.203 F 
ATOM     58  C   UNL A   1      41.196  27.368  26.708  1.00  0.00     0.198 A 
ATOM     59  C   UNL A   1      39.733  25.838  27.838  1.00  0.00     0.198 A 
ATOM     60  F   UNL A   1      38.925  26.347  29.987  1.00  0.00    -0.203 F 
ATOM     61  F   UNL A   1      41.902  27.712  25.622  1.00  0.00    -0.200 F 
ATOM     62  C   UNL A   1      40.486  26.178  26.723  1.00  0.00     0.200 A 
ATOM     63  F   UNL A   1      39.055  24.681  27.860  1.00  0.00    -0.200 F 
ATOM     64  F   UNL A   1      40.521  25.360  25.662  1.00  0.00    -0.200 F 
ENDBRANCH  40  54
BRANCH  41  65
ATOM     65  C   UNL A   1      39.600  33.922  36.870  1.00  0.00     0.064 A 
ATOM     66  C   UNL A   1      38.803  33.536  37.957  1.00  0.00     0.173 A 
ATOM     67  C   UNL A   1      40.267  35.152  36.954  1.00  0.00     0.173 A 
ATOM     68  F   UNL A   1      38.130  32.376  37.914  1.00  0.00    -0.203 F 
ATOM     69  C   UNL A   1      38.661  34.357  39.073  1.00  0.00     0.198 A 
ATOM     70  C   UNL A   1      40.147  35.960  38.083  1.00  0.00     0.198 A 
ATOM     71  F   UNL A   1      41.046  35.565  35.943  1.00  0.00    -0.203 F 
ATOM     72  F   UNL A   1      37.857  33.984  40.078  1.00  0.00    -0.200 F 
ATOM     73  C   UNL A   1      39.338  35.565  39.138  1.00  0.00     0.200 A 
ATOM     74  F   UNL A   1      40.815  37.120  38.148  1.00  0.00    -0.200 F 
ATOM     75  F   UNL A   1      39.205  36.353  40.214  1.00  0.00    -0.200 F 
ENDBRANCH  41  65
BRANCH  53  76
ATOM     76  C   UNL A   1      43.889  28.691  35.200  1.00  0.00     0.064 A 
ATOM     77  C   UNL A   1      43.711  27.612  36.078  1.00  0.00     0.173 A 
ATOM     78  C   UNL A   1      45.197  29.149  34.977  1.00  0.00     0.173 A 
ATOM     79  F   UNL A   1      42.479  27.149  36.336  1.00  0.00    -0.203 F 
ATOM     80  C   UNL A   1      44.797  27.029  36.725  1.00  0.00     0.198 A 
ATOM     81  C   UNL A   1      46.284  28.545  35.602  1.00  0.00     0.198 A 
ATOM     82  F   UNL A   1      45.422  30.175  34.143  1.00  0.00    -0.203 F 
ATOM     83  F   UNL A   1      44.600  26.030  37.596  1.00  0.00    -0.200 F 
ATOM     84  C   UNL A   1      46.082  27.491  36.481  1.00  0.00     0.200 A 
ATOM     85  F   UNL A   1      47.526  28.982  35.355  1.00  0.00    -0.200 F 
ATOM     86  F   UNL A   1      47.128  26.924  37.100  1.00  0.00    -0.200 F 
ENDBRANCH  53  76
ENDBRANCH  27  28
ENDBRANCH  19  22
ENDBRANCH  17  18
ENDBRANCH   1  17
TORSDOF 13
ENDMDL
