MODEL 1
REMARK VINA RESULT:     -13.1      0.000      0.000
REMARK SMILES Cc1ccc(C)c(Oc2cccc(F)c2C(=O)NCCCNC(=O)c2ccc(-c3c4nc(c(-c5c(F)c(F)c(F)c(F)c5F)c5ccc([nH]5)c(-c5c(F)c(F)c(F)c(F)c5F)c5nc(c(-c6c(F)c(F)c(F)c(F)c6F)c6ccc3[nH]6)C=C5)C=C4)cc2)c1
REMARK SMILES IDX 20 1 19 2 18 3 16 4 17 5 15 7 9 8 10 9 11 10 13 11 12 12
REMARK SMILES IDX 14 13 8 14 7 15 1 16 2 17 3 18 88 19 4 20 5 21 6 22 21 23
REMARK SMILES IDX 22 24 23 25 24 27 25 28 26 29 87 30 27 31 86 32 28 33 29 34
REMARK SMILES IDX 30 35 80 36 31 37 85 38 79 39 81 40 32 41 84 42 78 43 77 44
REMARK SMILES IDX 33 46 65 47 45 48 64 49 46 50 49 51 63 52 82 53 47 54 48 55
REMARK SMILES IDX 62 57 83 58 50 59 34 60 35 61 43 62 36 63 37 64 41 65 44 66
REMARK SMILES IDX 38 67 39 68 42 69 40 70 66 71 67 72 75 73 68 74 69 75 73 76
REMARK SMILES IDX 76 77 70 78 71 79 74 80 72 81 51 82 52 83 60 84 53 85 54 86
REMARK SMILES IDX 58 87 61 88 55 89 56 90 59 91 57 92
REMARK H PARENT 18 6 22 26 81 45 49 56
REMARK Flexibility Score: inf
ROOT
ATOM      1  C   UNL A   1      33.998  31.129  27.249  1.00  0.00     0.042 C 
ENDROOT
BRANCH   1   2
ATOM      2  C   UNL A   1      34.020  29.591  27.153  1.00  0.00     0.118 C 
BRANCH   2   3
ATOM      3  N   UNL A   1      32.880  28.945  27.795  1.00  0.00    -0.352 N 
ATOM      4  C   UNL A   1      31.786  28.228  27.375  1.00  0.00     0.258 C 
ATOM      5  O   UNL A   1      31.078  27.830  28.305  1.00  0.00    -0.269 OA
ATOM      6  H   UNL A   1      32.900  29.048  28.774  1.00  0.00     0.163 HD
BRANCH   4   7
ATOM      7  C   UNL A   1      31.394  27.921  25.963  1.00  0.00     0.118 A 
ATOM      8  C   UNL A   1      31.020  26.598  25.623  1.00  0.00     0.143 A 
ATOM      9  C   UNL A   1      30.454  26.295  24.366  1.00  0.00     0.048 A 
ATOM     10  C   UNL A   1      30.370  27.267  23.380  1.00  0.00     0.007 A 
ATOM     11  C   UNL A   1      31.276  28.871  24.945  1.00  0.00     0.139 A 
ATOM     12  C   UNL A   1      30.802  28.551  23.668  1.00  0.00     0.040 A 
ATOM     13  F   UNL A   1      31.568  30.159  25.123  1.00  0.00    -0.206 F 
BRANCH   8  14
ATOM     14  O   UNL A   1      31.139  25.582  26.550  1.00  0.00    -0.456 OA
BRANCH  14  15
ATOM     15  C   UNL A   1      32.072  24.578  26.362  1.00  0.00     0.130 A 
ATOM     16  C   UNL A   1      35.751  24.016  25.512  1.00  0.00     0.044 C 
ATOM     17  C   UNL A   1      34.318  23.753  25.868  1.00  0.00    -0.047 A 
ATOM     18  C   UNL A   1      33.854  22.442  25.991  1.00  0.00     0.004 A 
ATOM     19  C   UNL A   1      33.429  24.813  26.086  1.00  0.00     0.050 A 
ATOM     20  C   UNL A   1      32.518  22.197  26.313  1.00  0.00     0.007 A 
ATOM     21  C   UNL A   1      31.614  23.255  26.497  1.00  0.00    -0.008 A 
ATOM     22  C   UNL A   1      30.192  22.921  26.855  1.00  0.00     0.048 C 
ENDBRANCH  14  15
ENDBRANCH   8  14
ENDBRANCH   4   7
ENDBRANCH   2   3
ENDBRANCH   1   2
BRANCH   1  23
ATOM     23  C   UNL A   1      35.193  31.847  27.890  1.00  0.00     0.118 C 
BRANCH  23  24
ATOM     24  N   UNL A   1      34.925  32.344  29.243  1.00  0.00    -0.352 N 
ATOM     25  C   UNL A   1      35.401  31.955  30.482  1.00  0.00     0.251 C 
ATOM     26  H   UNL A   1      34.288  33.093  29.274  1.00  0.00     0.163 HD
ATOM     27  O   UNL A   1      34.821  32.319  31.494  1.00  0.00    -0.269 OA
BRANCH  25  28
ATOM     28  C   UNL A   1      36.603  31.099  30.595  1.00  0.00     0.039 A 
ATOM     29  C   UNL A   1      36.512  29.705  30.634  1.00  0.00     0.014 A 
ATOM     30  C   UNL A   1      37.850  31.699  30.656  1.00  0.00     0.014 A 
ATOM     31  C   UNL A   1      37.686  28.949  30.667  1.00  0.00     0.010 A 
ATOM     32  C   UNL A   1      38.994  30.971  30.490  1.00  0.00     0.010 A 
ATOM     33  C   UNL A   1      38.929  29.594  30.577  1.00  0.00    -0.014 A 
BRANCH  33  34
ATOM     34  C   UNL A   1      40.178  28.852  30.485  1.00  0.00     0.031 A 
ATOM     35  C   UNL A   1      40.864  28.620  31.777  1.00  0.00     0.074 A 
ATOM     36  C   UNL A   1      40.599  28.209  29.374  1.00  0.00     0.049 A 
ATOM     37  N   UNL A   1      41.990  29.120  32.162  1.00  0.00    -0.248 NA
ATOM     38  C   UNL A   1      40.177  27.820  32.801  1.00  0.00     0.031 C 
ATOM     39  C   UNL A   1      39.900  28.028  28.096  1.00  0.00     0.029 A 
ATOM     40  N   UNL A   1      41.730  27.469  29.202  1.00  0.00    -0.354 N 
ATOM     41  C   UNL A   1      42.256  28.549  33.398  1.00  0.00     0.074 A 
ATOM     42  C   UNL A   1      41.040  27.897  33.817  1.00  0.00     0.031 C 
ATOM     43  C   UNL A   1      40.505  27.056  27.383  1.00  0.00     0.029 A 
ATOM     44  C   UNL A   1      41.728  26.675  28.064  1.00  0.00     0.049 A 
ATOM     45  H   UNL A   1      42.484  27.496  29.833  1.00  0.00     0.167 HD
ATOM     46  C   UNL A   1      43.533  28.451  33.860  1.00  0.00     0.037 A 
ATOM     47  C   UNL A   1      42.658  25.753  27.720  1.00  0.00     0.037 A 
ATOM     48  C   UNL A   1      44.430  29.316  33.131  1.00  0.00     0.049 A 
ATOM     49  C   UNL A   1      43.898  26.085  28.465  1.00  0.00     0.074 A 
ATOM     50  C   UNL A   1      44.447  30.670  32.849  1.00  0.00     0.029 A 
ATOM     51  N   UNL A   1      45.294  28.749  32.226  1.00  0.00    -0.354 N 
ATOM     52  N   UNL A   1      44.632  27.137  28.232  1.00  0.00    -0.248 NA
ATOM     53  C   UNL A   1      44.103  25.456  29.760  1.00  0.00     0.031 C 
ATOM     54  C   UNL A   1      44.894  30.761  31.496  1.00  0.00     0.029 A 
ATOM     55  C   UNL A   1      45.185  29.468  31.062  1.00  0.00     0.049 A 
ATOM     56  H   UNL A   1      45.881  27.974  32.383  1.00  0.00     0.167 HD
ATOM     57  C   UNL A   1      45.041  27.559  29.487  1.00  0.00     0.074 A 
ATOM     58  C   UNL A   1      44.789  26.424  30.370  1.00  0.00     0.031 C 
ATOM     59  C   UNL A   1      45.271  28.880  29.745  1.00  0.00     0.037 A 
BRANCH  46  60
ATOM     60  C   UNL A   1      44.025  27.316  34.718  1.00  0.00     0.064 A 
ATOM     61  C   UNL A   1      44.346  27.458  36.087  1.00  0.00     0.173 A 
ATOM     62  C   UNL A   1      43.904  25.994  34.253  1.00  0.00     0.173 A 
ATOM     63  F   UNL A   1      44.365  28.650  36.692  1.00  0.00    -0.203 F 
ATOM     64  C   UNL A   1      44.542  26.361  36.922  1.00  0.00     0.198 A 
ATOM     65  C   UNL A   1      44.041  24.898  35.109  1.00  0.00     0.198 A 
ATOM     66  F   UNL A   1      43.560  25.748  32.980  1.00  0.00    -0.203 F 
ATOM     67  F   UNL A   1      44.827  26.563  38.217  1.00  0.00    -0.200 F 
ATOM     68  C   UNL A   1      44.361  25.082  36.442  1.00  0.00     0.200 A 
ATOM     69  F   UNL A   1      43.793  23.662  34.652  1.00  0.00    -0.200 F 
ATOM     70  F   UNL A   1      44.439  24.036  37.275  1.00  0.00    -0.200 F 
ENDBRANCH  46  60
BRANCH  47  71
ATOM     71  C   UNL A   1      42.492  24.484  26.975  1.00  0.00     0.064 A 
ATOM     72  C   UNL A   1      42.029  23.309  27.600  1.00  0.00     0.173 A 
ATOM     73  C   UNL A   1      43.061  24.327  25.699  1.00  0.00     0.173 A 
ATOM     74  F   UNL A   1      41.531  23.339  28.844  1.00  0.00    -0.203 F 
ATOM     75  C   UNL A   1      42.161  22.055  27.004  1.00  0.00     0.198 A 
ATOM     76  C   UNL A   1      43.208  23.068  25.110  1.00  0.00     0.198 A 
ATOM     77  F   UNL A   1      43.555  25.387  25.045  1.00  0.00    -0.203 F 
ATOM     78  F   UNL A   1      41.761  20.958  27.664  1.00  0.00    -0.200 F 
ATOM     79  C   UNL A   1      42.770  21.932  25.770  1.00  0.00     0.200 A 
ATOM     80  F   UNL A   1      43.832  22.953  23.930  1.00  0.00    -0.200 F 
ATOM     81  F   UNL A   1      42.975  20.720  25.237  1.00  0.00    -0.200 F 
ENDBRANCH  47  71
BRANCH  59  82
ATOM     82  C   UNL A   1      45.373  29.824  28.577  1.00  0.00     0.064 A 
ATOM     83  C   UNL A   1      46.652  30.209  28.148  1.00  0.00     0.173 A 
ATOM     84  C   UNL A   1      44.274  30.443  27.955  1.00  0.00     0.173 A 
ATOM     85  F   UNL A   1      47.742  29.695  28.738  1.00  0.00    -0.203 F 
ATOM     86  C   UNL A   1      46.824  31.152  27.138  1.00  0.00     0.198 A 
ATOM     87  C   UNL A   1      44.449  31.355  26.915  1.00  0.00     0.198 A 
ATOM     88  F   UNL A   1      43.024  30.218  28.372  1.00  0.00    -0.203 F 
ATOM     89  F   UNL A   1      48.061  31.532  26.786  1.00  0.00    -0.200 F 
ATOM     90  C   UNL A   1      45.724  31.714  26.512  1.00  0.00     0.200 A 
ATOM     91  F   UNL A   1      43.383  31.912  26.322  1.00  0.00    -0.200 F 
ATOM     92  F   UNL A   1      45.894  32.619  25.537  1.00  0.00    -0.200 F 
ENDBRANCH  59  82
ENDBRANCH  33  34
ENDBRANCH  25  28
ENDBRANCH  23  24
ENDBRANCH   1  23
TORSDOF 12
ENDMDL
MODEL 2
REMARK VINA RESULT:     -13.1      3.257      8.934
REMARK SMILES Cc1ccc(C)c(Oc2cccc(F)c2C(=O)NCCCNC(=O)c2ccc(-c3c4nc(c(-c5c(F)c(F)c(F)c(F)c5F)c5ccc([nH]5)c(-c5c(F)c(F)c(F)c(F)c5F)c5nc(c(-c6c(F)c(F)c(F)c(F)c6F)c6ccc3[nH]6)C=C5)C=C4)cc2)c1
REMARK SMILES IDX 20 1 19 2 18 3 16 4 17 5 15 7 9 8 10 9 11 10 13 11 12 12
REMARK SMILES IDX 14 13 8 14 7 15 1 16 2 17 3 18 88 19 4 20 5 21 6 22 21 23
REMARK SMILES IDX 22 24 23 25 24 27 25 28 26 29 87 30 27 31 86 32 28 33 29 34
REMARK SMILES IDX 30 35 80 36 31 37 85 38 79 39 81 40 32 41 84 42 78 43 77 44
REMARK SMILES IDX 33 46 65 47 45 48 64 49 46 50 49 51 63 52 82 53 47 54 48 55
REMARK SMILES IDX 62 57 83 58 50 59 34 60 35 61 43 62 36 63 37 64 41 65 44 66
REMARK SMILES IDX 38 67 39 68 42 69 40 70 66 71 67 72 75 73 68 74 69 75 73 76
REMARK SMILES IDX 76 77 70 78 71 79 74 80 72 81 51 82 52 83 60 84 53 85 54 86
REMARK SMILES IDX 58 87 61 88 55 89 56 90 59 91 57 92
REMARK H PARENT 18 6 22 26 81 45 49 56
REMARK Flexibility Score: inf
ROOT
ATOM      1  C   UNL A   1      39.120  21.216  25.971  1.00  0.00     0.042 C 
ENDROOT
BRANCH   1   2
ATOM      2  C   UNL A   1      38.251  22.485  25.867  1.00  0.00     0.118 C 
BRANCH   2   3
ATOM      3  N   UNL A   1      37.675  22.697  24.544  1.00  0.00    -0.352 N 
ATOM      4  C   UNL A   1      36.414  22.656  23.999  1.00  0.00     0.258 C 
ATOM      5  O   UNL A   1      36.392  22.952  22.800  1.00  0.00    -0.269 OA
ATOM      6  H   UNL A   1      38.359  22.927  23.875  1.00  0.00     0.163 HD
BRANCH   4   7
ATOM      7  C   UNL A   1      35.140  22.288  24.693  1.00  0.00     0.118 A 
ATOM      8  C   UNL A   1      34.231  23.313  25.058  1.00  0.00     0.143 A 
ATOM      9  C   UNL A   1      32.937  23.011  25.530  1.00  0.00     0.048 A 
ATOM     10  C   UNL A   1      32.564  21.697  25.773  1.00  0.00     0.007 A 
ATOM     11  C   UNL A   1      34.717  20.979  24.938  1.00  0.00     0.139 A 
ATOM     12  C   UNL A   1      33.466  20.684  25.495  1.00  0.00     0.040 A 
ATOM     13  F   UNL A   1      35.452  19.912  24.627  1.00  0.00    -0.206 F 
BRANCH   8  14
ATOM     14  O   UNL A   1      34.577  24.639  24.890  1.00  0.00    -0.456 OA
BRANCH  14  15
ATOM     15  C   UNL A   1      33.851  25.441  24.028  1.00  0.00     0.130 A 
ATOM     16  C   UNL A   1      32.528  25.579  20.449  1.00  0.00     0.044 C 
ATOM     17  C   UNL A   1      32.818  25.951  21.874  1.00  0.00    -0.047 A 
ATOM     18  C   UNL A   1      32.380  27.175  22.384  1.00  0.00     0.004 A 
ATOM     19  C   UNL A   1      33.524  25.078  22.711  1.00  0.00     0.050 A 
ATOM     20  C   UNL A   1      32.658  27.525  23.705  1.00  0.00     0.007 A 
ATOM     21  C   UNL A   1      33.396  26.670  24.539  1.00  0.00    -0.008 A 
ATOM     22  C   UNL A   1      33.649  27.103  25.957  1.00  0.00     0.048 C 
ENDBRANCH  14  15
ENDBRANCH   8  14
ENDBRANCH   4   7
ENDBRANCH   2   3
ENDBRANCH   1   2
BRANCH   1  23
ATOM     23  C   UNL A   1      40.425  21.277  26.775  1.00  0.00     0.118 C 
BRANCH  23  24
ATOM     24  N   UNL A   1      41.610  21.551  25.956  1.00  0.00    -0.352 N 
ATOM     25  C   UNL A   1      42.307  22.719  25.700  1.00  0.00     0.251 C 
ATOM     26  H   UNL A   1      41.977  20.757  25.506  1.00  0.00     0.163 HD
ATOM     27  O   UNL A   1      43.086  22.764  24.761  1.00  0.00    -0.269 OA
BRANCH  25  28
ATOM     28  C   UNL A   1      42.113  23.916  26.549  1.00  0.00     0.039 A 
ATOM     29  C   UNL A   1      42.794  24.078  27.758  1.00  0.00     0.014 A 
ATOM     30  C   UNL A   1      41.238  24.902  26.126  1.00  0.00     0.014 A 
ATOM     31  C   UNL A   1      42.626  25.263  28.479  1.00  0.00     0.010 A 
ATOM     32  C   UNL A   1      41.221  26.133  26.718  1.00  0.00     0.010 A 
ATOM     33  C   UNL A   1      41.845  26.298  27.940  1.00  0.00    -0.014 A 
BRANCH  33  34
ATOM     34  C   UNL A   1      41.733  27.597  28.587  1.00  0.00     0.031 A 
ATOM     35  C   UNL A   1      42.792  28.567  28.228  1.00  0.00     0.074 A 
ATOM     36  C   UNL A   1      40.649  28.008  29.280  1.00  0.00     0.049 A 
ATOM     37  N   UNL A   1      43.716  29.033  29.000  1.00  0.00    -0.248 NA
ATOM     38  C   UNL A   1      42.902  28.999  26.827  1.00  0.00     0.031 C 
ATOM     39  C   UNL A   1      39.359  27.329  29.458  1.00  0.00     0.029 A 
ATOM     40  N   UNL A   1      40.440  29.207  29.890  1.00  0.00    -0.354 N 
ATOM     41  C   UNL A   1      44.410  29.964  28.242  1.00  0.00     0.074 A 
ATOM     42  C   UNL A   1      43.983  29.780  26.878  1.00  0.00     0.031 C 
ATOM     43  C   UNL A   1      38.445  28.208  29.920  1.00  0.00     0.029 A 
ATOM     44  C   UNL A   1      39.119  29.451  30.240  1.00  0.00     0.049 A 
ATOM     45  H   UNL A   1      41.166  29.847  30.068  1.00  0.00     0.167 HD
ATOM     46  C   UNL A   1      45.096  30.977  28.840  1.00  0.00     0.037 A 
ATOM     47  C   UNL A   1      38.615  30.606  30.736  1.00  0.00     0.037 A 
ATOM     48  C   UNL A   1      45.312  30.717  30.244  1.00  0.00     0.049 A 
ATOM     49  C   UNL A   1      39.750  31.367  31.313  1.00  0.00     0.074 A 
ATOM     50  C   UNL A   1      45.879  29.675  30.955  1.00  0.00     0.029 A 
ATOM     51  N   UNL A   1      44.564  31.414  31.161  1.00  0.00    -0.354 N 
ATOM     52  N   UNL A   1      40.401  31.010  32.385  1.00  0.00    -0.248 NA
ATOM     53  C   UNL A   1      40.438  32.318  30.454  1.00  0.00     0.031 C 
ATOM     54  C   UNL A   1      45.039  29.506  32.097  1.00  0.00     0.029 A 
ATOM     55  C   UNL A   1      44.058  30.495  32.047  1.00  0.00     0.049 A 
ATOM     56  H   UNL A   1      44.419  32.388  31.180  1.00  0.00     0.167 HD
ATOM     57  C   UNL A   1      41.722  31.325  32.110  1.00  0.00     0.074 A 
ATOM     58  C   UNL A   1      41.666  32.233  30.968  1.00  0.00     0.031 C 
ATOM     59  C   UNL A   1      42.746  30.596  32.644  1.00  0.00     0.037 A 
BRANCH  46  60
ATOM     60  C   UNL A   1      45.249  32.349  28.241  1.00  0.00     0.064 A 
ATOM     61  C   UNL A   1      46.458  32.827  27.688  1.00  0.00     0.173 A 
ATOM     62  C   UNL A   1      44.101  33.107  27.944  1.00  0.00     0.173 A 
ATOM     63  F   UNL A   1      47.602  32.139  27.780  1.00  0.00    -0.203 F 
ATOM     64  C   UNL A   1      46.516  33.980  26.909  1.00  0.00     0.198 A 
ATOM     65  C   UNL A   1      44.154  34.227  27.111  1.00  0.00     0.198 A 
ATOM     66  F   UNL A   1      42.895  32.717  28.383  1.00  0.00    -0.203 F 
ATOM     67  F   UNL A   1      47.693  34.370  26.398  1.00  0.00    -0.200 F 
ATOM     68  C   UNL A   1      45.362  34.664  26.595  1.00  0.00     0.200 A 
ATOM     69  F   UNL A   1      43.020  34.844  26.753  1.00  0.00    -0.200 F 
ATOM     70  F   UNL A   1      45.408  35.705  25.754  1.00  0.00    -0.200 F 
ENDBRANCH  46  60
BRANCH  47  71
ATOM     71  C   UNL A   1      37.270  31.199  30.552  1.00  0.00     0.064 A 
ATOM     72  C   UNL A   1      36.866  31.759  29.324  1.00  0.00     0.173 A 
ATOM     73  C   UNL A   1      36.460  31.487  31.663  1.00  0.00     0.173 A 
ATOM     74  F   UNL A   1      37.604  31.600  28.216  1.00  0.00    -0.203 F 
ATOM     75  C   UNL A   1      35.746  32.584  29.222  1.00  0.00     0.198 A 
ATOM     76  C   UNL A   1      35.348  32.328  31.564  1.00  0.00     0.198 A 
ATOM     77  F   UNL A   1      36.787  31.021  32.877  1.00  0.00    -0.203 F 
ATOM     78  F   UNL A   1      35.435  33.144  28.044  1.00  0.00    -0.200 F 
ATOM     79  C   UNL A   1      35.001  32.886  30.346  1.00  0.00     0.200 A 
ATOM     80  F   UNL A   1      34.651  32.646  32.664  1.00  0.00    -0.200 F 
ATOM     81  F   UNL A   1      33.978  33.748  30.264  1.00  0.00    -0.200 F 
ENDBRANCH  47  71
BRANCH  59  82
ATOM     82  C   UNL A   1      42.429  29.649  33.771  1.00  0.00     0.064 A 
ATOM     83  C   UNL A   1      42.789  30.027  35.072  1.00  0.00     0.173 A 
ATOM     84  C   UNL A   1      41.903  28.356  33.600  1.00  0.00     0.173 A 
ATOM     85  F   UNL A   1      43.347  31.228  35.294  1.00  0.00    -0.203 F 
ATOM     86  C   UNL A   1      42.617  29.164  36.152  1.00  0.00     0.198 A 
ATOM     87  C   UNL A   1      41.693  27.510  34.689  1.00  0.00     0.198 A 
ATOM     88  F   UNL A   1      41.633  27.872  32.383  1.00  0.00    -0.203 F 
ATOM     89  F   UNL A   1      43.016  29.541  37.375  1.00  0.00    -0.200 F 
ATOM     90  C   UNL A   1      42.056  27.913  35.963  1.00  0.00     0.200 A 
ATOM     91  F   UNL A   1      41.165  26.291  34.501  1.00  0.00    -0.200 F 
ATOM     92  F   UNL A   1      41.888  27.086  37.005  1.00  0.00    -0.200 F 
ENDBRANCH  59  82
ENDBRANCH  33  34
ENDBRANCH  25  28
ENDBRANCH  23  24
ENDBRANCH   1  23
TORSDOF 12
ENDMDL
MODEL 3
REMARK VINA RESULT:     -12.9      1.338      2.394
REMARK SMILES Cc1ccc(C)c(Oc2cccc(F)c2C(=O)NCCCNC(=O)c2ccc(-c3c4nc(c(-c5c(F)c(F)c(F)c(F)c5F)c5ccc([nH]5)c(-c5c(F)c(F)c(F)c(F)c5F)c5nc(c(-c6c(F)c(F)c(F)c(F)c6F)c6ccc3[nH]6)C=C5)C=C4)cc2)c1
REMARK SMILES IDX 20 1 19 2 18 3 16 4 17 5 15 7 9 8 10 9 11 10 13 11 12 12
REMARK SMILES IDX 14 13 8 14 7 15 1 16 2 17 3 18 88 19 4 20 5 21 6 22 21 23
REMARK SMILES IDX 22 24 23 25 24 27 25 28 26 29 87 30 27 31 86 32 28 33 29 34
REMARK SMILES IDX 30 35 80 36 31 37 85 38 79 39 81 40 32 41 84 42 78 43 77 44
REMARK SMILES IDX 33 46 65 47 45 48 64 49 46 50 49 51 63 52 82 53 47 54 48 55
REMARK SMILES IDX 62 57 83 58 50 59 34 60 35 61 43 62 36 63 37 64 41 65 44 66
REMARK SMILES IDX 38 67 39 68 42 69 40 70 66 71 67 72 75 73 68 74 69 75 73 76
REMARK SMILES IDX 76 77 70 78 71 79 74 80 72 81 51 82 52 83 60 84 53 85 54 86
REMARK SMILES IDX 58 87 61 88 55 89 56 90 59 91 57 92
REMARK H PARENT 18 6 22 26 81 45 49 56
REMARK Flexibility Score: inf
ROOT
ATOM      1  C   UNL A   1      32.423  30.004  27.229  1.00  0.00     0.042 C 
ENDROOT
BRANCH   1   2
ATOM      2  C   UNL A   1      32.353  28.481  27.002  1.00  0.00     0.118 C 
BRANCH   2   3
ATOM      3  N   UNL A   1      32.022  28.104  25.632  1.00  0.00    -0.352 N 
ATOM      4  C   UNL A   1      31.679  26.944  24.983  1.00  0.00     0.258 C 
ATOM      5  O   UNL A   1      31.441  27.108  23.782  1.00  0.00    -0.269 OA
ATOM      6  H   UNL A   1      32.053  28.875  25.020  1.00  0.00     0.163 HD
BRANCH   4   7
ATOM      7  C   UNL A   1      31.588  25.570  25.573  1.00  0.00     0.118 A 
ATOM      8  C   UNL A   1      32.777  24.826  25.776  1.00  0.00     0.143 A 
ATOM      9  C   UNL A   1      32.771  23.619  26.506  1.00  0.00     0.048 A 
ATOM     10  C   UNL A   1      31.576  23.061  26.933  1.00  0.00     0.007 A 
ATOM     11  C   UNL A   1      30.410  24.979  26.035  1.00  0.00     0.139 A 
ATOM     12  C   UNL A   1      30.393  23.735  26.678  1.00  0.00     0.040 A 
ATOM     13  F   UNL A   1      29.219  25.569  25.937  1.00  0.00    -0.206 F 
BRANCH   8  14
ATOM     14  O   UNL A   1      33.986  25.310  25.318  1.00  0.00    -0.456 OA
BRANCH  14  15
ATOM     15  C   UNL A   1      34.982  24.432  24.929  1.00  0.00     0.130 A 
ATOM     16  C   UNL A   1      38.263  22.890  26.125  1.00  0.00     0.044 C 
ATOM     17  C   UNL A   1      37.070  23.212  25.274  1.00  0.00    -0.047 A 
ATOM     18  C   UNL A   1      36.938  22.645  24.006  1.00  0.00     0.004 A 
ATOM     19  C   UNL A   1      36.073  24.078  25.740  1.00  0.00     0.050 A 
ATOM     20  C   UNL A   1      35.834  22.953  23.210  1.00  0.00     0.007 A 
ATOM     21  C   UNL A   1      34.849  23.848  23.657  1.00  0.00    -0.008 A 
ATOM     22  C   UNL A   1      33.678  24.125  22.754  1.00  0.00     0.048 C 
ENDBRANCH  14  15
ENDBRANCH   8  14
ENDBRANCH   4   7
ENDBRANCH   2   3
ENDBRANCH   1   2
BRANCH   1  23
ATOM     23  C   UNL A   1      33.799  30.680  27.295  1.00  0.00     0.118 C 
BRANCH  23  24
ATOM     24  N   UNL A   1      33.902  31.706  28.335  1.00  0.00    -0.352 N 
ATOM     25  C   UNL A   1      34.845  31.930  29.323  1.00  0.00     0.251 C 
ATOM     26  H   UNL A   1      33.164  32.357  28.329  1.00  0.00     0.163 HD
ATOM     27  O   UNL A   1      34.577  32.670  30.257  1.00  0.00    -0.269 OA
BRANCH  25  28
ATOM     28  C   UNL A   1      36.172  31.278  29.263  1.00  0.00     0.039 A 
ATOM     29  C   UNL A   1      37.353  32.020  29.177  1.00  0.00     0.014 A 
ATOM     30  C   UNL A   1      36.241  29.896  29.301  1.00  0.00     0.014 A 
ATOM     31  C   UNL A   1      38.579  31.351  29.198  1.00  0.00     0.010 A 
ATOM     32  C   UNL A   1      37.427  29.253  29.520  1.00  0.00     0.010 A 
ATOM     33  C   UNL A   1      38.606  29.960  29.388  1.00  0.00    -0.014 A 
BRANCH  33  34
ATOM     34  C   UNL A   1      39.854  29.226  29.539  1.00  0.00     0.031 A 
ATOM     35  C   UNL A   1      40.283  29.004  30.939  1.00  0.00     0.074 A 
ATOM     36  C   UNL A   1      40.483  28.583  28.532  1.00  0.00     0.049 A 
ATOM     37  N   UNL A   1      41.311  29.513  31.529  1.00  0.00    -0.248 NA
ATOM     38  C   UNL A   1      39.418  28.203  31.817  1.00  0.00     0.031 C 
ATOM     39  C   UNL A   1      40.042  28.393  27.144  1.00  0.00     0.029 A 
ATOM     40  N   UNL A   1      41.630  27.850  28.582  1.00  0.00    -0.354 N 
ATOM     41  C   UNL A   1      41.340  28.948  32.796  1.00  0.00     0.074 A 
ATOM     42  C   UNL A   1      40.071  28.290  32.978  1.00  0.00     0.031 C 
ATOM     43  C   UNL A   1      40.778  27.422  26.565  1.00  0.00     0.029 A 
ATOM     44  C   UNL A   1      41.850  27.052  27.468  1.00  0.00     0.049 A 
ATOM     45  H   UNL A   1      42.251  27.884  29.345  1.00  0.00     0.167 HD
ATOM     46  C   UNL A   1      42.506  28.861  33.493  1.00  0.00     0.037 A 
ATOM     47  C   UNL A   1      42.834  26.135  27.313  1.00  0.00     0.037 A 
ATOM     48  C   UNL A   1      43.520  29.729  32.944  1.00  0.00     0.049 A 
ATOM     49  C   UNL A   1      43.908  26.478  28.278  1.00  0.00     0.074 A 
ATOM     50  C   UNL A   1      43.583  31.082  32.665  1.00  0.00     0.029 A 
ATOM     51  N   UNL A   1      44.545  29.165  32.224  1.00  0.00    -0.354 N 
ATOM     52  N   UNL A   1      44.667  27.534  28.184  1.00  0.00    -0.248 NA
ATOM     53  C   UNL A   1      43.866  25.855  29.592  1.00  0.00     0.031 C 
ATOM     54  C   UNL A   1      44.279  31.171  31.421  1.00  0.00     0.029 A 
ATOM     55  C   UNL A   1      44.655  29.879  31.057  1.00  0.00     0.049 A 
ATOM     56  H   UNL A   1      45.096  28.395  32.493  1.00  0.00     0.167 HD
ATOM     57  C   UNL A   1      44.826  27.963  29.492  1.00  0.00     0.074 A 
ATOM     58  C   UNL A   1      44.417  26.830  30.317  1.00  0.00     0.031 C 
ATOM     59  C   UNL A   1      44.995  29.287  29.783  1.00  0.00     0.037 A 
BRANCH  46  60
ATOM     60  C   UNL A   1      42.833  27.733  34.435  1.00  0.00     0.064 A 
ATOM     61  C   UNL A   1      43.139  26.423  34.005  1.00  0.00     0.173 A 
ATOM     62  C   UNL A   1      43.134  28.019  35.780  1.00  0.00     0.173 A 
ATOM     63  F   UNL A   1      43.027  26.051  32.724  1.00  0.00    -0.203 F 
ATOM     64  C   UNL A   1      43.692  25.470  34.856  1.00  0.00     0.198 A 
ATOM     65  C   UNL A   1      43.745  27.080  36.613  1.00  0.00     0.198 A 
ATOM     66  F   UNL A   1      42.922  29.247  36.279  1.00  0.00    -0.203 F 
ATOM     67  F   UNL A   1      43.976  24.248  34.381  1.00  0.00    -0.200 F 
ATOM     68  C   UNL A   1      44.023  25.805  36.151  1.00  0.00     0.200 A 
ATOM     69  F   UNL A   1      44.128  27.434  37.847  1.00  0.00    -0.200 F 
ATOM     70  F   UNL A   1      44.657  24.920  36.931  1.00  0.00    -0.200 F 
ENDBRANCH  46  60
BRANCH  47  71
ATOM     71  C   UNL A   1      42.822  24.862  26.555  1.00  0.00     0.064 A 
ATOM     72  C   UNL A   1      42.197  23.704  27.059  1.00  0.00     0.173 A 
ATOM     73  C   UNL A   1      43.673  24.680  25.452  1.00  0.00     0.173 A 
ATOM     74  F   UNL A   1      41.418  23.757  28.148  1.00  0.00    -0.203 F 
ATOM     75  C   UNL A   1      42.438  22.441  26.517  1.00  0.00     0.198 A 
ATOM     76  C   UNL A   1      43.927  23.412  24.921  1.00  0.00     0.198 A 
ATOM     77  F   UNL A   1      44.332  25.723  24.928  1.00  0.00    -0.203 F 
ATOM     78  F   UNL A   1      41.867  21.359  27.068  1.00  0.00    -0.200 F 
ATOM     79  C   UNL A   1      43.319  22.293  25.463  1.00  0.00     0.200 A 
ATOM     80  F   UNL A   1      44.811  23.272  23.923  1.00  0.00    -0.200 F 
ATOM     81  F   UNL A   1      43.617  21.071  25.001  1.00  0.00    -0.200 F 
ENDBRANCH  47  71
BRANCH  59  82
ATOM     82  C   UNL A   1      45.312  30.227  28.651  1.00  0.00     0.064 A 
ATOM     83  C   UNL A   1      46.649  30.601  28.457  1.00  0.00     0.173 A 
ATOM     84  C   UNL A   1      44.347  30.854  27.842  1.00  0.00     0.173 A 
ATOM     85  F   UNL A   1      47.612  30.080  29.234  1.00  0.00    -0.203 F 
ATOM     86  C   UNL A   1      47.008  31.540  27.493  1.00  0.00     0.198 A 
ATOM     87  C   UNL A   1      44.713  31.763  26.850  1.00  0.00     0.198 A 
ATOM     88  F   UNL A   1      43.040  30.640  28.030  1.00  0.00    -0.203 F 
ATOM     89  F   UNL A   1      48.291  31.909  27.368  1.00  0.00    -0.200 F 
ATOM     90  C   UNL A   1      46.042  32.110  26.681  1.00  0.00     0.200 A 
ATOM     91  F   UNL A   1      43.774  32.327  26.075  1.00  0.00    -0.200 F 
ATOM     92  F   UNL A   1      46.391  33.011  25.751  1.00  0.00    -0.200 F 
ENDBRANCH  59  82
ENDBRANCH  33  34
ENDBRANCH  25  28
ENDBRANCH  23  24
ENDBRANCH   1  23
TORSDOF 12
ENDMDL
