MODEL 1
REMARK VINA RESULT:     -13.7      0.000      0.000
REMARK SMILES O=C(NCCCNC(=O)[C@@H]1C[C@@H]1C(=O)N1CC2(CCCC2)c2c(F)cccc21)c1ccc(-c2c3nc(c(-c4c(F)c(F)c(F)c(F)c4F)c4ccc([nH]4)c(-c4c(F)c(F)c(F)c(F)c4F)c4nc(c(-c5c(F)c(F)c(F)c(F)c5F)c5ccc2[nH]5)C=C4)C=C3)cc1
REMARK SMILES IDX 5 1 4 2 3 3 1 4 2 5 29 7 30 8 91 9 31 10 90 11 32 12 33 13
REMARK SMILES IDX 34 14 84 15 35 16 89 17 83 18 85 19 36 20 88 21 82 22 81 23
REMARK SMILES IDX 37 25 69 26 49 27 68 28 50 29 53 30 67 31 86 32 51 33 52 34
REMARK SMILES IDX 66 36 87 37 54 38 38 39 39 40 47 41 40 42 41 43 45 44 48 45
REMARK SMILES IDX 42 46 43 47 46 48 44 49 70 50 71 51 79 52 72 53 73 54 77 55
REMARK SMILES IDX 80 56 74 57 75 58 78 59 76 60 55 61 56 62 64 63 57 64 58 65
REMARK SMILES IDX 62 66 65 67 59 68 60 69 63 70 61 71 6 72 7 73 8 74 9 76
REMARK SMILES IDX 10 77 11 78 12 79 13 80 14 81 15 82 16 83 28 84 17 85 22 86
REMARK SMILES IDX 27 87 18 88 21 89 23 90 26 91 19 92 20 93 24 94 25 95
REMARK H PARENT 3 6 85 24 53 35 7 75
REMARK Flexibility Score: inf
ROOT
ATOM      1  C   UNL A   1      33.636  27.594  25.950  1.00  0.00     0.042 C 
ENDROOT
BRANCH   1   2
ATOM      2  C   UNL A   1      33.938  28.955  25.325  1.00  0.00     0.118 C 
BRANCH   2   3
ATOM      3  N   UNL A   1      33.193  30.070  25.902  1.00  0.00    -0.352 N 
ATOM      4  O   UNL A   1      32.701  31.802  27.248  1.00  0.00    -0.269 OA
ATOM      5  C   UNL A   1      33.487  30.910  26.945  1.00  0.00     0.251 C 
ATOM      6  H   UNL A   1      32.330  30.250  25.466  1.00  0.00     0.163 HD
BRANCH   5   7
ATOM      7  C   UNL A   1      34.735  30.766  27.710  1.00  0.00     0.039 A 
ATOM      8  C   UNL A   1      34.997  29.589  28.408  1.00  0.00     0.014 A 
ATOM      9  C   UNL A   1      35.692  31.789  27.657  1.00  0.00     0.014 A 
ATOM     10  C   UNL A   1      36.167  29.475  29.142  1.00  0.00     0.010 A 
ATOM     11  C   UNL A   1      36.899  31.649  28.346  1.00  0.00     0.010 A 
ATOM     12  C   UNL A   1      37.131  30.497  29.104  1.00  0.00    -0.014 A 
BRANCH  12  13
ATOM     13  C   UNL A   1      38.410  30.254  29.802  1.00  0.00     0.031 A 
ATOM     14  C   UNL A   1      38.636  30.769  31.185  1.00  0.00     0.074 A 
ATOM     15  C   UNL A   1      39.296  29.435  29.206  1.00  0.00     0.049 A 
ATOM     16  N   UNL A   1      39.572  30.443  32.038  1.00  0.00    -0.248 NA
ATOM     17  C   UNL A   1      37.685  31.775  31.683  1.00  0.00     0.031 C 
ATOM     18  C   UNL A   1      39.147  28.891  27.853  1.00  0.00     0.029 A 
ATOM     19  N   UNL A   1      40.453  28.870  29.668  1.00  0.00    -0.354 N 
ATOM     20  C   UNL A   1      39.308  31.179  33.184  1.00  0.00     0.074 A 
ATOM     21  C   UNL A   1      38.154  32.006  32.904  1.00  0.00     0.031 C 
ATOM     22  C   UNL A   1      40.134  28.015  27.623  1.00  0.00     0.029 A 
ATOM     23  C   UNL A   1      40.998  27.958  28.797  1.00  0.00     0.049 A 
ATOM     24  H   UNL A   1      40.855  29.094  30.539  1.00  0.00     0.167 HD
ATOM     25  C   UNL A   1      39.967  31.143  34.367  1.00  0.00     0.037 A 
ATOM     26  C   UNL A   1      42.061  27.147  28.945  1.00  0.00     0.037 A 
ATOM     27  C   UNL A   1      41.127  30.326  34.613  1.00  0.00     0.049 A 
ATOM     28  C   UNL A   1      42.796  27.162  30.254  1.00  0.00     0.074 A 
ATOM     29  C   UNL A   1      41.881  30.221  35.769  1.00  0.00     0.029 A 
ATOM     30  N   UNL A   1      41.707  29.478  33.678  1.00  0.00    -0.354 N 
ATOM     31  N   UNL A   1      42.517  27.828  31.349  1.00  0.00    -0.248 NA
ATOM     32  C   UNL A   1      43.989  26.313  30.352  1.00  0.00     0.031 C 
ATOM     33  C   UNL A   1      42.941  29.343  35.518  1.00  0.00     0.029 A 
ATOM     34  C   UNL A   1      42.823  28.864  34.222  1.00  0.00     0.049 A 
ATOM     35  H   UNL A   1      41.372  29.334  32.763  1.00  0.00     0.167 HD
ATOM     36  C   UNL A   1      43.495  27.480  32.267  1.00  0.00     0.074 A 
ATOM     37  C   UNL A   1      44.359  26.518  31.609  1.00  0.00     0.031 C 
ATOM     38  C   UNL A   1      43.669  27.920  33.537  1.00  0.00     0.037 A 
BRANCH  25  39
ATOM     39  C   UNL A   1      39.453  32.010  35.477  1.00  0.00     0.064 A 
ATOM     40  C   UNL A   1      38.545  31.516  36.427  1.00  0.00     0.173 A 
ATOM     41  C   UNL A   1      39.907  33.328  35.625  1.00  0.00     0.173 A 
ATOM     42  F   UNL A   1      38.072  30.266  36.323  1.00  0.00    -0.203 F 
ATOM     43  C   UNL A   1      38.102  32.317  37.477  1.00  0.00     0.198 A 
ATOM     44  C   UNL A   1      39.479  34.117  36.689  1.00  0.00     0.198 A 
ATOM     45  F   UNL A   1      40.777  33.846  34.746  1.00  0.00    -0.203 F 
ATOM     46  F   UNL A   1      37.213  31.834  38.357  1.00  0.00    -0.200 F 
ATOM     47  C   UNL A   1      38.574  33.613  37.612  1.00  0.00     0.200 A 
ATOM     48  F   UNL A   1      39.943  35.368  36.824  1.00  0.00    -0.200 F 
ATOM     49  F   UNL A   1      38.155  34.380  38.628  1.00  0.00    -0.200 F 
ENDBRANCH  25  39
BRANCH  26  50
ATOM     50  C   UNL A   1      42.449  26.238  27.837  1.00  0.00     0.064 A 
ATOM     51  C   UNL A   1      41.803  25.009  27.649  1.00  0.00     0.173 A 
ATOM     52  C   UNL A   1      43.441  26.601  26.914  1.00  0.00     0.173 A 
ATOM     53  F   UNL A   1      40.857  24.610  28.512  1.00  0.00    -0.203 F 
ATOM     54  C   UNL A   1      42.138  24.176  26.582  1.00  0.00     0.198 A 
ATOM     55  C   UNL A   1      43.756  25.781  25.834  1.00  0.00     0.198 A 
ATOM     56  F   UNL A   1      44.083  27.772  27.046  1.00  0.00    -0.203 F 
ATOM     57  F   UNL A   1      41.523  22.994  26.440  1.00  0.00    -0.200 F 
ATOM     58  C   UNL A   1      43.108  24.567  25.671  1.00  0.00     0.200 A 
ATOM     59  F   UNL A   1      44.681  26.172  24.947  1.00  0.00    -0.200 F 
ATOM     60  F   UNL A   1      43.418  23.773  24.636  1.00  0.00    -0.200 F 
ENDBRANCH  26  50
BRANCH  38  61
ATOM     61  C   UNL A   1      44.845  27.374  34.290  1.00  0.00     0.064 A 
ATOM     62  C   UNL A   1      46.077  28.041  34.295  1.00  0.00     0.173 A 
ATOM     63  C   UNL A   1      44.720  26.210  35.062  1.00  0.00     0.173 A 
ATOM     64  F   UNL A   1      46.247  29.151  33.559  1.00  0.00    -0.203 F 
ATOM     65  C   UNL A   1      47.151  27.553  35.033  1.00  0.00     0.198 A 
ATOM     66  C   UNL A   1      45.786  25.738  35.820  1.00  0.00     0.198 A 
ATOM     67  F   UNL A   1      43.557  25.541  35.094  1.00  0.00    -0.203 F 
ATOM     68  F   UNL A   1      48.331  28.186  34.995  1.00  0.00    -0.200 F 
ATOM     69  C   UNL A   1      47.001  26.408  35.801  1.00  0.00     0.200 A 
ATOM     70  F   UNL A   1      45.639  24.639  36.572  1.00  0.00    -0.200 F 
ATOM     71  F   UNL A   1      48.033  25.946  36.522  1.00  0.00    -0.200 F 
ENDBRANCH  38  61
ENDBRANCH  12  13
ENDBRANCH   5   7
ENDBRANCH   2   3
ENDBRANCH   1   2
BRANCH   1  72
ATOM     72  C   UNL A   1      32.863  26.630  25.061  1.00  0.00     0.117 C 
BRANCH  72  73
ATOM     73  N   UNL A   1      33.472  26.388  23.780  1.00  0.00    -0.356 N 
ATOM     74  C   UNL A   1      33.055  25.721  22.671  1.00  0.00     0.223 C 
ATOM     75  H   UNL A   1      34.369  26.784  23.688  1.00  0.00     0.163 HD
ATOM     76  O   UNL A   1      33.653  25.978  21.625  1.00  0.00    -0.275 OA
BRANCH  74  77
ATOM     77  C   UNL A   1      31.996  24.682  22.600  1.00  0.00     0.091 C 
ATOM     78  C   UNL A   1      30.652  25.251  23.043  1.00  0.00     0.028 C 
ATOM     79  C   UNL A   1      31.056  23.895  23.496  1.00  0.00     0.092 C 
BRANCH  79  80
ATOM     80  C   UNL A   1      31.438  23.418  24.837  1.00  0.00     0.230 C 
ATOM     81  O   UNL A   1      30.957  24.021  25.795  1.00  0.00    -0.274 OA
BRANCH  80  82
ATOM     82  N   UNL A   1      32.295  22.352  25.009  1.00  0.00    -0.311 N 
ATOM     83  C   UNL A   1      31.778  20.999  25.263  1.00  0.00     0.137 C 
ATOM     84  C   UNL A   1      33.692  22.284  25.074  1.00  0.00     0.050 A 
ATOM     85  C   UNL A   1      32.912  20.023  24.864  1.00  0.00     0.018 C 
ATOM     86  C   UNL A   1      34.097  20.946  25.000  1.00  0.00     0.020 A 
ATOM     87  C   UNL A   1      34.616  23.301  25.251  1.00  0.00     0.027 A 
ATOM     88  C   UNL A   1      32.927  18.770  25.754  1.00  0.00     0.014 C 
ATOM     89  C   UNL A   1      32.758  19.510  23.413  1.00  0.00     0.014 C 
ATOM     90  C   UNL A   1      35.444  20.630  25.000  1.00  0.00     0.129 A 
ATOM     91  C   UNL A   1      35.976  22.973  25.277  1.00  0.00     0.005 A 
ATOM     92  C   UNL A   1      32.276  17.694  24.899  1.00  0.00     0.001 C 
ATOM     93  C   UNL A   1      32.809  17.990  23.508  1.00  0.00     0.001 C 
ATOM     94  F   UNL A   1      35.848  19.363  24.853  1.00  0.00    -0.207 F 
ATOM     95  C   UNL A   1      36.389  21.642  25.136  1.00  0.00     0.040 A 
ENDBRANCH  80  82
ENDBRANCH  79  80
ENDBRANCH  74  77
ENDBRANCH  72  73
ENDBRANCH   1  72
TORSDOF 12
ENDMDL
MODEL 2
REMARK VINA RESULT:     -13.6      0.997      2.335
REMARK SMILES O=C(NCCCNC(=O)[C@@H]1C[C@@H]1C(=O)N1CC2(CCCC2)c2c(F)cccc21)c1ccc(-c2c3nc(c(-c4c(F)c(F)c(F)c(F)c4F)c4ccc([nH]4)c(-c4c(F)c(F)c(F)c(F)c4F)c4nc(c(-c5c(F)c(F)c(F)c(F)c5F)c5ccc2[nH]5)C=C4)C=C3)cc1
REMARK SMILES IDX 5 1 4 2 3 3 1 4 2 5 29 7 30 8 91 9 31 10 90 11 32 12 33 13
REMARK SMILES IDX 34 14 84 15 35 16 89 17 83 18 85 19 36 20 88 21 82 22 81 23
REMARK SMILES IDX 37 25 69 26 49 27 68 28 50 29 53 30 67 31 86 32 51 33 52 34
REMARK SMILES IDX 66 36 87 37 54 38 38 39 39 40 47 41 40 42 41 43 45 44 48 45
REMARK SMILES IDX 42 46 43 47 46 48 44 49 70 50 71 51 79 52 72 53 73 54 77 55
REMARK SMILES IDX 80 56 74 57 75 58 78 59 76 60 55 61 56 62 64 63 57 64 58 65
REMARK SMILES IDX 62 66 65 67 59 68 60 69 63 70 61 71 6 72 7 73 8 74 9 76
REMARK SMILES IDX 10 77 11 78 12 79 13 80 14 81 15 82 16 83 28 84 17 85 22 86
REMARK SMILES IDX 27 87 18 88 21 89 23 90 26 91 19 92 20 93 24 94 25 95
REMARK H PARENT 3 6 85 24 53 35 7 75
REMARK Flexibility Score: inf
ROOT
ATOM      1  C   UNL A   1      34.147  28.946  23.842  1.00  0.00     0.042 C 
ENDROOT
BRANCH   1   2
ATOM      2  C   UNL A   1      33.676  28.781  25.286  1.00  0.00     0.118 C 
BRANCH   2   3
ATOM      3  N   UNL A   1      32.936  29.920  25.821  1.00  0.00    -0.352 N 
ATOM      4  O   UNL A   1      32.455  31.710  27.094  1.00  0.00    -0.269 OA
ATOM      5  C   UNL A   1      33.240  30.806  26.821  1.00  0.00     0.251 C 
ATOM      6  H   UNL A   1      32.067  30.079  25.387  1.00  0.00     0.163 HD
BRANCH   5   7
ATOM      7  C   UNL A   1      34.496  30.699  27.578  1.00  0.00     0.039 A 
ATOM      8  C   UNL A   1      34.862  29.487  28.162  1.00  0.00     0.014 A 
ATOM      9  C   UNL A   1      35.360  31.801  27.631  1.00  0.00     0.014 A 
ATOM     10  C   UNL A   1      36.038  29.405  28.890  1.00  0.00     0.010 A 
ATOM     11  C   UNL A   1      36.575  31.701  28.312  1.00  0.00     0.010 A 
ATOM     12  C   UNL A   1      36.908  30.506  28.957  1.00  0.00    -0.014 A 
BRANCH  12  13
ATOM     13  C   UNL A   1      38.205  30.309  29.638  1.00  0.00     0.031 A 
ATOM     14  C   UNL A   1      38.426  30.822  31.023  1.00  0.00     0.074 A 
ATOM     15  C   UNL A   1      39.116  29.533  29.023  1.00  0.00     0.049 A 
ATOM     16  N   UNL A   1      39.385  30.526  31.862  1.00  0.00    -0.248 NA
ATOM     17  C   UNL A   1      37.442  31.783  31.541  1.00  0.00     0.031 C 
ATOM     18  C   UNL A   1      38.972  28.994  27.668  1.00  0.00     0.029 A 
ATOM     19  N   UNL A   1      40.300  29.011  29.467  1.00  0.00    -0.354 N 
ATOM     20  C   UNL A   1      39.105  31.241  33.017  1.00  0.00     0.074 A 
ATOM     21  C   UNL A   1      37.916  32.022  32.758  1.00  0.00     0.031 C 
ATOM     22  C   UNL A   1      39.992  28.161  27.418  1.00  0.00     0.029 A 
ATOM     23  C   UNL A   1      40.871  28.129  28.581  1.00  0.00     0.049 A 
ATOM     24  H   UNL A   1      40.704  29.244  30.336  1.00  0.00     0.167 HD
ATOM     25  C   UNL A   1      39.779  31.221  34.192  1.00  0.00     0.037 A 
ATOM     26  C   UNL A   1      41.968  27.361  28.709  1.00  0.00     0.037 A 
ATOM     27  C   UNL A   1      40.975  30.450  34.417  1.00  0.00     0.049 A 
ATOM     28  C   UNL A   1      42.718  27.394  30.010  1.00  0.00     0.074 A 
ATOM     29  C   UNL A   1      41.746  30.366  35.562  1.00  0.00     0.029 A 
ATOM     30  N   UNL A   1      41.577  29.635  33.467  1.00  0.00    -0.354 N 
ATOM     31  N   UNL A   1      42.426  28.039  31.114  1.00  0.00    -0.248 NA
ATOM     32  C   UNL A   1      43.945  26.594  30.086  1.00  0.00     0.031 C 
ATOM     33  C   UNL A   1      42.838  29.534  35.291  1.00  0.00     0.029 A 
ATOM     34  C   UNL A   1      42.724  29.062  33.993  1.00  0.00     0.049 A 
ATOM     35  H   UNL A   1      41.237  29.485  32.555  1.00  0.00     0.167 HD
ATOM     36  C   UNL A   1      43.427  27.723  32.017  1.00  0.00     0.074 A 
ATOM     37  C   UNL A   1      44.322  26.803  31.340  1.00  0.00     0.031 C 
ATOM     38  C   UNL A   1      43.599  28.160  33.289  1.00  0.00     0.037 A 
BRANCH  25  39
ATOM     39  C   UNL A   1      39.244  32.057  35.316  1.00  0.00     0.064 A 
ATOM     40  C   UNL A   1      38.431  31.500  36.315  1.00  0.00     0.173 A 
ATOM     41  C   UNL A   1      39.585  33.413  35.426  1.00  0.00     0.173 A 
ATOM     42  F   UNL A   1      38.068  30.211  36.250  1.00  0.00    -0.203 F 
ATOM     43  C   UNL A   1      37.970  32.275  37.377  1.00  0.00     0.198 A 
ATOM     44  C   UNL A   1      39.140  34.178  36.500  1.00  0.00     0.198 A 
ATOM     45  F   UNL A   1      40.361  33.992  34.498  1.00  0.00    -0.203 F 
ATOM     46  F   UNL A   1      37.172  31.730  38.305  1.00  0.00    -0.200 F 
ATOM     47  C   UNL A   1      38.330  33.610  37.472  1.00  0.00     0.200 A 
ATOM     48  F   UNL A   1      39.495  35.467  36.596  1.00  0.00    -0.200 F 
ATOM     49  F   UNL A   1      37.893  34.353  38.499  1.00  0.00    -0.200 F 
ENDBRANCH  25  39
BRANCH  26  50
ATOM     50  C   UNL A   1      42.379  26.478  27.589  1.00  0.00     0.064 A 
ATOM     51  C   UNL A   1      43.362  26.878  26.674  1.00  0.00     0.173 A 
ATOM     52  C   UNL A   1      41.832  25.194  27.439  1.00  0.00     0.173 A 
ATOM     53  F   UNL A   1      43.906  28.100  26.767  1.00  0.00    -0.203 F 
ATOM     54  C   UNL A   1      43.778  26.030  25.649  1.00  0.00     0.198 A 
ATOM     55  C   UNL A   1      42.267  24.339  26.431  1.00  0.00     0.198 A 
ATOM     56  F   UNL A   1      40.893  24.762  28.293  1.00  0.00    -0.203 F 
ATOM     57  F   UNL A   1      44.701  26.447  24.772  1.00  0.00    -0.200 F 
ATOM     58  C   UNL A   1      43.237  24.758  25.534  1.00  0.00     0.200 A 
ATOM     59  F   UNL A   1      41.754  23.105  26.335  1.00  0.00    -0.200 F 
ATOM     60  F   UNL A   1      43.650  23.937  24.558  1.00  0.00    -0.200 F 
ENDBRANCH  26  50
BRANCH  38  61
ATOM     61  C   UNL A   1      44.805  27.656  34.023  1.00  0.00     0.064 A 
ATOM     62  C   UNL A   1      46.008  28.374  34.022  1.00  0.00     0.173 A 
ATOM     63  C   UNL A   1      44.738  26.479  34.783  1.00  0.00     0.173 A 
ATOM     64  F   UNL A   1      46.123  29.498  33.298  1.00  0.00    -0.203 F 
ATOM     65  C   UNL A   1      47.110  27.923  34.743  1.00  0.00     0.198 A 
ATOM     66  C   UNL A   1      45.832  26.044  35.524  1.00  0.00     0.198 A 
ATOM     67  F   UNL A   1      43.605  25.761  34.820  1.00  0.00    -0.203 F 
ATOM     68  F   UNL A   1      48.262  28.606  34.700  1.00  0.00    -0.200 F 
ATOM     69  C   UNL A   1      47.017  26.764  35.500  1.00  0.00     0.200 A 
ATOM     70  F   UNL A   1      45.739  24.932  36.265  1.00  0.00    -0.200 F 
ATOM     71  F   UNL A   1      48.076  26.338  36.204  1.00  0.00    -0.200 F 
ENDBRANCH  38  61
ENDBRANCH  12  13
ENDBRANCH   5   7
ENDBRANCH   2   3
ENDBRANCH   1   2
BRANCH   1  72
ATOM     72  C   UNL A   1      33.560  27.950  22.852  1.00  0.00     0.117 C 
BRANCH  72  73
ATOM     73  N   UNL A   1      32.280  28.330  22.317  1.00  0.00    -0.356 N 
ATOM     74  C   UNL A   1      31.032  27.807  22.447  1.00  0.00     0.223 C 
ATOM     75  H   UNL A   1      32.315  29.129  21.741  1.00  0.00     0.163 HD
ATOM     76  O   UNL A   1      30.097  28.549  22.146  1.00  0.00    -0.275 OA
BRANCH  74  77
ATOM     77  C   UNL A   1      30.683  26.423  22.862  1.00  0.00     0.091 C 
ATOM     78  C   UNL A   1      31.251  26.116  24.243  1.00  0.00     0.028 C 
ATOM     79  C   UNL A   1      31.335  25.088  23.174  1.00  0.00     0.092 C 
BRANCH  79  80
ATOM     80  C   UNL A   1      32.506  24.577  22.441  1.00  0.00     0.230 C 
ATOM     81  O   UNL A   1      32.648  24.969  21.284  1.00  0.00    -0.274 OA
BRANCH  80  82
ATOM     82  N   UNL A   1      33.397  23.699  23.021  1.00  0.00    -0.311 N 
ATOM     83  C   UNL A   1      34.804  24.075  23.228  1.00  0.00     0.137 C 
ATOM     84  C   UNL A   1      33.256  22.368  23.431  1.00  0.00     0.050 A 
ATOM     85  C   UNL A   1      35.340  23.140  24.339  1.00  0.00     0.018 C 
ATOM     86  C   UNL A   1      34.368  21.996  24.196  1.00  0.00     0.020 A 
ATOM     87  C   UNL A   1      32.258  21.455  23.131  1.00  0.00     0.027 A 
ATOM     88  C   UNL A   1      36.824  22.795  24.130  1.00  0.00     0.014 C 
ATOM     89  C   UNL A   1      35.250  23.787  25.741  1.00  0.00     0.014 C 
ATOM     90  C   UNL A   1      34.433  20.731  24.752  1.00  0.00     0.129 A 
ATOM     91  C   UNL A   1      32.343  20.169  23.674  1.00  0.00     0.005 A 
ATOM     92  C   UNL A   1      37.560  23.689  25.115  1.00  0.00     0.001 C 
ATOM     93  C   UNL A   1      36.652  23.684  26.331  1.00  0.00     0.001 C 
ATOM     94  F   UNL A   1      35.452  20.387  25.548  1.00  0.00    -0.207 F 
ATOM     95  C   UNL A   1      33.420  19.813  24.495  1.00  0.00     0.040 A 
ENDBRANCH  80  82
ENDBRANCH  79  80
ENDBRANCH  74  77
ENDBRANCH  72  73
ENDBRANCH   1  72
TORSDOF 12
ENDMDL
MODEL 3
REMARK VINA RESULT:     -13.6      2.225      3.300
REMARK SMILES O=C(NCCCNC(=O)[C@@H]1C[C@@H]1C(=O)N1CC2(CCCC2)c2c(F)cccc21)c1ccc(-c2c3nc(c(-c4c(F)c(F)c(F)c(F)c4F)c4ccc([nH]4)c(-c4c(F)c(F)c(F)c(F)c4F)c4nc(c(-c5c(F)c(F)c(F)c(F)c5F)c5ccc2[nH]5)C=C4)C=C3)cc1
REMARK SMILES IDX 5 1 4 2 3 3 1 4 2 5 29 7 30 8 91 9 31 10 90 11 32 12 33 13
REMARK SMILES IDX 34 14 84 15 35 16 89 17 83 18 85 19 36 20 88 21 82 22 81 23
REMARK SMILES IDX 37 25 69 26 49 27 68 28 50 29 53 30 67 31 86 32 51 33 52 34
REMARK SMILES IDX 66 36 87 37 54 38 38 39 39 40 47 41 40 42 41 43 45 44 48 45
REMARK SMILES IDX 42 46 43 47 46 48 44 49 70 50 71 51 79 52 72 53 73 54 77 55
REMARK SMILES IDX 80 56 74 57 75 58 78 59 76 60 55 61 56 62 64 63 57 64 58 65
REMARK SMILES IDX 62 66 65 67 59 68 60 69 63 70 61 71 6 72 7 73 8 74 9 76
REMARK SMILES IDX 10 77 11 78 12 79 13 80 14 81 15 82 16 83 28 84 17 85 22 86
REMARK SMILES IDX 27 87 18 88 21 89 23 90 26 91 19 92 20 93 24 94 25 95
REMARK H PARENT 3 6 85 24 53 35 7 75
REMARK Flexibility Score: inf
ROOT
ATOM      1  C   UNL A   1      31.505  32.186  26.539  1.00  0.00     0.042 C 
ENDROOT
BRANCH   1   2
ATOM      2  C   UNL A   1      32.673  32.854  27.260  1.00  0.00     0.118 C 
BRANCH   2   3
ATOM      3  N   UNL A   1      32.361  34.147  27.862  1.00  0.00    -0.352 N 
ATOM      4  O   UNL A   1      32.569  35.973  29.158  1.00  0.00    -0.269 OA
ATOM      5  C   UNL A   1      33.022  34.887  28.808  1.00  0.00     0.251 C 
ATOM      6  H   UNL A   1      31.530  34.558  27.532  1.00  0.00     0.163 HD
BRANCH   5   7
ATOM      7  C   UNL A   1      34.274  34.406  29.413  1.00  0.00     0.039 A 
ATOM      8  C   UNL A   1      34.239  33.608  30.555  1.00  0.00     0.014 A 
ATOM      9  C   UNL A   1      35.492  34.687  28.780  1.00  0.00     0.014 A 
ATOM     10  C   UNL A   1      35.426  33.179  31.127  1.00  0.00     0.010 A 
ATOM     11  C   UNL A   1      36.685  34.203  29.320  1.00  0.00     0.010 A 
ATOM     12  C   UNL A   1      36.654  33.462  30.506  1.00  0.00    -0.014 A 
BRANCH  12  13
ATOM     13  C   UNL A   1      37.870  32.863  31.096  1.00  0.00     0.031 A 
ATOM     14  C   UNL A   1      38.313  33.236  32.473  1.00  0.00     0.074 A 
ATOM     15  C   UNL A   1      38.469  31.874  30.410  1.00  0.00     0.049 A 
ATOM     16  N   UNL A   1      39.186  32.638  33.241  1.00  0.00    -0.248 NA
ATOM     17  C   UNL A   1      37.693  34.427  33.072  1.00  0.00     0.031 C 
ATOM     18  C   UNL A   1      38.094  31.453  29.057  1.00  0.00     0.029 A 
ATOM     19  N   UNL A   1      39.467  31.007  30.765  1.00  0.00    -0.354 N 
ATOM     20  C   UNL A   1      39.200  33.360  34.425  1.00  0.00     0.074 A 
ATOM     21  C   UNL A   1      38.286  34.470  34.259  1.00  0.00     0.031 C 
ATOM     22  C   UNL A   1      38.801  30.364  28.726  1.00  0.00     0.029 A 
ATOM     23  C   UNL A   1      39.696  30.029  29.828  1.00  0.00     0.049 A 
ATOM     24  H   UNL A   1      39.971  31.078  31.609  1.00  0.00     0.167 HD
ATOM     25  C   UNL A   1      39.904  33.098  35.552  1.00  0.00     0.037 A 
ATOM     26  C   UNL A   1      40.518  28.965  29.870  1.00  0.00     0.037 A 
ATOM     27  C   UNL A   1      40.825  31.999  35.685  1.00  0.00     0.049 A 
ATOM     28  C   UNL A   1      41.317  28.726  31.119  1.00  0.00     0.074 A 
ATOM     29  C   UNL A   1      41.600  31.647  36.775  1.00  0.00     0.029 A 
ATOM     30  N   UNL A   1      41.099  31.077  34.683  1.00  0.00    -0.354 N 
ATOM     31  N   UNL A   1      41.295  29.388  32.251  1.00  0.00    -0.248 NA
ATOM     32  C   UNL A   1      42.251  27.594  31.100  1.00  0.00     0.031 C 
ATOM     33  C   UNL A   1      42.375  30.538  36.419  1.00  0.00     0.029 A 
ATOM     34  C   UNL A   1      42.051  30.170  35.122  1.00  0.00     0.049 A 
ATOM     35  H   UNL A   1      40.679  31.068  33.793  1.00  0.00     0.167 HD
ATOM     36  C   UNL A   1      42.207  28.755  33.081  1.00  0.00     0.074 A 
ATOM     37  C   UNL A   1      42.744  27.636  32.330  1.00  0.00     0.031 C 
ATOM     38  C   UNL A   1      42.574  29.074  34.346  1.00  0.00     0.037 A 
BRANCH  25  39
ATOM     39  C   UNL A   1      39.709  34.014  36.724  1.00  0.00     0.064 A 
ATOM     40  C   UNL A   1      38.872  33.660  37.794  1.00  0.00     0.173 A 
ATOM     41  C   UNL A   1      40.400  35.231  36.805  1.00  0.00     0.173 A 
ATOM     42  F   UNL A   1      38.181  32.512  37.760  1.00  0.00    -0.203 F 
ATOM     43  C   UNL A   1      38.727  34.499  38.896  1.00  0.00     0.198 A 
ATOM     44  C   UNL A   1      40.268  36.056  37.918  1.00  0.00     0.198 A 
ATOM     45  F   UNL A   1      41.214  35.614  35.810  1.00  0.00    -0.203 F 
ATOM     46  F   UNL A   1      37.901  34.155  39.894  1.00  0.00    -0.200 F 
ATOM     47  C   UNL A   1      39.429  35.692  38.961  1.00  0.00     0.200 A 
ATOM     48  F   UNL A   1      40.955  37.206  37.984  1.00  0.00    -0.200 F 
ATOM     49  F   UNL A   1      39.296  36.495  40.026  1.00  0.00    -0.200 F 
ENDBRANCH  25  39
BRANCH  26  50
ATOM     50  C   UNL A   1      40.581  28.041  28.709  1.00  0.00     0.064 A 
ATOM     51  C   UNL A   1      39.843  26.850  28.691  1.00  0.00     0.173 A 
ATOM     52  C   UNL A   1      41.343  28.354  27.574  1.00  0.00     0.173 A 
ATOM     53  F   UNL A   1      39.109  26.500  29.758  1.00  0.00    -0.203 F 
ATOM     54  C   UNL A   1      39.868  26.006  27.582  1.00  0.00     0.198 A 
ATOM     55  C   UNL A   1      41.347  27.523  26.457  1.00  0.00     0.198 A 
ATOM     56  F   UNL A   1      42.062  29.486  27.539  1.00  0.00    -0.203 F 
ATOM     57  F   UNL A   1      39.173  24.860  27.600  1.00  0.00    -0.200 F 
ATOM     58  C   UNL A   1      40.613  26.347  26.463  1.00  0.00     0.200 A 
ATOM     59  F   UNL A   1      42.054  27.867  25.372  1.00  0.00    -0.200 F 
ATOM     60  F   UNL A   1      40.624  25.543  25.391  1.00  0.00    -0.200 F 
ENDBRANCH  26  50
BRANCH  38  61
ATOM     61  C   UNL A   1      43.614  28.207  34.991  1.00  0.00     0.064 A 
ATOM     62  C   UNL A   1      44.975  28.530  34.916  1.00  0.00     0.173 A 
ATOM     63  C   UNL A   1      43.241  27.082  35.738  1.00  0.00     0.173 A 
ATOM     64  F   UNL A   1      45.379  29.590  34.199  1.00  0.00    -0.203 F 
ATOM     65  C   UNL A   1      45.931  27.746  35.555  1.00  0.00     0.198 A 
ATOM     66  C   UNL A   1      44.195  26.314  36.398  1.00  0.00     0.198 A 
ATOM     67  F   UNL A   1      41.948  26.736  35.844  1.00  0.00    -0.203 F 
ATOM     68  F   UNL A   1      47.231  28.052  35.442  1.00  0.00    -0.200 F 
ATOM     69  C   UNL A   1      45.539  26.645  36.303  1.00  0.00     0.200 A 
ATOM     70  F   UNL A   1      43.817  25.258  37.130  1.00  0.00    -0.200 F 
ATOM     71  F   UNL A   1      46.460  25.898  36.928  1.00  0.00    -0.200 F 
ENDBRANCH  38  61
ENDBRANCH  12  13
ENDBRANCH   5   7
ENDBRANCH   2   3
ENDBRANCH   1   2
BRANCH   1  72
ATOM     72  C   UNL A   1      31.628  30.679  26.366  1.00  0.00     0.117 C 
BRANCH  72  73
ATOM     73  N   UNL A   1      31.256  30.200  25.062  1.00  0.00    -0.356 N 
ATOM     74  C   UNL A   1      31.751  29.216  24.264  1.00  0.00     0.223 C 
ATOM     75  H   UNL A   1      30.491  30.679  24.668  1.00  0.00     0.163 HD
ATOM     76  O   UNL A   1      31.010  28.825  23.360  1.00  0.00    -0.275 OA
BRANCH  74  77
ATOM     77  C   UNL A   1      33.103  28.605  24.334  1.00  0.00     0.091 C 
ATOM     78  C   UNL A   1      33.851  28.802  23.020  1.00  0.00     0.028 C 
ATOM     79  C   UNL A   1      33.924  27.490  23.712  1.00  0.00     0.092 C 
BRANCH  79  80
ATOM     80  C   UNL A   1      33.351  26.186  23.336  1.00  0.00     0.230 C 
ATOM     81  O   UNL A   1      32.562  26.181  22.392  1.00  0.00    -0.274 OA
BRANCH  80  82
ATOM     82  N   UNL A   1      33.678  25.028  24.010  1.00  0.00    -0.311 N 
ATOM     83  C   UNL A   1      34.760  24.154  23.532  1.00  0.00     0.137 C 
ATOM     84  C   UNL A   1      33.099  24.405  25.122  1.00  0.00     0.050 A 
ATOM     85  C   UNL A   1      35.204  23.312  24.753  1.00  0.00     0.018 C 
ATOM     86  C   UNL A   1      33.949  23.394  25.585  1.00  0.00     0.020 A 
ATOM     87  C   UNL A   1      31.864  24.624  25.710  1.00  0.00     0.027 A 
ATOM     88  C   UNL A   1      35.651  21.900  24.341  1.00  0.00     0.014 C 
ATOM     89  C   UNL A   1      36.412  23.940  25.488  1.00  0.00     0.014 C 
ATOM     90  C   UNL A   1      33.607  22.664  26.708  1.00  0.00     0.129 A 
ATOM     91  C   UNL A   1      31.512  23.864  26.831  1.00  0.00     0.005 A 
ATOM     92  C   UNL A   1      37.170  21.963  24.367  1.00  0.00     0.001 C 
ATOM     93  C   UNL A   1      37.458  22.835  25.576  1.00  0.00     0.001 C 
ATOM     94  F   UNL A   1      34.444  21.747  27.207  1.00  0.00    -0.207 F 
ATOM     95  C   UNL A   1      32.389  22.897  27.337  1.00  0.00     0.040 A 
ENDBRANCH  80  82
ENDBRANCH  79  80
ENDBRANCH  74  77
ENDBRANCH  72  73
ENDBRANCH   1  72
TORSDOF 12
ENDMDL
