MODEL 1
REMARK VINA RESULT:     -13.2      0.000      0.000
REMARK SMILES CC[C@@H]1[NH2+][C@@H](C(=O)NCCCNC(=O)c2ccc(-c3c4nc(c(-c5c(F)c(F)c(F)c(F)c5F)c5ccc([nH]5)c(-c5c(F)c(F)c(F)c(F)c5F)c5nc(c(-c6c(F)c(F)c(F)c(F)c6F)c6ccc3[nH]6)C=C5)C=C4)cc2)Cc2c1[nH]c1ccccc21
REMARK SMILES IDX 10 1 9 2 8 3 6 4 7 5 5 7 3 8 4 9 80 10 79 13 81 14 78 15
REMARK SMILES IDX 87 16 82 17 86 19 83 20 85 21 84 22 2 23 1 24 11 25 12 26
REMARK SMILES IDX 13 27 14 29 15 30 16 31 77 32 17 33 76 34 18 35 19 36 20 37
REMARK SMILES IDX 70 38 21 39 75 40 69 41 71 42 22 43 74 44 68 45 67 46 23 48
REMARK SMILES IDX 55 49 35 50 54 51 36 52 39 53 53 54 72 55 37 56 38 57 52 59
REMARK SMILES IDX 73 60 40 61 24 62 25 63 33 64 26 65 27 66 31 67 34 68 28 69
REMARK SMILES IDX 29 70 32 71 30 72 56 73 57 74 65 75 58 76 59 77 63 78 66 79
REMARK SMILES IDX 60 80 61 81 64 82 62 83 41 84 42 85 50 86 43 87 44 88 48 89
REMARK SMILES IDX 51 90 45 91 46 92 49 93 47 94
REMARK H PARENT 8 6 4 11 4 12 81 18 12 28 71 47 39 58
REMARK Flexibility Score: inf
ROOT
ATOM      1  C   UNL A   1      31.537  31.978  26.525  1.00  0.00     0.042 C 
ENDROOT
BRANCH   1   2
ATOM      2  C   UNL A   1      31.853  30.569  26.037  1.00  0.00     0.118 C 
BRANCH   2   3
ATOM      3  N   UNL A   1      31.521  29.564  27.033  1.00  0.00    -0.351 N 
ATOM      4  C   UNL A   1      31.791  28.225  27.033  1.00  0.00     0.278 C 
ATOM      5  O   UNL A   1      31.458  27.580  28.032  1.00  0.00    -0.268 OA
ATOM      6  H   UNL A   1      31.031  29.894  27.820  1.00  0.00     0.163 HD
BRANCH   4   7
ATOM      7  C   UNL A   1      32.475  27.539  25.841  1.00  0.00     0.277 C 
ATOM      8  C   UNL A   1      31.977  26.543  23.598  1.00  0.00     0.230 C 
ATOM      9  N   UNL A   1      31.460  27.232  24.793  1.00  0.00    -0.328 N 
ATOM     10  C   UNL A   1      33.072  25.596  23.956  1.00  0.00     0.078 A 
ATOM     11  H   UNL A   1      30.743  26.639  25.213  1.00  0.00     0.347 HD
ATOM     12  H   UNL A   1      31.105  28.133  24.470  1.00  0.00     0.347 HD
ATOM     13  C   UNL A   1      33.737  25.510  25.162  1.00  0.00    -0.007 A 
ATOM     14  N   UNL A   1      33.643  24.699  23.096  1.00  0.00    -0.353 N 
ATOM     15  C   UNL A   1      33.333  26.347  26.326  1.00  0.00     0.113 C 
ATOM     16  C   UNL A   1      34.815  24.599  24.998  1.00  0.00     0.003 A 
ATOM     17  C   UNL A   1      34.747  24.124  23.686  1.00  0.00     0.046 A 
ATOM     18  H   UNL A   1      33.314  24.494  22.190  1.00  0.00     0.166 HD
ATOM     19  C   UNL A   1      35.866  24.155  25.822  1.00  0.00     0.010 A 
ATOM     20  C   UNL A   1      35.690  23.238  23.152  1.00  0.00     0.026 A 
ATOM     21  C   UNL A   1      36.823  23.277  25.301  1.00  0.00     0.001 A 
ATOM     22  C   UNL A   1      36.737  22.830  23.984  1.00  0.00     0.002 A 
BRANCH   8  23
ATOM     23  C   UNL A   1      32.373  27.506  22.456  1.00  0.00     0.068 C 
ATOM     24  C   UNL A   1      33.727  28.198  22.576  1.00  0.00     0.011 C 
ENDBRANCH   8  23
ENDBRANCH   4   7
ENDBRANCH   2   3
ENDBRANCH   1   2
BRANCH   1  25
ATOM     25  C   UNL A   1      32.673  32.654  27.289  1.00  0.00     0.118 C 
BRANCH  25  26
ATOM     26  N   UNL A   1      32.385  34.041  27.632  1.00  0.00    -0.352 N 
ATOM     27  C   UNL A   1      32.973  34.862  28.563  1.00  0.00     0.251 C 
ATOM     28  H   UNL A   1      31.656  34.453  27.116  1.00  0.00     0.163 HD
ATOM     29  O   UNL A   1      32.483  35.963  28.799  1.00  0.00    -0.269 OA
BRANCH  27  30
ATOM     30  C   UNL A   1      34.171  34.420  29.312  1.00  0.00     0.039 A 
ATOM     31  C   UNL A   1      33.999  33.874  30.586  1.00  0.00     0.014 A 
ATOM     32  C   UNL A   1      35.455  34.544  28.775  1.00  0.00     0.014 A 
ATOM     33  C   UNL A   1      35.099  33.371  31.283  1.00  0.00     0.010 A 
ATOM     34  C   UNL A   1      36.543  33.977  29.438  1.00  0.00     0.010 A 
ATOM     35  C   UNL A   1      36.373  33.371  30.692  1.00  0.00    -0.014 A 
BRANCH  35  36
ATOM     36  C   UNL A   1      37.521  32.689  31.345  1.00  0.00     0.031 A 
ATOM     37  C   UNL A   1      38.186  31.507  30.701  1.00  0.00     0.074 A 
ATOM     38  C   UNL A   1      37.919  33.099  32.566  1.00  0.00     0.049 A 
ATOM     39  N   UNL A   1      39.160  30.757  31.153  1.00  0.00    -0.248 NA
ATOM     40  C   UNL A   1      37.675  31.100  29.385  1.00  0.00     0.031 C 
ATOM     41  C   UNL A   1      37.327  34.206  33.317  1.00  0.00     0.029 A 
ATOM     42  N   UNL A   1      38.906  32.627  33.395  1.00  0.00    -0.354 N 
ATOM     43  C   UNL A   1      39.373  29.787  30.182  1.00  0.00     0.074 A 
ATOM     44  C   UNL A   1      38.392  30.012  29.142  1.00  0.00     0.031 C 
ATOM     45  C   UNL A   1      37.977  34.346  34.482  1.00  0.00     0.029 A 
ATOM     46  C   UNL A   1      39.000  33.310  34.582  1.00  0.00     0.049 A 
ATOM     47  H   UNL A   1      39.492  31.871  33.160  1.00  0.00     0.167 HD
ATOM     48  C   UNL A   1      40.314  28.812  30.154  1.00  0.00     0.037 A 
ATOM     49  C   UNL A   1      39.809  33.116  35.641  1.00  0.00     0.037 A 
ATOM     50  C   UNL A   1      41.291  28.595  31.192  1.00  0.00     0.049 A 
ATOM     51  C   UNL A   1      40.814  31.999  35.606  1.00  0.00     0.074 A 
ATOM     52  C   UNL A   1      42.327  27.677  31.224  1.00  0.00     0.029 A 
ATOM     53  N   UNL A   1      41.340  29.293  32.390  1.00  0.00    -0.354 N 
ATOM     54  N   UNL A   1      41.061  31.139  34.647  1.00  0.00    -0.248 NA
ATOM     55  C   UNL A   1      41.649  31.823  36.801  1.00  0.00     0.031 C 
ATOM     56  C   UNL A   1      42.962  27.776  32.466  1.00  0.00     0.029 A 
ATOM     57  C   UNL A   1      42.362  28.796  33.186  1.00  0.00     0.049 A 
ATOM     58  H   UNL A   1      40.740  30.031  32.638  1.00  0.00     0.167 HD
ATOM     59  C   UNL A   1      42.089  30.332  35.114  1.00  0.00     0.074 A 
ATOM     60  C   UNL A   1      42.436  30.821  36.433  1.00  0.00     0.031 C 
ATOM     61  C   UNL A   1      42.690  29.279  34.505  1.00  0.00     0.037 A 
BRANCH  48  62
ATOM     62  C   UNL A   1      40.323  27.894  28.963  1.00  0.00     0.064 A 
ATOM     63  C   UNL A   1      41.068  28.187  27.810  1.00  0.00     0.173 A 
ATOM     64  C   UNL A   1      39.596  26.694  28.984  1.00  0.00     0.173 A 
ATOM     65  F   UNL A   1      41.776  29.325  27.734  1.00  0.00    -0.203 F 
ATOM     66  C   UNL A   1      41.052  27.335  26.708  1.00  0.00     0.198 A 
ATOM     67  C   UNL A   1      39.610  25.827  27.893  1.00  0.00     0.198 A 
ATOM     68  F   UNL A   1      38.875  26.357  30.063  1.00  0.00    -0.203 F 
ATOM     69  F   UNL A   1      41.722  27.668  25.597  1.00  0.00    -0.200 F 
ATOM     70  C   UNL A   1      40.328  26.153  26.753  1.00  0.00     0.200 A 
ATOM     71  F   UNL A   1      38.924  24.677  27.944  1.00  0.00    -0.200 F 
ATOM     72  F   UNL A   1      40.315  25.333  25.693  1.00  0.00    -0.200 F 
ENDBRANCH  48  62
BRANCH  49  73
ATOM     73  C   UNL A   1      39.708  34.017  36.820  1.00  0.00     0.064 A 
ATOM     74  C   UNL A   1      38.916  33.671  37.923  1.00  0.00     0.173 A 
ATOM     75  C   UNL A   1      40.410  35.231  36.875  1.00  0.00     0.173 A 
ATOM     76  F   UNL A   1      38.209  32.531  37.907  1.00  0.00    -0.203 F 
ATOM     77  C   UNL A   1      38.822  34.507  39.032  1.00  0.00     0.198 A 
ATOM     78  C   UNL A   1      40.338  36.053  37.998  1.00  0.00     0.198 A 
ATOM     79  F   UNL A   1      41.184  35.607  35.847  1.00  0.00    -0.203 F 
ATOM     80  F   UNL A   1      38.028  34.169  40.058  1.00  0.00    -0.200 F 
ATOM     81  C   UNL A   1      39.539  35.693  39.073  1.00  0.00     0.200 A 
ATOM     82  F   UNL A   1      41.045  37.190  38.039  1.00  0.00    -0.200 F 
ATOM     83  F   UNL A   1      39.457  36.493  40.145  1.00  0.00    -0.200 F 
ENDBRANCH  49  73
BRANCH  61  84
ATOM     84  C   UNL A   1      43.789  28.585  35.258  1.00  0.00     0.064 A 
ATOM     85  C   UNL A   1      43.526  27.494  36.100  1.00  0.00     0.173 A 
ATOM     86  C   UNL A   1      45.123  28.993  35.111  1.00  0.00     0.173 A 
ATOM     87  F   UNL A   1      42.266  27.076  36.291  1.00  0.00    -0.203 F 
ATOM     88  C   UNL A   1      44.556  26.853  36.785  1.00  0.00     0.198 A 
ATOM     89  C   UNL A   1      46.154  28.328  35.771  1.00  0.00     0.198 A 
ATOM     90  F   UNL A   1      45.432  30.027  34.315  1.00  0.00    -0.203 F 
ATOM     91  F   UNL A   1      44.275  25.845  37.623  1.00  0.00    -0.200 F 
ATOM     92  C   UNL A   1      45.868  27.264  36.613  1.00  0.00     0.200 A 
ATOM     93  F   UNL A   1      47.424  28.718  35.593  1.00  0.00    -0.200 F 
ATOM     94  F   UNL A   1      46.859  26.640  37.266  1.00  0.00    -0.200 F 
ENDBRANCH  61  84
ENDBRANCH  35  36
ENDBRANCH  27  30
ENDBRANCH  25  26
ENDBRANCH   1  25
TORSDOF 11
ENDMDL
MODEL 2
REMARK VINA RESULT:     -13.2      0.143      1.977
REMARK SMILES CC[C@@H]1[NH2+][C@@H](C(=O)NCCCNC(=O)c2ccc(-c3c4nc(c(-c5c(F)c(F)c(F)c(F)c5F)c5ccc([nH]5)c(-c5c(F)c(F)c(F)c(F)c5F)c5nc(c(-c6c(F)c(F)c(F)c(F)c6F)c6ccc3[nH]6)C=C5)C=C4)cc2)Cc2c1[nH]c1ccccc21
REMARK SMILES IDX 10 1 9 2 8 3 6 4 7 5 5 7 3 8 4 9 80 10 79 13 81 14 78 15
REMARK SMILES IDX 87 16 82 17 86 19 83 20 85 21 84 22 2 23 1 24 11 25 12 26
REMARK SMILES IDX 13 27 14 29 15 30 16 31 77 32 17 33 76 34 18 35 19 36 20 37
REMARK SMILES IDX 70 38 21 39 75 40 69 41 71 42 22 43 74 44 68 45 67 46 23 48
REMARK SMILES IDX 55 49 35 50 54 51 36 52 39 53 53 54 72 55 37 56 38 57 52 59
REMARK SMILES IDX 73 60 40 61 24 62 25 63 33 64 26 65 27 66 31 67 34 68 28 69
REMARK SMILES IDX 29 70 32 71 30 72 56 73 57 74 65 75 58 76 59 77 63 78 66 79
REMARK SMILES IDX 60 80 61 81 64 82 62 83 41 84 42 85 50 86 43 87 44 88 48 89
REMARK SMILES IDX 51 90 45 91 46 92 49 93 47 94
REMARK H PARENT 8 6 4 11 4 12 81 18 12 28 71 47 39 58
REMARK Flexibility Score: inf
ROOT
ATOM      1  C   UNL A   1      31.529  32.041  26.512  1.00  0.00     0.042 C 
ENDROOT
BRANCH   1   2
ATOM      2  C   UNL A   1      31.840  30.631  26.024  1.00  0.00     0.118 C 
BRANCH   2   3
ATOM      3  N   UNL A   1      31.517  29.628  27.025  1.00  0.00    -0.351 N 
ATOM      4  C   UNL A   1      31.788  28.290  27.026  1.00  0.00     0.278 C 
ATOM      5  O   UNL A   1      31.463  27.647  28.029  1.00  0.00    -0.268 OA
ATOM      6  H   UNL A   1      31.034  29.960  27.815  1.00  0.00     0.163 HD
BRANCH   4   7
ATOM      7  C   UNL A   1      32.463  27.601  25.830  1.00  0.00     0.277 C 
ATOM      8  C   UNL A   1      31.950  26.623  23.583  1.00  0.00     0.230 C 
ATOM      9  N   UNL A   1      31.442  27.312  24.781  1.00  0.00    -0.328 N 
ATOM     10  C   UNL A   1      33.033  25.660  23.935  1.00  0.00     0.078 A 
ATOM     11  H   UNL A   1      30.718  26.726  25.199  1.00  0.00     0.347 HD
ATOM     12  H   UNL A   1      31.099  28.219  24.463  1.00  0.00     0.347 HD
ATOM     13  C   UNL A   1      33.698  25.559  25.140  1.00  0.00    -0.007 A 
ATOM     14  N   UNL A   1      33.592  24.760  23.070  1.00  0.00    -0.353 N 
ATOM     15  C   UNL A   1      33.306  26.395  26.308  1.00  0.00     0.113 C 
ATOM     16  C   UNL A   1      34.764  24.635  24.970  1.00  0.00     0.003 A 
ATOM     17  C   UNL A   1      34.689  24.168  23.656  1.00  0.00     0.046 A 
ATOM     18  H   UNL A   1      33.260  24.564  22.163  1.00  0.00     0.166 HD
ATOM     19  C   UNL A   1      35.810  24.174  25.792  1.00  0.00     0.010 A 
ATOM     20  C   UNL A   1      35.620  23.273  23.117  1.00  0.00     0.026 A 
ATOM     21  C   UNL A   1      36.755  23.287  25.265  1.00  0.00     0.001 A 
ATOM     22  C   UNL A   1      36.663  22.848  23.946  1.00  0.00     0.002 A 
BRANCH   8  23
ATOM     23  C   UNL A   1      32.357  27.587  22.445  1.00  0.00     0.068 C 
ATOM     24  C   UNL A   1      33.705  28.286  22.585  1.00  0.00     0.011 C 
ENDBRANCH   8  23
ENDBRANCH   4   7
ENDBRANCH   2   3
ENDBRANCH   1   2
BRANCH   1  25
ATOM     25  C   UNL A   1      32.663  32.710  27.284  1.00  0.00     0.118 C 
BRANCH  25  26
ATOM     26  N   UNL A   1      32.384  34.100  27.619  1.00  0.00    -0.352 N 
ATOM     27  C   UNL A   1      32.978  34.923  28.545  1.00  0.00     0.251 C 
ATOM     28  H   UNL A   1      31.657  34.515  27.101  1.00  0.00     0.163 HD
ATOM     29  O   UNL A   1      32.495  36.029  28.776  1.00  0.00    -0.269 OA
BRANCH  27  30
ATOM     30  C   UNL A   1      34.173  34.478  29.296  1.00  0.00     0.039 A 
ATOM     31  C   UNL A   1      33.996  33.920  30.565  1.00  0.00     0.014 A 
ATOM     32  C   UNL A   1      35.459  34.610  28.767  1.00  0.00     0.014 A 
ATOM     33  C   UNL A   1      35.094  33.414  31.263  1.00  0.00     0.010 A 
ATOM     34  C   UNL A   1      36.545  34.039  29.430  1.00  0.00     0.010 A 
ATOM     35  C   UNL A   1      36.371  33.422  30.678  1.00  0.00    -0.014 A 
BRANCH  35  36
ATOM     36  C   UNL A   1      37.518  32.738  31.331  1.00  0.00     0.031 A 
ATOM     37  C   UNL A   1      38.205  31.579  30.669  1.00  0.00     0.074 A 
ATOM     38  C   UNL A   1      37.894  33.122  32.567  1.00  0.00     0.049 A 
ATOM     39  N   UNL A   1      39.181  30.829  31.116  1.00  0.00    -0.248 NA
ATOM     40  C   UNL A   1      37.718  31.198  29.335  1.00  0.00     0.031 C 
ATOM     41  C   UNL A   1      37.278  34.205  33.336  1.00  0.00     0.029 A 
ATOM     42  N   UNL A   1      38.875  32.642  33.398  1.00  0.00    -0.354 N 
ATOM     43  C   UNL A   1      39.419  29.886  30.125  1.00  0.00     0.074 A 
ATOM     44  C   UNL A   1      38.451  30.125  29.077  1.00  0.00     0.031 C 
ATOM     45  C   UNL A   1      37.911  34.323  34.513  1.00  0.00     0.029 A 
ATOM     46  C   UNL A   1      38.944  33.297  34.603  1.00  0.00     0.049 A 
ATOM     47  H   UNL A   1      39.473  31.898  33.154  1.00  0.00     0.167 HD
ATOM     48  C   UNL A   1      40.372  28.922  30.087  1.00  0.00     0.037 A 
ATOM     49  C   UNL A   1      39.740  33.086  35.668  1.00  0.00     0.037 A 
ATOM     50  C   UNL A   1      41.336  28.691  31.133  1.00  0.00     0.049 A 
ATOM     51  C   UNL A   1      40.758  31.982  35.620  1.00  0.00     0.074 A 
ATOM     52  C   UNL A   1      42.382  27.785  31.158  1.00  0.00     0.029 A 
ATOM     53  N   UNL A   1      41.361  29.360  32.349  1.00  0.00    -0.354 N 
ATOM     54  N   UNL A   1      41.029  31.148  34.645  1.00  0.00    -0.248 NA
ATOM     55  C   UNL A   1      41.579  31.786  36.823  1.00  0.00     0.031 C 
ATOM     56  C   UNL A   1      42.999  27.861  32.411  1.00  0.00     0.029 A 
ATOM     57  C   UNL A   1      42.377  28.856  33.147  1.00  0.00     0.049 A 
ATOM     58  H   UNL A   1      40.748  30.086  32.606  1.00  0.00     0.167 HD
ATOM     59  C   UNL A   1      42.060  30.341  35.107  1.00  0.00     0.074 A 
ATOM     60  C   UNL A   1      42.383  30.802  36.442  1.00  0.00     0.031 C 
ATOM     61  C   UNL A   1      42.681  29.311  34.482  1.00  0.00     0.037 A 
BRANCH  48  62
ATOM     62  C   UNL A   1      40.408  28.033  28.874  1.00  0.00     0.064 A 
ATOM     63  C   UNL A   1      39.694  26.826  28.822  1.00  0.00     0.173 A 
ATOM     64  C   UNL A   1      41.145  28.407  27.740  1.00  0.00     0.173 A 
ATOM     65  F   UNL A   1      38.977  26.418  29.881  1.00  0.00    -0.203 F 
ATOM     66  C   UNL A   1      39.751  26.006  27.697  1.00  0.00     0.198 A 
ATOM     67  C   UNL A   1      41.171  27.601  26.604  1.00  0.00     0.198 A 
ATOM     68  F   UNL A   1      41.837  29.555  27.730  1.00  0.00    -0.203 F 
ATOM     69  F   UNL A   1      39.110  24.829  27.696  1.00  0.00    -0.200 F 
ATOM     70  C   UNL A   1      40.484  26.397  26.587  1.00  0.00     0.200 A 
ATOM     71  F   UNL A   1      41.867  27.988  25.526  1.00  0.00    -0.200 F 
ATOM     72  F   UNL A   1      40.536  25.609  25.505  1.00  0.00    -0.200 F 
ENDBRANCH  48  62
BRANCH  49  73
ATOM     73  C   UNL A   1      39.613  33.958  36.867  1.00  0.00     0.064 A 
ATOM     74  C   UNL A   1      40.268  35.194  36.928  1.00  0.00     0.173 A 
ATOM     75  C   UNL A   1      38.825  33.581  37.965  1.00  0.00     0.173 A 
ATOM     76  F   UNL A   1      41.051  35.588  35.913  1.00  0.00    -0.203 F 
ATOM     77  C   UNL A   1      40.148  36.018  38.045  1.00  0.00     0.198 A 
ATOM     78  C   UNL A   1      38.682  34.418  39.069  1.00  0.00     0.198 A 
ATOM     79  F   UNL A   1      38.174  32.408  37.954  1.00  0.00    -0.203 F 
ATOM     80  F   UNL A   1      40.815  37.179  38.093  1.00  0.00    -0.200 F 
ATOM     81  C   UNL A   1      39.349  35.634  39.111  1.00  0.00     0.200 A 
ATOM     82  F   UNL A   1      37.895  34.050  40.089  1.00  0.00    -0.200 F 
ATOM     83  F   UNL A   1      39.224  36.431  40.181  1.00  0.00    -0.200 F 
ENDBRANCH  49  73
BRANCH  61  84
ATOM     84  C   UNL A   1      43.777  28.611  35.233  1.00  0.00     0.064 A 
ATOM     85  C   UNL A   1      45.109  29.048  35.164  1.00  0.00     0.173 A 
ATOM     86  C   UNL A   1      43.490  27.513  36.058  1.00  0.00     0.173 A 
ATOM     87  F   UNL A   1      45.440  30.082  34.376  1.00  0.00    -0.203 F 
ATOM     88  C   UNL A   1      46.115  28.397  35.874  1.00  0.00     0.198 A 
ATOM     89  C   UNL A   1      44.493  26.886  36.793  1.00  0.00     0.198 A 
ATOM     90  F   UNL A   1      42.234  27.056  36.164  1.00  0.00    -0.203 F 
ATOM     91  F   UNL A   1      47.387  28.802  35.753  1.00  0.00    -0.200 F 
ATOM     92  C   UNL A   1      45.805  27.323  36.693  1.00  0.00     0.200 A 
ATOM     93  F   UNL A   1      44.190  25.856  37.595  1.00  0.00    -0.200 F 
ATOM     94  F   UNL A   1      46.774  26.704  37.383  1.00  0.00    -0.200 F 
ENDBRANCH  61  84
ENDBRANCH  35  36
ENDBRANCH  27  30
ENDBRANCH  25  26
ENDBRANCH   1  25
TORSDOF 11
ENDMDL
MODEL 3
REMARK VINA RESULT:     -13.1      5.829     11.316
REMARK SMILES CC[C@@H]1[NH2+][C@@H](C(=O)NCCCNC(=O)c2ccc(-c3c4nc(c(-c5c(F)c(F)c(F)c(F)c5F)c5ccc([nH]5)c(-c5c(F)c(F)c(F)c(F)c5F)c5nc(c(-c6c(F)c(F)c(F)c(F)c6F)c6ccc3[nH]6)C=C5)C=C4)cc2)Cc2c1[nH]c1ccccc21
REMARK SMILES IDX 10 1 9 2 8 3 6 4 7 5 5 7 3 8 4 9 80 10 79 13 81 14 78 15
REMARK SMILES IDX 87 16 82 17 86 19 83 20 85 21 84 22 2 23 1 24 11 25 12 26
REMARK SMILES IDX 13 27 14 29 15 30 16 31 77 32 17 33 76 34 18 35 19 36 20 37
REMARK SMILES IDX 70 38 21 39 75 40 69 41 71 42 22 43 74 44 68 45 67 46 23 48
REMARK SMILES IDX 55 49 35 50 54 51 36 52 39 53 53 54 72 55 37 56 38 57 52 59
REMARK SMILES IDX 73 60 40 61 24 62 25 63 33 64 26 65 27 66 31 67 34 68 28 69
REMARK SMILES IDX 29 70 32 71 30 72 56 73 57 74 65 75 58 76 59 77 63 78 66 79
REMARK SMILES IDX 60 80 61 81 64 82 62 83 41 84 42 85 50 86 43 87 44 88 48 89
REMARK SMILES IDX 51 90 45 91 46 92 49 93 47 94
REMARK H PARENT 8 6 4 11 4 12 81 18 12 28 71 47 39 58
REMARK Flexibility Score: inf
ROOT
ATOM      1  C   UNL A   1      37.969  19.743  25.077  1.00  0.00     0.042 C 
ENDROOT
BRANCH   1   2
ATOM      2  C   UNL A   1      36.848  20.776  25.098  1.00  0.00     0.118 C 
BRANCH   2   3
ATOM      3  N   UNL A   1      36.921  21.677  23.960  1.00  0.00    -0.351 N 
ATOM      4  C   UNL A   1      36.208  22.814  23.712  1.00  0.00     0.278 C 
ATOM      5  O   UNL A   1      36.495  23.453  22.694  1.00  0.00    -0.268 OA
ATOM      6  H   UNL A   1      37.578  21.433  23.270  1.00  0.00     0.163 HD
BRANCH   4   7
ATOM      7  C   UNL A   1      35.087  23.287  24.651  1.00  0.00     0.277 C 
ATOM      8  C   UNL A   1      32.658  22.931  25.142  1.00  0.00     0.230 C 
ATOM      9  N   UNL A   1      33.828  22.554  24.331  1.00  0.00    -0.328 N 
ATOM     10  C   UNL A   1      32.678  24.385  25.471  1.00  0.00     0.078 A 
ATOM     11  H   UNL A   1      33.602  22.729  23.351  1.00  0.00     0.347 HD
ATOM     12  H   UNL A   1      34.012  21.572  24.538  1.00  0.00     0.347 HD
ATOM     13  C   UNL A   1      33.730  25.263  25.302  1.00  0.00    -0.007 A 
ATOM     14  N   UNL A   1      31.655  25.066  26.072  1.00  0.00    -0.353 N 
ATOM     15  C   UNL A   1      34.994  24.831  24.646  1.00  0.00     0.113 C 
ATOM     16  C   UNL A   1      33.369  26.494  25.912  1.00  0.00     0.003 A 
ATOM     17  C   UNL A   1      32.072  26.336  26.409  1.00  0.00     0.046 A 
ATOM     18  H   UNL A   1      30.754  24.704  26.239  1.00  0.00     0.166 HD
ATOM     19  C   UNL A   1      34.027  27.720  26.126  1.00  0.00     0.010 A 
ATOM     20  C   UNL A   1      31.408  27.338  27.123  1.00  0.00     0.026 A 
ATOM     21  C   UNL A   1      33.380  28.730  26.847  1.00  0.00     0.001 A 
ATOM     22  C   UNL A   1      32.092  28.538  27.342  1.00  0.00     0.002 A 
BRANCH   8  23
ATOM     23  C   UNL A   1      32.462  22.041  26.391  1.00  0.00     0.068 C 
ATOM     24  C   UNL A   1      33.322  22.364  27.608  1.00  0.00     0.011 C 
ENDBRANCH   8  23
ENDBRANCH   4   7
ENDBRANCH   2   3
ENDBRANCH   1   2
BRANCH   1  25
ATOM     25  C   UNL A   1      39.240  20.171  25.805  1.00  0.00     0.118 C 
BRANCH  25  26
ATOM     26  N   UNL A   1      40.243  19.116  25.874  1.00  0.00    -0.352 N 
ATOM     27  C   UNL A   1      41.598  19.196  26.078  1.00  0.00     0.251 C 
ATOM     28  H   UNL A   1      39.893  18.203  25.756  1.00  0.00     0.163 HD
ATOM     29  O   UNL A   1      42.293  18.190  25.955  1.00  0.00    -0.269 OA
BRANCH  27  30
ATOM     30  C   UNL A   1      42.238  20.489  26.408  1.00  0.00     0.039 A 
ATOM     31  C   UNL A   1      42.820  21.230  25.376  1.00  0.00     0.014 A 
ATOM     32  C   UNL A   1      42.276  20.972  27.719  1.00  0.00     0.014 A 
ATOM     33  C   UNL A   1      43.357  22.491  25.641  1.00  0.00     0.010 A 
ATOM     34  C   UNL A   1      42.745  22.260  27.971  1.00  0.00     0.010 A 
ATOM     35  C   UNL A   1      43.276  23.039  26.932  1.00  0.00    -0.014 A 
BRANCH  35  36
ATOM     36  C   UNL A   1      43.687  24.443  27.195  1.00  0.00     0.031 A 
ATOM     37  C   UNL A   1      42.695  25.460  27.679  1.00  0.00     0.074 A 
ATOM     38  C   UNL A   1      44.953  24.817  26.926  1.00  0.00     0.049 A 
ATOM     39  N   UNL A   1      42.864  26.740  27.906  1.00  0.00    -0.248 NA
ATOM     40  C   UNL A   1      41.326  24.983  27.921  1.00  0.00     0.031 C 
ATOM     41  C   UNL A   1      46.001  23.935  26.410  1.00  0.00     0.029 A 
ATOM     42  N   UNL A   1      45.573  26.037  27.036  1.00  0.00    -0.354 N 
ATOM     43  C   UNL A   1      41.625  27.220  28.308  1.00  0.00     0.074 A 
ATOM     44  C   UNL A   1      40.702  26.107  28.243  1.00  0.00     0.031 C 
ATOM     45  C   UNL A   1      47.138  24.634  26.274  1.00  0.00     0.029 A 
ATOM     46  C   UNL A   1      46.889  26.023  26.646  1.00  0.00     0.049 A 
ATOM     47  H   UNL A   1      45.117  26.846  27.364  1.00  0.00     0.167 HD
ATOM     48  C   UNL A   1      41.294  28.471  28.713  1.00  0.00     0.037 A 
ATOM     49  C   UNL A   1      47.793  27.019  26.581  1.00  0.00     0.037 A 
ATOM     50  C   UNL A   1      42.218  29.575  28.778  1.00  0.00     0.049 A 
ATOM     51  C   UNL A   1      47.390  28.407  26.991  1.00  0.00     0.074 A 
ATOM     52  C   UNL A   1      41.995  30.861  29.238  1.00  0.00     0.029 A 
ATOM     53  N   UNL A   1      43.539  29.527  28.353  1.00  0.00    -0.354 N 
ATOM     54  N   UNL A   1      46.237  28.833  27.448  1.00  0.00    -0.248 NA
ATOM     55  C   UNL A   1      48.413  29.455  26.874  1.00  0.00     0.031 C 
ATOM     56  C   UNL A   1      43.161  31.608  29.032  1.00  0.00     0.029 A 
ATOM     57  C   UNL A   1      44.130  30.774  28.501  1.00  0.00     0.049 A 
ATOM     58  H   UNL A   1      43.990  28.727  28.001  1.00  0.00     0.167 HD
ATOM     59  C   UNL A   1      46.399  30.191  27.688  1.00  0.00     0.074 A 
ATOM     60  C   UNL A   1      47.769  30.513  27.349  1.00  0.00     0.031 C 
ATOM     61  C   UNL A   1      45.491  31.089  28.145  1.00  0.00     0.037 A 
BRANCH  48  62
ATOM     62  C   UNL A   1      39.863  28.715  29.105  1.00  0.00     0.064 A 
ATOM     63  C   UNL A   1      39.421  28.550  30.427  1.00  0.00     0.173 A 
ATOM     64  C   UNL A   1      38.926  29.143  28.152  1.00  0.00     0.173 A 
ATOM     65  F   UNL A   1      40.273  28.136  31.378  1.00  0.00    -0.203 F 
ATOM     66  C   UNL A   1      38.088  28.763  30.771  1.00  0.00     0.198 A 
ATOM     67  C   UNL A   1      37.601  29.388  28.507  1.00  0.00     0.198 A 
ATOM     68  F   UNL A   1      39.295  29.328  26.875  1.00  0.00    -0.203 F 
ATOM     69  F   UNL A   1      37.678  28.539  32.027  1.00  0.00    -0.200 F 
ATOM     70  C   UNL A   1      37.181  29.188  29.812  1.00  0.00     0.200 A 
ATOM     71  F   UNL A   1      36.730  29.815  27.582  1.00  0.00    -0.200 F 
ATOM     72  F   UNL A   1      35.900  29.394  30.145  1.00  0.00    -0.200 F 
ENDBRANCH  48  62
BRANCH  49  73
ATOM     73  C   UNL A   1      49.177  26.729  26.121  1.00  0.00     0.064 A 
ATOM     74  C   UNL A   1      49.551  26.946  24.788  1.00  0.00     0.173 A 
ATOM     75  C   UNL A   1      50.155  26.244  27.003  1.00  0.00     0.173 A 
ATOM     76  F   UNL A   1      48.646  27.387  23.902  1.00  0.00    -0.203 F 
ATOM     77  C   UNL A   1      50.847  26.682  24.352  1.00  0.00     0.198 A 
ATOM     78  C   UNL A   1      51.458  26.009  26.573  1.00  0.00     0.198 A 
ATOM     79  F   UNL A   1      49.849  26.023  28.290  1.00  0.00    -0.203 F 
ATOM     80  F   UNL A   1      51.168  26.863  23.064  1.00  0.00    -0.200 F 
ATOM     81  C   UNL A   1      51.802  26.221  25.246  1.00  0.00     0.200 A 
ATOM     82  F   UNL A   1      52.382  25.579  27.444  1.00  0.00    -0.200 F 
ATOM     83  F   UNL A   1      53.052  25.978  24.829  1.00  0.00    -0.200 F 
ENDBRANCH  49  73
BRANCH  61  84
ATOM     84  C   UNL A   1      45.953  32.509  28.311  1.00  0.00     0.064 A 
ATOM     85  C   UNL A   1      46.552  32.952  29.501  1.00  0.00     0.173 A 
ATOM     86  C   UNL A   1      45.828  33.428  27.259  1.00  0.00     0.173 A 
ATOM     87  F   UNL A   1      46.679  32.118  30.544  1.00  0.00    -0.203 F 
ATOM     88  C   UNL A   1      46.986  34.268  29.638  1.00  0.00     0.198 A 
ATOM     89  C   UNL A   1      46.294  34.734  27.389  1.00  0.00     0.198 A 
ATOM     90  F   UNL A   1      45.268  33.057  26.099  1.00  0.00    -0.203 F 
ATOM     91  F   UNL A   1      47.509  34.681  30.801  1.00  0.00    -0.200 F 
ATOM     92  C   UNL A   1      46.864  35.155  28.580  1.00  0.00     0.200 A 
ATOM     93  F   UNL A   1      46.188  35.587  26.360  1.00  0.00    -0.200 F 
ATOM     94  F   UNL A   1      47.291  36.419  28.711  1.00  0.00    -0.200 F 
ENDBRANCH  61  84
ENDBRANCH  35  36
ENDBRANCH  27  30
ENDBRANCH  25  26
ENDBRANCH   1  25
TORSDOF 11
ENDMDL
