MODEL 1
REMARK VINA RESULT:     -12.8      0.000      0.000
REMARK SMILES N#Cc1cccc(C(=O)N2CCC(CC(=O)NCCCNC(=O)c3ccc(-c4c5nc(c(-c6c(F)c(F)c(F)c(F)c6F)c6ccc([nH]6)c(-c6c(F)c(F)c(F)c(F)c6F)c6nc(c(-c7c(F)c(F)c(F)c(F)c7F)c7ccc4[nH]7)C=C6)C=C5)cc3)CC2)c1
REMARK SMILES IDX 18 1 17 2 15 3 16 4 14 6 13 7 8 8 9 9 10 10 11 11 88 12
REMARK SMILES IDX 12 13 87 14 7 15 3 16 4 17 89 18 5 19 6 20 2 21 1 22 19 23
REMARK SMILES IDX 20 24 21 25 22 26 23 28 24 29 25 30 86 31 26 32 85 33 27 34
REMARK SMILES IDX 28 35 29 36 79 37 30 38 84 39 78 40 80 41 31 42 83 43 77 44
REMARK SMILES IDX 76 45 32 47 64 48 44 49 63 50 45 51 48 52 62 53 81 54 46 55
REMARK SMILES IDX 47 56 61 58 82 59 49 60 33 61 34 62 42 63 35 64 36 65 40 66
REMARK SMILES IDX 43 67 37 68 38 69 41 70 39 71 65 72 66 73 74 74 67 75 68 76
REMARK SMILES IDX 72 77 75 78 69 79 70 80 73 81 71 82 50 83 51 84 59 85 52 86
REMARK SMILES IDX 53 87 57 88 60 89 54 90 55 91 58 92 56 93
REMARK H PARENT 17 5 21 27 80 46 48 57
REMARK Flexibility Score: inf
ROOT
ATOM      1  C   UNL A   1      31.420  30.482  25.390  1.00  0.00     0.117 C 
ENDROOT
BRANCH   1   2
ATOM      2  N   UNL A   1      30.356  30.271  24.411  1.00  0.00    -0.356 N 
ATOM      3  C   UNL A   1      30.297  29.522  23.269  1.00  0.00     0.220 C 
ATOM      4  O   UNL A   1      29.229  29.513  22.652  1.00  0.00    -0.275 OA
ATOM      5  H   UNL A   1      29.525  30.759  24.613  1.00  0.00     0.163 HD
BRANCH   3   6
ATOM      6  C   UNL A   1      31.500  28.742  22.744  1.00  0.00     0.103 C 
BRANCH   6   7
ATOM      7  C   UNL A   1      31.960  27.585  23.662  1.00  0.00     0.002 C 
ATOM      8  C   UNL A   1      33.698  23.938  22.940  1.00  0.00     0.253 C 
ATOM      9  O   UNL A   1      33.629  23.941  21.718  1.00  0.00    -0.269 OA
ATOM     10  N   UNL A   1      33.161  24.934  23.732  1.00  0.00    -0.339 N 
ATOM     11  C   UNL A   1      31.732  25.023  23.858  1.00  0.00     0.120 C 
ATOM     12  C   UNL A   1      33.936  26.057  24.234  1.00  0.00     0.120 C 
ATOM     13  C   UNL A   1      31.242  26.310  23.252  1.00  0.00     0.026 C 
ATOM     14  C   UNL A   1      33.488  27.384  23.609  1.00  0.00     0.026 C 
BRANCH   8  15
ATOM     15  C   UNL A   1      34.194  22.744  23.690  1.00  0.00     0.041 A 
ATOM     16  C   UNL A   1      33.805  20.544  24.645  1.00  0.00     0.053 A 
ATOM     17  C   UNL A   1      35.163  20.441  24.954  1.00  0.00     0.019 A 
ATOM     18  C   UNL A   1      33.325  21.693  24.015  1.00  0.00     0.033 A 
ATOM     19  C   UNL A   1      36.036  21.484  24.632  1.00  0.00     0.002 A 
ATOM     20  C   UNL A   1      35.554  22.633  23.999  1.00  0.00     0.014 A 
BRANCH  16  21
ATOM     21  C   UNL A   1      32.893  19.482  24.945  1.00  0.00     0.099 C 
ATOM     22  N   UNL A   1      32.177  18.594  25.167  1.00  0.00    -0.192 NA
ENDBRANCH  16  21
ENDBRANCH   8  15
ENDBRANCH   6   7
ENDBRANCH   3   6
ENDBRANCH   1   2
BRANCH   1  23
ATOM     23  C   UNL A   1      31.252  31.770  26.210  1.00  0.00     0.042 C 
BRANCH  23  24
ATOM     24  C   UNL A   1      32.447  32.138  27.069  1.00  0.00     0.118 C 
BRANCH  24  25
ATOM     25  N   UNL A   1      32.434  33.549  27.388  1.00  0.00    -0.352 N 
ATOM     26  C   UNL A   1      33.146  34.232  28.341  1.00  0.00     0.251 C 
ATOM     27  H   UNL A   1      31.826  34.098  26.843  1.00  0.00     0.163 HD
ATOM     28  O   UNL A   1      32.734  35.328  28.713  1.00  0.00    -0.269 OA
BRANCH  26  29
ATOM     29  C   UNL A   1      34.393  33.681  28.925  1.00  0.00     0.039 A 
ATOM     30  C   UNL A   1      34.282  32.624  29.834  1.00  0.00     0.014 A 
ATOM     31  C   UNL A   1      35.654  34.230  28.667  1.00  0.00     0.014 A 
ATOM     32  C   UNL A   1      35.419  32.123  30.465  1.00  0.00     0.010 A 
ATOM     33  C   UNL A   1      36.803  33.654  29.213  1.00  0.00     0.010 A 
ATOM     34  C   UNL A   1      36.697  32.614  30.143  1.00  0.00    -0.014 A 
BRANCH  34  35
ATOM     35  C   UNL A   1      37.900  32.032  30.794  1.00  0.00     0.031 A 
ATOM     36  C   UNL A   1      38.323  32.454  32.174  1.00  0.00     0.074 A 
ATOM     37  C   UNL A   1      38.608  31.096  30.134  1.00  0.00     0.049 A 
ATOM     38  N   UNL A   1      39.286  31.978  32.926  1.00  0.00    -0.248 NA
ATOM     39  C   UNL A   1      37.591  33.573  32.782  1.00  0.00     0.031 C 
ATOM     40  C   UNL A   1      38.341  30.655  28.764  1.00  0.00     0.029 A 
ATOM     41  N   UNL A   1      39.681  30.337  30.526  1.00  0.00    -0.354 N 
ATOM     42  C   UNL A   1      39.265  32.732  34.093  1.00  0.00     0.074 A 
ATOM     43  C   UNL A   1      38.253  33.750  33.914  1.00  0.00     0.031 C 
ATOM     44  C   UNL A   1      39.187  29.663  28.450  1.00  0.00     0.029 A 
ATOM     45  C   UNL A   1      40.089  29.435  29.575  1.00  0.00     0.049 A 
ATOM     46  H   UNL A   1      40.115  30.429  31.405  1.00  0.00     0.167 HD
ATOM     47  C   UNL A   1      40.001  32.573  35.221  1.00  0.00     0.037 A 
ATOM     48  C   UNL A   1      41.078  28.524  29.603  1.00  0.00     0.037 A 
ATOM     49  C   UNL A   1      41.022  31.567  35.382  1.00  0.00     0.049 A 
ATOM     50  C   UNL A   1      41.891  28.369  30.857  1.00  0.00     0.074 A 
ATOM     51  C   UNL A   1      41.802  31.294  36.491  1.00  0.00     0.029 A 
ATOM     52  N   UNL A   1      41.421  30.678  34.390  1.00  0.00    -0.354 N 
ATOM     53  N   UNL A   1      41.808  29.033  31.985  1.00  0.00    -0.248 NA
ATOM     54  C   UNL A   1      42.921  27.326  30.846  1.00  0.00     0.031 C 
ATOM     55  C   UNL A   1      42.722  30.295  36.147  1.00  0.00     0.029 A 
ATOM     56  C   UNL A   1      42.459  29.882  34.851  1.00  0.00     0.049 A 
ATOM     57  H   UNL A   1      41.024  30.623  33.491  1.00  0.00     0.167 HD
ATOM     58  C   UNL A   1      42.763  28.478  32.826  1.00  0.00     0.074 A 
ATOM     59  C   UNL A   1      43.387  27.400  32.084  1.00  0.00     0.031 C 
ATOM     60  C   UNL A   1      43.094  28.829  34.095  1.00  0.00     0.037 A 
BRANCH  47  61
ATOM     61  C   UNL A   1      39.733  33.525  36.358  1.00  0.00     0.064 A 
ATOM     62  C   UNL A   1      40.369  34.775  36.445  1.00  0.00     0.173 A 
ATOM     63  C   UNL A   1      38.833  33.184  37.379  1.00  0.00     0.173 A 
ATOM     64  F   UNL A   1      41.244  35.156  35.502  1.00  0.00    -0.203 F 
ATOM     65  C   UNL A   1      40.160  35.617  37.536  1.00  0.00     0.198 A 
ATOM     66  C   UNL A   1      38.592  34.048  38.446  1.00  0.00     0.198 A 
ATOM     67  F   UNL A   1      38.186  32.009  37.349  1.00  0.00    -0.203 F 
ATOM     68  F   UNL A   1      40.843  36.766  37.635  1.00  0.00    -0.200 F 
ATOM     69  C   UNL A   1      39.267  35.255  38.533  1.00  0.00     0.200 A 
ATOM     70  F   UNL A   1      37.714  33.704  39.399  1.00  0.00    -0.200 F 
ATOM     71  F   UNL A   1      39.070  36.063  39.583  1.00  0.00    -0.200 F 
ENDBRANCH  47  61
BRANCH  48  72
ATOM     72  C   UNL A   1      41.331  27.686  28.402  1.00  0.00     0.064 A 
ATOM     73  C   UNL A   1      40.648  26.480  28.192  1.00  0.00     0.173 A 
ATOM     74  C   UNL A   1      42.241  28.099  27.417  1.00  0.00     0.173 A 
ATOM     75  F   UNL A   1      39.779  26.033  29.111  1.00  0.00    -0.203 F 
ATOM     76  C   UNL A   1      40.875  25.714  27.050  1.00  0.00     0.198 A 
ATOM     77  C   UNL A   1      42.440  27.352  26.259  1.00  0.00     0.198 A 
ATOM     78  F   UNL A   1      42.913  29.250  27.563  1.00  0.00    -0.203 F 
ATOM     79  F   UNL A   1      40.239  24.545  26.893  1.00  0.00    -0.200 F 
ATOM     80  C   UNL A   1      41.762  26.156  26.080  1.00  0.00     0.200 A 
ATOM     81  F   UNL A   1      43.278  27.797  25.313  1.00  0.00    -0.200 F 
ATOM     82  F   UNL A   1      41.966  25.429  24.973  1.00  0.00    -0.200 F 
ENDBRANCH  48  72
BRANCH  60  83
ATOM     83  C   UNL A   1      44.168  28.013  34.766  1.00  0.00     0.064 A 
ATOM     84  C   UNL A   1      43.874  26.840  35.480  1.00  0.00     0.173 A 
ATOM     85  C   UNL A   1      45.510  28.423  34.712  1.00  0.00     0.173 A 
ATOM     86  F   UNL A   1      42.609  26.403  35.573  1.00  0.00    -0.203 F 
ATOM     87  C   UNL A   1      44.870  26.150  36.169  1.00  0.00     0.198 A 
ATOM     88  C   UNL A   1      46.509  27.704  35.360  1.00  0.00     0.198 A 
ATOM     89  F   UNL A   1      45.854  29.527  34.032  1.00  0.00    -0.203 F 
ATOM     90  F   UNL A   1      44.548  25.089  36.921  1.00  0.00    -0.200 F 
ATOM     91  C   UNL A   1      46.186  26.580  36.105  1.00  0.00     0.200 A 
ATOM     92  F   UNL A   1      47.784  28.109  35.279  1.00  0.00    -0.200 F 
ATOM     93  F   UNL A   1      47.142  25.921  36.776  1.00  0.00    -0.200 F 
ENDBRANCH  60  83
ENDBRANCH  34  35
ENDBRANCH  26  29
ENDBRANCH  24  25
ENDBRANCH  23  24
ENDBRANCH   1  23
TORSDOF 13
ENDMDL
MODEL 2
REMARK VINA RESULT:     -12.7      7.140     15.293
REMARK SMILES N#Cc1cccc(C(=O)N2CCC(CC(=O)NCCCNC(=O)c3ccc(-c4c5nc(c(-c6c(F)c(F)c(F)c(F)c6F)c6ccc([nH]6)c(-c6c(F)c(F)c(F)c(F)c6F)c6nc(c(-c7c(F)c(F)c(F)c(F)c7F)c7ccc4[nH]7)C=C6)C=C5)cc3)CC2)c1
REMARK SMILES IDX 18 1 17 2 15 3 16 4 14 6 13 7 8 8 9 9 10 10 11 11 88 12
REMARK SMILES IDX 12 13 87 14 7 15 3 16 4 17 89 18 5 19 6 20 2 21 1 22 19 23
REMARK SMILES IDX 20 24 21 25 22 26 23 28 24 29 25 30 86 31 26 32 85 33 27 34
REMARK SMILES IDX 28 35 29 36 79 37 30 38 84 39 78 40 80 41 31 42 83 43 77 44
REMARK SMILES IDX 76 45 32 47 64 48 44 49 63 50 45 51 48 52 62 53 81 54 46 55
REMARK SMILES IDX 47 56 61 58 82 59 49 60 33 61 34 62 42 63 35 64 36 65 40 66
REMARK SMILES IDX 43 67 37 68 38 69 41 70 39 71 65 72 66 73 74 74 67 75 68 76
REMARK SMILES IDX 72 77 75 78 69 79 70 80 73 81 71 82 50 83 51 84 59 85 52 86
REMARK SMILES IDX 53 87 57 88 60 89 54 90 55 91 58 92 56 93
REMARK H PARENT 17 5 21 27 80 46 48 57
REMARK Flexibility Score: inf
ROOT
ATOM      1  C   UNL A   1      46.341  20.177  35.639  1.00  0.00     0.117 C 
ENDROOT
BRANCH   1   2
ATOM      2  N   UNL A   1      47.759  20.114  35.988  1.00  0.00    -0.356 N 
ATOM      3  C   UNL A   1      48.405  20.041  37.190  1.00  0.00     0.220 C 
ATOM      4  O   UNL A   1      49.636  19.965  37.169  1.00  0.00    -0.275 OA
ATOM      5  H   UNL A   1      48.362  20.125  35.210  1.00  0.00     0.163 HD
BRANCH   3   6
ATOM      6  C   UNL A   1      47.655  20.078  38.520  1.00  0.00     0.103 C 
BRANCH   6   7
ATOM      7  C   UNL A   1      47.171  18.695  39.018  1.00  0.00     0.002 C 
ATOM      8  C   UNL A   1      44.113  17.503  41.483  1.00  0.00     0.253 C 
ATOM      9  O   UNL A   1      43.740  18.607  41.859  1.00  0.00    -0.269 OA
ATOM     10  N   UNL A   1      45.213  17.311  40.669  1.00  0.00    -0.339 N 
ATOM     11  C   UNL A   1      46.525  17.517  41.219  1.00  0.00     0.120 C 
ATOM     12  C   UNL A   1      45.120  17.172  39.225  1.00  0.00     0.120 C 
ATOM     13  C   UNL A   1      47.192  18.680  40.538  1.00  0.00     0.026 C 
ATOM     14  C   UNL A   1      45.759  18.360  38.495  1.00  0.00     0.026 C 
BRANCH   8  15
ATOM     15  C   UNL A   1      43.525  16.249  42.043  1.00  0.00     0.041 A 
ATOM     16  C   UNL A   1      42.368  14.137  41.723  1.00  0.00     0.053 A 
ATOM     17  C   UNL A   1      42.563  13.828  43.070  1.00  0.00     0.019 A 
ATOM     18  C   UNL A   1      42.848  15.344  41.214  1.00  0.00     0.033 A 
ATOM     19  C   UNL A   1      43.238  14.725  43.904  1.00  0.00     0.002 A 
ATOM     20  C   UNL A   1      43.720  15.932  43.392  1.00  0.00     0.014 A 
BRANCH  16  21
ATOM     21  C   UNL A   1      41.698  13.227  40.843  1.00  0.00     0.099 C 
ATOM     22  N   UNL A   1      41.191  12.478  40.113  1.00  0.00    -0.192 NA
ENDBRANCH  16  21
ENDBRANCH   8  15
ENDBRANCH   6   7
ENDBRANCH   3   6
ENDBRANCH   1   2
BRANCH   1  23
ATOM     23  C   UNL A   1      45.694  21.536  35.947  1.00  0.00     0.042 C 
BRANCH  23  24
ATOM     24  C   UNL A   1      46.521  22.740  35.537  1.00  0.00     0.118 C 
BRANCH  24  25
ATOM     25  N   UNL A   1      46.858  23.546  36.691  1.00  0.00    -0.352 N 
ATOM     26  C   UNL A   1      46.734  24.899  36.873  1.00  0.00     0.251 C 
ATOM     27  H   UNL A   1      47.231  23.051  37.455  1.00  0.00     0.163 HD
ATOM     28  O   UNL A   1      47.406  25.442  37.746  1.00  0.00    -0.269 OA
BRANCH  26  29
ATOM     29  C   UNL A   1      45.809  25.715  36.047  1.00  0.00     0.039 A 
ATOM     30  C   UNL A   1      44.464  25.338  36.003  1.00  0.00     0.014 A 
ATOM     31  C   UNL A   1      46.247  26.783  35.256  1.00  0.00     0.014 A 
ATOM     32  C   UNL A   1      43.572  26.028  35.182  1.00  0.00     0.010 A 
ATOM     33  C   UNL A   1      45.332  27.543  34.524  1.00  0.00     0.010 A 
ATOM     34  C   UNL A   1      43.989  27.155  34.453  1.00  0.00    -0.014 A 
BRANCH  34  35
ATOM     35  C   UNL A   1      43.010  27.904  33.622  1.00  0.00     0.031 A 
ATOM     36  C   UNL A   1      42.867  27.635  32.150  1.00  0.00     0.074 A 
ATOM     37  C   UNL A   1      42.228  28.828  34.213  1.00  0.00     0.049 A 
ATOM     38  N   UNL A   1      41.997  28.125  31.300  1.00  0.00    -0.248 NA
ATOM     39  C   UNL A   1      43.840  26.716  31.543  1.00  0.00     0.031 C 
ATOM     40  C   UNL A   1      42.321  29.230  35.617  1.00  0.00     0.029 A 
ATOM     41  N   UNL A   1      41.195  29.581  33.718  1.00  0.00    -0.354 N 
ATOM     42  C   UNL A   1      42.315  27.568  30.067  1.00  0.00     0.074 A 
ATOM     43  C   UNL A   1      43.506  26.771  30.264  1.00  0.00     0.031 C 
ATOM     44  C   UNL A   1      41.348  30.113  35.886  1.00  0.00     0.029 A 
ATOM     45  C   UNL A   1      40.597  30.377  34.663  1.00  0.00     0.049 A 
ATOM     46  H   UNL A   1      40.909  29.552  32.776  1.00  0.00     0.167 HD
ATOM     47  C   UNL A   1      41.657  27.685  28.887  1.00  0.00     0.037 A 
ATOM     48  C   UNL A   1      39.557  31.226  34.559  1.00  0.00     0.037 A 
ATOM     49  C   UNL A   1      40.482  28.498  28.697  1.00  0.00     0.049 A 
ATOM     50  C   UNL A   1      38.849  31.352  33.241  1.00  0.00     0.074 A 
ATOM     51  C   UNL A   1      39.717  28.663  27.555  1.00  0.00     0.029 A 
ATOM     52  N   UNL A   1      39.911  29.305  29.674  1.00  0.00    -0.354 N 
ATOM     53  N   UNL A   1      39.107  30.756  32.100  1.00  0.00    -0.248 NA
ATOM     54  C   UNL A   1      37.693  32.253  33.201  1.00  0.00     0.031 C 
ATOM     55  C   UNL A   1      38.733  29.623  27.819  1.00  0.00     0.029 A 
ATOM     56  C   UNL A   1      38.826  29.995  29.151  1.00  0.00     0.049 A 
ATOM     57  H   UNL A   1      40.230  29.377  30.603  1.00  0.00     0.167 HD
ATOM     58  C   UNL A   1      38.136  31.198  31.211  1.00  0.00     0.074 A 
ATOM     59  C   UNL A   1      37.266  32.084  31.958  1.00  0.00     0.031 C 
ATOM     60  C   UNL A   1      37.981  30.897  29.896  1.00  0.00     0.037 A 
BRANCH  47  61
ATOM     61  C   UNL A   1      42.214  26.926  27.710  1.00  0.00     0.064 A 
ATOM     62  C   UNL A   1      41.834  25.602  27.432  1.00  0.00     0.173 A 
ATOM     63  C   UNL A   1      43.146  27.527  26.848  1.00  0.00     0.173 A 
ATOM     64  F   UNL A   1      40.951  24.973  28.222  1.00  0.00    -0.203 F 
ATOM     65  C   UNL A   1      42.406  24.893  26.378  1.00  0.00     0.198 A 
ATOM     66  C   UNL A   1      43.683  26.828  25.768  1.00  0.00     0.198 A 
ATOM     67  F   UNL A   1      43.542  28.792  27.054  1.00  0.00    -0.203 F 
ATOM     68  F   UNL A   1      42.087  23.605  26.187  1.00  0.00    -0.200 F 
ATOM     69  C   UNL A   1      43.326  25.508  25.544  1.00  0.00     0.200 A 
ATOM     70  F   UNL A   1      44.558  27.432  24.952  1.00  0.00    -0.200 F 
ATOM     71  F   UNL A   1      43.880  24.824  24.533  1.00  0.00    -0.200 F 
ENDBRANCH  47  61
BRANCH  48  72
ATOM     72  C   UNL A   1      39.130  32.002  35.752  1.00  0.00     0.064 A 
ATOM     73  C   UNL A   1      38.263  31.459  36.709  1.00  0.00     0.173 A 
ATOM     74  C   UNL A   1      39.615  33.301  35.974  1.00  0.00     0.173 A 
ATOM     75  F   UNL A   1      37.760  30.228  36.535  1.00  0.00    -0.203 F 
ATOM     76  C   UNL A   1      37.888  32.188  37.836  1.00  0.00     0.198 A 
ATOM     77  C   UNL A   1      39.269  34.014  37.119  1.00  0.00     0.198 A 
ATOM     78  F   UNL A   1      40.456  33.863  35.095  1.00  0.00    -0.203 F 
ATOM     79  F   UNL A   1      37.026  31.660  38.716  1.00  0.00    -0.200 F 
ATOM     80  C   UNL A   1      38.400  33.460  38.045  1.00  0.00     0.200 A 
ATOM     81  F   UNL A   1      39.788  35.231  37.329  1.00  0.00    -0.200 F 
ATOM     82  F   UNL A   1      38.054  34.152  39.138  1.00  0.00    -0.200 F 
ENDBRANCH  48  72
BRANCH  60  83
ATOM     83  C   UNL A   1      36.803  31.520  29.193  1.00  0.00     0.064 A 
ATOM     84  C   UNL A   1      36.767  32.887  28.872  1.00  0.00     0.173 A 
ATOM     85  C   UNL A   1      35.685  30.742  28.855  1.00  0.00     0.173 A 
ATOM     86  F   UNL A   1      37.803  33.682  29.177  1.00  0.00    -0.203 F 
ATOM     87  C   UNL A   1      35.631  33.461  28.303  1.00  0.00     0.198 A 
ATOM     88  C   UNL A   1      34.571  31.309  28.243  1.00  0.00     0.198 A 
ATOM     89  F   UNL A   1      35.668  29.427  29.123  1.00  0.00    -0.203 F 
ATOM     90  F   UNL A   1      35.585  34.783  28.095  1.00  0.00    -0.200 F 
ATOM     91  C   UNL A   1      34.536  32.671  27.986  1.00  0.00     0.200 A 
ATOM     92  F   UNL A   1      33.523  30.540  27.917  1.00  0.00    -0.200 F 
ATOM     93  F   UNL A   1      33.441  33.225  27.448  1.00  0.00    -0.200 F 
ENDBRANCH  60  83
ENDBRANCH  34  35
ENDBRANCH  26  29
ENDBRANCH  24  25
ENDBRANCH  23  24
ENDBRANCH   1  23
TORSDOF 13
ENDMDL
MODEL 3
REMARK VINA RESULT:     -12.6      1.973      3.306
REMARK SMILES N#Cc1cccc(C(=O)N2CCC(CC(=O)NCCCNC(=O)c3ccc(-c4c5nc(c(-c6c(F)c(F)c(F)c(F)c6F)c6ccc([nH]6)c(-c6c(F)c(F)c(F)c(F)c6F)c6nc(c(-c7c(F)c(F)c(F)c(F)c7F)c7ccc4[nH]7)C=C6)C=C5)cc3)CC2)c1
REMARK SMILES IDX 18 1 17 2 15 3 16 4 14 6 13 7 8 8 9 9 10 10 11 11 88 12
REMARK SMILES IDX 12 13 87 14 7 15 3 16 4 17 89 18 5 19 6 20 2 21 1 22 19 23
REMARK SMILES IDX 20 24 21 25 22 26 23 28 24 29 25 30 86 31 26 32 85 33 27 34
REMARK SMILES IDX 28 35 29 36 79 37 30 38 84 39 78 40 80 41 31 42 83 43 77 44
REMARK SMILES IDX 76 45 32 47 64 48 44 49 63 50 45 51 48 52 62 53 81 54 46 55
REMARK SMILES IDX 47 56 61 58 82 59 49 60 33 61 34 62 42 63 35 64 36 65 40 66
REMARK SMILES IDX 43 67 37 68 38 69 41 70 39 71 65 72 66 73 74 74 67 75 68 76
REMARK SMILES IDX 72 77 75 78 69 79 70 80 73 81 71 82 50 83 51 84 59 85 52 86
REMARK SMILES IDX 53 87 57 88 60 89 54 90 55 91 58 92 56 93
REMARK H PARENT 17 5 21 27 80 46 48 57
REMARK Flexibility Score: inf
ROOT
ATOM      1  C   UNL A   1      31.587  28.032  27.224  1.00  0.00     0.117 C 
ENDROOT
BRANCH   1   2
ATOM      2  N   UNL A   1      31.201  26.663  26.888  1.00  0.00    -0.356 N 
ATOM      3  C   UNL A   1      31.908  25.612  26.374  1.00  0.00     0.220 C 
ATOM      4  O   UNL A   1      31.308  24.544  26.226  1.00  0.00    -0.275 OA
ATOM      5  H   UNL A   1      30.254  26.460  27.066  1.00  0.00     0.163 HD
BRANCH   3   6
ATOM      6  C   UNL A   1      33.374  25.738  25.967  1.00  0.00     0.103 C 
BRANCH   6   7
ATOM      7  C   UNL A   1      33.966  24.468  25.311  1.00  0.00     0.002 C 
ATOM      8  C   UNL A   1      32.530  20.668  24.727  1.00  0.00     0.253 C 
ATOM      9  O   UNL A   1      31.493  20.764  25.372  1.00  0.00    -0.269 OA
ATOM     10  N   UNL A   1      33.472  21.675  24.656  1.00  0.00    -0.339 N 
ATOM     11  C   UNL A   1      34.274  21.958  25.815  1.00  0.00     0.120 C 
ATOM     12  C   UNL A   1      33.525  22.640  23.570  1.00  0.00     0.120 C 
ATOM     13  C   UNL A   1      33.967  23.338  26.328  1.00  0.00     0.026 C 
ATOM     14  C   UNL A   1      33.182  24.056  24.048  1.00  0.00     0.026 C 
BRANCH   8  15
ATOM     15  C   UNL A   1      32.957  19.369  24.127  1.00  0.00     0.041 A 
ATOM     16  C   UNL A   1      34.176  17.273  24.286  1.00  0.00     0.053 A 
ATOM     17  C   UNL A   1      33.630  16.866  23.067  1.00  0.00     0.019 A 
ATOM     18  C   UNL A   1      33.839  18.521  24.811  1.00  0.00     0.033 A 
ATOM     19  C   UNL A   1      32.750  17.705  22.379  1.00  0.00     0.002 A 
ATOM     20  C   UNL A   1      32.411  18.953  22.907  1.00  0.00     0.014 A 
BRANCH  16  21
ATOM     21  C   UNL A   1      35.064  16.424  25.022  1.00  0.00     0.099 C 
ATOM     22  N   UNL A   1      35.814  15.745  25.593  1.00  0.00    -0.192 NA
ENDBRANCH  16  21
ENDBRANCH   8  15
ENDBRANCH   6   7
ENDBRANCH   3   6
ENDBRANCH   1   2
BRANCH   1  23
ATOM     23  C   UNL A   1      31.780  28.933  25.995  1.00  0.00     0.042 C 
BRANCH  23  24
ATOM     24  C   UNL A   1      33.087  29.702  25.970  1.00  0.00     0.118 C 
BRANCH  24  25
ATOM     25  N   UNL A   1      32.864  31.102  26.264  1.00  0.00    -0.352 N 
ATOM     26  C   UNL A   1      33.422  31.884  27.243  1.00  0.00     0.251 C 
ATOM     27  H   UNL A   1      32.219  31.557  25.678  1.00  0.00     0.163 HD
ATOM     28  O   UNL A   1      32.845  32.917  27.573  1.00  0.00    -0.269 OA
BRANCH  26  29
ATOM     29  C   UNL A   1      34.698  31.515  27.903  1.00  0.00     0.039 A 
ATOM     30  C   UNL A   1      34.769  30.276  28.548  1.00  0.00     0.014 A 
ATOM     31  C   UNL A   1      35.791  32.386  27.975  1.00  0.00     0.014 A 
ATOM     32  C   UNL A   1      35.921  29.917  29.246  1.00  0.00     0.010 A 
ATOM     33  C   UNL A   1      36.983  31.978  28.576  1.00  0.00     0.010 A 
ATOM     34  C   UNL A   1      37.052  30.752  29.246  1.00  0.00    -0.014 A 
BRANCH  34  35
ATOM     35  C   UNL A   1      38.286  30.327  29.958  1.00  0.00     0.031 A 
ATOM     36  C   UNL A   1      38.567  30.768  31.367  1.00  0.00     0.074 A 
ATOM     37  C   UNL A   1      39.156  29.517  29.324  1.00  0.00     0.049 A 
ATOM     38  N   UNL A   1      39.543  30.412  32.167  1.00  0.00    -0.248 NA
ATOM     39  C   UNL A   1      37.651  31.758  31.950  1.00  0.00     0.031 C 
ATOM     40  C   UNL A   1      39.031  29.078  27.933  1.00  0.00     0.029 A 
ATOM     41  N   UNL A   1      40.301  28.905  29.766  1.00  0.00    -0.354 N 
ATOM     42  C   UNL A   1      39.351  31.125  33.344  1.00  0.00     0.074 A 
ATOM     43  C   UNL A   1      38.217  31.995  33.124  1.00  0.00     0.031 C 
ATOM     44  C   UNL A   1      40.025  28.224  27.652  1.00  0.00     0.029 A 
ATOM     45  C   UNL A   1      40.885  28.094  28.825  1.00  0.00     0.049 A 
ATOM     46  H   UNL A   1      40.667  29.034  30.671  1.00  0.00     0.167 HD
ATOM     47  C   UNL A   1      40.036  31.040  34.511  1.00  0.00     0.037 A 
ATOM     48  C   UNL A   1      41.990  27.329  28.896  1.00  0.00     0.037 A 
ATOM     49  C   UNL A   1      41.178  30.183  34.714  1.00  0.00     0.049 A 
ATOM     50  C   UNL A   1      42.743  27.257  30.193  1.00  0.00     0.074 A 
ATOM     51  C   UNL A   1      41.925  29.992  35.863  1.00  0.00     0.029 A 
ATOM     52  N   UNL A   1      41.753  29.384  33.733  1.00  0.00    -0.354 N 
ATOM     53  N   UNL A   1      42.504  27.873  31.326  1.00  0.00    -0.248 NA
ATOM     54  C   UNL A   1      43.909  26.368  30.225  1.00  0.00     0.031 C 
ATOM     55  C   UNL A   1      42.994  29.141  35.557  1.00  0.00     0.029 A 
ATOM     56  C   UNL A   1      42.865  28.729  34.241  1.00  0.00     0.049 A 
ATOM     57  H   UNL A   1      41.420  29.297  32.810  1.00  0.00     0.167 HD
ATOM     58  C   UNL A   1      43.479  27.434  32.213  1.00  0.00     0.074 A 
ATOM     59  C   UNL A   1      44.289  26.474  31.490  1.00  0.00     0.031 C 
ATOM     60  C   UNL A   1      43.684  27.795  33.505  1.00  0.00     0.037 A 
BRANCH  47  61
ATOM     61  C   UNL A   1      39.573  31.915  35.647  1.00  0.00     0.064 A 
ATOM     62  C   UNL A   1      38.586  31.495  36.554  1.00  0.00     0.173 A 
ATOM     63  C   UNL A   1      40.119  33.195  35.831  1.00  0.00     0.173 A 
ATOM     64  F   UNL A   1      38.023  30.283  36.428  1.00  0.00    -0.203 F 
ATOM     65  C   UNL A   1      38.123  32.341  37.560  1.00  0.00     0.198 A 
ATOM     66  C   UNL A   1      39.684  34.022  36.866  1.00  0.00     0.198 A 
ATOM     67  F   UNL A   1      41.072  33.652  35.005  1.00  0.00    -0.203 F 
ATOM     68  F   UNL A   1      37.122  31.944  38.358  1.00  0.00    -0.200 F 
ATOM     69  C   UNL A   1      38.676  33.601  37.718  1.00  0.00     0.200 A 
ATOM     70  F   UNL A   1      40.235  35.233  37.029  1.00  0.00    -0.200 F 
ATOM     71  F   UNL A   1      38.227  34.416  38.683  1.00  0.00    -0.200 F 
ENDBRANCH  47  61
BRANCH  48  72
ATOM     72  C   UNL A   1      42.425  26.566  27.697  1.00  0.00     0.064 A 
ATOM     73  C   UNL A   1      43.388  27.074  26.815  1.00  0.00     0.173 A 
ATOM     74  C   UNL A   1      41.906  25.290  27.431  1.00  0.00     0.173 A 
ATOM     75  F   UNL A   1      43.904  28.296  27.015  1.00  0.00    -0.203 F 
ATOM     76  C   UNL A   1      43.806  26.339  25.706  1.00  0.00     0.198 A 
ATOM     77  C   UNL A   1      42.351  24.541  26.344  1.00  0.00     0.198 A 
ATOM     78  F   UNL A   1      40.990  24.753  28.250  1.00  0.00    -0.203 F 
ATOM     79  F   UNL A   1      44.698  26.864  24.855  1.00  0.00    -0.200 F 
ATOM     80  C   UNL A   1      43.295  25.070  25.478  1.00  0.00     0.200 A 
ATOM     81  F   UNL A   1      41.875  23.306  26.145  1.00  0.00    -0.200 F 
ATOM     82  F   UNL A   1      43.712  24.357  24.424  1.00  0.00    -0.200 F 
ENDBRANCH  48  72
BRANCH  60  83
ATOM     83  C   UNL A   1      44.823  27.120  34.224  1.00  0.00     0.064 A 
ATOM     84  C   UNL A   1      46.111  27.678  34.268  1.00  0.00     0.173 A 
ATOM     85  C   UNL A   1      44.628  25.884  34.861  1.00  0.00     0.173 A 
ATOM     86  F   UNL A   1      46.359  28.853  33.671  1.00  0.00    -0.203 F 
ATOM     87  C   UNL A   1      47.170  26.994  34.861  1.00  0.00     0.198 A 
ATOM     88  C   UNL A   1      45.678  25.226  35.495  1.00  0.00     0.198 A 
ATOM     89  F   UNL A   1      43.416  25.307  34.866  1.00  0.00    -0.203 F 
ATOM     90  F   UNL A   1      48.408  27.505  34.805  1.00  0.00    -0.200 F 
ATOM     91  C   UNL A   1      46.953  25.771  35.477  1.00  0.00     0.200 A 
ATOM     92  F   UNL A   1      45.461  24.055  36.108  1.00  0.00    -0.200 F 
ATOM     93  F   UNL A   1      47.974  25.110  36.038  1.00  0.00    -0.200 F 
ENDBRANCH  60  83
ENDBRANCH  34  35
ENDBRANCH  26  29
ENDBRANCH  24  25
ENDBRANCH  23  24
ENDBRANCH   1  23
TORSDOF 13
ENDMDL
