MODEL 1
REMARK VINA RESULT:     -12.0      0.000      0.000
REMARK SMILES CC[C@@H]1COCCN1c1nc(C(F)(F)F)ccc1C(=O)NCCCNC(=O)c1ccc(-c2c3nc(c(-c4c(F)c(F)c(F)c(F)c4F)c4ccc([nH]4)c(-c4c(F)c(F)c(F)c(F)c4F)c4nc(c(-c5c(F)c(F)c(F)c(F)c5F)c5ccc2[nH]5)C=C4)C=C3)cc1
REMARK SMILES IDX 23 1 22 2 21 3 19 4 20 5 18 7 9 8 10 9 11 10 17 11 16 12
REMARK SMILES IDX 8 13 3 14 4 15 5 16 7 17 6 18 2 19 1 20 12 21 13 22 14 23
REMARK SMILES IDX 15 24 24 25 25 26 26 27 27 29 28 30 29 31 90 32 30 33 89 34
REMARK SMILES IDX 31 35 32 36 33 37 83 38 34 39 88 40 82 41 84 42 35 43 87 44
REMARK SMILES IDX 81 45 80 46 36 48 68 49 48 50 67 51 49 52 52 53 66 54 85 55
REMARK SMILES IDX 50 56 51 57 65 59 86 60 53 61 37 62 38 63 46 64 39 65 40 66
REMARK SMILES IDX 44 67 47 68 41 69 42 70 45 71 43 72 69 73 70 74 78 75 71 76
REMARK SMILES IDX 72 77 76 78 79 79 73 80 74 81 77 82 75 83 54 84 55 85 63 86
REMARK SMILES IDX 56 87 57 88 61 89 64 90 58 91 59 92 62 93 60 94
REMARK H PARENT 21 6 25 28 84 47 52 58
REMARK Flexibility Score: inf
ROOT
ATOM      1  C   UNL A   1      35.714  23.994  25.751  1.00  0.00     0.042 C 
ENDROOT
BRANCH   1   2
ATOM      2  C   UNL A   1      34.817  25.088  25.175  1.00  0.00     0.118 C 
BRANCH   2   3
ATOM      3  N   UNL A   1      34.459  24.804  23.801  1.00  0.00    -0.352 N 
ATOM      4  C   UNL A   1      33.620  25.335  22.857  1.00  0.00     0.255 C 
ATOM      5  O   UNL A   1      33.659  24.710  21.795  1.00  0.00    -0.269 OA
ATOM      6  H   UNL A   1      34.947  24.024  23.454  1.00  0.00     0.163 HD
BRANCH   4   7
ATOM      7  C   UNL A   1      32.762  26.563  23.030  1.00  0.00     0.082 A 
ATOM      8  C   UNL A   1      31.621  26.516  23.862  1.00  0.00     0.142 A 
ATOM      9  N   UNL A   1      30.694  27.513  23.878  1.00  0.00    -0.226 NA
ATOM     10  C   UNL A   1      30.897  28.638  23.143  1.00  0.00     0.146 A 
ATOM     11  C   UNL A   1      33.001  27.774  22.376  1.00  0.00     0.020 A 
ATOM     12  C   UNL A   1      32.068  28.811  22.420  1.00  0.00     0.034 A 
BRANCH   8  13
ATOM     13  N   UNL A   1      31.387  25.489  24.742  1.00  0.00    -0.348 N 
ATOM     14  C   UNL A   1      31.312  25.681  26.210  1.00  0.00     0.109 C 
ATOM     15  C   UNL A   1      31.737  24.336  26.865  1.00  0.00     0.185 C 
ATOM     16  O   UNL A   1      30.905  23.246  26.422  1.00  0.00    -0.377 OA
ATOM     17  C   UNL A   1      30.570  24.372  24.258  1.00  0.00     0.147 C 
ATOM     18  C   UNL A   1      31.004  23.095  24.994  1.00  0.00     0.181 C 
BRANCH  14  19
ATOM     19  C   UNL A   1      32.154  26.829  26.798  1.00  0.00     0.024 C 
ATOM     20  C   UNL A   1      31.332  27.881  27.534  1.00  0.00     0.006 C 
ENDBRANCH  14  19
ENDBRANCH   8  13
BRANCH  10  21
ATOM     21  C   UNL A   1      29.829  29.722  23.140  1.00  0.00     0.433 C 
ATOM     22  F   UNL A   1      29.912  30.563  24.210  1.00  0.00    -0.165 F 
ATOM     23  F   UNL A   1      29.866  30.511  22.029  1.00  0.00    -0.165 F 
ATOM     24  F   UNL A   1      28.557  29.216  23.180  1.00  0.00    -0.165 F 
ENDBRANCH  10  21
ENDBRANCH   4   7
ENDBRANCH   2   3
ENDBRANCH   1   2
BRANCH   1  25
ATOM     25  C   UNL A   1      36.877  23.612  24.830  1.00  0.00     0.118 C 
BRANCH  25  26
ATOM     26  N   UNL A   1      37.756  22.622  25.440  1.00  0.00    -0.352 N 
ATOM     27  C   UNL A   1      38.915  22.770  26.154  1.00  0.00     0.251 C 
ATOM     28  H   UNL A   1      37.466  21.689  25.319  1.00  0.00     0.163 HD
ATOM     29  O   UNL A   1      39.637  21.794  26.335  1.00  0.00    -0.269 OA
BRANCH  27  30
ATOM     30  C   UNL A   1      39.306  24.079  26.720  1.00  0.00     0.039 A 
ATOM     31  C   UNL A   1      40.030  24.966  25.916  1.00  0.00     0.014 A 
ATOM     32  C   UNL A   1      39.056  24.398  28.058  1.00  0.00     0.014 A 
ATOM     33  C   UNL A   1      40.467  26.186  26.439  1.00  0.00     0.010 A 
ATOM     34  C   UNL A   1      39.442  25.639  28.563  1.00  0.00     0.010 A 
ATOM     35  C   UNL A   1      40.159  26.540  27.762  1.00  0.00    -0.014 A 
BRANCH  35  36
ATOM     36  C   UNL A   1      40.598  27.840  28.328  1.00  0.00     0.031 A 
ATOM     37  C   UNL A   1      42.047  28.066  28.663  1.00  0.00     0.074 A 
ATOM     38  C   UNL A   1      39.686  28.798  28.582  1.00  0.00     0.049 A 
ATOM     39  N   UNL A   1      42.612  29.099  29.239  1.00  0.00    -0.248 NA
ATOM     40  C   UNL A   1      42.980  26.981  28.327  1.00  0.00     0.031 C 
ATOM     41  C   UNL A   1      38.250  28.685  28.326  1.00  0.00     0.029 A 
ATOM     42  N   UNL A   1      39.832  30.050  29.123  1.00  0.00    -0.354 N 
ATOM     43  C   UNL A   1      43.961  28.784  29.339  1.00  0.00     0.074 A 
ATOM     44  C   UNL A   1      44.124  27.445  28.811  1.00  0.00     0.031 C 
ATOM     45  C   UNL A   1      37.648  29.827  28.696  1.00  0.00     0.029 A 
ATOM     46  C   UNL A   1      38.648  30.737  29.245  1.00  0.00     0.049 A 
ATOM     47  H   UNL A   1      40.701  30.422  29.396  1.00  0.00     0.167 HD
ATOM     48  C   UNL A   1      44.976  29.549  29.808  1.00  0.00     0.037 A 
ATOM     49  C   UNL A   1      38.400  31.958  29.753  1.00  0.00     0.037 A 
ATOM     50  C   UNL A   1      44.815  30.886  30.316  1.00  0.00     0.049 A 
ATOM     51  C   UNL A   1      39.545  32.783  30.276  1.00  0.00     0.074 A 
ATOM     52  C   UNL A   1      45.783  31.750  30.799  1.00  0.00     0.029 A 
ATOM     53  N   UNL A   1      43.604  31.556  30.399  1.00  0.00    -0.354 N 
ATOM     54  N   UNL A   1      40.820  32.486  30.333  1.00  0.00    -0.248 NA
ATOM     55  C   UNL A   1      39.215  34.116  30.800  1.00  0.00     0.031 C 
ATOM     56  C   UNL A   1      45.153  32.935  31.198  1.00  0.00     0.029 A 
ATOM     57  C   UNL A   1      43.799  32.821  30.928  1.00  0.00     0.049 A 
ATOM     58  H   UNL A   1      42.734  31.188  30.122  1.00  0.00     0.167 HD
ATOM     59  C   UNL A   1      41.447  33.603  30.867  1.00  0.00     0.074 A 
ATOM     60  C   UNL A   1      40.414  34.589  31.107  1.00  0.00     0.031 C 
ATOM     61  C   UNL A   1      42.760  33.795  31.138  1.00  0.00     0.037 A 
BRANCH  48  62
ATOM     62  C   UNL A   1      46.357  28.962  29.781  1.00  0.00     0.064 A 
ATOM     63  C   UNL A   1      46.873  28.264  30.882  1.00  0.00     0.173 A 
ATOM     64  C   UNL A   1      47.154  29.058  28.631  1.00  0.00     0.173 A 
ATOM     65  F   UNL A   1      46.154  28.155  32.010  1.00  0.00    -0.203 F 
ATOM     66  C   UNL A   1      48.148  27.704  30.842  1.00  0.00     0.198 A 
ATOM     67  C   UNL A   1      48.417  28.474  28.585  1.00  0.00     0.198 A 
ATOM     68  F   UNL A   1      46.705  29.710  27.548  1.00  0.00    -0.203 F 
ATOM     69  F   UNL A   1      48.635  27.076  31.922  1.00  0.00    -0.200 F 
ATOM     70  C   UNL A   1      48.915  27.803  29.692  1.00  0.00     0.200 A 
ATOM     71  F   UNL A   1      49.154  28.560  27.469  1.00  0.00    -0.200 F 
ATOM     72  F   UNL A   1      50.138  27.256  29.652  1.00  0.00    -0.200 F 
ENDBRANCH  48  62
BRANCH  49  73
ATOM     73  C   UNL A   1      37.012  32.490  29.772  1.00  0.00     0.064 A 
ATOM     74  C   UNL A   1      36.515  33.235  28.694  1.00  0.00     0.173 A 
ATOM     75  C   UNL A   1      36.166  32.280  30.869  1.00  0.00     0.173 A 
ATOM     76  F   UNL A   1      37.295  33.477  27.631  1.00  0.00    -0.203 F 
ATOM     77  C   UNL A   1      35.230  33.772  28.723  1.00  0.00     0.198 A 
ATOM     78  C   UNL A   1      34.871  32.796  30.885  1.00  0.00     0.198 A 
ATOM     79  F   UNL A   1      36.592  31.569  31.923  1.00  0.00    -0.203 F 
ATOM     80  F   UNL A   1      34.797  34.523  27.702  1.00  0.00    -0.200 F 
ATOM     81  C   UNL A   1      34.408  33.550  29.817  1.00  0.00     0.200 A 
ATOM     82  F   UNL A   1      34.075  32.567  31.938  1.00  0.00    -0.200 F 
ATOM     83  F   UNL A   1      33.173  34.068  29.846  1.00  0.00    -0.200 F 
ENDBRANCH  49  73
BRANCH  61  84
ATOM     84  C   UNL A   1      43.159  35.135  31.681  1.00  0.00     0.064 A 
ATOM     85  C   UNL A   1      43.111  35.416  33.053  1.00  0.00     0.173 A 
ATOM     86  C   UNL A   1      43.626  36.138  30.818  1.00  0.00     0.173 A 
ATOM     87  F   UNL A   1      42.656  34.494  33.916  1.00  0.00    -0.203 F 
ATOM     88  C   UNL A   1      43.495  36.663  33.541  1.00  0.00     0.198 A 
ATOM     89  C   UNL A   1      44.033  37.373  31.312  1.00  0.00     0.198 A 
ATOM     90  F   UNL A   1      43.694  35.914  29.496  1.00  0.00    -0.203 F 
ATOM     91  F   UNL A   1      43.400  36.925  34.852  1.00  0.00    -0.200 F 
ATOM     92  C   UNL A   1      43.961  37.637  32.671  1.00  0.00     0.200 A 
ATOM     93  F   UNL A   1      44.492  38.311  30.471  1.00  0.00    -0.200 F 
ATOM     94  F   UNL A   1      44.332  38.835  33.143  1.00  0.00    -0.200 F 
ENDBRANCH  61  84
ENDBRANCH  35  36
ENDBRANCH  27  30
ENDBRANCH  25  26
ENDBRANCH   1  25
TORSDOF 13
ENDMDL
MODEL 2
REMARK VINA RESULT:     -12.0      4.154      7.508
REMARK SMILES CC[C@@H]1COCCN1c1nc(C(F)(F)F)ccc1C(=O)NCCCNC(=O)c1ccc(-c2c3nc(c(-c4c(F)c(F)c(F)c(F)c4F)c4ccc([nH]4)c(-c4c(F)c(F)c(F)c(F)c4F)c4nc(c(-c5c(F)c(F)c(F)c(F)c5F)c5ccc2[nH]5)C=C4)C=C3)cc1
REMARK SMILES IDX 23 1 22 2 21 3 19 4 20 5 18 7 9 8 10 9 11 10 17 11 16 12
REMARK SMILES IDX 8 13 3 14 4 15 5 16 7 17 6 18 2 19 1 20 12 21 13 22 14 23
REMARK SMILES IDX 15 24 24 25 25 26 26 27 27 29 28 30 29 31 90 32 30 33 89 34
REMARK SMILES IDX 31 35 32 36 33 37 83 38 34 39 88 40 82 41 84 42 35 43 87 44
REMARK SMILES IDX 81 45 80 46 36 48 68 49 48 50 67 51 49 52 52 53 66 54 85 55
REMARK SMILES IDX 50 56 51 57 65 59 86 60 53 61 37 62 38 63 46 64 39 65 40 66
REMARK SMILES IDX 44 67 47 68 41 69 42 70 45 71 43 72 69 73 70 74 78 75 71 76
REMARK SMILES IDX 72 77 76 78 79 79 73 80 74 81 77 82 75 83 54 84 55 85 63 86
REMARK SMILES IDX 56 87 57 88 61 89 64 90 58 91 59 92 62 93 60 94
REMARK H PARENT 21 6 25 28 84 47 52 58
REMARK Flexibility Score: inf
ROOT
ATOM      1  C   UNL A   1      42.190  22.124  25.761  1.00  0.00     0.042 C 
ENDROOT
BRANCH   1   2
ATOM      2  C   UNL A   1      43.017  23.273  26.334  1.00  0.00     0.118 C 
BRANCH   2   3
ATOM      3  N   UNL A   1      44.186  23.536  25.521  1.00  0.00    -0.352 N 
ATOM      4  C   UNL A   1      44.874  24.638  25.086  1.00  0.00     0.255 C 
ATOM      5  O   UNL A   1      45.837  24.335  24.379  1.00  0.00    -0.269 OA
ATOM      6  H   UNL A   1      44.595  22.701  25.195  1.00  0.00     0.163 HD
BRANCH   4   7
ATOM      7  C   UNL A   1      44.558  26.070  25.437  1.00  0.00     0.082 A 
ATOM      8  C   UNL A   1      45.429  26.799  26.277  1.00  0.00     0.142 A 
ATOM      9  N   UNL A   1      45.085  28.005  26.806  1.00  0.00    -0.226 NA
ATOM     10  C   UNL A   1      43.906  28.584  26.459  1.00  0.00     0.146 A 
ATOM     11  C   UNL A   1      43.408  26.737  25.009  1.00  0.00     0.020 A 
ATOM     12  C   UNL A   1      43.072  27.990  25.524  1.00  0.00     0.034 A 
BRANCH   8  13
ATOM     13  N   UNL A   1      46.696  26.369  26.584  1.00  0.00    -0.348 N 
ATOM     14  C   UNL A   1      47.915  26.918  25.945  1.00  0.00     0.109 C 
ATOM     15  C   UNL A   1      48.992  25.796  25.985  1.00  0.00     0.185 C 
ATOM     16  O   UNL A   1      49.244  25.353  27.332  1.00  0.00    -0.377 OA
ATOM     17  C   UNL A   1      46.921  25.886  27.950  1.00  0.00     0.147 C 
ATOM     18  C   UNL A   1      48.037  24.830  27.917  1.00  0.00     0.181 C 
BRANCH  14  19
ATOM     19  C   UNL A   1      47.763  27.435  24.502  1.00  0.00     0.024 C 
ATOM     20  C   UNL A   1      48.591  26.662  23.481  1.00  0.00     0.006 C 
ENDBRANCH  14  19
ENDBRANCH   8  13
BRANCH  10  21
ATOM     21  C   UNL A   1      43.519  29.912  27.094  1.00  0.00     0.433 C 
ATOM     22  F   UNL A   1      44.184  30.168  28.257  1.00  0.00    -0.165 F 
ATOM     23  F   UNL A   1      43.744  30.983  26.281  1.00  0.00    -0.165 F 
ATOM     24  F   UNL A   1      42.190  29.980  27.419  1.00  0.00    -0.165 F 
ENDBRANCH  10  21
ENDBRANCH   4   7
ENDBRANCH   2   3
ENDBRANCH   1   2
BRANCH   1  25
ATOM     25  C   UNL A   1      40.950  21.790  26.596  1.00  0.00     0.118 C 
BRANCH  25  26
ATOM     26  N   UNL A   1      39.714  22.125  25.901  1.00  0.00    -0.352 N 
ATOM     27  C   UNL A   1      38.836  23.161  26.079  1.00  0.00     0.251 C 
ATOM     28  H   UNL A   1      39.469  21.501  25.179  1.00  0.00     0.163 HD
ATOM     29  O   UNL A   1      37.722  23.098  25.571  1.00  0.00    -0.269 OA
BRANCH  27  30
ATOM     30  C   UNL A   1      39.212  24.358  26.863  1.00  0.00     0.039 A 
ATOM     31  C   UNL A   1      39.958  25.361  26.237  1.00  0.00     0.014 A 
ATOM     32  C   UNL A   1      38.924  24.454  28.228  1.00  0.00     0.014 A 
ATOM     33  C   UNL A   1      40.381  26.476  26.965  1.00  0.00     0.010 A 
ATOM     34  C   UNL A   1      39.295  25.593  28.941  1.00  0.00     0.010 A 
ATOM     35  C   UNL A   1      40.035  26.610  28.320  1.00  0.00    -0.014 A 
BRANCH  35  36
ATOM     36  C   UNL A   1      40.459  27.797  29.103  1.00  0.00     0.031 A 
ATOM     37  C   UNL A   1      41.838  27.854  29.702  1.00  0.00     0.074 A 
ATOM     38  C   UNL A   1      39.586  28.800  29.315  1.00  0.00     0.049 A 
ATOM     39  N   UNL A   1      42.364  28.763  30.484  1.00  0.00    -0.248 NA
ATOM     40  C   UNL A   1      42.736  26.730  29.398  1.00  0.00     0.031 C 
ATOM     41  C   UNL A   1      38.214  28.847  28.811  1.00  0.00     0.029 A 
ATOM     42  N   UNL A   1      39.722  29.970  30.020  1.00  0.00    -0.354 N 
ATOM     43  C   UNL A   1      43.648  28.318  30.770  1.00  0.00     0.074 A 
ATOM     44  C   UNL A   1      43.806  27.035  30.119  1.00  0.00     0.031 C 
ATOM     45  C   UNL A   1      37.638  29.992  29.209  1.00  0.00     0.029 A 
ATOM     46  C   UNL A   1      38.587  30.744  30.024  1.00  0.00     0.049 A 
ATOM     47  H   UNL A   1      40.554  30.230  30.478  1.00  0.00     0.167 HD
ATOM     48  C   UNL A   1      44.615  28.934  31.491  1.00  0.00     0.037 A 
ATOM     49  C   UNL A   1      38.341  31.922  30.627  1.00  0.00     0.037 A 
ATOM     50  C   UNL A   1      44.463  30.218  32.123  1.00  0.00     0.049 A 
ATOM     51  C   UNL A   1      39.430  32.579  31.430  1.00  0.00     0.074 A 
ATOM     52  C   UNL A   1      45.389  30.934  32.862  1.00  0.00     0.029 A 
ATOM     53  N   UNL A   1      43.306  30.983  32.082  1.00  0.00    -0.354 N 
ATOM     54  N   UNL A   1      40.651  32.163  31.664  1.00  0.00    -0.248 NA
ATOM     55  C   UNL A   1      39.108  33.873  32.048  1.00  0.00     0.031 C 
ATOM     56  C   UNL A   1      44.784  32.122  33.289  1.00  0.00     0.029 A 
ATOM     57  C   UNL A   1      43.495  32.161  32.785  1.00  0.00     0.049 A 
ATOM     58  H   UNL A   1      42.475  30.727  31.621  1.00  0.00     0.167 HD
ATOM     59  C   UNL A   1      41.252  33.155  32.426  1.00  0.00     0.074 A 
ATOM     60  C   UNL A   1      40.265  34.200  32.607  1.00  0.00     0.031 C 
ATOM     61  C   UNL A   1      42.506  33.197  32.934  1.00  0.00     0.037 A 
BRANCH  48  62
ATOM     62  C   UNL A   1      45.934  28.231  31.625  1.00  0.00     0.064 A 
ATOM     63  C   UNL A   1      46.175  27.326  32.670  1.00  0.00     0.173 A 
ATOM     64  C   UNL A   1      46.950  28.427  30.679  1.00  0.00     0.173 A 
ATOM     65  F   UNL A   1      45.238  27.113  33.607  1.00  0.00    -0.203 F 
ATOM     66  C   UNL A   1      47.394  26.661  32.776  1.00  0.00     0.198 A 
ATOM     67  C   UNL A   1      48.158  27.740  30.773  1.00  0.00     0.198 A 
ATOM     68  F   UNL A   1      46.769  29.277  29.657  1.00  0.00    -0.203 F 
ATOM     69  F   UNL A   1      47.614  25.831  33.805  1.00  0.00    -0.200 F 
ATOM     70  C   UNL A   1      48.381  26.862  31.823  1.00  0.00     0.200 A 
ATOM     71  F   UNL A   1      49.108  27.926  29.846  1.00  0.00    -0.200 F 
ATOM     72  F   UNL A   1      49.551  26.215  31.922  1.00  0.00    -0.200 F 
ENDBRANCH  48  62
BRANCH  49  73
ATOM     73  C   UNL A   1      37.013  32.572  30.477  1.00  0.00     0.064 A 
ATOM     74  C   UNL A   1      36.028  32.427  31.464  1.00  0.00     0.173 A 
ATOM     75  C   UNL A   1      36.696  33.333  29.343  1.00  0.00     0.173 A 
ATOM     76  F   UNL A   1      36.279  31.692  32.557  1.00  0.00    -0.203 F 
ATOM     77  C   UNL A   1      34.767  32.998  31.311  1.00  0.00     0.198 A 
ATOM     78  C   UNL A   1      35.443  33.926  29.204  1.00  0.00     0.198 A 
ATOM     79  F   UNL A   1      37.605  33.506  28.373  1.00  0.00    -0.203 F 
ATOM     80  F   UNL A   1      33.828  32.803  32.246  1.00  0.00    -0.200 F 
ATOM     81  C   UNL A   1      34.476  33.750  30.183  1.00  0.00     0.200 A 
ATOM     82  F   UNL A   1      35.170  34.663  28.119  1.00  0.00    -0.200 F 
ATOM     83  F   UNL A   1      33.262  34.298  30.035  1.00  0.00    -0.200 F 
ENDBRANCH  49  73
BRANCH  61  84
ATOM     84  C   UNL A   1      42.897  34.430  33.693  1.00  0.00     0.064 A 
ATOM     85  C   UNL A   1      43.329  35.591  33.037  1.00  0.00     0.173 A 
ATOM     86  C   UNL A   1      42.806  34.459  35.093  1.00  0.00     0.173 A 
ATOM     87  F   UNL A   1      43.448  35.606  31.701  1.00  0.00    -0.203 F 
ATOM     88  C   UNL A   1      43.678  36.731  33.757  1.00  0.00     0.198 A 
ATOM     89  C   UNL A   1      43.131  35.608  35.807  1.00  0.00     0.198 A 
ATOM     90  F   UNL A   1      42.393  33.374  35.766  1.00  0.00    -0.203 F 
ATOM     91  F   UNL A   1      44.130  37.815  33.112  1.00  0.00    -0.200 F 
ATOM     92  C   UNL A   1      43.573  36.740  35.140  1.00  0.00     0.200 A 
ATOM     93  F   UNL A   1      43.020  35.618  37.143  1.00  0.00    -0.200 F 
ATOM     94  F   UNL A   1      43.907  37.839  35.830  1.00  0.00    -0.200 F 
ENDBRANCH  61  84
ENDBRANCH  35  36
ENDBRANCH  27  30
ENDBRANCH  25  26
ENDBRANCH   1  25
TORSDOF 13
ENDMDL
MODEL 3
REMARK VINA RESULT:     -11.9      4.232      6.935
REMARK SMILES CC[C@@H]1COCCN1c1nc(C(F)(F)F)ccc1C(=O)NCCCNC(=O)c1ccc(-c2c3nc(c(-c4c(F)c(F)c(F)c(F)c4F)c4ccc([nH]4)c(-c4c(F)c(F)c(F)c(F)c4F)c4nc(c(-c5c(F)c(F)c(F)c(F)c5F)c5ccc2[nH]5)C=C4)C=C3)cc1
REMARK SMILES IDX 23 1 22 2 21 3 19 4 20 5 18 7 9 8 10 9 11 10 17 11 16 12
REMARK SMILES IDX 8 13 3 14 4 15 5 16 7 17 6 18 2 19 1 20 12 21 13 22 14 23
REMARK SMILES IDX 15 24 24 25 25 26 26 27 27 29 28 30 29 31 90 32 30 33 89 34
REMARK SMILES IDX 31 35 32 36 33 37 83 38 34 39 88 40 82 41 84 42 35 43 87 44
REMARK SMILES IDX 81 45 80 46 36 48 68 49 48 50 67 51 49 52 52 53 66 54 85 55
REMARK SMILES IDX 50 56 51 57 65 59 86 60 53 61 37 62 38 63 46 64 39 65 40 66
REMARK SMILES IDX 44 67 47 68 41 69 42 70 45 71 43 72 69 73 70 74 78 75 71 76
REMARK SMILES IDX 72 77 76 78 79 79 73 80 74 81 77 82 75 83 54 84 55 85 63 86
REMARK SMILES IDX 56 87 57 88 61 89 64 90 58 91 59 92 62 93 60 94
REMARK H PARENT 21 6 25 28 84 47 52 58
REMARK Flexibility Score: inf
ROOT
ATOM      1  C   UNL A   1      32.841  27.817  23.643  1.00  0.00     0.042 C 
ENDROOT
BRANCH   1   2
ATOM      2  C   UNL A   1      33.612  26.979  22.625  1.00  0.00     0.118 C 
BRANCH   2   3
ATOM      3  N   UNL A   1      33.050  25.650  22.504  1.00  0.00    -0.352 N 
ATOM      4  C   UNL A   1      33.392  24.382  22.892  1.00  0.00     0.255 C 
ATOM      5  O   UNL A   1      32.561  23.545  22.531  1.00  0.00    -0.269 OA
ATOM      6  H   UNL A   1      32.197  25.662  22.013  1.00  0.00     0.163 HD
BRANCH   4   7
ATOM      7  C   UNL A   1      34.604  24.005  23.705  1.00  0.00     0.082 A 
ATOM      8  C   UNL A   1      34.551  24.054  25.116  1.00  0.00     0.142 A 
ATOM      9  N   UNL A   1      35.668  23.946  25.888  1.00  0.00    -0.226 NA
ATOM     10  C   UNL A   1      36.870  23.696  25.307  1.00  0.00     0.146 A 
ATOM     11  C   UNL A   1      35.829  23.636  23.145  1.00  0.00     0.020 A 
ATOM     12  C   UNL A   1      36.968  23.490  23.939  1.00  0.00     0.034 A 
BRANCH   8  13
ATOM     13  N   UNL A   1      33.372  24.169  25.810  1.00  0.00    -0.348 N 
ATOM     14  C   UNL A   1      32.804  23.072  26.629  1.00  0.00     0.109 C 
ATOM     15  C   UNL A   1      31.262  23.277  26.656  1.00  0.00     0.185 C 
ATOM     16  O   UNL A   1      30.911  24.574  27.175  1.00  0.00    -0.377 OA
ATOM     17  C   UNL A   1      33.015  25.504  26.298  1.00  0.00     0.147 C 
ATOM     18  C   UNL A   1      31.483  25.610  26.356  1.00  0.00     0.181 C 
BRANCH  14  19
ATOM     19  C   UNL A   1      33.123  21.635  26.173  1.00  0.00     0.024 C 
ATOM     20  C   UNL A   1      32.184  21.108  25.094  1.00  0.00     0.006 C 
ENDBRANCH  14  19
ENDBRANCH   8  13
BRANCH  10  21
ATOM     21  C   UNL A   1      38.113  23.622  26.182  1.00  0.00     0.433 C 
ATOM     22  F   UNL A   1      39.097  24.484  25.796  1.00  0.00    -0.165 F 
ATOM     23  F   UNL A   1      37.863  23.889  27.495  1.00  0.00    -0.165 F 
ATOM     24  F   UNL A   1      38.698  22.384  26.172  1.00  0.00    -0.165 F 
ENDBRANCH  10  21
ENDBRANCH   4   7
ENDBRANCH   2   3
ENDBRANCH   1   2
BRANCH   1  25
ATOM     25  C   UNL A   1      33.746  28.641  24.565  1.00  0.00     0.118 C 
BRANCH  25  26
ATOM     26  N   UNL A   1      33.048  29.784  25.138  1.00  0.00    -0.352 N 
ATOM     27  C   UNL A   1      33.198  30.415  26.344  1.00  0.00     0.251 C 
ATOM     28  H   UNL A   1      32.350  30.169  24.560  1.00  0.00     0.163 HD
ATOM     29  O   UNL A   1      32.322  31.179  26.735  1.00  0.00    -0.269 OA
BRANCH  27  30
ATOM     30  C   UNL A   1      34.401  30.200  27.177  1.00  0.00     0.039 A 
ATOM     31  C   UNL A   1      35.332  31.239  27.290  1.00  0.00     0.014 A 
ATOM     32  C   UNL A   1      34.669  28.959  27.763  1.00  0.00     0.014 A 
ATOM     33  C   UNL A   1      36.508  31.048  28.020  1.00  0.00     0.010 A 
ATOM     34  C   UNL A   1      35.815  28.787  28.539  1.00  0.00     0.010 A 
ATOM     35  C   UNL A   1      36.749  29.825  28.666  1.00  0.00    -0.014 A 
BRANCH  35  36
ATOM     36  C   UNL A   1      37.984  29.611  29.462  1.00  0.00     0.031 A 
ATOM     37  C   UNL A   1      39.049  28.672  28.966  1.00  0.00     0.074 A 
ATOM     38  C   UNL A   1      38.124  30.226  30.652  1.00  0.00     0.049 A 
ATOM     39  N   UNL A   1      40.156  28.290  29.553  1.00  0.00    -0.248 NA
ATOM     40  C   UNL A   1      38.830  28.064  27.644  1.00  0.00     0.031 C 
ATOM     41  C   UNL A   1      37.149  31.137  31.251  1.00  0.00     0.029 A 
ATOM     42  N   UNL A   1      39.138  30.169  31.574  1.00  0.00    -0.354 N 
ATOM     43  C   UNL A   1      40.759  27.396  28.678  1.00  0.00     0.074 A 
ATOM     44  C   UNL A   1      39.873  27.253  27.542  1.00  0.00     0.031 C 
ATOM     45  C   UNL A   1      37.618  31.565  32.434  1.00  0.00     0.029 A 
ATOM     46  C   UNL A   1      38.908  30.934  32.692  1.00  0.00     0.049 A 
ATOM     47  H   UNL A   1      39.953  29.632  31.447  1.00  0.00     0.167 HD
ATOM     48  C   UNL A   1      41.953  26.769  28.800  1.00  0.00     0.037 A 
ATOM     49  C   UNL A   1      39.652  31.098  33.801  1.00  0.00     0.037 A 
ATOM     50  C   UNL A   1      42.842  26.927  29.921  1.00  0.00     0.049 A 
ATOM     51  C   UNL A   1      40.970  30.381  33.915  1.00  0.00     0.074 A 
ATOM     52  C   UNL A   1      44.081  26.348  30.131  1.00  0.00     0.029 A 
ATOM     53  N   UNL A   1      42.584  27.731  31.022  1.00  0.00    -0.354 N 
ATOM     54  N   UNL A   1      41.544  29.565  33.065  1.00  0.00    -0.248 NA
ATOM     55  C   UNL A   1      41.747  30.614  35.141  1.00  0.00     0.031 C 
ATOM     56  C   UNL A   1      44.564  26.783  31.371  1.00  0.00     0.029 A 
ATOM     57  C   UNL A   1      43.641  27.661  31.915  1.00  0.00     0.049 A 
ATOM     58  H   UNL A   1      41.772  28.273  31.149  1.00  0.00     0.167 HD
ATOM     59  C   UNL A   1      42.759  29.214  33.636  1.00  0.00     0.074 A 
ATOM     60  C   UNL A   1      42.846  29.914  34.900  1.00  0.00     0.031 C 
ATOM     61  C   UNL A   1      43.717  28.383  33.158  1.00  0.00     0.037 A 
BRANCH  48  62
ATOM     62  C   UNL A   1      42.378  25.862  27.682  1.00  0.00     0.064 A 
ATOM     63  C   UNL A   1      41.831  24.578  27.539  1.00  0.00     0.173 A 
ATOM     64  C   UNL A   1      43.304  26.293  26.721  1.00  0.00     0.173 A 
ATOM     65  F   UNL A   1      40.950  24.115  28.439  1.00  0.00    -0.203 F 
ATOM     66  C   UNL A   1      42.214  23.750  26.487  1.00  0.00     0.198 A 
ATOM     67  C   UNL A   1      43.664  25.472  25.656  1.00  0.00     0.198 A 
ATOM     68  F   UNL A   1      43.852  27.515  26.809  1.00  0.00    -0.203 F 
ATOM     69  F   UNL A   1      41.708  22.512  26.393  1.00  0.00    -0.200 F 
ATOM     70  C   UNL A   1      43.124  24.200  25.542  1.00  0.00     0.200 A 
ATOM     71  F   UNL A   1      44.535  25.912  24.736  1.00  0.00    -0.200 F 
ATOM     72  F   UNL A   1      43.485  23.405  24.525  1.00  0.00    -0.200 F 
ENDBRANCH  48  62
BRANCH  49  73
ATOM     73  C   UNL A   1      39.181  31.996  34.888  1.00  0.00     0.064 A 
ATOM     74  C   UNL A   1      38.482  31.483  35.989  1.00  0.00     0.173 A 
ATOM     75  C   UNL A   1      39.405  33.378  34.841  1.00  0.00     0.173 A 
ATOM     76  F   UNL A   1      38.228  30.169  36.068  1.00  0.00    -0.203 F 
ATOM     77  C   UNL A   1      38.001  32.323  36.991  1.00  0.00     0.198 A 
ATOM     78  C   UNL A   1      38.946  34.215  35.856  1.00  0.00     0.198 A 
ATOM     79  F   UNL A   1      40.074  33.917  33.811  1.00  0.00    -0.203 F 
ATOM     80  F   UNL A   1      37.293  31.814  38.007  1.00  0.00    -0.200 F 
ATOM     81  C   UNL A   1      38.237  33.688  36.925  1.00  0.00     0.200 A 
ATOM     82  F   UNL A   1      39.188  35.532  35.797  1.00  0.00    -0.200 F 
ATOM     83  F   UNL A   1      37.773  34.497  37.888  1.00  0.00    -0.200 F 
ENDBRANCH  49  73
BRANCH  61  84
ATOM     84  C   UNL A   1      44.958  28.223  33.983  1.00  0.00     0.064 A 
ATOM     85  C   UNL A   1      46.061  29.074  33.825  1.00  0.00     0.173 A 
ATOM     86  C   UNL A   1      45.031  27.226  34.967  1.00  0.00     0.173 A 
ATOM     87  F   UNL A   1      46.045  30.032  32.885  1.00  0.00    -0.203 F 
ATOM     88  C   UNL A   1      47.202  28.917  34.607  1.00  0.00     0.198 A 
ATOM     89  C   UNL A   1      46.163  27.088  35.764  1.00  0.00     0.198 A 
ATOM     90  F   UNL A   1      43.999  26.390  35.160  1.00  0.00    -0.203 F 
ATOM     91  F   UNL A   1      48.262  29.714  34.409  1.00  0.00    -0.200 F 
ATOM     92  C   UNL A   1      47.250  27.930  35.579  1.00  0.00     0.200 A 
ATOM     93  F   UNL A   1      46.204  26.140  36.710  1.00  0.00    -0.200 F 
ATOM     94  F   UNL A   1      48.348  27.783  36.333  1.00  0.00    -0.200 F 
ENDBRANCH  61  84
ENDBRANCH  35  36
ENDBRANCH  27  30
ENDBRANCH  25  26
ENDBRANCH   1  25
TORSDOF 13
ENDMDL
