MODEL 1
REMARK VINA RESULT:     -12.4      0.000      0.000
REMARK SMILES CC(C)c1noc(C[N@H+]2CCCC[C@H]2C(=O)NCCCNC(=O)c2ccc(-c3c4nc(c(-c5c(F)c(F)c(F)c(F)c5F)c5ccc([nH]5)c(-c5c(F)c(F)c(F)c(F)c5F)c5nc(c(-c6c(F)c(F)c(F)c(F)c6F)c6ccc3[nH]6)C=C5)C=C4)cc2)n1
REMARK SMILES IDX 18 1 17 2 15 3 16 4 14 6 9 7 10 8 11 10 13 11 12 12 8 13
REMARK SMILES IDX 7 14 4 15 5 16 87 17 6 18 2 19 1 20 3 21 19 22 20 23 21 24
REMARK SMILES IDX 22 25 23 27 24 28 25 29 86 30 26 31 85 32 27 33 28 34 29 35
REMARK SMILES IDX 79 36 30 37 84 38 78 39 80 40 31 41 83 42 77 43 76 44 32 46
REMARK SMILES IDX 64 47 44 48 63 49 45 50 48 51 62 52 81 53 46 54 47 55 61 57
REMARK SMILES IDX 82 58 49 59 33 60 34 61 42 62 35 63 36 64 40 65 43 66 37 67
REMARK SMILES IDX 38 68 41 69 39 70 65 71 66 72 74 73 67 74 68 75 72 76 75 77
REMARK SMILES IDX 69 78 70 79 73 80 71 81 50 82 51 83 59 84 52 85 53 86 57 87
REMARK SMILES IDX 60 88 54 89 55 90 58 91 56 92
REMARK H PARENT 17 5 9 9 21 26 80 45 48 56
REMARK Flexibility Score: inf
ROOT
ATOM      1  C   UNL A   1      31.459  30.322  26.284  1.00  0.00     0.118 C 
ENDROOT
BRANCH   1   2
ATOM      2  N   UNL A   1      32.445  30.036  25.266  1.00  0.00    -0.351 N 
ATOM      3  C   UNL A   1      32.908  28.825  24.848  1.00  0.00     0.278 C 
ATOM      4  O   UNL A   1      34.078  28.784  24.466  1.00  0.00    -0.268 OA
ATOM      5  H   UNL A   1      32.835  30.820  24.816  1.00  0.00     0.163 HD
BRANCH   3   6
ATOM      6  C   UNL A   1      31.941  27.614  24.836  1.00  0.00     0.274 C 
ATOM      7  N   UNL A   1      32.013  26.798  23.596  1.00  0.00    -0.317 N 
ATOM      8  C   UNL A   1      33.295  26.116  23.405  1.00  0.00     0.263 C 
ATOM      9  H   UNL A   1      31.335  26.056  23.766  1.00  0.00     0.349 HD
ATOM     10  C   UNL A   1      33.653  25.249  24.618  1.00  0.00     0.062 C 
ATOM     11  C   UNL A   1      32.197  26.719  26.052  1.00  0.00     0.076 C 
ATOM     12  C   UNL A   1      33.532  25.988  25.947  1.00  0.00     0.012 C 
BRANCH   7  13
ATOM     13  C   UNL A   1      31.509  27.463  22.376  1.00  0.00     0.364 C 
BRANCH  13  14
ATOM     14  C   UNL A   1      30.193  28.158  22.453  1.00  0.00     0.281 A 
ATOM     15  C   UNL A   1      28.526  29.423  22.472  1.00  0.00     0.174 A 
ATOM     16  N   UNL A   1      28.100  28.344  23.147  1.00  0.00    -0.062 NA
ATOM     17  N   UNL A   1      29.814  29.333  22.000  1.00  0.00    -0.191 NA
ATOM     18  O   UNL A   1      29.199  27.489  23.110  1.00  0.00    -0.333 OA
BRANCH  15  19
ATOM     19  C   UNL A   1      27.653  30.620  22.263  1.00  0.00     0.055 C 
ATOM     20  C   UNL A   1      27.654  31.567  23.466  1.00  0.00     0.016 C 
ATOM     21  C   UNL A   1      28.057  31.391  21.002  1.00  0.00     0.016 C 
ENDBRANCH  15  19
ENDBRANCH  13  14
ENDBRANCH   7  13
ENDBRANCH   3   6
ENDBRANCH   1   2
BRANCH   1  22
ATOM     22  C   UNL A   1      31.345  31.832  26.500  1.00  0.00     0.042 C 
BRANCH  22  23
ATOM     23  C   UNL A   1      32.632  32.502  26.982  1.00  0.00     0.118 C 
BRANCH  23  24
ATOM     24  N   UNL A   1      32.429  33.872  27.430  1.00  0.00    -0.352 N 
ATOM     25  C   UNL A   1      33.070  34.575  28.418  1.00  0.00     0.251 C 
ATOM     26  H   UNL A   1      31.726  34.367  26.953  1.00  0.00     0.163 HD
ATOM     27  O   UNL A   1      32.647  35.681  28.750  1.00  0.00    -0.269 OA
BRANCH  25  28
ATOM     28  C   UNL A   1      34.244  34.003  29.111  1.00  0.00     0.039 A 
ATOM     29  C   UNL A   1      34.028  33.181  30.220  1.00  0.00     0.014 A 
ATOM     30  C   UNL A   1      35.548  34.281  28.692  1.00  0.00     0.014 A 
ATOM     31  C   UNL A   1      35.114  32.583  30.865  1.00  0.00     0.010 A 
ATOM     32  C   UNL A   1      36.625  33.628  29.291  1.00  0.00     0.010 A 
ATOM     33  C   UNL A   1      36.420  32.768  30.381  1.00  0.00    -0.014 A 
BRANCH  33  34
ATOM     34  C   UNL A   1      37.568  32.048  30.993  1.00  0.00     0.031 A 
ATOM     35  C   UNL A   1      38.053  32.408  32.370  1.00  0.00     0.074 A 
ATOM     36  C   UNL A   1      38.205  31.093  30.285  1.00  0.00     0.049 A 
ATOM     37  N   UNL A   1      39.064  31.920  33.046  1.00  0.00    -0.248 NA
ATOM     38  C   UNL A   1      37.319  33.469  33.077  1.00  0.00     0.031 C 
ATOM     39  C   UNL A   1      37.860  30.679  28.924  1.00  0.00     0.029 A 
ATOM     40  N   UNL A   1      39.281  30.303  30.608  1.00  0.00    -0.354 N 
ATOM     41  C   UNL A   1      39.087  32.613  34.249  1.00  0.00     0.074 A 
ATOM     42  C   UNL A   1      38.026  33.595  34.191  1.00  0.00     0.031 C 
ATOM     43  C   UNL A   1      38.688  29.695  28.539  1.00  0.00     0.029 A 
ATOM     44  C   UNL A   1      39.652  29.440  29.605  1.00  0.00     0.049 A 
ATOM     45  H   UNL A   1      39.742  30.348  31.476  1.00  0.00     0.167 HD
ATOM     46  C   UNL A   1      39.903  32.430  35.316  1.00  0.00     0.037 A 
ATOM     47  C   UNL A   1      40.663  28.551  29.545  1.00  0.00     0.037 A 
ATOM     48  C   UNL A   1      40.952  31.444  35.378  1.00  0.00     0.049 A 
ATOM     49  C   UNL A   1      41.575  28.396  30.734  1.00  0.00     0.074 A 
ATOM     50  C   UNL A   1      41.803  31.157  36.431  1.00  0.00     0.029 A 
ATOM     51  N   UNL A   1      41.296  30.588  34.343  1.00  0.00    -0.354 N 
ATOM     52  N   UNL A   1      41.541  29.010  31.891  1.00  0.00    -0.248 NA
ATOM     53  C   UNL A   1      42.662  27.415  30.609  1.00  0.00     0.031 C 
ATOM     54  C   UNL A   1      42.697  30.165  36.015  1.00  0.00     0.029 A 
ATOM     55  C   UNL A   1      42.363  29.789  34.725  1.00  0.00     0.049 A 
ATOM     56  H   UNL A   1      40.849  30.552  33.467  1.00  0.00     0.167 HD
ATOM     57  C   UNL A   1      42.577  28.467  32.641  1.00  0.00     0.074 A 
ATOM     58  C   UNL A   1      43.206  27.458  31.816  1.00  0.00     0.031 C 
ATOM     59  C   UNL A   1      42.972  28.778  33.899  1.00  0.00     0.037 A 
BRANCH  46  60
ATOM     60  C   UNL A   1      39.693  33.307  36.517  1.00  0.00     0.064 A 
ATOM     61  C   UNL A   1      40.344  34.543  36.646  1.00  0.00     0.173 A 
ATOM     62  C   UNL A   1      38.778  32.942  37.517  1.00  0.00     0.173 A 
ATOM     63  F   UNL A   1      41.234  34.938  35.722  1.00  0.00    -0.203 F 
ATOM     64  C   UNL A   1      40.103  35.371  37.739  1.00  0.00     0.198 A 
ATOM     65  C   UNL A   1      38.518  33.786  38.594  1.00  0.00     0.198 A 
ATOM     66  F   UNL A   1      38.122  31.775  37.440  1.00  0.00    -0.203 F 
ATOM     67  F   UNL A   1      40.767  36.529  37.860  1.00  0.00    -0.200 F 
ATOM     68  C   UNL A   1      39.183  34.997  38.707  1.00  0.00     0.200 A 
ATOM     69  F   UNL A   1      37.615  33.430  39.518  1.00  0.00    -0.200 F 
ATOM     70  F   UNL A   1      38.941  35.802  39.751  1.00  0.00    -0.200 F 
ENDBRANCH  46  60
BRANCH  47  71
ATOM     71  C   UNL A   1      40.874  27.732  28.321  1.00  0.00     0.064 A 
ATOM     72  C   UNL A   1      40.300  26.458  28.197  1.00  0.00     0.173 A 
ATOM     73  C   UNL A   1      41.685  28.184  27.269  1.00  0.00     0.173 A 
ATOM     74  F   UNL A   1      39.532  25.970  29.183  1.00  0.00    -0.203 F 
ATOM     75  C   UNL A   1      40.561  25.654  27.089  1.00  0.00     0.198 A 
ATOM     76  C   UNL A   1      41.916  27.394  26.145  1.00  0.00     0.198 A 
ATOM     77  F   UNL A   1      42.254  29.397  27.333  1.00  0.00    -0.203 F 
ATOM     78  F   UNL A   1      40.056  24.414  27.030  1.00  0.00    -0.200 F 
ATOM     79  C   UNL A   1      41.365  26.124  26.062  1.00  0.00     0.200 A 
ATOM     80  F   UNL A   1      42.681  27.859  25.148  1.00  0.00    -0.200 F 
ATOM     81  F   UNL A   1      41.621  25.349  24.999  1.00  0.00    -0.200 F 
ENDBRANCH  47  71
BRANCH  59  82
ATOM     82  C   UNL A   1      44.110  27.986  34.481  1.00  0.00     0.064 A 
ATOM     83  C   UNL A   1      45.440  28.422  34.385  1.00  0.00     0.173 A 
ATOM     84  C   UNL A   1      43.861  26.788  35.168  1.00  0.00     0.173 A 
ATOM     85  F   UNL A   1      45.734  29.553  33.725  1.00  0.00    -0.203 F 
ATOM     86  C   UNL A   1      46.481  27.669  34.924  1.00  0.00     0.198 A 
ATOM     87  C   UNL A   1      44.900  26.057  35.737  1.00  0.00     0.198 A 
ATOM     88  F   UNL A   1      42.607  26.329  35.297  1.00  0.00    -0.203 F 
ATOM     89  F   UNL A   1      47.748  28.075  34.767  1.00  0.00    -0.200 F 
ATOM     90  C   UNL A   1      46.210  26.493  35.605  1.00  0.00     0.200 A 
ATOM     91  F   UNL A   1      44.634  24.929  36.410  1.00  0.00    -0.200 F 
ATOM     92  F   UNL A   1      47.213  25.773  36.128  1.00  0.00    -0.200 F 
ENDBRANCH  59  82
ENDBRANCH  33  34
ENDBRANCH  25  28
ENDBRANCH  23  24
ENDBRANCH  22  23
ENDBRANCH   1  22
TORSDOF 13
ENDMDL
MODEL 2
REMARK VINA RESULT:     -12.3      6.067     10.236
REMARK SMILES CC(C)c1noc(C[N@H+]2CCCC[C@H]2C(=O)NCCCNC(=O)c2ccc(-c3c4nc(c(-c5c(F)c(F)c(F)c(F)c5F)c5ccc([nH]5)c(-c5c(F)c(F)c(F)c(F)c5F)c5nc(c(-c6c(F)c(F)c(F)c(F)c6F)c6ccc3[nH]6)C=C5)C=C4)cc2)n1
REMARK SMILES IDX 18 1 17 2 15 3 16 4 14 6 9 7 10 8 11 10 13 11 12 12 8 13
REMARK SMILES IDX 7 14 4 15 5 16 87 17 6 18 2 19 1 20 3 21 19 22 20 23 21 24
REMARK SMILES IDX 22 25 23 27 24 28 25 29 86 30 26 31 85 32 27 33 28 34 29 35
REMARK SMILES IDX 79 36 30 37 84 38 78 39 80 40 31 41 83 42 77 43 76 44 32 46
REMARK SMILES IDX 64 47 44 48 63 49 45 50 48 51 62 52 81 53 46 54 47 55 61 57
REMARK SMILES IDX 82 58 49 59 33 60 34 61 42 62 35 63 36 64 40 65 43 66 37 67
REMARK SMILES IDX 38 68 41 69 39 70 65 71 66 72 74 73 67 74 68 75 72 76 75 77
REMARK SMILES IDX 69 78 70 79 73 80 71 81 50 82 51 83 59 84 52 85 53 86 57 87
REMARK SMILES IDX 60 88 54 89 55 90 58 91 56 92
REMARK H PARENT 17 5 9 9 21 26 80 45 48 56
REMARK Flexibility Score: inf
ROOT
ATOM      1  C   UNL A   1      36.819  20.842  24.692  1.00  0.00     0.118 C 
ENDROOT
BRANCH   1   2
ATOM      2  N   UNL A   1      35.956  21.061  25.832  1.00  0.00    -0.351 N 
ATOM      3  C   UNL A   1      34.999  22.016  26.003  1.00  0.00     0.278 C 
ATOM      4  O   UNL A   1      34.818  22.415  27.153  1.00  0.00    -0.268 OA
ATOM      5  H   UNL A   1      36.077  20.438  26.585  1.00  0.00     0.163 HD
BRANCH   3   6
ATOM      6  C   UNL A   1      34.185  22.492  24.773  1.00  0.00     0.274 C 
ATOM      7  N   UNL A   1      32.771  22.832  25.082  1.00  0.00    -0.317 N 
ATOM      8  C   UNL A   1      32.616  23.988  25.967  1.00  0.00     0.263 C 
ATOM      9  H   UNL A   1      32.402  23.131  24.180  1.00  0.00     0.349 HD
ATOM     10  C   UNL A   1      33.336  25.221  25.407  1.00  0.00     0.062 C 
ATOM     11  C   UNL A   1      34.869  23.695  24.118  1.00  0.00     0.076 C 
ATOM     12  C   UNL A   1      34.778  24.943  24.991  1.00  0.00     0.012 C 
BRANCH   7  13
ATOM     13  C   UNL A   1      31.914  21.685  25.451  1.00  0.00     0.364 C 
BRANCH  13  14
ATOM     14  C   UNL A   1      32.151  20.386  24.759  1.00  0.00     0.281 A 
ATOM     15  C   UNL A   1      32.600  18.452  24.102  1.00  0.00     0.174 A 
ATOM     16  N   UNL A   1      32.481  19.144  22.959  1.00  0.00    -0.062 NA
ATOM     17  N   UNL A   1      32.375  19.184  25.243  1.00  0.00    -0.191 NA
ATOM     18  O   UNL A   1      32.153  20.425  23.393  1.00  0.00    -0.333 OA
BRANCH  15  19
ATOM     19  C   UNL A   1      32.955  16.998  24.112  1.00  0.00     0.055 C 
ATOM     20  C   UNL A   1      34.080  16.659  23.132  1.00  0.00     0.016 C 
ATOM     21  C   UNL A   1      33.340  16.529  25.519  1.00  0.00     0.016 C 
ENDBRANCH  15  19
ENDBRANCH  13  14
ENDBRANCH   7  13
ENDBRANCH   3   6
ENDBRANCH   1   2
BRANCH   1  22
ATOM     22  C   UNL A   1      37.834  19.742  25.001  1.00  0.00     0.042 C 
BRANCH  22  23
ATOM     23  C   UNL A   1      39.078  20.220  25.752  1.00  0.00     0.118 C 
BRANCH  23  24
ATOM     24  N   UNL A   1      40.090  19.186  25.897  1.00  0.00    -0.352 N 
ATOM     25  C   UNL A   1      41.438  19.303  26.124  1.00  0.00     0.251 C 
ATOM     26  H   UNL A   1      39.759  18.263  25.820  1.00  0.00     0.163 HD
ATOM     27  O   UNL A   1      42.156  18.306  26.063  1.00  0.00    -0.269 OA
BRANCH  25  28
ATOM     28  C   UNL A   1      42.043  20.622  26.408  1.00  0.00     0.039 A 
ATOM     29  C   UNL A   1      42.399  21.438  25.331  1.00  0.00     0.014 A 
ATOM     30  C   UNL A   1      42.277  21.053  27.717  1.00  0.00     0.014 A 
ATOM     31  C   UNL A   1      42.925  22.711  25.566  1.00  0.00     0.010 A 
ATOM     32  C   UNL A   1      42.734  22.350  27.951  1.00  0.00     0.010 A 
ATOM     33  C   UNL A   1      43.058  23.195  26.879  1.00  0.00    -0.014 A 
BRANCH  33  34
ATOM     34  C   UNL A   1      43.513  24.588  27.134  1.00  0.00     0.031 A 
ATOM     35  C   UNL A   1      42.553  25.627  27.645  1.00  0.00     0.074 A 
ATOM     36  C   UNL A   1      44.790  24.928  26.863  1.00  0.00     0.049 A 
ATOM     37  N   UNL A   1      42.760  26.898  27.885  1.00  0.00    -0.248 NA
ATOM     38  C   UNL A   1      41.174  25.187  27.905  1.00  0.00     0.031 C 
ATOM     39  C   UNL A   1      45.808  24.025  26.325  1.00  0.00     0.029 A 
ATOM     40  N   UNL A   1      45.447  26.127  26.995  1.00  0.00    -0.354 N 
ATOM     41  C   UNL A   1      41.543  27.406  28.319  1.00  0.00     0.074 A 
ATOM     42  C   UNL A   1      40.587  26.322  28.256  1.00  0.00     0.031 C 
ATOM     43  C   UNL A   1      46.966  24.692  26.198  1.00  0.00     0.029 A 
ATOM     44  C   UNL A   1      46.763  26.081  26.599  1.00  0.00     0.049 A 
ATOM     45  H   UNL A   1      45.017  26.942  27.340  1.00  0.00     0.167 HD
ATOM     46  C   UNL A   1      41.254  28.657  28.753  1.00  0.00     0.037 A 
ATOM     47  C   UNL A   1      47.697  27.050  26.553  1.00  0.00     0.037 A 
ATOM     48  C   UNL A   1      42.209  29.734  28.826  1.00  0.00     0.049 A 
ATOM     49  C   UNL A   1      47.336  28.439  27.011  1.00  0.00     0.074 A 
ATOM     50  C   UNL A   1      42.019  31.024  29.291  1.00  0.00     0.029 A 
ATOM     51  N   UNL A   1      43.531  29.648  28.418  1.00  0.00    -0.354 N 
ATOM     52  N   UNL A   1      46.198  28.888  27.484  1.00  0.00    -0.248 NA
ATOM     53  C   UNL A   1      48.393  29.457  26.934  1.00  0.00     0.031 C 
ATOM     54  C   UNL A   1      43.211  31.733  29.115  1.00  0.00     0.029 A 
ATOM     55  C   UNL A   1      44.162  30.869  28.598  1.00  0.00     0.049 A 
ATOM     56  H   UNL A   1      43.959  28.839  28.055  1.00  0.00     0.167 HD
ATOM     57  C   UNL A   1      46.414  30.225  27.792  1.00  0.00     0.074 A 
ATOM     58  C   UNL A   1      47.796  30.509  27.473  1.00  0.00     0.031 C 
ATOM     59  C   UNL A   1      45.544  31.136  28.291  1.00  0.00     0.037 A 
BRANCH  46  60
ATOM     60  C   UNL A   1      39.846  28.936  29.197  1.00  0.00     0.064 A 
ATOM     61  C   UNL A   1      38.874  29.409  28.303  1.00  0.00     0.173 A 
ATOM     62  C   UNL A   1      39.446  28.663  30.514  1.00  0.00     0.173 A 
ATOM     63  F   UNL A   1      39.206  29.694  27.034  1.00  0.00    -0.203 F 
ATOM     64  C   UNL A   1      37.560  29.617  28.714  1.00  0.00     0.198 A 
ATOM     65  C   UNL A   1      38.124  28.844  30.914  1.00  0.00     0.198 A 
ATOM     66  F   UNL A   1      40.332  28.202  31.409  1.00  0.00    -0.203 F 
ATOM     67  F   UNL A   1      36.660  30.107  27.852  1.00  0.00    -0.200 F 
ATOM     68  C   UNL A   1      37.184  29.325  30.016  1.00  0.00     0.200 A 
ATOM     69  F   UNL A   1      37.758  28.544  32.168  1.00  0.00    -0.200 F 
ATOM     70  F   UNL A   1      35.915  29.510  30.407  1.00  0.00    -0.200 F 
ENDBRANCH  46  60
BRANCH  47  71
ATOM     71  C   UNL A   1      49.069  26.751  26.062  1.00  0.00     0.064 A 
ATOM     72  C   UNL A   1      50.057  26.265  26.929  1.00  0.00     0.173 A 
ATOM     73  C   UNL A   1      49.434  26.985  24.727  1.00  0.00     0.173 A 
ATOM     74  F   UNL A   1      49.766  26.044  28.220  1.00  0.00    -0.203 F 
ATOM     75  C   UNL A   1      51.365  26.061  26.492  1.00  0.00     0.198 A 
ATOM     76  C   UNL A   1      50.732  26.746  24.282  1.00  0.00     0.198 A 
ATOM     77  F   UNL A   1      48.526  27.445  23.853  1.00  0.00    -0.203 F 
ATOM     78  F   UNL A   1      52.304  25.663  27.360  1.00  0.00    -0.200 F 
ATOM     79  C   UNL A   1      51.700  26.298  25.168  1.00  0.00     0.200 A 
ATOM     80  F   UNL A   1      51.048  26.962  22.998  1.00  0.00    -0.200 F 
ATOM     81  F   UNL A   1      52.958  26.108  24.748  1.00  0.00    -0.200 F 
ENDBRANCH  47  71
BRANCH  59  82
ATOM     82  C   UNL A   1      46.073  32.515  28.571  1.00  0.00     0.064 A 
ATOM     83  C   UNL A   1      46.655  32.849  29.803  1.00  0.00     0.173 A 
ATOM     84  C   UNL A   1      46.019  33.509  27.581  1.00  0.00     0.173 A 
ATOM     85  F   UNL A   1      46.717  31.941  30.789  1.00  0.00    -0.203 F 
ATOM     86  C   UNL A   1      47.131  34.135  30.045  1.00  0.00     0.198 A 
ATOM     87  C   UNL A   1      46.528  34.783  27.814  1.00  0.00     0.198 A 
ATOM     88  F   UNL A   1      45.480  33.241  26.382  1.00  0.00    -0.203 F 
ATOM     89  F   UNL A   1      47.628  34.447  31.249  1.00  0.00    -0.200 F 
ATOM     90  C   UNL A   1      47.075  35.098  29.048  1.00  0.00     0.200 A 
ATOM     91  F   UNL A   1      46.488  35.707  26.844  1.00  0.00    -0.200 F 
ATOM     92  F   UNL A   1      47.539  36.334  29.282  1.00  0.00    -0.200 F 
ENDBRANCH  59  82
ENDBRANCH  33  34
ENDBRANCH  25  28
ENDBRANCH  23  24
ENDBRANCH  22  23
ENDBRANCH   1  22
TORSDOF 13
ENDMDL
MODEL 3
REMARK VINA RESULT:     -12.3      5.845     11.307
REMARK SMILES CC(C)c1noc(C[N@H+]2CCCC[C@H]2C(=O)NCCCNC(=O)c2ccc(-c3c4nc(c(-c5c(F)c(F)c(F)c(F)c5F)c5ccc([nH]5)c(-c5c(F)c(F)c(F)c(F)c5F)c5nc(c(-c6c(F)c(F)c(F)c(F)c6F)c6ccc3[nH]6)C=C5)C=C4)cc2)n1
REMARK SMILES IDX 18 1 17 2 15 3 16 4 14 6 9 7 10 8 11 10 13 11 12 12 8 13
REMARK SMILES IDX 7 14 4 15 5 16 87 17 6 18 2 19 1 20 3 21 19 22 20 23 21 24
REMARK SMILES IDX 22 25 23 27 24 28 25 29 86 30 26 31 85 32 27 33 28 34 29 35
REMARK SMILES IDX 79 36 30 37 84 38 78 39 80 40 31 41 83 42 77 43 76 44 32 46
REMARK SMILES IDX 64 47 44 48 63 49 45 50 48 51 62 52 81 53 46 54 47 55 61 57
REMARK SMILES IDX 82 58 49 59 33 60 34 61 42 62 35 63 36 64 40 65 43 66 37 67
REMARK SMILES IDX 38 68 41 69 39 70 65 71 66 72 74 73 67 74 68 75 72 76 75 77
REMARK SMILES IDX 69 78 70 79 73 80 71 81 50 82 51 83 59 84 52 85 53 86 57 87
REMARK SMILES IDX 60 88 54 89 55 90 58 91 56 92
REMARK H PARENT 17 5 9 9 21 26 80 45 48 56
REMARK Flexibility Score: inf
ROOT
ATOM      1  C   UNL A   1      36.553  20.328  25.010  1.00  0.00     0.118 C 
ENDROOT
BRANCH   1   2
ATOM      2  N   UNL A   1      36.511  21.482  25.881  1.00  0.00    -0.351 N 
ATOM      3  C   UNL A   1      35.950  22.701  25.650  1.00  0.00     0.278 C 
ATOM      4  O   UNL A   1      36.497  23.669  26.178  1.00  0.00    -0.268 OA
ATOM      5  H   UNL A   1      36.948  21.372  26.757  1.00  0.00     0.163 HD
BRANCH   3   6
ATOM      6  C   UNL A   1      34.659  22.784  24.795  1.00  0.00     0.274 C 
ATOM      7  N   UNL A   1      33.406  22.706  25.589  1.00  0.00    -0.317 N 
ATOM      8  C   UNL A   1      33.199  23.840  26.492  1.00  0.00     0.263 C 
ATOM      9  H   UNL A   1      32.677  22.789  24.880  1.00  0.00     0.349 HD
ATOM     10  C   UNL A   1      33.252  25.173  25.735  1.00  0.00     0.062 C 
ATOM     11  C   UNL A   1      34.657  24.070  23.961  1.00  0.00     0.076 C 
ATOM     12  C   UNL A   1      34.475  25.309  24.833  1.00  0.00     0.012 C 
BRANCH   7  13
ATOM     13  C   UNL A   1      33.139  21.394  26.216  1.00  0.00     0.364 C 
BRANCH  13  14
ATOM     14  C   UNL A   1      32.920  20.224  25.319  1.00  0.00     0.281 A 
ATOM     15  C   UNL A   1      32.827  18.409  24.282  1.00  0.00     0.174 A 
ATOM     16  N   UNL A   1      32.364  19.297  23.389  1.00  0.00    -0.062 NA
ATOM     17  N   UNL A   1      33.157  18.944  25.505  1.00  0.00    -0.191 NA
ATOM     18  O   UNL A   1      32.398  20.501  24.087  1.00  0.00    -0.333 OA
BRANCH  15  19
ATOM     19  C   UNL A   1      32.968  16.956  23.953  1.00  0.00     0.055 C 
ATOM     20  C   UNL A   1      34.164  16.672  23.040  1.00  0.00     0.016 C 
ATOM     21  C   UNL A   1      33.077  16.105  25.222  1.00  0.00     0.016 C 
ENDBRANCH  15  19
ENDBRANCH  13  14
ENDBRANCH   7  13
ENDBRANCH   3   6
ENDBRANCH   1   2
BRANCH   1  22
ATOM     22  C   UNL A   1      38.002  19.943  24.710  1.00  0.00     0.042 C 
BRANCH  22  23
ATOM     23  C   UNL A   1      38.975  20.191  25.864  1.00  0.00     0.118 C 
BRANCH  23  24
ATOM     24  N   UNL A   1      40.054  19.217  25.920  1.00  0.00    -0.352 N 
ATOM     25  C   UNL A   1      41.399  19.408  26.106  1.00  0.00     0.251 C 
ATOM     26  H   UNL A   1      39.777  18.280  25.807  1.00  0.00     0.163 HD
ATOM     27  O   UNL A   1      42.174  18.462  25.969  1.00  0.00    -0.269 OA
BRANCH  25  28
ATOM     28  C   UNL A   1      41.932  20.747  26.438  1.00  0.00     0.039 A 
ATOM     29  C   UNL A   1      42.169  21.647  25.395  1.00  0.00     0.014 A 
ATOM     30  C   UNL A   1      42.216  21.116  27.755  1.00  0.00     0.014 A 
ATOM     31  C   UNL A   1      42.622  22.937  25.680  1.00  0.00     0.010 A 
ATOM     32  C   UNL A   1      42.600  22.425  28.044  1.00  0.00     0.010 A 
ATOM     33  C   UNL A   1      42.803  23.352  27.010  1.00  0.00    -0.014 A 
BRANCH  33  34
ATOM     34  C   UNL A   1      43.179  24.755  27.326  1.00  0.00     0.031 A 
ATOM     35  C   UNL A   1      44.584  25.242  27.101  1.00  0.00     0.074 A 
ATOM     36  C   UNL A   1      42.258  25.584  27.860  1.00  0.00     0.049 A 
ATOM     37  N   UNL A   1      45.104  26.417  27.357  1.00  0.00    -0.248 NA
ATOM     38  C   UNL A   1      45.538  24.279  26.530  1.00  0.00     0.031 C 
ATOM     39  C   UNL A   1      40.873  25.223  28.165  1.00  0.00     0.029 A 
ATOM     40  N   UNL A   1      42.350  26.898  28.247  1.00  0.00    -0.354 N 
ATOM     41  C   UNL A   1      46.439  26.332  26.983  1.00  0.00     0.074 A 
ATOM     42  C   UNL A   1      46.666  24.976  26.534  1.00  0.00     0.031 C 
ATOM     43  C   UNL A   1      40.239  26.294  28.667  1.00  0.00     0.029 A 
ATOM     44  C   UNL A   1      41.181  27.405  28.763  1.00  0.00     0.049 A 
ATOM     45  H   UNL A   1      43.175  27.429  28.162  1.00  0.00     0.167 HD
ATOM     46  C   UNL A   1      47.383  27.304  26.989  1.00  0.00     0.037 A 
ATOM     47  C   UNL A   1      40.902  28.622  29.268  1.00  0.00     0.037 A 
ATOM     48  C   UNL A   1      47.154  28.659  27.425  1.00  0.00     0.049 A 
ATOM     49  C   UNL A   1      41.983  29.671  29.293  1.00  0.00     0.074 A 
ATOM     50  C   UNL A   1      48.038  29.723  27.429  1.00  0.00     0.029 A 
ATOM     51  N   UNL A   1      45.957  29.133  27.939  1.00  0.00    -0.354 N 
ATOM     52  N   UNL A   1      43.222  29.596  28.871  1.00  0.00    -0.248 NA
ATOM     53  C   UNL A   1      41.622  30.978  29.859  1.00  0.00     0.031 C 
ATOM     54  C   UNL A   1      47.393  30.828  27.995  1.00  0.00     0.029 A 
ATOM     55  C   UNL A   1      46.087  30.469  28.286  1.00  0.00     0.049 A 
ATOM     56  H   UNL A   1      45.135  28.600  28.042  1.00  0.00     0.167 HD
ATOM     57  C   UNL A   1      43.775  30.851  29.088  1.00  0.00     0.074 A 
ATOM     58  C   UNL A   1      42.731  31.675  29.659  1.00  0.00     0.031 C 
ATOM     59  C   UNL A   1      45.035  31.283  28.840  1.00  0.00     0.037 A 
BRANCH  46  60
ATOM     60  C   UNL A   1      48.757  26.948  26.499  1.00  0.00     0.064 A 
ATOM     61  C   UNL A   1      49.724  26.401  27.356  1.00  0.00     0.173 A 
ATOM     62  C   UNL A   1      49.091  27.090  25.143  1.00  0.00     0.173 A 
ATOM     63  F   UNL A   1      49.459  26.251  28.664  1.00  0.00    -0.203 F 
ATOM     64  C   UNL A   1      50.978  26.028  26.881  1.00  0.00     0.198 A 
ATOM     65  C   UNL A   1      50.336  26.688  24.665  1.00  0.00     0.198 A 
ATOM     66  F   UNL A   1      48.203  27.600  24.277  1.00  0.00    -0.203 F 
ATOM     67  F   UNL A   1      51.898  25.545  27.727  1.00  0.00    -0.200 F 
ATOM     68  C   UNL A   1      51.280  26.162  25.534  1.00  0.00     0.200 A 
ATOM     69  F   UNL A   1      50.619  26.802  23.360  1.00  0.00    -0.200 F 
ATOM     70  F   UNL A   1      52.482  25.788  25.074  1.00  0.00    -0.200 F 
ENDBRANCH  46  60
BRANCH  47  71
ATOM     71  C   UNL A   1      39.543  28.927  29.791  1.00  0.00     0.064 A 
ATOM     72  C   UNL A   1      38.570  29.518  28.972  1.00  0.00     0.173 A 
ATOM     73  C   UNL A   1      39.200  28.674  31.128  1.00  0.00     0.173 A 
ATOM     74  F   UNL A   1      38.854  29.799  27.691  1.00  0.00    -0.203 F 
ATOM     75  C   UNL A   1      37.324  29.881  29.479  1.00  0.00     0.198 A 
ATOM     76  C   UNL A   1      37.941  29.003  31.624  1.00  0.00     0.198 A 
ATOM     77  F   UNL A   1      40.091  28.105  31.953  1.00  0.00    -0.203 F 
ATOM     78  F   UNL A   1      36.440  30.508  28.691  1.00  0.00    -0.200 F 
ATOM     79  C   UNL A   1      37.009  29.620  30.803  1.00  0.00     0.200 A 
ATOM     80  F   UNL A   1      37.635  28.735  32.901  1.00  0.00    -0.200 F 
ATOM     81  F   UNL A   1      35.813  29.973  31.292  1.00  0.00    -0.200 F 
ENDBRANCH  47  71
BRANCH  59  82
ATOM     82  C   UNL A   1      45.345  32.723  29.139  1.00  0.00     0.064 A 
ATOM     83  C   UNL A   1      45.874  33.125  30.374  1.00  0.00     0.173 A 
ATOM     84  C   UNL A   1      45.131  33.710  28.164  1.00  0.00     0.173 A 
ATOM     85  F   UNL A   1      46.083  32.224  31.345  1.00  0.00    -0.203 F 
ATOM     86  C   UNL A   1      46.146  34.467  30.633  1.00  0.00     0.198 A 
ATOM     87  C   UNL A   1      45.437  35.045  28.415  1.00  0.00     0.198 A 
ATOM     88  F   UNL A   1      44.633  33.380  26.964  1.00  0.00    -0.203 F 
ATOM     89  F   UNL A   1      46.596  34.835  31.841  1.00  0.00    -0.200 F 
ATOM     90  C   UNL A   1      45.935  35.423  29.652  1.00  0.00     0.200 A 
ATOM     91  F   UNL A   1      45.248  35.965  27.459  1.00  0.00    -0.200 F 
ATOM     92  F   UNL A   1      46.203  36.713  29.903  1.00  0.00    -0.200 F 
ENDBRANCH  59  82
ENDBRANCH  33  34
ENDBRANCH  25  28
ENDBRANCH  23  24
ENDBRANCH  22  23
ENDBRANCH   1  22
TORSDOF 13
ENDMDL
