MODEL 1
REMARK VINA RESULT:     -15.1      0.000      0.000
REMARK SMILES COc1cc([C@@H]2CC(=O)Nc3c(C(=O)NCCCNC(=O)c4ccc(-c5c6nc(c(-c7c(F)c(F)c(F)c(F)c7F)c7ccc([nH]7)c(-c7c(F)c(F)c(F)c(F)c7F)c7nc(c(-c8c(F)c(F)c(F)c(F)c8F)c8ccc5[nH]8)C=C7)C=C6)cc4)cn(-c4ccc(F)cc4)c32)c(OC)c2c1OCO2
REMARK SMILES IDX 17 1 16 2 15 3 13 4 14 5 12 7 6 8 7 9 94 10 8 11 11 12 86 13
REMARK SMILES IDX 9 14 10 15 85 16 5 18 3 19 4 20 99 21 98 22 100 23 95 24
REMARK SMILES IDX 102 25 101 26 2 27 1 28 96 29 97 30 87 31 88 32 93 33 89 34
REMARK SMILES IDX 92 35 90 36 91 37 18 38 19 39 20 40 21 42 22 43 23 44 84 45
REMARK SMILES IDX 24 46 83 47 25 48 26 49 27 50 77 51 28 52 82 53 76 54 78 55
REMARK SMILES IDX 29 56 81 57 75 58 74 59 30 61 62 62 42 63 61 64 43 65 46 66
REMARK SMILES IDX 60 67 79 68 44 69 45 70 59 72 80 73 47 74 31 75 32 76 40 77
REMARK SMILES IDX 33 78 34 79 38 80 41 81 35 82 36 83 39 84 37 85 63 86 64 87
REMARK SMILES IDX 72 88 65 89 66 90 70 91 73 92 67 93 68 94 71 95 69 96 48 97
REMARK SMILES IDX 49 98 57 99 50 100 51 101 55 102 58 103 52 104 53 105 56 106
REMARK SMILES IDX 54 107
REMARK H PARENT 15 6 10 17 19 41 78 60 46 71
REMARK Flexibility Score: inf
ROOT
ATOM      1  C   UNL A   1      37.784  22.317  25.014  1.00  0.00     0.042 C 
ENDROOT
BRANCH   1   2
ATOM      2  C   UNL A   1      36.689  23.391  24.875  1.00  0.00     0.118 C 
BRANCH   2   3
ATOM      3  N   UNL A   1      35.426  22.948  25.425  1.00  0.00    -0.352 N 
ATOM      4  C   UNL A   1      34.195  23.540  25.554  1.00  0.00     0.254 C 
ATOM      5  O   UNL A   1      33.314  22.802  26.006  1.00  0.00    -0.269 OA
ATOM      6  H   UNL A   1      35.456  22.031  25.782  1.00  0.00     0.163 HD
BRANCH   4   7
ATOM      7  C   UNL A   1      33.878  24.922  25.163  1.00  0.00     0.081 A 
ATOM      8  C   UNL A   1      32.817  27.942  23.243  1.00  0.00     0.082 C 
ATOM      9  C   UNL A   1      33.378  27.569  21.866  1.00  0.00     0.115 C 
ATOM     10  C   UNL A   1      33.253  26.931  24.266  1.00  0.00     0.055 A 
ATOM     11  C   UNL A   1      33.262  26.094  21.594  1.00  0.00     0.225 C 
ATOM     12  C   UNL A   1      33.563  25.624  23.965  1.00  0.00     0.076 A 
ATOM     13  N   UNL A   1      33.498  27.131  25.601  1.00  0.00    -0.317 N 
ATOM     14  O   UNL A   1      33.108  25.634  20.463  1.00  0.00    -0.275 OA
ATOM     15  N   UNL A   1      33.467  25.254  22.650  1.00  0.00    -0.324 N 
ATOM     16  C   UNL A   1      33.926  25.935  26.127  1.00  0.00     0.107 A 
ATOM     17  H   UNL A   1      33.554  24.294  22.448  1.00  0.00     0.170 HD
BRANCH   8  18
ATOM     18  C   UNL A   1      31.304  28.177  23.171  1.00  0.00     0.012 A 
ATOM     19  C   UNL A   1      29.567  29.790  22.542  1.00  0.00     0.165 A 
ATOM     20  C   UNL A   1      30.902  29.404  22.584  1.00  0.00     0.059 A 
ATOM     21  C   UNL A   1      28.622  28.897  23.001  1.00  0.00     0.211 A 
ATOM     22  C   UNL A   1      28.981  27.675  23.530  1.00  0.00     0.211 A 
ATOM     23  O   UNL A   1      27.271  29.081  22.988  1.00  0.00    -0.449 OA
ATOM     24  C   UNL A   1      30.310  27.280  23.640  1.00  0.00     0.168 A 
ATOM     25  O   UNL A   1      27.883  26.964  23.921  1.00  0.00    -0.449 OA
ATOM     26  C   UNL A   1      26.813  27.817  23.490  1.00  0.00     0.468 C 
BRANCH  19  27
ATOM     27  O   UNL A   1      29.302  31.019  22.014  1.00  0.00    -0.493 OA
ATOM     28  C   UNL A   1      28.876  31.953  23.004  1.00  0.00     0.278 C 
ENDBRANCH  19  27
BRANCH  24  29
ATOM     29  O   UNL A   1      30.734  26.102  24.177  1.00  0.00    -0.492 OA
ATOM     30  C   UNL A   1      30.222  25.678  25.433  1.00  0.00     0.278 C 
ENDBRANCH  24  29
ENDBRANCH   8  18
BRANCH  13  31
ATOM     31  C   UNL A   1      33.429  28.357  26.296  1.00  0.00     0.046 A 
ATOM     32  C   UNL A   1      32.200  29.012  26.421  1.00  0.00     0.029 A 
ATOM     33  C   UNL A   1      34.605  28.946  26.771  1.00  0.00     0.029 A 
ATOM     34  C   UNL A   1      32.154  30.303  26.939  1.00  0.00     0.041 A 
ATOM     35  C   UNL A   1      34.551  30.242  27.285  1.00  0.00     0.041 A 
ATOM     36  C   UNL A   1      33.332  30.914  27.347  1.00  0.00     0.123 A 
ATOM     37  F   UNL A   1      33.294  32.171  27.807  1.00  0.00    -0.207 F 
ENDBRANCH  13  31
ENDBRANCH   4   7
ENDBRANCH   2   3
ENDBRANCH   1   2
BRANCH   1  38
ATOM     38  C   UNL A   1      38.548  22.393  26.307  1.00  0.00     0.118 C 
BRANCH  38  39
ATOM     39  N   UNL A   1      39.970  22.103  26.083  1.00  0.00    -0.352 N 
ATOM     40  C   UNL A   1      41.050  22.956  26.225  1.00  0.00     0.251 C 
ATOM     41  H   UNL A   1      40.182  21.185  25.797  1.00  0.00     0.163 HD
ATOM     42  O   UNL A   1      42.117  22.739  25.693  1.00  0.00    -0.269 OA
BRANCH  40  43
ATOM     43  C   UNL A   1      40.837  24.150  27.052  1.00  0.00     0.039 A 
ATOM     44  C   UNL A   1      41.582  24.381  28.207  1.00  0.00     0.014 A 
ATOM     45  C   UNL A   1      39.979  25.110  26.530  1.00  0.00     0.014 A 
ATOM     46  C   UNL A   1      41.518  25.643  28.782  1.00  0.00     0.010 A 
ATOM     47  C   UNL A   1      40.125  26.401  26.941  1.00  0.00     0.010 A 
ATOM     48  C   UNL A   1      40.810  26.660  28.117  1.00  0.00    -0.014 A 
BRANCH  48  49
ATOM     49  C   UNL A   1      40.835  28.035  28.587  1.00  0.00     0.031 A 
ATOM     50  C   UNL A   1      41.948  28.843  28.031  1.00  0.00     0.074 A 
ATOM     51  C   UNL A   1      39.826  28.576  29.305  1.00  0.00     0.049 A 
ATOM     52  N   UNL A   1      43.024  29.208  28.643  1.00  0.00    -0.248 NA
ATOM     53  C   UNL A   1      41.955  29.144  26.590  1.00  0.00     0.031 C 
ATOM     54  C   UNL A   1      38.511  27.989  29.608  1.00  0.00     0.029 A 
ATOM     55  N   UNL A   1      39.724  29.821  29.847  1.00  0.00    -0.354 N 
ATOM     56  C   UNL A   1      43.718  30.007  27.739  1.00  0.00     0.074 A 
ATOM     57  C   UNL A   1      43.140  29.747  26.449  1.00  0.00     0.031 C 
ATOM     58  C   UNL A   1      37.670  28.947  30.047  1.00  0.00     0.029 A 
ATOM     59  C   UNL A   1      38.441  30.152  30.270  1.00  0.00     0.049 A 
ATOM     60  H   UNL A   1      40.490  30.434  29.933  1.00  0.00     0.167 HD
ATOM     61  C   UNL A   1      44.475  31.043  28.198  1.00  0.00     0.037 A 
ATOM     62  C   UNL A   1      38.041  31.334  30.790  1.00  0.00     0.037 A 
ATOM     63  C   UNL A   1      44.630  30.947  29.629  1.00  0.00     0.049 A 
ATOM     64  C   UNL A   1      39.245  32.008  31.322  1.00  0.00     0.074 A 
ATOM     65  C   UNL A   1      45.388  30.211  30.512  1.00  0.00     0.029 A 
ATOM     66  N   UNL A   1      43.564  31.451  30.325  1.00  0.00    -0.354 N 
ATOM     67  N   UNL A   1      39.939  31.545  32.327  1.00  0.00    -0.248 NA
ATOM     68  C   UNL A   1      39.916  33.013  30.506  1.00  0.00     0.031 C 
ATOM     69  C   UNL A   1      44.656  30.180  31.737  1.00  0.00     0.029 A 
ATOM     70  C   UNL A   1      43.494  30.934  31.590  1.00  0.00     0.049 A 
ATOM     71  H   UNL A   1      42.925  32.105  29.960  1.00  0.00     0.167 HD
ATOM     72  C   UNL A   1      41.243  31.873  32.018  1.00  0.00     0.074 A 
ATOM     73  C   UNL A   1      41.153  32.915  31.003  1.00  0.00     0.031 C 
ATOM     74  C   UNL A   1      42.271  31.041  32.352  1.00  0.00     0.037 A 
BRANCH  61  75
ATOM     75  C   UNL A   1      44.643  32.387  27.513  1.00  0.00     0.064 A 
ATOM     76  C   UNL A   1      45.812  32.617  26.754  1.00  0.00     0.173 A 
ATOM     77  C   UNL A   1      43.891  33.540  27.822  1.00  0.00     0.173 A 
ATOM     78  F   UNL A   1      46.616  31.600  26.410  1.00  0.00    -0.203 F 
ATOM     79  C   UNL A   1      46.230  33.906  26.406  1.00  0.00     0.198 A 
ATOM     80  C   UNL A   1      44.287  34.820  27.431  1.00  0.00     0.198 A 
ATOM     81  F   UNL A   1      42.811  33.501  28.609  1.00  0.00    -0.203 F 
ATOM     82  F   UNL A   1      47.408  34.081  25.792  1.00  0.00    -0.200 F 
ATOM     83  C   UNL A   1      45.470  35.007  26.751  1.00  0.00     0.200 A 
ATOM     84  F   UNL A   1      43.547  35.877  27.795  1.00  0.00    -0.200 F 
ATOM     85  F   UNL A   1      45.896  36.246  26.472  1.00  0.00    -0.200 F 
ENDBRANCH  61  75
BRANCH  62  86
ATOM     86  C   UNL A   1      36.744  32.021  30.619  1.00  0.00     0.064 A 
ATOM     87  C   UNL A   1      35.825  32.106  31.676  1.00  0.00     0.173 A 
ATOM     88  C   UNL A   1      36.516  32.863  29.514  1.00  0.00     0.173 A 
ATOM     89  F   UNL A   1      35.994  31.356  32.775  1.00  0.00    -0.203 F 
ATOM     90  C   UNL A   1      34.766  33.017  31.651  1.00  0.00     0.198 A 
ATOM     91  C   UNL A   1      35.457  33.772  29.490  1.00  0.00     0.198 A 
ATOM     92  F   UNL A   1      37.376  32.891  28.485  1.00  0.00    -0.203 F 
ATOM     93  F   UNL A   1      33.950  33.122  32.709  1.00  0.00    -0.200 F 
ATOM     94  C   UNL A   1      34.593  33.862  30.566  1.00  0.00     0.200 A 
ATOM     95  F   UNL A   1      35.323  34.609  28.451  1.00  0.00    -0.200 F 
ATOM     96  F   UNL A   1      33.625  34.788  30.576  1.00  0.00    -0.200 F 
ENDBRANCH  62  86
BRANCH  74  97
ATOM     97  C   UNL A   1      42.052  30.087  33.484  1.00  0.00     0.064 A 
ATOM     98  C   UNL A   1      41.646  28.750  33.339  1.00  0.00     0.173 A 
ATOM     99  C   UNL A   1      42.343  30.539  34.778  1.00  0.00     0.173 A 
ATOM    100  F   UNL A   1      41.418  28.225  32.129  1.00  0.00    -0.203 F 
ATOM    101  C   UNL A   1      41.508  27.916  34.449  1.00  0.00     0.198 A 
ATOM    102  C   UNL A   1      42.239  29.696  35.879  1.00  0.00     0.198 A 
ATOM    103  F   UNL A   1      42.769  31.797  34.968  1.00  0.00    -0.203 F 
ATOM    104  F   UNL A   1      41.104  26.647  34.292  1.00  0.00    -0.200 F 
ATOM    105  C   UNL A   1      41.811  28.389  35.716  1.00  0.00     0.200 A 
ATOM    106  F   UNL A   1      42.572  30.149  37.095  1.00  0.00    -0.200 F 
ATOM    107  F   UNL A   1      41.710  27.580  36.780  1.00  0.00    -0.200 F 
ENDBRANCH  74  97
ENDBRANCH  48  49
ENDBRANCH  40  43
ENDBRANCH  38  39
ENDBRANCH   1  38
TORSDOF 14
ENDMDL
MODEL 2
REMARK VINA RESULT:     -14.5      3.493      9.173
REMARK SMILES COc1cc([C@@H]2CC(=O)Nc3c(C(=O)NCCCNC(=O)c4ccc(-c5c6nc(c(-c7c(F)c(F)c(F)c(F)c7F)c7ccc([nH]7)c(-c7c(F)c(F)c(F)c(F)c7F)c7nc(c(-c8c(F)c(F)c(F)c(F)c8F)c8ccc5[nH]8)C=C7)C=C6)cc4)cn(-c4ccc(F)cc4)c32)c(OC)c2c1OCO2
REMARK SMILES IDX 17 1 16 2 15 3 13 4 14 5 12 7 6 8 7 9 94 10 8 11 11 12 86 13
REMARK SMILES IDX 9 14 10 15 85 16 5 18 3 19 4 20 99 21 98 22 100 23 95 24
REMARK SMILES IDX 102 25 101 26 2 27 1 28 96 29 97 30 87 31 88 32 93 33 89 34
REMARK SMILES IDX 92 35 90 36 91 37 18 38 19 39 20 40 21 42 22 43 23 44 84 45
REMARK SMILES IDX 24 46 83 47 25 48 26 49 27 50 77 51 28 52 82 53 76 54 78 55
REMARK SMILES IDX 29 56 81 57 75 58 74 59 30 61 62 62 42 63 61 64 43 65 46 66
REMARK SMILES IDX 60 67 79 68 44 69 45 70 59 72 80 73 47 74 31 75 32 76 40 77
REMARK SMILES IDX 33 78 34 79 38 80 41 81 35 82 36 83 39 84 37 85 63 86 64 87
REMARK SMILES IDX 72 88 65 89 66 90 70 91 73 92 67 93 68 94 71 95 69 96 48 97
REMARK SMILES IDX 49 98 57 99 50 100 51 101 55 102 58 103 52 104 53 105 56 106
REMARK SMILES IDX 54 107
REMARK H PARENT 15 6 10 17 19 41 78 60 46 71
REMARK Flexibility Score: inf
ROOT
ATOM      1  C   UNL A   1      33.179  30.033  27.290  1.00  0.00     0.042 C 
ENDROOT
BRANCH   1   2
ATOM      2  C   UNL A   1      33.536  28.601  26.850  1.00  0.00     0.118 C 
BRANCH   2   3
ATOM      3  N   UNL A   1      33.235  28.375  25.453  1.00  0.00    -0.352 N 
ATOM      4  C   UNL A   1      33.211  27.253  24.664  1.00  0.00     0.254 C 
ATOM      5  O   UNL A   1      32.811  27.443  23.511  1.00  0.00    -0.269 OA
ATOM      6  H   UNL A   1      32.997  29.198  24.967  1.00  0.00     0.163 HD
BRANCH   4   7
ATOM      7  C   UNL A   1      33.577  25.900  25.109  1.00  0.00     0.081 A 
ATOM      8  C   UNL A   1      33.440  22.386  26.361  1.00  0.00     0.082 C 
ATOM      9  C   UNL A   1      32.316  22.536  27.393  1.00  0.00     0.115 C 
ATOM     10  C   UNL A   1      33.806  23.733  25.803  1.00  0.00     0.055 A 
ATOM     11  C   UNL A   1      31.255  23.497  26.931  1.00  0.00     0.225 C 
ATOM     12  C   UNL A   1      32.937  24.798  25.745  1.00  0.00     0.076 A 
ATOM     13  N   UNL A   1      35.032  24.157  25.357  1.00  0.00    -0.317 N 
ATOM     14  O   UNL A   1      30.071  23.387  27.249  1.00  0.00    -0.275 OA
ATOM     15  N   UNL A   1      31.676  24.594  26.237  1.00  0.00    -0.324 N 
ATOM     16  C   UNL A   1      34.906  25.477  24.991  1.00  0.00     0.107 A 
ATOM     17  H   UNL A   1      31.012  25.303  26.075  1.00  0.00     0.170 HD
BRANCH   8  18
ATOM     18  C   UNL A   1      33.082  21.328  25.311  1.00  0.00     0.012 A 
ATOM     19  C   UNL A   1      33.065  18.923  24.834  1.00  0.00     0.165 A 
ATOM     20  C   UNL A   1      33.260  19.980  25.716  1.00  0.00     0.059 A 
ATOM     21  C   UNL A   1      32.595  19.213  23.571  1.00  0.00     0.211 A 
ATOM     22  C   UNL A   1      32.364  20.513  23.168  1.00  0.00     0.211 A 
ATOM     23  O   UNL A   1      32.298  18.307  22.597  1.00  0.00    -0.449 OA
ATOM     24  C   UNL A   1      32.602  21.597  24.004  1.00  0.00     0.168 A 
ATOM     25  O   UNL A   1      31.907  20.557  21.882  1.00  0.00    -0.449 OA
ATOM     26  C   UNL A   1      31.781  19.162  21.568  1.00  0.00     0.468 C 
BRANCH  19  27
ATOM     27  O   UNL A   1      33.329  17.673  25.311  1.00  0.00    -0.493 OA
ATOM     28  C   UNL A   1      34.421  17.054  24.633  1.00  0.00     0.278 C 
ENDBRANCH  19  27
BRANCH  24  29
ATOM     29  O   UNL A   1      32.422  22.903  23.661  1.00  0.00    -0.492 OA
ATOM     30  C   UNL A   1      32.944  23.384  22.430  1.00  0.00     0.278 C 
ENDBRANCH  24  29
ENDBRANCH   8  18
BRANCH  13  31
ATOM     31  C   UNL A   1      36.234  23.418  25.364  1.00  0.00     0.046 A 
ATOM     32  C   UNL A   1      36.299  22.195  24.689  1.00  0.00     0.029 A 
ATOM     33  C   UNL A   1      37.317  23.874  26.124  1.00  0.00     0.029 A 
ATOM     34  C   UNL A   1      37.412  21.376  24.845  1.00  0.00     0.041 A 
ATOM     35  C   UNL A   1      38.429  23.044  26.279  1.00  0.00     0.041 A 
ATOM     36  C   UNL A   1      38.458  21.799  25.655  1.00  0.00     0.123 A 
ATOM     37  F   UNL A   1      39.512  20.993  25.838  1.00  0.00    -0.207 F 
ENDBRANCH  13  31
ENDBRANCH   4   7
ENDBRANCH   2   3
ENDBRANCH   1   2
BRANCH   1  38
ATOM     38  C   UNL A   1      34.348  30.979  27.290  1.00  0.00     0.118 C 
BRANCH  38  39
ATOM     39  N   UNL A   1      34.347  31.800  28.507  1.00  0.00    -0.352 N 
ATOM     40  C   UNL A   1      35.211  31.732  29.585  1.00  0.00     0.251 C 
ATOM     41  H   UNL A   1      33.644  32.487  28.562  1.00  0.00     0.163 HD
ATOM     42  O   UNL A   1      34.926  32.195  30.668  1.00  0.00    -0.269 OA
BRANCH  40  43
ATOM     43  C   UNL A   1      36.495  31.058  29.355  1.00  0.00     0.039 A 
ATOM     44  C   UNL A   1      37.705  31.743  29.448  1.00  0.00     0.014 A 
ATOM     45  C   UNL A   1      36.443  29.678  29.208  1.00  0.00     0.014 A 
ATOM     46  C   UNL A   1      38.875  30.996  29.485  1.00  0.00     0.010 A 
ATOM     47  C   UNL A   1      37.558  28.954  29.507  1.00  0.00     0.010 A 
ATOM     48  C   UNL A   1      38.786  29.594  29.549  1.00  0.00    -0.014 A 
BRANCH  48  49
ATOM     49  C   UNL A   1      39.965  28.766  29.745  1.00  0.00     0.031 A 
ATOM     50  C   UNL A   1      40.356  28.598  31.165  1.00  0.00     0.074 A 
ATOM     51  C   UNL A   1      40.531  28.058  28.742  1.00  0.00     0.049 A 
ATOM     52  N   UNL A   1      41.345  29.163  31.772  1.00  0.00    -0.248 NA
ATOM     53  C   UNL A   1      39.459  27.852  32.064  1.00  0.00     0.031 C 
ATOM     54  C   UNL A   1      40.023  27.856  27.375  1.00  0.00     0.029 A 
ATOM     55  N   UNL A   1      41.649  27.281  28.759  1.00  0.00    -0.354 N 
ATOM     56  C   UNL A   1      41.347  28.637  33.060  1.00  0.00     0.074 A 
ATOM     57  C   UNL A   1      40.059  28.028  33.246  1.00  0.00     0.031 C 
ATOM     58  C   UNL A   1      40.678  26.833  26.788  1.00  0.00     0.029 A 
ATOM     59  C   UNL A   1      41.788  26.464  27.642  1.00  0.00     0.049 A 
ATOM     60  H   UNL A   1      42.301  27.296  29.496  1.00  0.00     0.167 HD
ATOM     61  C   UNL A   1      42.529  28.471  33.718  1.00  0.00     0.037 A 
ATOM     62  C   UNL A   1      42.765  25.556  27.421  1.00  0.00     0.037 A 
ATOM     63  C   UNL A   1      43.587  29.154  33.016  1.00  0.00     0.049 A 
ATOM     64  C   UNL A   1      43.916  25.938  28.268  1.00  0.00     0.074 A 
ATOM     65  C   UNL A   1      44.030  30.451  32.877  1.00  0.00     0.029 A 
ATOM     66  N   UNL A   1      44.098  28.434  31.969  1.00  0.00    -0.354 N 
ATOM     67  N   UNL A   1      44.594  27.042  28.100  1.00  0.00    -0.248 NA
ATOM     68  C   UNL A   1      44.101  25.279  29.555  1.00  0.00     0.031 C 
ATOM     69  C   UNL A   1      44.714  30.508  31.625  1.00  0.00     0.029 A 
ATOM     70  C   UNL A   1      44.715  29.239  31.052  1.00  0.00     0.049 A 
ATOM     71  H   UNL A   1      44.028  27.455  31.886  1.00  0.00     0.167 HD
ATOM     72  C   UNL A   1      44.939  27.426  29.379  1.00  0.00     0.074 A 
ATOM     73  C   UNL A   1      44.775  26.234  30.202  1.00  0.00     0.031 C 
ATOM     74  C   UNL A   1      44.992  28.745  29.722  1.00  0.00     0.037 A 
BRANCH  61  75
ATOM     75  C   UNL A   1      42.867  27.324  34.653  1.00  0.00     0.064 A 
ATOM     76  C   UNL A   1      43.052  27.603  36.025  1.00  0.00     0.173 A 
ATOM     77  C   UNL A   1      43.324  26.058  34.230  1.00  0.00     0.173 A 
ATOM     78  F   UNL A   1      42.670  28.780  36.542  1.00  0.00    -0.203 F 
ATOM     79  C   UNL A   1      43.715  26.717  36.881  1.00  0.00     0.198 A 
ATOM     80  C   UNL A   1      43.941  25.156  35.098  1.00  0.00     0.198 A 
ATOM     81  F   UNL A   1      43.304  25.680  32.948  1.00  0.00    -0.203 F 
ATOM     82  F   UNL A   1      43.975  27.078  38.145  1.00  0.00    -0.200 F 
ATOM     83  C   UNL A   1      44.165  25.496  36.415  1.00  0.00     0.200 A 
ATOM     84  F   UNL A   1      44.391  23.986  34.621  1.00  0.00    -0.200 F 
ATOM     85  F   UNL A   1      44.852  24.670  37.214  1.00  0.00    -0.200 F 
ENDBRANCH  61  75
BRANCH  62  86
ATOM     86  C   UNL A   1      42.669  24.251  26.735  1.00  0.00     0.064 A 
ATOM     87  C   UNL A   1      43.315  24.029  25.509  1.00  0.00     0.173 A 
ATOM     88  C   UNL A   1      42.195  23.114  27.416  1.00  0.00     0.173 A 
ATOM     89  F   UNL A   1      43.820  25.061  24.819  1.00  0.00    -0.203 F 
ATOM     90  C   UNL A   1      43.520  22.737  25.016  1.00  0.00     0.198 A 
ATOM     91  C   UNL A   1      42.399  21.824  26.921  1.00  0.00     0.198 A 
ATOM     92  F   UNL A   1      41.617  23.228  28.621  1.00  0.00    -0.203 F 
ATOM     93  F   UNL A   1      44.205  22.558  23.878  1.00  0.00    -0.200 F 
ATOM     94  C   UNL A   1      43.077  21.635  25.731  1.00  0.00     0.200 A 
ATOM     95  F   UNL A   1      42.000  20.766  27.640  1.00  0.00    -0.200 F 
ATOM     96  F   UNL A   1      43.342  20.395  25.297  1.00  0.00    -0.200 F 
ENDBRANCH  62  86
BRANCH  74  97
ATOM     97  C   UNL A   1      45.206  29.740  28.624  1.00  0.00     0.064 A 
ATOM     98  C   UNL A   1      44.179  30.401  27.929  1.00  0.00     0.173 A 
ATOM     99  C   UNL A   1      46.527  30.091  28.316  1.00  0.00     0.173 A 
ATOM    100  F   UNL A   1      42.893  30.171  28.216  1.00  0.00    -0.203 F 
ATOM    101  C   UNL A   1      44.471  31.348  26.947  1.00  0.00     0.198 A 
ATOM    102  C   UNL A   1      46.814  31.060  27.362  1.00  0.00     0.198 A 
ATOM    103  F   UNL A   1      47.544  29.515  28.975  1.00  0.00    -0.203 F 
ATOM    104  F   UNL A   1      43.477  31.957  26.283  1.00  0.00    -0.200 F 
ATOM    105  C   UNL A   1      45.787  31.681  26.670  1.00  0.00     0.200 A 
ATOM    106  F   UNL A   1      48.088  31.405  27.128  1.00  0.00    -0.200 F 
ATOM    107  F   UNL A   1      46.068  32.613  25.749  1.00  0.00    -0.200 F 
ENDBRANCH  74  97
ENDBRANCH  48  49
ENDBRANCH  40  43
ENDBRANCH  38  39
ENDBRANCH   1  38
TORSDOF 14
ENDMDL
MODEL 3
REMARK VINA RESULT:     -14.2      2.758      7.018
REMARK SMILES COc1cc([C@@H]2CC(=O)Nc3c(C(=O)NCCCNC(=O)c4ccc(-c5c6nc(c(-c7c(F)c(F)c(F)c(F)c7F)c7ccc([nH]7)c(-c7c(F)c(F)c(F)c(F)c7F)c7nc(c(-c8c(F)c(F)c(F)c(F)c8F)c8ccc5[nH]8)C=C7)C=C6)cc4)cn(-c4ccc(F)cc4)c32)c(OC)c2c1OCO2
REMARK SMILES IDX 17 1 16 2 15 3 13 4 14 5 12 7 6 8 7 9 94 10 8 11 11 12 86 13
REMARK SMILES IDX 9 14 10 15 85 16 5 18 3 19 4 20 99 21 98 22 100 23 95 24
REMARK SMILES IDX 102 25 101 26 2 27 1 28 96 29 97 30 87 31 88 32 93 33 89 34
REMARK SMILES IDX 92 35 90 36 91 37 18 38 19 39 20 40 21 42 22 43 23 44 84 45
REMARK SMILES IDX 24 46 83 47 25 48 26 49 27 50 77 51 28 52 82 53 76 54 78 55
REMARK SMILES IDX 29 56 81 57 75 58 74 59 30 61 62 62 42 63 61 64 43 65 46 66
REMARK SMILES IDX 60 67 79 68 44 69 45 70 59 72 80 73 47 74 31 75 32 76 40 77
REMARK SMILES IDX 33 78 34 79 38 80 41 81 35 82 36 83 39 84 37 85 63 86 64 87
REMARK SMILES IDX 72 88 65 89 66 90 70 91 73 92 67 93 68 94 71 95 69 96 48 97
REMARK SMILES IDX 49 98 57 99 50 100 51 101 55 102 58 103 52 104 53 105 56 106
REMARK SMILES IDX 54 107
REMARK H PARENT 15 6 10 17 19 41 78 60 46 71
REMARK Flexibility Score: inf
ROOT
ATOM      1  C   UNL A   1      36.966  21.428  24.598  1.00  0.00     0.042 C 
ENDROOT
BRANCH   1   2
ATOM      2  C   UNL A   1      36.069  22.675  24.706  1.00  0.00     0.118 C 
BRANCH   2   3
ATOM      3  N   UNL A   1      34.784  22.366  25.297  1.00  0.00    -0.352 N 
ATOM      4  C   UNL A   1      33.630  23.087  25.471  1.00  0.00     0.254 C 
ATOM      5  O   UNL A   1      32.690  22.444  25.950  1.00  0.00    -0.269 OA
ATOM      6  H   UNL A   1      34.727  21.448  25.648  1.00  0.00     0.163 HD
BRANCH   4   7
ATOM      7  C   UNL A   1      33.451  24.497  25.098  1.00  0.00     0.081 A 
ATOM      8  C   UNL A   1      32.726  27.634  23.207  1.00  0.00     0.082 C 
ATOM      9  C   UNL A   1      33.293  27.234  21.840  1.00  0.00     0.115 C 
ATOM     10  C   UNL A   1      33.038  26.570  24.222  1.00  0.00     0.055 A 
ATOM     11  C   UNL A   1      33.053  25.781  21.536  1.00  0.00     0.225 C 
ATOM     12  C   UNL A   1      33.237  25.246  23.905  1.00  0.00     0.076 A 
ATOM     13  N   UNL A   1      33.259  26.724  25.568  1.00  0.00    -0.317 N 
ATOM     14  O   UNL A   1      32.893  25.356  20.393  1.00  0.00    -0.275 OA
ATOM     15  N   UNL A   1      33.149  24.908  22.581  1.00  0.00    -0.324 N 
ATOM     16  C   UNL A   1      33.561  25.486  26.083  1.00  0.00     0.107 A 
ATOM     17  H   UNL A   1      33.155  23.948  22.363  1.00  0.00     0.170 HD
BRANCH   8  18
ATOM     18  C   UNL A   1      31.243  28.006  23.096  1.00  0.00     0.012 A 
ATOM     19  C   UNL A   1      29.676  29.738  22.350  1.00  0.00     0.165 A 
ATOM     20  C   UNL A   1      30.968  29.231  22.437  1.00  0.00     0.059 A 
ATOM     21  C   UNL A   1      28.644  28.966  22.840  1.00  0.00     0.211 A 
ATOM     22  C   UNL A   1      28.880  27.746  23.441  1.00  0.00     0.211 A 
ATOM     23  O   UNL A   1      27.318  29.275  22.794  1.00  0.00    -0.449 OA
ATOM     24  C   UNL A   1      30.163  27.234  23.596  1.00  0.00     0.168 A 
ATOM     25  O   UNL A   1      27.713  27.165  23.851  1.00  0.00    -0.449 OA
ATOM     26  C   UNL A   1      26.735  28.091  23.355  1.00  0.00     0.468 C 
BRANCH  19  27
ATOM     27  O   UNL A   1      29.537  30.955  21.751  1.00  0.00    -0.493 OA
ATOM     28  C   UNL A   1      28.961  31.925  22.624  1.00  0.00     0.278 C 
ENDBRANCH  19  27
BRANCH  24  29
ATOM     29  O   UNL A   1      30.466  26.053  24.203  1.00  0.00    -0.492 OA
ATOM     30  C   UNL A   1      29.936  25.770  25.490  1.00  0.00     0.278 C 
ENDBRANCH  24  29
ENDBRANCH   8  18
BRANCH  13  31
ATOM     31  C   UNL A   1      33.279  27.940  26.285  1.00  0.00     0.046 A 
ATOM     32  C   UNL A   1      32.073  28.547  26.651  1.00  0.00     0.029 A 
ATOM     33  C   UNL A   1      34.503  28.568  26.539  1.00  0.00     0.029 A 
ATOM     34  C   UNL A   1      32.081  29.829  27.189  1.00  0.00     0.041 A 
ATOM     35  C   UNL A   1      34.501  29.856  27.076  1.00  0.00     0.041 A 
ATOM     36  C   UNL A   1      33.293  30.480  27.379  1.00  0.00     0.123 A 
ATOM     37  F   UNL A   1      33.298  31.730  27.859  1.00  0.00    -0.207 F 
ENDBRANCH  13  31
ENDBRANCH   4   7
ENDBRANCH   2   3
ENDBRANCH   1   2
BRANCH   1  38
ATOM     38  C   UNL A   1      38.231  21.518  25.406  1.00  0.00     0.118 C 
BRANCH  38  39
ATOM     39  N   UNL A   1      38.865  20.198  25.521  1.00  0.00    -0.352 N 
ATOM     40  C   UNL A   1      40.184  19.906  25.818  1.00  0.00     0.251 C 
ATOM     41  H   UNL A   1      38.276  19.424  25.368  1.00  0.00     0.163 HD
ATOM     42  O   UNL A   1      40.682  18.835  25.550  1.00  0.00    -0.269 OA
BRANCH  40  43
ATOM     43  C   UNL A   1      40.959  20.968  26.472  1.00  0.00     0.039 A 
ATOM     44  C   UNL A   1      41.604  21.960  25.736  1.00  0.00     0.014 A 
ATOM     45  C   UNL A   1      40.870  21.024  27.857  1.00  0.00     0.014 A 
ATOM     46  C   UNL A   1      42.084  23.070  26.419  1.00  0.00     0.010 A 
ATOM     47  C   UNL A   1      41.105  22.217  28.473  1.00  0.00     0.010 A 
ATOM     48  C   UNL A   1      41.796  23.204  27.788  1.00  0.00    -0.014 A 
BRANCH  48  49
ATOM     49  C   UNL A   1      42.136  24.412  28.521  1.00  0.00     0.031 A 
ATOM     50  C   UNL A   1      41.156  25.513  28.358  1.00  0.00     0.074 A 
ATOM     51  C   UNL A   1      43.144  24.457  29.422  1.00  0.00     0.049 A 
ATOM     52  N   UNL A   1      41.298  26.581  27.647  1.00  0.00    -0.248 NA
ATOM     53  C   UNL A   1      39.800  25.344  28.907  1.00  0.00     0.031 C 
ATOM     54  C   UNL A   1      43.951  23.340  29.937  1.00  0.00     0.029 A 
ATOM     55  N   UNL A   1      43.606  25.513  30.147  1.00  0.00    -0.354 N 
ATOM     56  C   UNL A   1      40.152  27.338  27.872  1.00  0.00     0.074 A 
ATOM     57  C   UNL A   1      39.191  26.445  28.457  1.00  0.00     0.031 C 
ATOM     58  C   UNL A   1      44.612  23.724  31.048  1.00  0.00     0.029 A 
ATOM     59  C   UNL A   1      44.455  25.156  31.189  1.00  0.00     0.049 A 
ATOM     60  H   UNL A   1      43.361  26.446  29.951  1.00  0.00     0.167 HD
ATOM     61  C   UNL A   1      40.231  28.699  27.857  1.00  0.00     0.037 A 
ATOM     62  C   UNL A   1      45.012  25.987  32.098  1.00  0.00     0.037 A 
ATOM     63  C   UNL A   1      41.503  29.116  27.321  1.00  0.00     0.049 A 
ATOM     64  C   UNL A   1      45.014  27.343  31.508  1.00  0.00     0.074 A 
ATOM     65  C   UNL A   1      42.084  29.228  26.078  1.00  0.00     0.029 A 
ATOM     66  N   UNL A   1      42.514  29.094  28.245  1.00  0.00    -0.354 N 
ATOM     67  N   UNL A   1      45.714  27.664  30.453  1.00  0.00    -0.248 NA
ATOM     68  C   UNL A   1      43.945  28.272  31.858  1.00  0.00     0.031 C 
ATOM     69  C   UNL A   1      43.493  29.132  26.285  1.00  0.00     0.029 A 
ATOM     70  C   UNL A   1      43.743  29.011  27.650  1.00  0.00     0.049 A 
ATOM     71  H   UNL A   1      42.374  29.132  29.219  1.00  0.00     0.167 HD
ATOM     72  C   UNL A   1      44.921  28.574  29.784  1.00  0.00     0.074 A 
ATOM     73  C   UNL A   1      43.950  29.041  30.766  1.00  0.00     0.031 C 
ATOM     74  C   UNL A   1      44.898  28.611  28.421  1.00  0.00     0.037 A 
BRANCH  61  75
ATOM     75  C   UNL A   1      39.450  29.639  28.757  1.00  0.00     0.064 A 
ATOM     76  C   UNL A   1      39.706  29.611  30.147  1.00  0.00     0.173 A 
ATOM     77  C   UNL A   1      38.269  30.311  28.377  1.00  0.00     0.173 A 
ATOM     78  F   UNL A   1      40.791  28.989  30.631  1.00  0.00    -0.203 F 
ATOM     79  C   UNL A   1      38.808  30.144  31.078  1.00  0.00     0.198 A 
ATOM     80  C   UNL A   1      37.401  30.884  29.308  1.00  0.00     0.198 A 
ATOM     81  F   UNL A   1      37.840  30.346  27.112  1.00  0.00    -0.203 F 
ATOM     82  F   UNL A   1      39.036  29.986  32.389  1.00  0.00    -0.200 F 
ATOM     83  C   UNL A   1      37.653  30.775  30.658  1.00  0.00     0.200 A 
ATOM     84  F   UNL A   1      36.274  31.471  28.880  1.00  0.00    -0.200 F 
ATOM     85  F   UNL A   1      36.762  31.233  31.547  1.00  0.00    -0.200 F 
ENDBRANCH  61  75
BRANCH  62  86
ATOM     86  C   UNL A   1      45.295  25.730  33.525  1.00  0.00     0.064 A 
ATOM     87  C   UNL A   1      44.255  25.620  34.460  1.00  0.00     0.173 A 
ATOM     88  C   UNL A   1      46.567  25.289  33.939  1.00  0.00     0.173 A 
ATOM     89  F   UNL A   1      43.010  25.991  34.128  1.00  0.00    -0.203 F 
ATOM     90  C   UNL A   1      44.464  25.055  35.721  1.00  0.00     0.198 A 
ATOM     91  C   UNL A   1      46.775  24.726  35.199  1.00  0.00     0.198 A 
ATOM     92  F   UNL A   1      47.606  25.303  33.090  1.00  0.00    -0.203 F 
ATOM     93  F   UNL A   1      43.432  24.898  36.563  1.00  0.00    -0.200 F 
ATOM     94  C   UNL A   1      45.720  24.592  36.083  1.00  0.00     0.200 A 
ATOM     95  F   UNL A   1      47.984  24.249  35.522  1.00  0.00    -0.200 F 
ATOM     96  F   UNL A   1      45.903  23.980  37.261  1.00  0.00    -0.200 F 
ENDBRANCH  62  86
BRANCH  74  97
ATOM     97  C   UNL A   1      46.087  28.068  27.691  1.00  0.00     0.064 A 
ATOM     98  C   UNL A   1      46.180  26.771  27.161  1.00  0.00     0.173 A 
ATOM     99  C   UNL A   1      47.157  28.941  27.457  1.00  0.00     0.173 A 
ATOM    100  F   UNL A   1      45.169  25.902  27.283  1.00  0.00    -0.203 F 
ATOM    101  C   UNL A   1      47.312  26.362  26.456  1.00  0.00     0.198 A 
ATOM    102  C   UNL A   1      48.269  28.543  26.724  1.00  0.00     0.198 A 
ATOM    103  F   UNL A   1      47.104  30.203  27.911  1.00  0.00    -0.203 F 
ATOM    104  F   UNL A   1      47.388  25.113  25.972  1.00  0.00    -0.200 F 
ATOM    105  C   UNL A   1      48.352  27.250  26.233  1.00  0.00     0.200 A 
ATOM    106  F   UNL A   1      49.253  29.419  26.479  1.00  0.00    -0.200 F 
ATOM    107  F   UNL A   1      49.426  26.868  25.529  1.00  0.00    -0.200 F 
ENDBRANCH  74  97
ENDBRANCH  48  49
ENDBRANCH  40  43
ENDBRANCH  38  39
ENDBRANCH   1  38
TORSDOF 14
ENDMDL
