MODEL 1
REMARK VINA RESULT:     -10.0      0.000      0.000
REMARK SMILES Cc1cc(CNc2ccc(C(=O)NCCCNC(=O)c3ccc(-c4c5nc(c(-c6c(F)c(F)c(F)c(F)c6F)c6ccc([nH]6)c(-c6c(F)c(F)c(F)c(F)c6F)c6nc(c(-c7c(F)c(F)c(F)c(F)c7F)c7ccc4[nH]7)C=C6)C=C5)cc3)c(F)c2F)sc1C
REMARK SMILES IDX 14 1 13 2 11 3 12 4 10 6 7 7 8 8 85 9 9 10 83 11 86 12 84 13
REMARK SMILES IDX 6 14 5 16 4 17 1 18 2 19 3 20 88 21 87 22 89 23 15 24 16 25
REMARK SMILES IDX 17 26 18 27 19 29 20 30 21 31 82 32 22 33 81 34 23 35 24 36
REMARK SMILES IDX 25 37 75 38 26 39 80 40 74 41 76 42 27 43 79 44 73 45 72 46
REMARK SMILES IDX 28 48 60 49 40 50 59 51 41 52 44 53 58 54 77 55 42 56 43 57
REMARK SMILES IDX 57 59 78 60 45 61 29 62 30 63 38 64 31 65 32 66 36 67 39 68
REMARK SMILES IDX 33 69 34 70 37 71 35 72 61 73 62 74 70 75 63 76 64 77 68 78
REMARK SMILES IDX 71 79 65 80 66 81 69 82 67 83 46 84 47 85 55 86 48 87 49 88
REMARK SMILES IDX 53 89 56 90 50 91 51 92 54 93 52 94
REMARK H PARENT 13 5 6 15 17 28 76 47 44 58
REMARK Flexibility Score: inf
ROOT
ATOM      1  C   UNL A   1      36.224  32.576  31.314  1.00  0.00     0.118 C 
ENDROOT
BRANCH   1   2
ATOM      2  N   UNL A   1      36.180  32.785  32.748  1.00  0.00    -0.352 N 
ATOM      3  C   UNL A   1      36.906  32.303  33.802  1.00  0.00     0.254 C 
ATOM      4  O   UNL A   1      36.558  32.705  34.917  1.00  0.00    -0.269 OA
ATOM      5  H   UNL A   1      35.473  33.411  33.024  1.00  0.00     0.163 HD
BRANCH   3   6
ATOM      6  C   UNL A   1      38.084  31.394  33.723  1.00  0.00     0.078 A 
ATOM      7  C   UNL A   1      40.504  29.881  33.711  1.00  0.00     0.074 A 
ATOM      8  C   UNL A   1      40.473  31.163  34.251  1.00  0.00     0.030 A 
ATOM      9  C   UNL A   1      39.303  29.364  33.210  1.00  0.00     0.182 A 
ATOM     10  C   UNL A   1      39.290  31.914  34.238  1.00  0.00     0.019 A 
ATOM     11  C   UNL A   1      38.107  30.087  33.249  1.00  0.00     0.173 A 
ATOM     12  F   UNL A   1      39.287  28.112  32.720  1.00  0.00    -0.201 F 
ATOM     13  F   UNL A   1      36.999  29.434  32.884  1.00  0.00    -0.203 F 
BRANCH   7  14
ATOM     14  N   UNL A   1      41.654  29.099  33.737  1.00  0.00    -0.378 N 
ATOM     15  H   UNL A   1      42.279  29.117  32.977  1.00  0.00     0.161 HD
BRANCH  14  16
ATOM     16  C   UNL A   1      41.931  28.252  34.895  1.00  0.00     0.160 C 
BRANCH  16  17
ATOM     17  C   UNL A   1      42.626  26.970  34.521  1.00  0.00     0.024 A 
ATOM     18  C   UNL A   1      43.403  23.319  35.000  1.00  0.00     0.045 C 
ATOM     19  C   UNL A   1      43.330  24.729  34.509  1.00  0.00    -0.037 A 
ATOM     20  C   UNL A   1      42.549  25.744  35.151  1.00  0.00     0.021 A 
ATOM     21  C   UNL A   1      43.981  25.237  33.396  1.00  0.00     0.005 A 
ATOM     22  S   UNL A   1      43.646  26.898  33.155  1.00  0.00    -0.144 S 
ATOM     23  C   UNL A   1      44.890  24.526  32.447  1.00  0.00     0.056 C 
ENDBRANCH  16  17
ENDBRANCH  14  16
ENDBRANCH   7  14
ENDBRANCH   3   6
ENDBRANCH   1   2
BRANCH   1  24
ATOM     24  C   UNL A   1      34.814  32.567  30.721  1.00  0.00     0.042 C 
BRANCH  24  25
ATOM     25  C   UNL A   1      34.801  32.636  29.194  1.00  0.00     0.118 C 
BRANCH  25  26
ATOM     26  N   UNL A   1      34.123  31.488  28.604  1.00  0.00    -0.352 N 
ATOM     27  C   UNL A   1      34.629  30.320  28.095  1.00  0.00     0.251 C 
ATOM     28  H   UNL A   1      33.142  31.565  28.564  1.00  0.00     0.163 HD
ATOM     29  O   UNL A   1      33.908  29.594  27.418  1.00  0.00    -0.269 OA
BRANCH  27  30
ATOM     30  C   UNL A   1      36.030  29.922  28.351  1.00  0.00     0.039 A 
ATOM     31  C   UNL A   1      36.973  30.090  27.334  1.00  0.00     0.014 A 
ATOM     32  C   UNL A   1      36.402  29.326  29.559  1.00  0.00     0.014 A 
ATOM     33  C   UNL A   1      38.300  29.708  27.545  1.00  0.00     0.010 A 
ATOM     34  C   UNL A   1      37.738  29.011  29.794  1.00  0.00     0.010 A 
ATOM     35  C   UNL A   1      38.699  29.192  28.789  1.00  0.00    -0.014 A 
BRANCH  35  36
ATOM     36  C   UNL A   1      40.114  28.836  29.056  1.00  0.00     0.031 A 
ATOM     37  C   UNL A   1      41.017  29.802  29.772  1.00  0.00     0.074 A 
ATOM     38  C   UNL A   1      40.601  27.666  28.598  1.00  0.00     0.049 A 
ATOM     39  N   UNL A   1      42.298  29.708  30.022  1.00  0.00    -0.248 NA
ATOM     40  C   UNL A   1      40.403  31.051  30.250  1.00  0.00     0.031 C 
ATOM     41  C   UNL A   1      39.830  26.667  27.857  1.00  0.00     0.029 A 
ATOM     42  N   UNL A   1      41.859  27.123  28.680  1.00  0.00    -0.354 N 
ATOM     43  C   UNL A   1      42.643  30.885  30.672  1.00  0.00     0.074 A 
ATOM     44  C   UNL A   1      41.452  31.703  30.730  1.00  0.00     0.031 C 
ATOM     45  C   UNL A   1      40.623  25.621  27.578  1.00  0.00     0.029 A 
ATOM     46  C   UNL A   1      41.966  25.893  28.080  1.00  0.00     0.049 A 
ATOM     47  H   UNL A   1      42.612  27.573  29.127  1.00  0.00     0.167 HD
ATOM     48  C   UNL A   1      43.841  31.237  31.197  1.00  0.00     0.037 A 
ATOM     49  C   UNL A   1      43.030  25.077  27.944  1.00  0.00     0.037 A 
ATOM     50  C   UNL A   1      45.015  30.406  31.158  1.00  0.00     0.049 A 
ATOM     51  C   UNL A   1      44.352  25.497  28.525  1.00  0.00     0.074 A 
ATOM     52  C   UNL A   1      46.263  30.653  31.700  1.00  0.00     0.029 A 
ATOM     53  N   UNL A   1      45.083  29.162  30.546  1.00  0.00    -0.354 N 
ATOM     54  N   UNL A   1      44.657  26.593  29.175  1.00  0.00    -0.248 NA
ATOM     55  C   UNL A   1      45.478  24.567  28.356  1.00  0.00     0.031 C 
ATOM     56  C   UNL A   1      47.099  29.579  31.378  1.00  0.00     0.029 A 
ATOM     57  C   UNL A   1      46.358  28.639  30.682  1.00  0.00     0.049 A 
ATOM     58  H   UNL A   1      44.335  28.719  30.084  1.00  0.00     0.167 HD
ATOM     59  C   UNL A   1      45.998  26.479  29.511  1.00  0.00     0.074 A 
ATOM     60  C   UNL A   1      46.447  25.199  29.005  1.00  0.00     0.031 C 
ATOM     61  C   UNL A   1      46.787  27.358  30.175  1.00  0.00     0.037 A 
BRANCH  48  62
ATOM     62  C   UNL A   1      43.943  32.573  31.876  1.00  0.00     0.064 A 
ATOM     63  C   UNL A   1      43.826  32.680  33.269  1.00  0.00     0.173 A 
ATOM     64  C   UNL A   1      44.094  33.758  31.138  1.00  0.00     0.173 A 
ATOM     65  F   UNL A   1      43.674  31.579  34.022  1.00  0.00    -0.203 F 
ATOM     66  C   UNL A   1      43.847  33.922  33.899  1.00  0.00     0.198 A 
ATOM     67  C   UNL A   1      44.145  34.996  31.773  1.00  0.00     0.198 A 
ATOM     68  F   UNL A   1      44.221  33.712  29.804  1.00  0.00    -0.203 F 
ATOM     69  F   UNL A   1      43.701  34.001  35.228  1.00  0.00    -0.200 F 
ATOM     70  C   UNL A   1      44.010  35.078  33.151  1.00  0.00     0.200 A 
ATOM     71  F   UNL A   1      44.329  36.111  31.052  1.00  0.00    -0.200 F 
ATOM     72  F   UNL A   1      44.043  36.272  33.759  1.00  0.00    -0.200 F 
ENDBRANCH  48  62
BRANCH  49  73
ATOM     73  C   UNL A   1      42.865  23.768  27.262  1.00  0.00     0.064 A 
ATOM     74  C   UNL A   1      42.381  22.641  27.943  1.00  0.00     0.173 A 
ATOM     75  C   UNL A   1      43.235  23.610  25.919  1.00  0.00     0.173 A 
ATOM     76  F   UNL A   1      42.019  22.739  29.231  1.00  0.00    -0.203 F 
ATOM     77  C   UNL A   1      42.296  21.402  27.313  1.00  0.00     0.198 A 
ATOM     78  C   UNL A   1      43.124  22.375  25.284  1.00  0.00     0.198 A 
ATOM     79  F   UNL A   1      43.685  24.662  25.221  1.00  0.00    -0.203 F 
ATOM     80  F   UNL A   1      41.868  20.332  27.999  1.00  0.00    -0.200 F 
ATOM     81  C   UNL A   1      42.664  21.269  25.984  1.00  0.00     0.200 A 
ATOM     82  F   UNL A   1      43.460  22.257  23.991  1.00  0.00    -0.200 F 
ATOM     83  F   UNL A   1      42.576  20.078  25.377  1.00  0.00    -0.200 F 
ENDBRANCH  49  73
BRANCH  61  84
ATOM     84  C   UNL A   1      48.215  26.969  30.416  1.00  0.00     0.064 A 
ATOM     85  C   UNL A   1      48.596  26.379  31.631  1.00  0.00     0.173 A 
ATOM     86  C   UNL A   1      49.220  27.263  29.483  1.00  0.00     0.173 A 
ATOM     87  F   UNL A   1      47.673  26.086  32.559  1.00  0.00    -0.203 F 
ATOM     88  C   UNL A   1      49.933  26.114  31.910  1.00  0.00     0.198 A 
ATOM     89  C   UNL A   1      50.554  26.970  29.754  1.00  0.00     0.198 A 
ATOM     90  F   UNL A   1      48.905  27.816  28.303  1.00  0.00    -0.203 F 
ATOM     91  F   UNL A   1      50.278  25.586  33.092  1.00  0.00    -0.200 F 
ATOM     92  C   UNL A   1      50.910  26.408  30.972  1.00  0.00     0.200 A 
ATOM     93  F   UNL A   1      51.495  27.233  28.838  1.00  0.00    -0.200 F 
ATOM     94  F   UNL A   1      52.198  26.147  31.239  1.00  0.00    -0.200 F 
ENDBRANCH  61  84
ENDBRANCH  35  36
ENDBRANCH  27  30
ENDBRANCH  25  26
ENDBRANCH  24  25
ENDBRANCH   1  24
TORSDOF 13
ENDMDL
MODEL 2
REMARK VINA RESULT:      -9.9      4.534     10.463
REMARK SMILES Cc1cc(CNc2ccc(C(=O)NCCCNC(=O)c3ccc(-c4c5nc(c(-c6c(F)c(F)c(F)c(F)c6F)c6ccc([nH]6)c(-c6c(F)c(F)c(F)c(F)c6F)c6nc(c(-c7c(F)c(F)c(F)c(F)c7F)c7ccc4[nH]7)C=C6)C=C5)cc3)c(F)c2F)sc1C
REMARK SMILES IDX 14 1 13 2 11 3 12 4 10 6 7 7 8 8 85 9 9 10 83 11 86 12 84 13
REMARK SMILES IDX 6 14 5 16 4 17 1 18 2 19 3 20 88 21 87 22 89 23 15 24 16 25
REMARK SMILES IDX 17 26 18 27 19 29 20 30 21 31 82 32 22 33 81 34 23 35 24 36
REMARK SMILES IDX 25 37 75 38 26 39 80 40 74 41 76 42 27 43 79 44 73 45 72 46
REMARK SMILES IDX 28 48 60 49 40 50 59 51 41 52 44 53 58 54 77 55 42 56 43 57
REMARK SMILES IDX 57 59 78 60 45 61 29 62 30 63 38 64 31 65 32 66 36 67 39 68
REMARK SMILES IDX 33 69 34 70 37 71 35 72 61 73 62 74 70 75 63 76 64 77 68 78
REMARK SMILES IDX 71 79 65 80 66 81 69 82 67 83 46 84 47 85 55 86 48 87 49 88
REMARK SMILES IDX 53 89 56 90 50 91 51 92 54 93 52 94
REMARK H PARENT 13 5 6 15 17 28 76 47 44 58
REMARK Flexibility Score: inf
ROOT
ATOM      1  C   UNL A   1      31.399  30.806  26.360  1.00  0.00     0.118 C 
ENDROOT
BRANCH   1   2
ATOM      2  N   UNL A   1      31.160  30.422  24.983  1.00  0.00    -0.352 N 
ATOM      3  C   UNL A   1      31.235  29.241  24.298  1.00  0.00     0.254 C 
ATOM      4  O   UNL A   1      30.965  29.305  23.094  1.00  0.00    -0.269 OA
ATOM      5  H   UNL A   1      30.883  31.177  24.415  1.00  0.00     0.163 HD
BRANCH   3   6
ATOM      6  C   UNL A   1      31.557  27.904  24.871  1.00  0.00     0.078 A 
ATOM      7  C   UNL A   1      31.872  25.276  25.939  1.00  0.00     0.074 A 
ATOM      8  C   UNL A   1      30.621  25.727  25.526  1.00  0.00     0.030 A 
ATOM      9  C   UNL A   1      32.956  26.147  25.781  1.00  0.00     0.182 A 
ATOM     10  C   UNL A   1      30.464  27.026  25.021  1.00  0.00     0.019 A 
ATOM     11  C   UNL A   1      32.813  27.421  25.223  1.00  0.00     0.173 A 
ATOM     12  F   UNL A   1      34.185  25.728  26.131  1.00  0.00    -0.201 F 
ATOM     13  F   UNL A   1      33.940  28.099  24.981  1.00  0.00    -0.203 F 
BRANCH   7  14
ATOM     14  N   UNL A   1      32.067  23.984  26.416  1.00  0.00    -0.378 N 
ATOM     15  H   UNL A   1      32.202  23.829  27.378  1.00  0.00     0.161 HD
BRANCH  14  16
ATOM     16  C   UNL A   1      32.069  22.859  25.484  1.00  0.00     0.160 C 
BRANCH  16  17
ATOM     17  C   UNL A   1      33.458  22.454  25.068  1.00  0.00     0.024 A 
ATOM     18  C   UNL A   1      36.640  22.925  23.116  1.00  0.00     0.045 C 
ATOM     19  C   UNL A   1      35.564  22.431  24.028  1.00  0.00    -0.037 A 
ATOM     20  C   UNL A   1      34.294  23.081  24.167  1.00  0.00     0.021 A 
ATOM     21  C   UNL A   1      35.639  21.314  24.845  1.00  0.00     0.005 A 
ATOM     22  S   UNL A   1      34.202  21.075  25.745  1.00  0.00    -0.144 S 
ATOM     23  C   UNL A   1      36.775  20.358  25.008  1.00  0.00     0.056 C 
ENDBRANCH  16  17
ENDBRANCH  14  16
ENDBRANCH   7  14
ENDBRANCH   3   6
ENDBRANCH   1   2
BRANCH   1  24
ATOM     24  C   UNL A   1      31.374  32.328  26.513  1.00  0.00     0.042 C 
BRANCH  24  25
ATOM     25  C   UNL A   1      32.674  32.899  27.079  1.00  0.00     0.118 C 
BRANCH  25  26
ATOM     26  N   UNL A   1      32.489  34.243  27.616  1.00  0.00    -0.352 N 
ATOM     27  C   UNL A   1      33.052  34.850  28.709  1.00  0.00     0.251 C 
ATOM     28  H   UNL A   1      31.857  34.804  27.112  1.00  0.00     0.163 HD
ATOM     29  O   UNL A   1      32.572  35.897  29.132  1.00  0.00    -0.269 OA
BRANCH  27  30
ATOM     30  C   UNL A   1      34.229  34.262  29.383  1.00  0.00     0.039 A 
ATOM     31  C   UNL A   1      34.032  33.508  30.543  1.00  0.00     0.014 A 
ATOM     32  C   UNL A   1      35.524  34.505  28.919  1.00  0.00     0.014 A 
ATOM     33  C   UNL A   1      35.128  32.955  31.208  1.00  0.00     0.010 A 
ATOM     34  C   UNL A   1      36.611  33.896  29.542  1.00  0.00     0.010 A 
ATOM     35  C   UNL A   1      36.425  33.120  30.696  1.00  0.00    -0.014 A 
BRANCH  35  36
ATOM     36  C   UNL A   1      37.598  32.491  31.351  1.00  0.00     0.031 A 
ATOM     37  C   UNL A   1      38.342  31.378  30.668  1.00  0.00     0.074 A 
ATOM     38  C   UNL A   1      37.954  32.884  32.590  1.00  0.00     0.049 A 
ATOM     39  N   UNL A   1      39.335  30.650  31.114  1.00  0.00    -0.248 NA
ATOM     40  C   UNL A   1      37.897  31.019  29.313  1.00  0.00     0.031 C 
ATOM     41  C   UNL A   1      37.283  33.927  33.367  1.00  0.00     0.029 A 
ATOM     42  N   UNL A   1      38.959  32.449  33.416  1.00  0.00    -0.354 N 
ATOM     43  C   UNL A   1      39.621  29.744  30.103  1.00  0.00     0.074 A 
ATOM     44  C   UNL A   1      38.665  29.974  29.041  1.00  0.00     0.031 C 
ATOM     45  C   UNL A   1      37.913  34.070  34.544  1.00  0.00     0.029 A 
ATOM     46  C   UNL A   1      39.002  33.103  34.623  1.00  0.00     0.049 A 
ATOM     47  H   UNL A   1      39.590  31.735  33.167  1.00  0.00     0.167 HD
ATOM     48  C   UNL A   1      40.611  28.821  30.054  1.00  0.00     0.037 A 
ATOM     49  C   UNL A   1      39.824  32.937  35.678  1.00  0.00     0.037 A 
ATOM     50  C   UNL A   1      41.576  28.616  31.103  1.00  0.00     0.049 A 
ATOM     51  C   UNL A   1      40.907  31.897  35.604  1.00  0.00     0.074 A 
ATOM     52  C   UNL A   1      42.644  27.738  31.131  1.00  0.00     0.029 A 
ATOM     53  N   UNL A   1      41.589  29.303  32.309  1.00  0.00    -0.354 N 
ATOM     54  N   UNL A   1      41.197  31.075  34.626  1.00  0.00    -0.248 NA
ATOM     55  C   UNL A   1      41.781  31.763  36.779  1.00  0.00     0.031 C 
ATOM     56  C   UNL A   1      43.278  27.862  32.371  1.00  0.00     0.029 A 
ATOM     57  C   UNL A   1      42.638  28.854  33.095  1.00  0.00     0.049 A 
ATOM     58  H   UNL A   1      40.949  30.005  32.566  1.00  0.00     0.167 HD
ATOM     59  C   UNL A   1      42.294  30.341  35.054  1.00  0.00     0.074 A 
ATOM     60  C   UNL A   1      42.629  30.826  36.377  1.00  0.00     0.031 C 
ATOM     61  C   UNL A   1      42.960  29.352  34.409  1.00  0.00     0.037 A 
BRANCH  48  62
ATOM     62  C   UNL A   1      40.719  27.971  28.821  1.00  0.00     0.064 A 
ATOM     63  C   UNL A   1      41.501  28.383  27.732  1.00  0.00     0.173 A 
ATOM     64  C   UNL A   1      39.994  26.776  28.691  1.00  0.00     0.173 A 
ATOM     65  F   UNL A   1      42.210  29.521  27.800  1.00  0.00    -0.203 F 
ATOM     66  C   UNL A   1      41.547  27.637  26.557  1.00  0.00     0.198 A 
ATOM     67  C   UNL A   1      40.066  26.017  27.526  1.00  0.00     0.198 A 
ATOM     68  F   UNL A   1      39.238  26.331  29.706  1.00  0.00    -0.203 F 
ATOM     69  F   UNL A   1      42.277  28.068  25.519  1.00  0.00    -0.200 F 
ATOM     70  C   UNL A   1      40.833  26.453  26.457  1.00  0.00     0.200 A 
ATOM     71  F   UNL A   1      39.395  24.859  27.441  1.00  0.00    -0.200 F 
ATOM     72  F   UNL A   1      40.888  25.729  25.330  1.00  0.00    -0.200 F 
ENDBRANCH  48  62
BRANCH  49  73
ATOM     73  C   UNL A   1      39.667  33.809  36.870  1.00  0.00     0.064 A 
ATOM     74  C   UNL A   1      38.857  33.433  37.952  1.00  0.00     0.173 A 
ATOM     75  C   UNL A   1      40.292  35.062  36.928  1.00  0.00     0.173 A 
ATOM     76  F   UNL A   1      38.231  32.246  37.942  1.00  0.00    -0.203 F 
ATOM     77  C   UNL A   1      38.660  34.287  39.035  1.00  0.00     0.198 A 
ATOM     78  C   UNL A   1      40.115  35.904  38.024  1.00  0.00     0.198 A 
ATOM     79  F   UNL A   1      41.091  35.457  35.926  1.00  0.00    -0.203 F 
ATOM     80  F   UNL A   1      37.849  33.920  40.037  1.00  0.00    -0.200 F 
ATOM     81  C   UNL A   1      39.292  35.520  39.072  1.00  0.00     0.200 A 
ATOM     82  F   UNL A   1      40.746  37.086  38.066  1.00  0.00    -0.200 F 
ATOM     83  F   UNL A   1      39.108  36.339  40.116  1.00  0.00    -0.200 F 
ENDBRANCH  49  73
BRANCH  61  84
ATOM     84  C   UNL A   1      44.133  28.732  35.109  1.00  0.00     0.064 A 
ATOM     85  C   UNL A   1      43.950  27.641  35.972  1.00  0.00     0.173 A 
ATOM     86  C   UNL A   1      45.421  29.274  34.996  1.00  0.00     0.173 A 
ATOM     87  F   UNL A   1      42.735  27.093  36.121  1.00  0.00    -0.203 F 
ATOM     88  C   UNL A   1      45.011  27.127  36.712  1.00  0.00     0.198 A 
ATOM     89  C   UNL A   1      46.487  28.739  35.716  1.00  0.00     0.198 A 
ATOM     90  F   UNL A   1      45.649  30.309  34.175  1.00  0.00    -0.203 F 
ATOM     91  F   UNL A   1      44.805  26.110  37.559  1.00  0.00    -0.200 F 
ATOM     92  C   UNL A   1      46.278  27.674  36.581  1.00  0.00     0.200 A 
ATOM     93  F   UNL A   1      47.716  29.253  35.572  1.00  0.00    -0.200 F 
ATOM     94  F   UNL A   1      47.301  27.175  37.289  1.00  0.00    -0.200 F 
ENDBRANCH  61  84
ENDBRANCH  35  36
ENDBRANCH  27  30
ENDBRANCH  25  26
ENDBRANCH  24  25
ENDBRANCH   1  24
TORSDOF 13
ENDMDL
MODEL 3
REMARK VINA RESULT:      -9.9      4.770     10.611
REMARK SMILES Cc1cc(CNc2ccc(C(=O)NCCCNC(=O)c3ccc(-c4c5nc(c(-c6c(F)c(F)c(F)c(F)c6F)c6ccc([nH]6)c(-c6c(F)c(F)c(F)c(F)c6F)c6nc(c(-c7c(F)c(F)c(F)c(F)c7F)c7ccc4[nH]7)C=C6)C=C5)cc3)c(F)c2F)sc1C
REMARK SMILES IDX 14 1 13 2 11 3 12 4 10 6 7 7 8 8 85 9 9 10 83 11 86 12 84 13
REMARK SMILES IDX 6 14 5 16 4 17 1 18 2 19 3 20 88 21 87 22 89 23 15 24 16 25
REMARK SMILES IDX 17 26 18 27 19 29 20 30 21 31 82 32 22 33 81 34 23 35 24 36
REMARK SMILES IDX 25 37 75 38 26 39 80 40 74 41 76 42 27 43 79 44 73 45 72 46
REMARK SMILES IDX 28 48 60 49 40 50 59 51 41 52 44 53 58 54 77 55 42 56 43 57
REMARK SMILES IDX 57 59 78 60 45 61 29 62 30 63 38 64 31 65 32 66 36 67 39 68
REMARK SMILES IDX 33 69 34 70 37 71 35 72 61 73 62 74 70 75 63 76 64 77 68 78
REMARK SMILES IDX 71 79 65 80 66 81 69 82 67 83 46 84 47 85 55 86 48 87 49 88
REMARK SMILES IDX 53 89 56 90 50 91 51 92 54 93 52 94
REMARK H PARENT 13 5 6 15 17 28 76 47 44 58
REMARK Flexibility Score: inf
ROOT
ATOM      1  C   UNL A   1      31.246  30.724  25.560  1.00  0.00     0.118 C 
ENDROOT
BRANCH   1   2
ATOM      2  N   UNL A   1      30.278  30.790  24.483  1.00  0.00    -0.352 N 
ATOM      3  C   UNL A   1      29.879  29.918  23.508  1.00  0.00     0.254 C 
ATOM      4  O   UNL A   1      29.015  30.342  22.735  1.00  0.00    -0.269 OA
ATOM      5  H   UNL A   1      29.804  31.651  24.444  1.00  0.00     0.163 HD
BRANCH   3   6
ATOM      6  C   UNL A   1      30.347  28.515  23.331  1.00  0.00     0.078 A 
ATOM      7  C   UNL A   1      30.959  25.738  23.083  1.00  0.00     0.074 A 
ATOM      8  C   UNL A   1      29.697  26.150  23.500  1.00  0.00     0.030 A 
ATOM      9  C   UNL A   1      31.891  26.734  22.767  1.00  0.00     0.182 A 
ATOM     10  C   UNL A   1      29.403  27.513  23.642  1.00  0.00     0.019 A 
ATOM     11  C   UNL A   1      31.583  28.095  22.850  1.00  0.00     0.173 A 
ATOM     12  F   UNL A   1      33.106  26.371  22.320  1.00  0.00    -0.201 F 
ATOM     13  F   UNL A   1      32.498  28.947  22.376  1.00  0.00    -0.203 F 
BRANCH   7  14
ATOM     14  N   UNL A   1      31.273  24.395  22.903  1.00  0.00    -0.378 N 
ATOM     15  H   UNL A   1      31.244  23.998  22.004  1.00  0.00     0.161 HD
BRANCH  14  16
ATOM     16  C   UNL A   1      31.644  23.575  24.054  1.00  0.00     0.160 C 
BRANCH  16  17
ATOM     17  C   UNL A   1      33.134  23.496  24.252  1.00  0.00     0.024 A 
ATOM     18  C   UNL A   1      36.652  22.954  23.028  1.00  0.00     0.045 C 
ATOM     19  C   UNL A   1      35.434  23.235  23.848  1.00  0.00    -0.037 A 
ATOM     20  C   UNL A   1      34.104  23.198  23.315  1.00  0.00     0.021 A 
ATOM     21  C   UNL A   1      35.418  23.564  25.194  1.00  0.00     0.005 A 
ATOM     22  S   UNL A   1      33.829  23.815  25.778  1.00  0.00    -0.144 S 
ATOM     23  C   UNL A   1      36.575  23.710  26.127  1.00  0.00     0.056 C 
ENDBRANCH  16  17
ENDBRANCH  14  16
ENDBRANCH   7  14
ENDBRANCH   3   6
ENDBRANCH   1   2
BRANCH   1  24
ATOM     24  C   UNL A   1      31.118  31.939  26.482  1.00  0.00     0.042 C 
BRANCH  24  25
ATOM     25  C   UNL A   1      32.467  32.513  26.914  1.00  0.00     0.118 C 
BRANCH  25  26
ATOM     26  N   UNL A   1      32.350  33.898  27.359  1.00  0.00    -0.352 N 
ATOM     27  C   UNL A   1      32.975  34.559  28.385  1.00  0.00     0.251 C 
ATOM     28  H   UNL A   1      31.720  34.445  26.838  1.00  0.00     0.163 HD
ATOM     29  O   UNL A   1      32.549  35.650  28.748  1.00  0.00    -0.269 OA
BRANCH  27  30
ATOM     30  C   UNL A   1      34.155  33.976  29.058  1.00  0.00     0.039 A 
ATOM     31  C   UNL A   1      33.955  33.029  30.066  1.00  0.00     0.014 A 
ATOM     32  C   UNL A   1      35.449  34.403  28.748  1.00  0.00     0.014 A 
ATOM     33  C   UNL A   1      35.052  32.475  30.729  1.00  0.00     0.010 A 
ATOM     34  C   UNL A   1      36.545  33.800  29.359  1.00  0.00     0.010 A 
ATOM     35  C   UNL A   1      36.358  32.834  30.359  1.00  0.00    -0.014 A 
BRANCH  35  36
ATOM     36  C   UNL A   1      37.540  32.213  31.007  1.00  0.00     0.031 A 
ATOM     37  C   UNL A   1      38.312  31.133  30.302  1.00  0.00     0.074 A 
ATOM     38  C   UNL A   1      37.880  32.582  32.258  1.00  0.00     0.049 A 
ATOM     39  N   UNL A   1      39.316  30.415  30.736  1.00  0.00    -0.248 NA
ATOM     40  C   UNL A   1      37.882  30.799  28.935  1.00  0.00     0.031 C 
ATOM     41  C   UNL A   1      37.183  33.592  33.056  1.00  0.00     0.029 A 
ATOM     42  N   UNL A   1      38.889  32.147  33.079  1.00  0.00    -0.354 N 
ATOM     43  C   UNL A   1      39.627  29.540  29.705  1.00  0.00     0.074 A 
ATOM     44  C   UNL A   1      38.673  29.777  28.643  1.00  0.00     0.031 C 
ATOM     45  C   UNL A   1      37.802  33.719  34.240  1.00  0.00     0.029 A 
ATOM     46  C   UNL A   1      38.911  32.772  34.302  1.00  0.00     0.049 A 
ATOM     47  H   UNL A   1      39.537  31.453  32.817  1.00  0.00     0.167 HD
ATOM     48  C   UNL A   1      40.637  28.639  29.639  1.00  0.00     0.037 A 
ATOM     49  C   UNL A   1      39.729  32.597  35.358  1.00  0.00     0.037 A 
ATOM     50  C   UNL A   1      41.599  28.428  30.690  1.00  0.00     0.049 A 
ATOM     51  C   UNL A   1      40.835  31.582  35.266  1.00  0.00     0.074 A 
ATOM     52  C   UNL A   1      42.685  27.572  30.703  1.00  0.00     0.029 A 
ATOM     53  N   UNL A   1      41.590  29.085  31.912  1.00  0.00    -0.354 N 
ATOM     54  N   UNL A   1      41.147  30.790  34.270  1.00  0.00    -0.248 NA
ATOM     55  C   UNL A   1      41.703  31.437  36.443  1.00  0.00     0.031 C 
ATOM     56  C   UNL A   1      43.309  27.678  31.950  1.00  0.00     0.029 A 
ATOM     57  C   UNL A   1      42.643  28.638  32.694  1.00  0.00     0.049 A 
ATOM     58  H   UNL A   1      40.934  29.767  32.183  1.00  0.00     0.167 HD
ATOM     59  C   UNL A   1      42.257  30.069  34.687  1.00  0.00     0.074 A 
ATOM     60  C   UNL A   1      42.573  30.527  36.023  1.00  0.00     0.031 C 
ATOM     61  C   UNL A   1      42.947  29.110  34.022  1.00  0.00     0.037 A 
BRANCH  48  62
ATOM     62  C   UNL A   1      40.769  27.823  28.386  1.00  0.00     0.064 A 
ATOM     63  C   UNL A   1      40.160  26.564  28.283  1.00  0.00     0.173 A 
ATOM     64  C   UNL A   1      41.554  28.261  27.307  1.00  0.00     0.173 A 
ATOM     65  F   UNL A   1      39.404  26.093  29.287  1.00  0.00    -0.203 F 
ATOM     66  C   UNL A   1      40.339  25.769  27.154  1.00  0.00     0.198 A 
ATOM     67  C   UNL A   1      41.706  27.478  26.167  1.00  0.00     0.198 A 
ATOM     68  F   UNL A   1      42.150  29.462  27.350  1.00  0.00    -0.203 F 
ATOM     69  F   UNL A   1      39.773  24.556  27.092  1.00  0.00    -0.200 F 
ATOM     70  C   UNL A   1      41.108  26.229  26.095  1.00  0.00     0.200 A 
ATOM     71  F   UNL A   1      42.428  27.934  25.134  1.00  0.00    -0.200 F 
ATOM     72  F   UNL A   1      41.269  25.468  25.003  1.00  0.00    -0.200 F 
ENDBRANCH  48  62
BRANCH  49  73
ATOM     73  C   UNL A   1      39.547  33.435  36.571  1.00  0.00     0.064 A 
ATOM     74  C   UNL A   1      38.746  33.012  37.642  1.00  0.00     0.173 A 
ATOM     75  C   UNL A   1      40.138  34.703  36.660  1.00  0.00     0.173 A 
ATOM     76  F   UNL A   1      38.153  31.809  37.602  1.00  0.00    -0.203 F 
ATOM     77  C   UNL A   1      38.525  33.834  38.744  1.00  0.00     0.198 A 
ATOM     78  C   UNL A   1      39.937  35.514  37.775  1.00  0.00     0.198 A 
ATOM     79  F   UNL A   1      40.928  35.144  35.670  1.00  0.00    -0.203 F 
ATOM     80  F   UNL A   1      37.722  33.421  39.735  1.00  0.00    -0.200 F 
ATOM     81  C   UNL A   1      39.123  35.083  38.812  1.00  0.00     0.200 A 
ATOM     82  F   UNL A   1      40.536  36.711  37.846  1.00  0.00    -0.200 F 
ATOM     83  F   UNL A   1      38.915  35.871  39.875  1.00  0.00    -0.200 F 
ENDBRANCH  49  73
BRANCH  61  84
ATOM     84  C   UNL A   1      44.128  28.497  34.714  1.00  0.00     0.064 A 
ATOM     85  C   UNL A   1      43.968  27.358  35.518  1.00  0.00     0.173 A 
ATOM     86  C   UNL A   1      45.398  29.088  34.655  1.00  0.00     0.173 A 
ATOM     87  F   UNL A   1      42.771  26.761  35.614  1.00  0.00    -0.203 F 
ATOM     88  C   UNL A   1      45.033  26.845  36.253  1.00  0.00     0.198 A 
ATOM     89  C   UNL A   1      46.468  28.555  35.368  1.00  0.00     0.198 A 
ATOM     90  F   UNL A   1      45.604  30.171  33.891  1.00  0.00    -0.203 F 
ATOM     91  F   UNL A   1      44.848  25.780  37.044  1.00  0.00    -0.200 F 
ATOM     92  C   UNL A   1      46.282  27.441  36.176  1.00  0.00     0.200 A 
ATOM     93  F   UNL A   1      47.681  29.119  35.276  1.00  0.00    -0.200 F 
ATOM     94  F   UNL A   1      47.308  26.943  36.879  1.00  0.00    -0.200 F 
ENDBRANCH  61  84
ENDBRANCH  35  36
ENDBRANCH  27  30
ENDBRANCH  25  26
ENDBRANCH  24  25
ENDBRANCH   1  24
TORSDOF 13
ENDMDL
