MODEL 1
REMARK VINA RESULT:     -13.2      0.000      0.000
REMARK SMILES Cc1ccc2occ(/C=N/NC(=O)CCC(=O)Nc3ccc(C(=O)NCCCNC(=O)c4ccc(-c5c6nc(c(-c7c(F)c(F)c(F)c(F)c7F)c7ccc([nH]7)c(-c7c(F)c(F)c(F)c(F)c7F)c7nc(c(-c8c(F)c(F)c(F)c(F)c8F)c8ccc5[nH]8)C=C7)C=C6)cc4)cc3)c(=O)c2c1
REMARK SMILES IDX 23 1 24 2 25 3 22 5 19 6 20 7 96 8 21 9 95 10 18 11 16 12
REMARK SMILES IDX 17 13 15 15 14 16 12 17 11 18 13 20 10 21 9 22 8 23 1 24
REMARK SMILES IDX 2 25 3 26 100 27 4 28 99 29 5 30 97 31 6 32 98 33 7 34 26 35
REMARK SMILES IDX 27 36 28 37 29 38 30 39 31 41 32 42 33 43 94 44 34 45 93 46
REMARK SMILES IDX 35 47 36 48 37 49 87 50 38 51 92 52 86 53 88 54 39 55 91 56
REMARK SMILES IDX 85 57 84 58 40 60 72 61 52 62 71 63 53 64 56 65 70 66 89 67
REMARK SMILES IDX 54 68 55 69 69 71 90 72 57 73 41 74 42 75 50 76 43 77 44 78
REMARK SMILES IDX 48 79 51 80 45 81 46 82 49 83 47 84 73 85 74 86 82 87 75 88
REMARK SMILES IDX 76 89 80 90 83 91 77 92 78 93 81 94 79 95 58 96 59 97 67 98
REMARK SMILES IDX 60 99 61 100 65 101 68 102 62 103 63 104 66 105 64 106
REMARK H PARENT 25 4 18 14 11 19 29 40 88 59 56 70
REMARK Flexibility Score: inf
ROOT
ATOM      1  C   UNL A   1      35.984  32.894  28.133  1.00  0.00     0.251 C 
ATOM      2  O   UNL A   1      37.189  32.836  28.369  1.00  0.00    -0.269 OA
ATOM      3  N   UNL A   1      35.390  34.140  28.051  1.00  0.00    -0.352 N 
ATOM      4  H   UNL A   1      36.011  34.878  28.245  1.00  0.00     0.163 HD
ENDROOT
BRANCH   1   5
ATOM      5  C   UNL A   1      35.237  31.633  27.886  1.00  0.00     0.039 A 
ATOM      6  C   UNL A   1      33.761  29.364  27.053  1.00  0.00     0.041 A 
ATOM      7  C   UNL A   1      35.136  29.264  27.271  1.00  0.00     0.027 A 
ATOM      8  C   UNL A   1      33.192  30.595  27.258  1.00  0.00     0.027 A 
ATOM      9  C   UNL A   1      35.882  30.413  27.627  1.00  0.00     0.016 A 
ATOM     10  C   UNL A   1      33.867  31.641  27.840  1.00  0.00     0.016 A 
BRANCH   6  11
ATOM     11  N   UNL A   1      32.972  28.238  26.762  1.00  0.00    -0.326 N 
ATOM     12  C   UNL A   1      31.828  28.089  26.014  1.00  0.00     0.224 C 
ATOM     13  O   UNL A   1      31.191  27.038  26.158  1.00  0.00    -0.275 OA
ATOM     14  H   UNL A   1      33.299  27.403  27.170  1.00  0.00     0.169 HD
BRANCH  12  15
ATOM     15  C   UNL A   1      31.403  29.079  24.927  1.00  0.00     0.110 C 
BRANCH  15  16
ATOM     16  C   UNL A   1      31.886  28.954  23.468  1.00  0.00     0.112 C 
BRANCH  16  17
ATOM     17  C   UNL A   1      31.046  28.243  22.395  1.00  0.00     0.240 C 
ATOM     18  N   UNL A   1      31.425  27.013  21.904  1.00  0.00    -0.247 N 
ATOM     19  H   UNL A   1      30.835  26.593  21.238  1.00  0.00     0.193 HD
ATOM     20  O   UNL A   1      29.983  28.736  22.002  1.00  0.00    -0.273 OA
BRANCH  18  21
ATOM     21  N   UNL A   1      32.542  26.330  22.262  1.00  0.00    -0.180 NA
ATOM     22  C   UNL A   1      32.345  25.543  23.266  1.00  0.00     0.148 C 
BRANCH  22  23
ATOM     23  C   UNL A   1      33.246  24.475  23.693  1.00  0.00     0.078 A 
ATOM     24  C   UNL A   1      38.705  23.510  26.502  1.00  0.00     0.044 C 
ATOM     25  C   UNL A   1      37.469  23.149  25.733  1.00  0.00    -0.050 A 
ATOM     26  C   UNL A   1      37.331  21.909  25.092  1.00  0.00     0.007 A 
ATOM     27  C   UNL A   1      36.431  24.077  25.649  1.00  0.00     0.019 A 
ATOM     28  C   UNL A   1      36.170  21.600  24.371  1.00  0.00     0.048 A 
ATOM     29  C   UNL A   1      35.300  23.774  24.894  1.00  0.00     0.066 A 
ATOM     30  C   UNL A   1      35.153  22.540  24.265  1.00  0.00     0.137 A 
ATOM     31  C   UNL A   1      34.293  24.807  24.669  1.00  0.00     0.201 A 
ATOM     32  O   UNL A   1      34.050  22.215  23.509  1.00  0.00    -0.463 OA
ATOM     33  O   UNL A   1      34.353  25.904  25.211  1.00  0.00    -0.288 OA
ATOM     34  C   UNL A   1      33.169  23.232  23.212  1.00  0.00     0.209 A 
ENDBRANCH  22  23
ENDBRANCH  18  21
ENDBRANCH  16  17
ENDBRANCH  15  16
ENDBRANCH  12  15
ENDBRANCH   6  11
ENDBRANCH   1   5
BRANCH   3  35
ATOM     35  C   UNL A   1      34.032  34.597  27.738  1.00  0.00     0.118 C 
BRANCH  35  36
ATOM     36  C   UNL A   1      33.181  34.754  29.006  1.00  0.00     0.042 C 
BRANCH  36  37
ATOM     37  C   UNL A   1      33.372  36.119  29.657  1.00  0.00     0.118 C 
BRANCH  37  38
ATOM     38  N   UNL A   1      32.483  36.294  30.798  1.00  0.00    -0.352 N 
ATOM     39  C   UNL A   1      32.570  35.799  32.073  1.00  0.00     0.251 C 
ATOM     40  H   UNL A   1      31.696  36.860  30.626  1.00  0.00     0.163 HD
ATOM     41  O   UNL A   1      31.622  35.929  32.837  1.00  0.00    -0.269 OA
BRANCH  39  42
ATOM     42  C   UNL A   1      33.786  35.089  32.522  1.00  0.00     0.039 A 
ATOM     43  C   UNL A   1      33.652  33.785  33.006  1.00  0.00     0.014 A 
ATOM     44  C   UNL A   1      35.040  35.703  32.502  1.00  0.00     0.014 A 
ATOM     45  C   UNL A   1      34.781  33.078  33.421  1.00  0.00     0.010 A 
ATOM     46  C   UNL A   1      36.174  34.973  32.846  1.00  0.00     0.010 A 
ATOM     47  C   UNL A   1      36.056  33.655  33.312  1.00  0.00    -0.014 A 
BRANCH  47  48
ATOM     48  C   UNL A   1      37.277  32.891  33.669  1.00  0.00     0.031 A 
ATOM     49  C   UNL A   1      38.009  33.184  34.949  1.00  0.00     0.074 A 
ATOM     50  C   UNL A   1      37.760  31.976  32.807  1.00  0.00     0.049 A 
ATOM     51  N   UNL A   1      39.129  32.676  35.397  1.00  0.00    -0.248 NA
ATOM     52  C   UNL A   1      37.415  34.202  35.829  1.00  0.00     0.031 C 
ATOM     53  C   UNL A   1      37.158  31.632  31.518  1.00  0.00     0.029 A 
ATOM     54  N   UNL A   1      38.874  31.178  32.877  1.00  0.00    -0.354 N 
ATOM     55  C   UNL A   1      39.380  33.319  36.601  1.00  0.00     0.074 A 
ATOM     56  C   UNL A   1      38.326  34.293  36.788  1.00  0.00     0.031 C 
ATOM     57  C   UNL A   1      37.894  30.675  30.931  1.00  0.00     0.029 A 
ATOM     58  C   UNL A   1      39.044  30.374  31.777  1.00  0.00     0.049 A 
ATOM     59  H   UNL A   1      39.492  31.182  33.644  1.00  0.00     0.167 HD
ATOM     60  C   UNL A   1      40.386  33.102  37.481  1.00  0.00     0.037 A 
ATOM     61  C   UNL A   1      40.025  29.501  31.480  1.00  0.00     0.037 A 
ATOM     62  C   UNL A   1      41.424  32.121  37.295  1.00  0.00     0.049 A 
ATOM     63  C   UNL A   1      41.150  29.303  32.460  1.00  0.00     0.074 A 
ATOM     64  C   UNL A   1      42.457  31.784  38.152  1.00  0.00     0.029 A 
ATOM     65  N   UNL A   1      41.564  31.323  36.167  1.00  0.00    -0.354 N 
ATOM     66  N   UNL A   1      41.341  29.866  33.629  1.00  0.00    -0.248 NA
ATOM     67  C   UNL A   1      42.196  28.344  32.079  1.00  0.00     0.031 C 
ATOM     68  C   UNL A   1      43.257  30.827  37.518  1.00  0.00     0.029 A 
ATOM     69  C   UNL A   1      42.686  30.519  36.293  1.00  0.00     0.049 A 
ATOM     70  H   UNL A   1      40.958  31.330  35.393  1.00  0.00     0.167 HD
ATOM     71  C   UNL A   1      42.505  29.307  34.136  1.00  0.00     0.074 A 
ATOM     72  C   UNL A   1      42.971  28.349  33.154  1.00  0.00     0.031 C 
ATOM     73  C   UNL A   1      43.132  29.563  35.311  1.00  0.00     0.037 A 
BRANCH  60  74
ATOM     74  C   UNL A   1      40.418  33.946  38.725  1.00  0.00     0.064 A 
ATOM     75  C   UNL A   1      41.125  35.158  38.776  1.00  0.00     0.173 A 
ATOM     76  C   UNL A   1      39.707  33.555  39.870  1.00  0.00     0.173 A 
ATOM     77  F   UNL A   1      41.829  35.576  37.713  1.00  0.00    -0.203 F 
ATOM     78  C   UNL A   1      41.148  35.927  39.938  1.00  0.00     0.198 A 
ATOM     79  C   UNL A   1      39.704  34.344  41.017  1.00  0.00     0.198 A 
ATOM     80  F   UNL A   1      39.007  32.411  39.875  1.00  0.00    -0.203 F 
ATOM     81  F   UNL A   1      41.877  37.051  39.979  1.00  0.00    -0.200 F 
ATOM     82  C   UNL A   1      40.432  35.524  41.054  1.00  0.00     0.200 A 
ATOM     83  F   UNL A   1      38.998  33.962  42.090  1.00  0.00    -0.200 F 
ATOM     84  F   UNL A   1      40.450  36.268  42.168  1.00  0.00    -0.200 F 
ENDBRANCH  60  74
BRANCH  61  85
ATOM     85  C   UNL A   1      39.978  28.734  30.207  1.00  0.00     0.064 A 
ATOM     86  C   UNL A   1      39.382  27.465  30.155  1.00  0.00     0.173 A 
ATOM     87  C   UNL A   1      40.533  29.243  29.024  1.00  0.00     0.173 A 
ATOM     88  F   UNL A   1      38.856  26.927  31.264  1.00  0.00    -0.203 F 
ATOM     89  C   UNL A   1      39.364  26.727  28.973  1.00  0.00     0.198 A 
ATOM     90  C   UNL A   1      40.485  28.516  27.836  1.00  0.00     0.198 A 
ATOM     91  F   UNL A   1      41.110  30.453  29.017  1.00  0.00    -0.203 F 
ATOM     92  F   UNL A   1      38.835  25.496  28.964  1.00  0.00    -0.200 F 
ATOM     93  C   UNL A   1      39.910  27.255  27.814  1.00  0.00     0.200 A 
ATOM     94  F   UNL A   1      41.000  29.037  26.714  1.00  0.00    -0.200 F 
ATOM     95  F   UNL A   1      39.892  26.544  26.678  1.00  0.00    -0.200 F 
ENDBRANCH  61  85
BRANCH  73  96
ATOM     96  C   UNL A   1      44.368  28.766  35.621  1.00  0.00     0.064 A 
ATOM     97  C   UNL A   1      45.646  29.210  35.253  1.00  0.00     0.173 A 
ATOM     98  C   UNL A   1      44.272  27.560  36.333  1.00  0.00     0.173 A 
ATOM     99  F   UNL A   1      45.793  30.348  34.557  1.00  0.00    -0.203 F 
ATOM    100  C   UNL A   1      46.780  28.463  35.562  1.00  0.00     0.198 A 
ATOM    101  C   UNL A   1      45.410  26.834  36.671  1.00  0.00     0.198 A 
ATOM    102  F   UNL A   1      43.074  27.094  36.716  1.00  0.00    -0.203 F 
ATOM    103  F   UNL A   1      47.987  28.880  35.154  1.00  0.00    -0.200 F 
ATOM    104  C   UNL A   1      46.662  27.281  36.278  1.00  0.00     0.200 A 
ATOM    105  F   UNL A   1      45.295  25.701  37.377  1.00  0.00    -0.200 F 
ATOM    106  F   UNL A   1      47.756  26.568  36.584  1.00  0.00    -0.200 F 
ENDBRANCH  73  96
ENDBRANCH  47  48
ENDBRANCH  39  42
ENDBRANCH  37  38
ENDBRANCH  36  37
ENDBRANCH  35  36
ENDBRANCH   3  35
TORSDOF 16
ENDMDL
MODEL 2
REMARK VINA RESULT:     -12.3      5.247     11.590
REMARK SMILES Cc1ccc2occ(/C=N/NC(=O)CCC(=O)Nc3ccc(C(=O)NCCCNC(=O)c4ccc(-c5c6nc(c(-c7c(F)c(F)c(F)c(F)c7F)c7ccc([nH]7)c(-c7c(F)c(F)c(F)c(F)c7F)c7nc(c(-c8c(F)c(F)c(F)c(F)c8F)c8ccc5[nH]8)C=C7)C=C6)cc4)cc3)c(=O)c2c1
REMARK SMILES IDX 23 1 24 2 25 3 22 5 19 6 20 7 96 8 21 9 95 10 18 11 16 12
REMARK SMILES IDX 17 13 15 15 14 16 12 17 11 18 13 20 10 21 9 22 8 23 1 24
REMARK SMILES IDX 2 25 3 26 100 27 4 28 99 29 5 30 97 31 6 32 98 33 7 34 26 35
REMARK SMILES IDX 27 36 28 37 29 38 30 39 31 41 32 42 33 43 94 44 34 45 93 46
REMARK SMILES IDX 35 47 36 48 37 49 87 50 38 51 92 52 86 53 88 54 39 55 91 56
REMARK SMILES IDX 85 57 84 58 40 60 72 61 52 62 71 63 53 64 56 65 70 66 89 67
REMARK SMILES IDX 54 68 55 69 69 71 90 72 57 73 41 74 42 75 50 76 43 77 44 78
REMARK SMILES IDX 48 79 51 80 45 81 46 82 49 83 47 84 73 85 74 86 82 87 75 88
REMARK SMILES IDX 76 89 80 90 83 91 77 92 78 93 81 94 79 95 58 96 59 97 67 98
REMARK SMILES IDX 60 99 61 100 65 101 68 102 62 103 63 104 66 105 64 106
REMARK H PARENT 25 4 18 14 11 19 29 40 88 59 56 70
REMARK Flexibility Score: inf
ROOT
ATOM      1  C   UNL A   1      44.018  20.717  25.407  1.00  0.00     0.251 C 
ATOM      2  O   UNL A   1      44.879  20.318  24.625  1.00  0.00    -0.269 OA
ATOM      3  N   UNL A   1      43.236  19.779  26.056  1.00  0.00    -0.352 N 
ATOM      4  H   UNL A   1      43.428  18.855  25.777  1.00  0.00     0.163 HD
ENDROOT
BRANCH   1   5
ATOM      5  C   UNL A   1      43.898  22.176  25.664  1.00  0.00     0.039 A 
ATOM      6  C   UNL A   1      44.032  24.982  26.019  1.00  0.00     0.041 A 
ATOM      7  C   UNL A   1      43.243  24.442  25.002  1.00  0.00     0.027 A 
ATOM      8  C   UNL A   1      44.719  24.093  26.806  1.00  0.00     0.027 A 
ATOM      9  C   UNL A   1      43.225  23.042  24.787  1.00  0.00     0.016 A 
ATOM     10  C   UNL A   1      44.508  22.736  26.756  1.00  0.00     0.016 A 
BRANCH   6  11
ATOM     11  N   UNL A   1      44.029  26.357  26.309  1.00  0.00    -0.326 N 
ATOM     12  C   UNL A   1      44.952  27.347  26.066  1.00  0.00     0.224 C 
ATOM     13  O   UNL A   1      44.812  28.414  26.678  1.00  0.00    -0.275 OA
ATOM     14  H   UNL A   1      43.217  26.668  26.771  1.00  0.00     0.169 HD
BRANCH  12  15
ATOM     15  C   UNL A   1      46.030  27.241  24.985  1.00  0.00     0.110 C 
BRANCH  15  16
ATOM     16  C   UNL A   1      47.289  28.130  24.992  1.00  0.00     0.112 C 
BRANCH  16  17
ATOM     17  C   UNL A   1      48.051  28.447  26.288  1.00  0.00     0.240 C 
ATOM     18  N   UNL A   1      47.957  29.690  26.875  1.00  0.00    -0.247 N 
ATOM     19  H   UNL A   1      48.445  29.827  27.718  1.00  0.00     0.193 HD
ATOM     20  O   UNL A   1      48.710  27.570  26.860  1.00  0.00    -0.273 OA
BRANCH  18  21
ATOM     21  N   UNL A   1      47.249  30.740  26.389  1.00  0.00    -0.180 NA
ATOM     22  C   UNL A   1      46.342  31.152  27.210  1.00  0.00     0.148 C 
BRANCH  22  23
ATOM     23  C   UNL A   1      45.628  32.423  27.113  1.00  0.00     0.078 A 
ATOM     24  C   UNL A   1      40.671  35.431  29.351  1.00  0.00     0.044 C 
ATOM     25  C   UNL A   1      41.847  35.193  28.452  1.00  0.00    -0.050 A 
ATOM     26  C   UNL A   1      42.059  35.953  27.293  1.00  0.00     0.007 A 
ATOM     27  C   UNL A   1      42.751  34.182  28.777  1.00  0.00     0.019 A 
ATOM     28  C   UNL A   1      43.161  35.705  26.463  1.00  0.00     0.048 A 
ATOM     29  C   UNL A   1      43.819  33.916  27.922  1.00  0.00     0.066 A 
ATOM     30  C   UNL A   1      44.041  34.676  26.775  1.00  0.00     0.137 A 
ATOM     31  C   UNL A   1      44.664  32.753  28.173  1.00  0.00     0.201 A 
ATOM     32  O   UNL A   1      45.083  34.434  25.910  1.00  0.00    -0.463 OA
ATOM     33  O   UNL A   1      44.535  32.058  29.174  1.00  0.00    -0.288 OA
ATOM     34  C   UNL A   1      45.797  33.271  26.096  1.00  0.00     0.209 A 
ENDBRANCH  22  23
ENDBRANCH  18  21
ENDBRANCH  16  17
ENDBRANCH  15  16
ENDBRANCH  12  15
ENDBRANCH   6  11
ENDBRANCH   1   5
BRANCH   3  35
ATOM     35  C   UNL A   1      42.181  19.867  27.071  1.00  0.00     0.118 C 
BRANCH  35  36
ATOM     36  C   UNL A   1      40.835  20.276  26.455  1.00  0.00     0.042 C 
BRANCH  36  37
ATOM     37  C   UNL A   1      40.441  21.698  26.834  1.00  0.00     0.118 C 
BRANCH  37  38
ATOM     38  N   UNL A   1      39.343  22.184  26.010  1.00  0.00    -0.352 N 
ATOM     39  C   UNL A   1      38.699  23.394  26.018  1.00  0.00     0.251 C 
ATOM     40  H   UNL A   1      39.011  21.543  25.341  1.00  0.00     0.163 HD
ATOM     41  O   UNL A   1      37.681  23.540  25.352  1.00  0.00    -0.269 OA
BRANCH  39  42
ATOM     42  C   UNL A   1      39.207  24.511  26.840  1.00  0.00     0.039 A 
ATOM     43  C   UNL A   1      40.028  25.464  26.230  1.00  0.00     0.014 A 
ATOM     44  C   UNL A   1      38.914  24.610  28.202  1.00  0.00     0.014 A 
ATOM     45  C   UNL A   1      40.512  26.543  26.972  1.00  0.00     0.010 A 
ATOM     46  C   UNL A   1      39.335  25.723  28.923  1.00  0.00     0.010 A 
ATOM     47  C   UNL A   1      40.140  26.699  28.316  1.00  0.00    -0.014 A 
BRANCH  47  48
ATOM     48  C   UNL A   1      40.575  27.882  29.099  1.00  0.00     0.031 A 
ATOM     49  C   UNL A   1      41.958  27.939  29.683  1.00  0.00     0.074 A 
ATOM     50  C   UNL A   1      39.698  28.877  29.336  1.00  0.00     0.049 A 
ATOM     51  N   UNL A   1      42.494  28.852  30.455  1.00  0.00    -0.248 NA
ATOM     52  C   UNL A   1      42.849  26.808  29.381  1.00  0.00     0.031 C 
ATOM     53  C   UNL A   1      38.317  28.916  28.852  1.00  0.00     0.029 A 
ATOM     54  N   UNL A   1      39.833  30.039  30.052  1.00  0.00    -0.354 N 
ATOM     55  C   UNL A   1      43.776  28.399  30.740  1.00  0.00     0.074 A 
ATOM     56  C   UNL A   1      43.919  27.107  30.104  1.00  0.00     0.031 C 
ATOM     57  C   UNL A   1      37.740  30.056  29.264  1.00  0.00     0.029 A 
ATOM     58  C   UNL A   1      38.692  30.804  30.078  1.00  0.00     0.049 A 
ATOM     59  H   UNL A   1      40.668  30.301  30.503  1.00  0.00     0.167 HD
ATOM     60  C   UNL A   1      44.751  29.017  31.447  1.00  0.00     0.037 A 
ATOM     61  C   UNL A   1      38.440  31.970  30.701  1.00  0.00     0.037 A 
ATOM     62  C   UNL A   1      44.605  30.309  32.066  1.00  0.00     0.049 A 
ATOM     63  C   UNL A   1      39.531  32.618  31.511  1.00  0.00     0.074 A 
ATOM     64  C   UNL A   1      45.550  31.046  32.759  1.00  0.00     0.029 A 
ATOM     65  N   UNL A   1      43.434  31.055  32.072  1.00  0.00    -0.354 N 
ATOM     66  N   UNL A   1      40.762  32.217  31.715  1.00  0.00    -0.248 NA
ATOM     67  C   UNL A   1      39.196  33.886  32.174  1.00  0.00     0.031 C 
ATOM     68  C   UNL A   1      44.934  32.208  33.236  1.00  0.00     0.029 A 
ATOM     69  C   UNL A   1      43.624  32.228  32.785  1.00  0.00     0.049 A 
ATOM     70  H   UNL A   1      42.593  30.788  31.636  1.00  0.00     0.167 HD
ATOM     71  C   UNL A   1      41.357  33.195  32.499  1.00  0.00     0.074 A 
ATOM     72  C   UNL A   1      40.356  34.217  32.723  1.00  0.00     0.031 C 
ATOM     73  C   UNL A   1      42.621  33.243  32.990  1.00  0.00     0.037 A 
BRANCH  60  74
ATOM     74  C   UNL A   1      46.063  28.297  31.599  1.00  0.00     0.064 A 
ATOM     75  C   UNL A   1      46.267  27.339  32.605  1.00  0.00     0.173 A 
ATOM     76  C   UNL A   1      47.118  28.546  30.709  1.00  0.00     0.173 A 
ATOM     77  F   UNL A   1      45.294  27.069  33.489  1.00  0.00    -0.203 F 
ATOM     78  C   UNL A   1      47.490  26.685  32.735  1.00  0.00     0.198 A 
ATOM     79  C   UNL A   1      48.327  27.864  30.820  1.00  0.00     0.198 A 
ATOM     80  F   UNL A   1      46.976  29.445  29.724  1.00  0.00    -0.203 F 
ATOM     81  F   UNL A   1      47.679  25.816  33.738  1.00  0.00    -0.200 F 
ATOM     82  C   UNL A   1      48.515  26.942  31.839  1.00  0.00     0.200 A 
ATOM     83  F   UNL A   1      49.312  28.101  29.944  1.00  0.00    -0.200 F 
ATOM     84  F   UNL A   1      49.689  26.306  31.961  1.00  0.00    -0.200 F 
ENDBRANCH  60  74
BRANCH  61  85
ATOM     85  C   UNL A   1      37.105  32.611  30.569  1.00  0.00     0.064 A 
ATOM     86  C   UNL A   1      36.809  33.435  29.473  1.00  0.00     0.173 A 
ATOM     87  C   UNL A   1      36.103  32.424  31.533  1.00  0.00     0.173 A 
ATOM     88  F   UNL A   1      37.740  33.661  28.535  1.00  0.00    -0.203 F 
ATOM     89  C   UNL A   1      35.572  34.066  29.360  1.00  0.00     0.198 A 
ATOM     90  C   UNL A   1      34.855  33.030  31.401  1.00  0.00     0.198 A 
ATOM     91  F   UNL A   1      36.332  31.642  32.597  1.00  0.00    -0.203 F 
ATOM     92  F   UNL A   1      35.335  34.889  28.330  1.00  0.00    -0.200 F 
ATOM     93  C   UNL A   1      34.594  33.858  30.320  1.00  0.00     0.200 A 
ATOM     94  F   UNL A   1      33.908  32.814  32.323  1.00  0.00    -0.200 F 
ATOM     95  F   UNL A   1      33.404  34.464  30.210  1.00  0.00    -0.200 F 
ENDBRANCH  61  85
BRANCH  73  96
ATOM     96  C   UNL A   1      43.008  34.459  33.782  1.00  0.00     0.064 A 
ATOM     97  C   UNL A   1      43.456  35.634  33.161  1.00  0.00     0.173 A 
ATOM     98  C   UNL A   1      42.890  34.459  35.181  1.00  0.00     0.173 A 
ATOM     99  F   UNL A   1      43.602  35.682  31.828  1.00  0.00    -0.203 F 
ATOM    100  C   UNL A   1      43.797  36.755  33.914  1.00  0.00     0.198 A 
ATOM    101  C   UNL A   1      43.198  35.594  35.926  1.00  0.00     0.198 A 
ATOM    102  F   UNL A   1      42.460  33.364  35.824  1.00  0.00    -0.203 F 
ATOM    103  F   UNL A   1      44.273  37.850  33.304  1.00  0.00    -0.200 F 
ATOM    104  C   UNL A   1      43.660  36.738  35.293  1.00  0.00     0.200 A 
ATOM    105  F   UNL A   1      43.049  35.579  37.259  1.00  0.00    -0.200 F 
ATOM    106  F   UNL A   1      43.979  37.821  36.015  1.00  0.00    -0.200 F 
ENDBRANCH  73  96
ENDBRANCH  47  48
ENDBRANCH  39  42
ENDBRANCH  37  38
ENDBRANCH  36  37
ENDBRANCH  35  36
ENDBRANCH   3  35
TORSDOF 16
ENDMDL
MODEL 3
REMARK VINA RESULT:     -12.1      1.654      2.557
REMARK SMILES Cc1ccc2occ(/C=N/NC(=O)CCC(=O)Nc3ccc(C(=O)NCCCNC(=O)c4ccc(-c5c6nc(c(-c7c(F)c(F)c(F)c(F)c7F)c7ccc([nH]7)c(-c7c(F)c(F)c(F)c(F)c7F)c7nc(c(-c8c(F)c(F)c(F)c(F)c8F)c8ccc5[nH]8)C=C7)C=C6)cc4)cc3)c(=O)c2c1
REMARK SMILES IDX 23 1 24 2 25 3 22 5 19 6 20 7 96 8 21 9 95 10 18 11 16 12
REMARK SMILES IDX 17 13 15 15 14 16 12 17 11 18 13 20 10 21 9 22 8 23 1 24
REMARK SMILES IDX 2 25 3 26 100 27 4 28 99 29 5 30 97 31 6 32 98 33 7 34 26 35
REMARK SMILES IDX 27 36 28 37 29 38 30 39 31 41 32 42 33 43 94 44 34 45 93 46
REMARK SMILES IDX 35 47 36 48 37 49 87 50 38 51 92 52 86 53 88 54 39 55 91 56
REMARK SMILES IDX 85 57 84 58 40 60 72 61 52 62 71 63 53 64 56 65 70 66 89 67
REMARK SMILES IDX 54 68 55 69 69 71 90 72 57 73 41 74 42 75 50 76 43 77 44 78
REMARK SMILES IDX 48 79 51 80 45 81 46 82 49 83 47 84 73 85 74 86 82 87 75 88
REMARK SMILES IDX 76 89 80 90 83 91 77 92 78 93 81 94 79 95 58 96 59 97 67 98
REMARK SMILES IDX 60 99 61 100 65 101 68 102 62 103 63 104 66 105 64 106
REMARK H PARENT 25 4 18 14 11 19 29 40 88 59 56 70
REMARK Flexibility Score: inf
ROOT
ATOM      1  C   UNL A   1      34.436  31.498  28.297  1.00  0.00     0.251 C 
ATOM      2  O   UNL A   1      35.034  30.633  28.933  1.00  0.00    -0.269 OA
ATOM      3  N   UNL A   1      34.697  32.825  28.589  1.00  0.00    -0.352 N 
ATOM      4  H   UNL A   1      35.325  32.940  29.337  1.00  0.00     0.163 HD
ENDROOT
BRANCH   1   5
ATOM      5  C   UNL A   1      33.513  31.084  27.208  1.00  0.00     0.039 A 
ATOM      6  C   UNL A   1      31.676  29.985  25.355  1.00  0.00     0.041 A 
ATOM      7  C   UNL A   1      31.334  31.122  26.090  1.00  0.00     0.027 A 
ATOM      8  C   UNL A   1      32.918  29.451  25.586  1.00  0.00     0.027 A 
ATOM      9  C   UNL A   1      32.229  31.633  27.060  1.00  0.00     0.016 A 
ATOM     10  C   UNL A   1      33.875  30.088  26.339  1.00  0.00     0.016 A 
BRANCH   6  11
ATOM     11  N   UNL A   1      30.847  29.483  24.338  1.00  0.00    -0.326 N 
ATOM     12  C   UNL A   1      30.681  28.214  23.833  1.00  0.00     0.224 C 
ATOM     13  O   UNL A   1      30.089  28.108  22.751  1.00  0.00    -0.275 OA
ATOM     14  H   UNL A   1      30.281  30.164  23.908  1.00  0.00     0.169 HD
BRANCH  12  15
ATOM     15  C   UNL A   1      31.056  26.949  24.607  1.00  0.00     0.110 C 
BRANCH  15  16
ATOM     16  C   UNL A   1      31.824  25.784  23.953  1.00  0.00     0.112 C 
BRANCH  16  17
ATOM     17  C   UNL A   1      33.269  25.944  23.453  1.00  0.00     0.240 C 
ATOM     18  N   UNL A   1      33.994  24.851  23.031  1.00  0.00    -0.247 N 
ATOM     19  H   UNL A   1      34.904  25.017  22.696  1.00  0.00     0.193 HD
ATOM     20  O   UNL A   1      33.780  27.066  23.361  1.00  0.00    -0.273 OA
BRANCH  18  21
ATOM     21  N   UNL A   1      33.559  23.566  23.037  1.00  0.00    -0.180 NA
ATOM     22  C   UNL A   1      34.099  22.862  23.975  1.00  0.00     0.148 C 
BRANCH  22  23
ATOM     23  C   UNL A   1      33.630  21.554  24.428  1.00  0.00     0.078 A 
ATOM     24  C   UNL A   1      35.453  15.643  25.022  1.00  0.00     0.044 C 
ATOM     25  C   UNL A   1      34.493  16.794  25.024  1.00  0.00    -0.050 A 
ATOM     26  C   UNL A   1      33.105  16.601  25.077  1.00  0.00     0.007 A 
ATOM     27  C   UNL A   1      34.997  18.093  24.964  1.00  0.00     0.019 A 
ATOM     28  C   UNL A   1      32.228  17.694  25.067  1.00  0.00     0.048 A 
ATOM     29  C   UNL A   1      34.114  19.170  24.913  1.00  0.00     0.066 A 
ATOM     30  C   UNL A   1      32.734  18.984  24.977  1.00  0.00     0.137 A 
ATOM     31  C   UNL A   1      34.636  20.513  24.681  1.00  0.00     0.201 A 
ATOM     32  O   UNL A   1      31.838  20.027  24.922  1.00  0.00    -0.463 OA
ATOM     33  O   UNL A   1      35.839  20.745  24.637  1.00  0.00    -0.288 OA
ATOM     34  C   UNL A   1      32.336  21.267  24.590  1.00  0.00     0.209 A 
ENDBRANCH  22  23
ENDBRANCH  18  21
ENDBRANCH  16  17
ENDBRANCH  15  16
ENDBRANCH  12  15
ENDBRANCH   6  11
ENDBRANCH   1   5
BRANCH   3  35
ATOM     35  C   UNL A   1      34.237  34.097  28.021  1.00  0.00     0.118 C 
BRANCH  35  36
ATOM     36  C   UNL A   1      33.039  34.663  28.798  1.00  0.00     0.042 C 
BRANCH  36  37
ATOM     37  C   UNL A   1      33.376  35.978  29.488  1.00  0.00     0.118 C 
BRANCH  37  38
ATOM     38  N   UNL A   1      32.516  36.211  30.641  1.00  0.00    -0.352 N 
ATOM     39  C   UNL A   1      32.629  35.769  31.934  1.00  0.00     0.251 C 
ATOM     40  H   UNL A   1      31.730  36.776  30.464  1.00  0.00     0.163 HD
ATOM     41  O   UNL A   1      31.701  35.941  32.714  1.00  0.00    -0.269 OA
BRANCH  39  42
ATOM     42  C   UNL A   1      33.849  35.068  32.384  1.00  0.00     0.039 A 
ATOM     43  C   UNL A   1      33.722  33.769  32.883  1.00  0.00     0.014 A 
ATOM     44  C   UNL A   1      35.102  35.686  32.352  1.00  0.00     0.014 A 
ATOM     45  C   UNL A   1      34.856  33.070  33.299  1.00  0.00     0.010 A 
ATOM     46  C   UNL A   1      36.240  34.963  32.699  1.00  0.00     0.010 A 
ATOM     47  C   UNL A   1      36.128  33.649  33.178  1.00  0.00    -0.014 A 
BRANCH  47  48
ATOM     48  C   UNL A   1      37.353  32.893  33.537  1.00  0.00     0.031 A 
ATOM     49  C   UNL A   1      38.075  33.184  34.823  1.00  0.00     0.074 A 
ATOM     50  C   UNL A   1      37.848  31.988  32.672  1.00  0.00     0.049 A 
ATOM     51  N   UNL A   1      39.197  32.682  35.274  1.00  0.00    -0.248 NA
ATOM     52  C   UNL A   1      37.469  34.192  35.706  1.00  0.00     0.031 C 
ATOM     53  C   UNL A   1      37.256  31.646  31.378  1.00  0.00     0.029 A 
ATOM     54  N   UNL A   1      38.968  31.198  32.744  1.00  0.00    -0.354 N 
ATOM     55  C   UNL A   1      39.437  33.320  36.484  1.00  0.00     0.074 A 
ATOM     56  C   UNL A   1      38.374  34.284  36.670  1.00  0.00     0.031 C 
ATOM     57  C   UNL A   1      38.003  30.699  30.789  1.00  0.00     0.029 A 
ATOM     58  C   UNL A   1      39.150  30.402  31.639  1.00  0.00     0.049 A 
ATOM     59  H   UNL A   1      39.582  31.202  33.513  1.00  0.00     0.167 HD
ATOM     60  C   UNL A   1      40.439  33.105  37.368  1.00  0.00     0.037 A 
ATOM     61  C   UNL A   1      40.140  29.539  31.342  1.00  0.00     0.037 A 
ATOM     62  C   UNL A   1      41.486  32.134  37.181  1.00  0.00     0.049 A 
ATOM     63  C   UNL A   1      41.262  29.344  32.328  1.00  0.00     0.074 A 
ATOM     64  C   UNL A   1      42.518  31.800  38.041  1.00  0.00     0.029 A 
ATOM     65  N   UNL A   1      41.639  31.345  36.049  1.00  0.00    -0.354 N 
ATOM     66  N   UNL A   1      41.441  29.901  33.500  1.00  0.00    -0.248 NA
ATOM     67  C   UNL A   1      42.318  28.396  31.946  1.00  0.00     0.031 C 
ATOM     68  C   UNL A   1      43.329  30.854  37.406  1.00  0.00     0.029 A 
ATOM     69  C   UNL A   1      42.767  30.549  36.176  1.00  0.00     0.049 A 
ATOM     70  H   UNL A   1      41.037  31.351  35.271  1.00  0.00     0.167 HD
ATOM     71  C   UNL A   1      42.607  29.348  34.011  1.00  0.00     0.074 A 
ATOM     72  C   UNL A   1      43.086  28.401  33.025  1.00  0.00     0.031 C 
ATOM     73  C   UNL A   1      43.226  29.602  35.191  1.00  0.00     0.037 A 
BRANCH  60  74
ATOM     74  C   UNL A   1      40.458  33.942  38.617  1.00  0.00     0.064 A 
ATOM     75  C   UNL A   1      41.190  35.137  38.693  1.00  0.00     0.173 A 
ATOM     76  C   UNL A   1      39.709  33.561  39.740  1.00  0.00     0.173 A 
ATOM     77  F   UNL A   1      41.930  35.545  37.651  1.00  0.00    -0.203 F 
ATOM     78  C   UNL A   1      41.200  35.899  39.860  1.00  0.00     0.198 A 
ATOM     79  C   UNL A   1      39.693  34.343  40.892  1.00  0.00     0.198 A 
ATOM     80  F   UNL A   1      38.984  32.432  39.721  1.00  0.00    -0.203 F 
ATOM     81  F   UNL A   1      41.952  37.006  39.927  1.00  0.00    -0.200 F 
ATOM     82  C   UNL A   1      40.447  35.506  40.954  1.00  0.00     0.200 A 
ATOM     83  F   UNL A   1      38.952  33.971  41.944  1.00  0.00    -0.200 F 
ATOM     84  F   UNL A   1      40.452  36.244  42.074  1.00  0.00    -0.200 F 
ENDBRANCH  60  74
BRANCH  61  85
ATOM     85  C   UNL A   1      40.107  28.780  30.065  1.00  0.00     0.064 A 
ATOM     86  C   UNL A   1      39.491  27.522  29.993  1.00  0.00     0.173 A 
ATOM     87  C   UNL A   1      40.693  29.286  28.895  1.00  0.00     0.173 A 
ATOM     88  F   UNL A   1      38.934  26.986  31.088  1.00  0.00    -0.203 F 
ATOM     89  C   UNL A   1      39.485  26.789  28.807  1.00  0.00     0.198 A 
ATOM     90  C   UNL A   1      40.658  28.567  27.702  1.00  0.00     0.198 A 
ATOM     91  F   UNL A   1      41.290  30.486  28.907  1.00  0.00    -0.203 F 
ATOM     92  F   UNL A   1      38.936  25.568  28.781  1.00  0.00    -0.200 F 
ATOM     93  C   UNL A   1      40.063  27.315  27.662  1.00  0.00     0.200 A 
ATOM     94  F   UNL A   1      41.204  29.085  26.594  1.00  0.00    -0.200 F 
ATOM     95  F   UNL A   1      40.056  26.610  26.522  1.00  0.00    -0.200 F 
ENDBRANCH  61  85
BRANCH  73  96
ATOM     96  C   UNL A   1      44.467  28.814  35.503  1.00  0.00     0.064 A 
ATOM     97  C   UNL A   1      44.418  27.613  36.227  1.00  0.00     0.173 A 
ATOM     98  C   UNL A   1      45.717  29.248  35.036  1.00  0.00     0.173 A 
ATOM     99  F   UNL A   1      43.250  27.162  36.710  1.00  0.00    -0.203 F 
ATOM    100  C   UNL A   1      45.578  26.891  36.494  1.00  0.00     0.198 A 
ATOM    101  C   UNL A   1      46.869  28.505  35.274  1.00  0.00     0.198 A 
ATOM    102  F   UNL A   1      45.819  30.386  34.332  1.00  0.00    -0.203 F 
ATOM    103  F   UNL A   1      45.515  25.775  37.232  1.00  0.00    -0.200 F 
ATOM    104  C   UNL A   1      46.800  27.332  36.010  1.00  0.00     0.200 A 
ATOM    105  F   UNL A   1      48.047  28.925  34.792  1.00  0.00    -0.200 F 
ATOM    106  F   UNL A   1      47.915  26.630  36.260  1.00  0.00    -0.200 F 
ENDBRANCH  73  96
ENDBRANCH  47  48
ENDBRANCH  39  42
ENDBRANCH  37  38
ENDBRANCH  36  37
ENDBRANCH  35  36
ENDBRANCH   3  35
TORSDOF 16
ENDMDL
