MODEL 1
REMARK VINA RESULT:     -12.1      0.000      0.000
REMARK SMILES C[C@H]1[C@H](C(=O)NCCCNC(=O)c2ccc(-c3c4nc(c(-c5c(F)c(F)c(F)c(F)c5F)c5ccc([nH]5)c(-c5c(F)c(F)c(F)c(F)c5F)c5nc(c(-c6c(F)c(F)c(F)c(F)c6F)c6ccc3[nH]6)C=C5)C=C4)cc2)CC[N@@H+]1Cc1ccc(C(F)(F)F)cc1
REMARK SMILES IDX 7 1 6 2 4 3 5 4 3 6 1 7 2 8 78 9 76 10 77 11 79 13 80 14
REMARK SMILES IDX 81 15 89 16 82 17 88 18 83 19 84 20 85 21 86 22 87 23 8 24
REMARK SMILES IDX 9 25 10 26 11 27 12 29 13 30 14 31 75 32 15 33 74 34 16 35
REMARK SMILES IDX 17 36 18 37 68 38 19 39 73 40 67 41 69 42 20 43 72 44 66 45
REMARK SMILES IDX 65 46 21 48 53 49 33 50 52 51 34 52 37 53 51 54 70 55 35 56
REMARK SMILES IDX 36 57 50 59 71 60 38 61 22 62 23 63 31 64 24 65 25 66 29 67
REMARK SMILES IDX 32 68 26 69 27 70 30 71 28 72 54 73 55 74 63 75 56 76 57 77
REMARK SMILES IDX 61 78 64 79 58 80 59 81 62 82 60 83 39 84 40 85 48 86 41 87
REMARK SMILES IDX 42 88 46 89 49 90 43 91 44 92 47 93 45 94
REMARK H PARENT 6 5 78 12 10 28 69 47 37 58
REMARK Flexibility Score: inf
ROOT
ATOM      1  C   UNL A   1      30.943  31.176  25.355  1.00  0.00     0.117 C 
ENDROOT
BRANCH   1   2
ATOM      2  N   UNL A   1      29.900  31.746  24.537  1.00  0.00    -0.356 N 
ATOM      3  C   UNL A   1      29.153  31.183  23.555  1.00  0.00     0.229 C 
ATOM      4  O   UNL A   1      28.285  31.902  23.047  1.00  0.00    -0.275 OA
ATOM      5  H   UNL A   1      29.697  32.692  24.722  1.00  0.00     0.163 HD
BRANCH   3   6
ATOM      6  C   UNL A   1      29.288  29.732  23.099  1.00  0.00     0.142 C 
ATOM      7  C   UNL A   1      31.526  28.940  22.287  1.00  0.00     0.076 C 
ATOM      8  C   UNL A   1      30.560  28.946  23.480  1.00  0.00     0.193 C 
ATOM      9  N   UNL A   1      30.121  27.558  23.730  1.00  0.00    -0.328 N 
ATOM     10  C   UNL A   1      28.139  28.822  23.501  1.00  0.00     0.081 C 
ATOM     11  C   UNL A   1      28.741  27.443  23.276  1.00  0.00     0.263 C 
ATOM     12  H   UNL A   1      30.711  26.945  23.170  1.00  0.00     0.348 HD
BRANCH   9  13
ATOM     13  C   UNL A   1      30.489  26.905  25.000  1.00  0.00     0.299 C 
BRANCH  13  14
ATOM     14  C   UNL A   1      31.694  27.403  25.787  1.00  0.00     0.006 A 
ATOM     15  C   UNL A   1      32.997  27.219  25.298  1.00  0.00     0.010 A 
ATOM     16  C   UNL A   1      31.564  28.043  27.027  1.00  0.00     0.010 A 
ATOM     17  C   UNL A   1      34.096  27.838  25.918  1.00  0.00     0.013 A 
ATOM     18  C   UNL A   1      32.645  28.693  27.628  1.00  0.00     0.013 A 
ATOM     19  C   UNL A   1      33.914  28.644  27.048  1.00  0.00     0.056 A 
BRANCH  19  20
ATOM     20  C   UNL A   1      35.025  29.526  27.572  1.00  0.00     0.416 C 
ATOM     21  F   UNL A   1      35.303  29.328  28.885  1.00  0.00    -0.166 F 
ATOM     22  F   UNL A   1      36.181  29.327  26.876  1.00  0.00    -0.166 F 
ATOM     23  F   UNL A   1      34.755  30.857  27.442  1.00  0.00    -0.166 F 
ENDBRANCH  19  20
ENDBRANCH  13  14
ENDBRANCH   9  13
ENDBRANCH   3   6
ENDBRANCH   1   2
BRANCH   1  24
ATOM     24  C   UNL A   1      31.051  31.864  26.714  1.00  0.00     0.042 C 
BRANCH  24  25
ATOM     25  C   UNL A   1      32.409  32.507  26.966  1.00  0.00     0.118 C 
BRANCH  25  26
ATOM     26  N   UNL A   1      32.307  33.892  27.419  1.00  0.00    -0.352 N 
ATOM     27  C   UNL A   1      32.957  34.602  28.392  1.00  0.00     0.251 C 
ATOM     28  H   UNL A   1      31.638  34.420  26.928  1.00  0.00     0.163 HD
ATOM     29  O   UNL A   1      32.528  35.722  28.692  1.00  0.00    -0.269 OA
BRANCH  27  30
ATOM     30  C   UNL A   1      34.130  34.087  29.123  1.00  0.00     0.039 A 
ATOM     31  C   UNL A   1      35.398  34.583  28.780  1.00  0.00     0.014 A 
ATOM     32  C   UNL A   1      34.027  33.060  30.058  1.00  0.00     0.014 A 
ATOM     33  C   UNL A   1      36.544  34.080  29.397  1.00  0.00     0.010 A 
ATOM     34  C   UNL A   1      35.157  32.628  30.745  1.00  0.00     0.010 A 
ATOM     35  C   UNL A   1      36.428  33.113  30.403  1.00  0.00    -0.014 A 
BRANCH  35  36
ATOM     36  C   UNL A   1      37.615  32.530  31.075  1.00  0.00     0.031 A 
ATOM     37  C   UNL A   1      38.378  31.428  30.392  1.00  0.00     0.074 A 
ATOM     38  C   UNL A   1      37.939  32.916  32.322  1.00  0.00     0.049 A 
ATOM     39  N   UNL A   1      39.297  30.631  30.870  1.00  0.00    -0.248 NA
ATOM     40  C   UNL A   1      38.020  31.159  28.989  1.00  0.00     0.031 C 
ATOM     41  C   UNL A   1      37.252  33.952  33.093  1.00  0.00     0.029 A 
ATOM     42  N   UNL A   1      38.914  32.460  33.172  1.00  0.00    -0.354 N 
ATOM     43  C   UNL A   1      39.590  29.739  29.847  1.00  0.00     0.074 A 
ATOM     44  C   UNL A   1      38.722  30.065  28.737  1.00  0.00     0.031 C 
ATOM     45  C   UNL A   1      37.829  34.057  34.300  1.00  0.00     0.029 A 
ATOM     46  C   UNL A   1      38.894  33.065  34.404  1.00  0.00     0.049 A 
ATOM     47  H   UNL A   1      39.565  31.765  32.921  1.00  0.00     0.167 HD
ATOM     48  C   UNL A   1      40.516  28.749  29.830  1.00  0.00     0.037 A 
ATOM     49  C   UNL A   1      39.641  32.828  35.498  1.00  0.00     0.037 A 
ATOM     50  C   UNL A   1      41.408  28.472  30.924  1.00  0.00     0.049 A 
ATOM     51  C   UNL A   1      40.692  31.754  35.440  1.00  0.00     0.074 A 
ATOM     52  C   UNL A   1      42.421  27.533  31.000  1.00  0.00     0.029 A 
ATOM     53  N   UNL A   1      41.402  29.154  32.134  1.00  0.00    -0.354 N 
ATOM     54  N   UNL A   1      40.978  30.929  34.463  1.00  0.00    -0.248 NA
ATOM     55  C   UNL A   1      41.529  31.584  36.635  1.00  0.00     0.031 C 
ATOM     56  C   UNL A   1      43.009  27.627  32.266  1.00  0.00     0.029 A 
ATOM     57  C   UNL A   1      42.391  28.653  32.964  1.00  0.00     0.049 A 
ATOM     58  H   UNL A   1      40.786  29.884  32.367  1.00  0.00     0.167 HD
ATOM     59  C   UNL A   1      42.037  30.155  34.914  1.00  0.00     0.074 A 
ATOM     60  C   UNL A   1      42.357  30.625  36.247  1.00  0.00     0.031 C 
ATOM     61  C   UNL A   1      42.686  29.144  34.286  1.00  0.00     0.037 A 
BRANCH  48  62
ATOM     62  C   UNL A   1      40.604  27.902  28.592  1.00  0.00     0.064 A 
ATOM     63  C   UNL A   1      39.912  26.685  28.478  1.00  0.00     0.173 A 
ATOM     64  C   UNL A   1      41.383  28.315  27.499  1.00  0.00     0.173 A 
ATOM     65  F   UNL A   1      39.166  26.236  29.497  1.00  0.00    -0.203 F 
ATOM     66  C   UNL A   1      40.029  25.897  27.336  1.00  0.00     0.198 A 
ATOM     67  C   UNL A   1      41.469  27.540  26.345  1.00  0.00     0.198 A 
ATOM     68  F   UNL A   1      42.062  29.471  27.551  1.00  0.00    -0.203 F 
ATOM     69  F   UNL A   1      39.409  24.710  27.277  1.00  0.00    -0.200 F 
ATOM     70  C   UNL A   1      40.802  26.327  26.268  1.00  0.00     0.200 A 
ATOM     71  F   UNL A   1      42.208  27.962  25.310  1.00  0.00    -0.200 F 
ATOM     72  F   UNL A   1      40.912  25.568  25.170  1.00  0.00    -0.200 F 
ENDBRANCH  48  62
BRANCH  49  73
ATOM     73  C   UNL A   1      39.431  33.640  36.724  1.00  0.00     0.064 A 
ATOM     74  C   UNL A   1      38.650  33.153  37.782  1.00  0.00     0.173 A 
ATOM     75  C   UNL A   1      40.024  34.902  36.878  1.00  0.00     0.173 A 
ATOM     76  F   UNL A   1      38.051  31.958  37.674  1.00  0.00    -0.203 F 
ATOM     77  C   UNL A   1      38.457  33.903  38.939  1.00  0.00     0.198 A 
ATOM     78  C   UNL A   1      39.851  35.641  38.047  1.00  0.00     0.198 A 
ATOM     79  F   UNL A   1      40.788  35.410  35.900  1.00  0.00    -0.203 F 
ATOM     80  F   UNL A   1      37.675  33.429  39.919  1.00  0.00    -0.200 F 
ATOM     81  C   UNL A   1      39.063  35.144  39.074  1.00  0.00     0.200 A 
ATOM     82  F   UNL A   1      40.453  36.831  38.180  1.00  0.00    -0.200 F 
ATOM     83  F   UNL A   1      38.885  35.860  40.192  1.00  0.00    -0.200 F 
ENDBRANCH  49  73
BRANCH  61  84
ATOM     84  C   UNL A   1      43.821  28.503  35.028  1.00  0.00     0.064 A 
ATOM     85  C   UNL A   1      45.131  28.996  34.936  1.00  0.00     0.173 A 
ATOM     86  C   UNL A   1      43.589  27.397  35.861  1.00  0.00     0.173 A 
ATOM     87  F   UNL A   1      45.403  30.042  34.140  1.00  0.00    -0.203 F 
ATOM     88  C   UNL A   1      46.173  28.389  35.630  1.00  0.00     0.198 A 
ATOM     89  C   UNL A   1      44.629  26.810  36.575  1.00  0.00     0.198 A 
ATOM     90  F   UNL A   1      42.353  26.893  35.987  1.00  0.00    -0.203 F 
ATOM     91  F   UNL A   1      47.425  28.844  35.488  1.00  0.00    -0.200 F 
ATOM     92  C   UNL A   1      45.920  27.301  36.452  1.00  0.00     0.200 A 
ATOM     93  F   UNL A   1      44.383  25.766  37.379  1.00  0.00    -0.200 F 
ATOM     94  F   UNL A   1      46.926  26.718  37.120  1.00  0.00    -0.200 F 
ENDBRANCH  61  84
ENDBRANCH  35  36
ENDBRANCH  27  30
ENDBRANCH  25  26
ENDBRANCH  24  25
ENDBRANCH   1  24
TORSDOF 13
ENDMDL
MODEL 2
REMARK VINA RESULT:     -12.0      3.748      4.926
REMARK SMILES C[C@H]1[C@H](C(=O)NCCCNC(=O)c2ccc(-c3c4nc(c(-c5c(F)c(F)c(F)c(F)c5F)c5ccc([nH]5)c(-c5c(F)c(F)c(F)c(F)c5F)c5nc(c(-c6c(F)c(F)c(F)c(F)c6F)c6ccc3[nH]6)C=C5)C=C4)cc2)CC[N@@H+]1Cc1ccc(C(F)(F)F)cc1
REMARK SMILES IDX 7 1 6 2 4 3 5 4 3 6 1 7 2 8 78 9 76 10 77 11 79 13 80 14
REMARK SMILES IDX 81 15 89 16 82 17 88 18 83 19 84 20 85 21 86 22 87 23 8 24
REMARK SMILES IDX 9 25 10 26 11 27 12 29 13 30 14 31 75 32 15 33 74 34 16 35
REMARK SMILES IDX 17 36 18 37 68 38 19 39 73 40 67 41 69 42 20 43 72 44 66 45
REMARK SMILES IDX 65 46 21 48 53 49 33 50 52 51 34 52 37 53 51 54 70 55 35 56
REMARK SMILES IDX 36 57 50 59 71 60 38 61 22 62 23 63 31 64 24 65 25 66 29 67
REMARK SMILES IDX 32 68 26 69 27 70 30 71 28 72 54 73 55 74 63 75 56 76 57 77
REMARK SMILES IDX 61 78 64 79 58 80 59 81 62 82 60 83 39 84 40 85 48 86 41 87
REMARK SMILES IDX 42 88 46 89 49 90 43 91 44 92 47 93 45 94
REMARK H PARENT 6 5 78 12 10 28 69 47 37 58
REMARK Flexibility Score: inf
ROOT
ATOM      1  C   UNL A   1      32.268  28.022  23.007  1.00  0.00     0.117 C 
ENDROOT
BRANCH   1   2
ATOM      2  N   UNL A   1      32.586  27.114  21.933  1.00  0.00    -0.356 N 
ATOM      3  C   UNL A   1      33.101  25.860  21.972  1.00  0.00     0.229 C 
ATOM      4  O   UNL A   1      33.228  25.288  20.883  1.00  0.00    -0.275 OA
ATOM      5  H   UNL A   1      32.397  27.458  21.029  1.00  0.00     0.163 HD
BRANCH   3   6
ATOM      6  C   UNL A   1      33.468  25.122  23.256  1.00  0.00     0.142 C 
ATOM      7  C   UNL A   1      32.103  25.560  25.316  1.00  0.00     0.076 C 
ATOM      8  C   UNL A   1      32.336  24.582  24.155  1.00  0.00     0.193 C 
ATOM      9  N   UNL A   1      32.833  23.308  24.713  1.00  0.00    -0.328 N 
ATOM     10  C   UNL A   1      34.410  23.943  23.074  1.00  0.00     0.081 C 
ATOM     11  C   UNL A   1      34.253  23.211  24.398  1.00  0.00     0.263 C 
ATOM     12  H   UNL A   1      32.715  23.350  25.725  1.00  0.00     0.348 HD
BRANCH   9  13
ATOM     13  C   UNL A   1      32.009  22.092  24.576  1.00  0.00     0.299 C 
BRANCH  13  14
ATOM     14  C   UNL A   1      32.671  20.763  24.234  1.00  0.00     0.006 A 
ATOM     15  C   UNL A   1      33.806  20.325  24.935  1.00  0.00     0.010 A 
ATOM     16  C   UNL A   1      32.198  19.935  23.208  1.00  0.00     0.010 A 
ATOM     17  C   UNL A   1      34.308  19.025  24.759  1.00  0.00     0.013 A 
ATOM     18  C   UNL A   1      32.666  18.627  23.054  1.00  0.00     0.013 A 
ATOM     19  C   UNL A   1      33.690  18.139  23.867  1.00  0.00     0.056 A 
BRANCH  19  20
ATOM     20  C   UNL A   1      34.038  16.668  23.852  1.00  0.00     0.416 C 
ATOM     21  F   UNL A   1      35.072  16.345  24.670  1.00  0.00    -0.166 F 
ATOM     22  F   UNL A   1      32.970  15.905  24.226  1.00  0.00    -0.166 F 
ATOM     23  F   UNL A   1      34.384  16.214  22.613  1.00  0.00    -0.166 F 
ENDBRANCH  19  20
ENDBRANCH  13  14
ENDBRANCH   9  13
ENDBRANCH   3   6
ENDBRANCH   1   2
BRANCH   1  24
ATOM     24  C   UNL A   1      33.475  28.853  23.437  1.00  0.00     0.042 C 
BRANCH  24  25
ATOM     25  C   UNL A   1      33.658  28.928  24.948  1.00  0.00     0.118 C 
BRANCH  25  26
ATOM     26  N   UNL A   1      33.006  30.092  25.543  1.00  0.00    -0.352 N 
ATOM     27  C   UNL A   1      33.252  30.816  26.677  1.00  0.00     0.251 C 
ATOM     28  H   UNL A   1      32.236  30.420  25.026  1.00  0.00     0.163 HD
ATOM     29  O   UNL A   1      32.411  31.646  27.043  1.00  0.00    -0.269 OA
BRANCH  27  30
ATOM     30  C   UNL A   1      34.460  30.639  27.505  1.00  0.00     0.039 A 
ATOM     31  C   UNL A   1      35.331  31.730  27.653  1.00  0.00     0.014 A 
ATOM     32  C   UNL A   1      34.811  29.406  28.048  1.00  0.00     0.014 A 
ATOM     33  C   UNL A   1      36.520  31.593  28.372  1.00  0.00     0.010 A 
ATOM     34  C   UNL A   1      35.943  29.294  28.848  1.00  0.00     0.010 A 
ATOM     35  C   UNL A   1      36.822  30.377  28.996  1.00  0.00    -0.014 A 
BRANCH  35  36
ATOM     36  C   UNL A   1      38.081  30.172  29.752  1.00  0.00     0.031 A 
ATOM     37  C   UNL A   1      39.132  29.252  29.194  1.00  0.00     0.074 A 
ATOM     38  C   UNL A   1      38.232  30.725  30.969  1.00  0.00     0.049 A 
ATOM     39  N   UNL A   1      40.196  28.757  29.769  1.00  0.00    -0.248 NA
ATOM     40  C   UNL A   1      38.927  28.790  27.811  1.00  0.00     0.031 C 
ATOM     41  C   UNL A   1      37.266  31.609  31.623  1.00  0.00     0.029 A 
ATOM     42  N   UNL A   1      39.245  30.603  31.885  1.00  0.00    -0.354 N 
ATOM     43  C   UNL A   1      40.758  27.892  28.839  1.00  0.00     0.074 A 
ATOM     44  C   UNL A   1      39.894  27.895  27.679  1.00  0.00     0.031 C 
ATOM     45  C   UNL A   1      37.735  31.953  32.832  1.00  0.00     0.029 A 
ATOM     46  C   UNL A   1      39.009  31.278  33.057  1.00  0.00     0.049 A 
ATOM     47  H   UNL A   1      40.063  30.080  31.717  1.00  0.00     0.167 HD
ATOM     48  C   UNL A   1      41.903  27.173  28.939  1.00  0.00     0.037 A 
ATOM     49  C   UNL A   1      39.734  31.328  34.189  1.00  0.00     0.037 A 
ATOM     50  C   UNL A   1      42.779  27.221  30.080  1.00  0.00     0.049 A 
ATOM     51  C   UNL A   1      41.023  30.558  34.260  1.00  0.00     0.074 A 
ATOM     52  C   UNL A   1      43.991  26.582  30.270  1.00  0.00     0.029 A 
ATOM     53  N   UNL A   1      42.538  27.972  31.223  1.00  0.00    -0.354 N 
ATOM     54  N   UNL A   1      41.559  29.758  33.369  1.00  0.00    -0.248 NA
ATOM     55  C   UNL A   1      41.813  30.703  35.490  1.00  0.00     0.031 C 
ATOM     56  C   UNL A   1      44.470  26.923  31.540  1.00  0.00     0.029 A 
ATOM     57  C   UNL A   1      43.577  27.809  32.124  1.00  0.00     0.049 A 
ATOM     58  H   UNL A   1      41.746  28.537  31.371  1.00  0.00     0.167 HD
ATOM     59  C   UNL A   1      42.754  29.319  33.919  1.00  0.00     0.074 A 
ATOM     60  C   UNL A   1      42.876  29.960  35.214  1.00  0.00     0.031 C 
ATOM     61  C   UNL A   1      43.670  28.462  33.404  1.00  0.00     0.037 A 
BRANCH  48  62
ATOM     62  C   UNL A   1      42.266  26.282  27.785  1.00  0.00     0.064 A 
ATOM     63  C   UNL A   1      41.701  25.006  27.630  1.00  0.00     0.173 A 
ATOM     64  C   UNL A   1      43.185  26.711  26.815  1.00  0.00     0.173 A 
ATOM     65  F   UNL A   1      40.829  24.541  28.536  1.00  0.00    -0.203 F 
ATOM     66  C   UNL A   1      42.071  24.180  26.572  1.00  0.00     0.198 A 
ATOM     67  C   UNL A   1      43.527  25.895  25.739  1.00  0.00     0.198 A 
ATOM     68  F   UNL A   1      43.754  27.922  26.910  1.00  0.00    -0.203 F 
ATOM     69  F   UNL A   1      41.565  22.942  26.482  1.00  0.00    -0.200 F 
ATOM     70  C   UNL A   1      42.980  24.627  25.624  1.00  0.00     0.200 A 
ATOM     71  F   UNL A   1      44.397  26.332  24.817  1.00  0.00    -0.200 F 
ATOM     72  F   UNL A   1      43.334  23.830  24.606  1.00  0.00    -0.200 F 
ENDBRANCH  48  62
BRANCH  49  73
ATOM     73  C   UNL A   1      39.263  32.153  35.331  1.00  0.00     0.064 A 
ATOM     74  C   UNL A   1      38.513  31.581  36.369  1.00  0.00     0.173 A 
ATOM     75  C   UNL A   1      39.570  33.518  35.425  1.00  0.00     0.173 A 
ATOM     76  F   UNL A   1      38.182  30.282  36.315  1.00  0.00    -0.203 F 
ATOM     77  C   UNL A   1      38.077  32.345  37.448  1.00  0.00     0.198 A 
ATOM     78  C   UNL A   1      39.154  34.277  36.518  1.00  0.00     0.198 A 
ATOM     79  F   UNL A   1      40.292  34.112  34.463  1.00  0.00    -0.203 F 
ATOM     80  F   UNL A   1      37.331  31.780  38.407  1.00  0.00    -0.200 F 
ATOM     81  C   UNL A   1      38.403  33.691  37.525  1.00  0.00     0.200 A 
ATOM     82  F   UNL A   1      39.487  35.572  36.597  1.00  0.00    -0.200 F 
ATOM     83  F   UNL A   1      37.991  34.423  38.569  1.00  0.00    -0.200 F 
ENDBRANCH  49  73
BRANCH  61  84
ATOM     84  C   UNL A   1      44.890  28.194  34.235  1.00  0.00     0.064 A 
ATOM     85  C   UNL A   1      46.034  28.998  34.140  1.00  0.00     0.173 A 
ATOM     86  C   UNL A   1      44.902  27.135  35.156  1.00  0.00     0.173 A 
ATOM     87  F   UNL A   1      46.075  30.013  33.262  1.00  0.00    -0.203 F 
ATOM     88  C   UNL A   1      47.159  28.734  34.916  1.00  0.00     0.198 A 
ATOM     89  C   UNL A   1      46.018  26.892  35.951  1.00  0.00     0.198 A 
ATOM     90  F   UNL A   1      43.828  26.341  35.288  1.00  0.00    -0.203 F 
ATOM     91  F   UNL A   1      48.261  29.483  34.771  1.00  0.00    -0.200 F 
ATOM     92  C   UNL A   1      47.147  27.686  35.824  1.00  0.00     0.200 A 
ATOM     93  F   UNL A   1      46.002  25.886  36.836  1.00  0.00    -0.200 F 
ATOM     94  F   UNL A   1      48.232  27.434  36.571  1.00  0.00    -0.200 F 
ENDBRANCH  61  84
ENDBRANCH  35  36
ENDBRANCH  27  30
ENDBRANCH  25  26
ENDBRANCH  24  25
ENDBRANCH   1  24
TORSDOF 13
ENDMDL
MODEL 3
REMARK VINA RESULT:     -11.9      2.467      3.796
REMARK SMILES C[C@H]1[C@H](C(=O)NCCCNC(=O)c2ccc(-c3c4nc(c(-c5c(F)c(F)c(F)c(F)c5F)c5ccc([nH]5)c(-c5c(F)c(F)c(F)c(F)c5F)c5nc(c(-c6c(F)c(F)c(F)c(F)c6F)c6ccc3[nH]6)C=C5)C=C4)cc2)CC[N@@H+]1Cc1ccc(C(F)(F)F)cc1
REMARK SMILES IDX 7 1 6 2 4 3 5 4 3 6 1 7 2 8 78 9 76 10 77 11 79 13 80 14
REMARK SMILES IDX 81 15 89 16 82 17 88 18 83 19 84 20 85 21 86 22 87 23 8 24
REMARK SMILES IDX 9 25 10 26 11 27 12 29 13 30 14 31 75 32 15 33 74 34 16 35
REMARK SMILES IDX 17 36 18 37 68 38 19 39 73 40 67 41 69 42 20 43 72 44 66 45
REMARK SMILES IDX 65 46 21 48 53 49 33 50 52 51 34 52 37 53 51 54 70 55 35 56
REMARK SMILES IDX 36 57 50 59 71 60 38 61 22 62 23 63 31 64 24 65 25 66 29 67
REMARK SMILES IDX 32 68 26 69 27 70 30 71 28 72 54 73 55 74 63 75 56 76 57 77
REMARK SMILES IDX 61 78 64 79 58 80 59 81 62 82 60 83 39 84 40 85 48 86 41 87
REMARK SMILES IDX 42 88 46 89 49 90 43 91 44 92 47 93 45 94
REMARK H PARENT 6 5 78 12 10 28 69 47 37 58
REMARK Flexibility Score: inf
ROOT
ATOM      1  C   UNL A   1      31.110  27.436  26.174  1.00  0.00     0.117 C 
ENDROOT
BRANCH   1   2
ATOM      2  N   UNL A   1      31.030  26.155  26.832  1.00  0.00    -0.356 N 
ATOM      3  C   UNL A   1      31.524  24.948  26.460  1.00  0.00     0.229 C 
ATOM      4  O   UNL A   1      31.343  24.016  27.251  1.00  0.00    -0.275 OA
ATOM      5  H   UNL A   1      30.540  26.157  27.687  1.00  0.00     0.163 HD
BRANCH   3   6
ATOM      6  C   UNL A   1      32.317  24.703  25.179  1.00  0.00     0.142 C 
ATOM      7  C   UNL A   1      31.442  23.019  23.537  1.00  0.00     0.076 C 
ATOM      8  C   UNL A   1      31.551  24.517  23.852  1.00  0.00     0.193 C 
ATOM      9  N   UNL A   1      32.383  25.153  22.810  1.00  0.00    -0.328 N 
ATOM     10  C   UNL A   1      33.375  25.749  24.867  1.00  0.00     0.081 C 
ATOM     11  C   UNL A   1      33.677  25.462  23.404  1.00  0.00     0.263 C 
ATOM     12  H   UNL A   1      32.511  24.471  22.062  1.00  0.00     0.348 HD
BRANCH   9  13
ATOM     13  C   UNL A   1      31.775  26.156  21.915  1.00  0.00     0.299 C 
BRANCH  13  14
ATOM     14  C   UNL A   1      30.998  27.326  22.506  1.00  0.00     0.006 A 
ATOM     15  C   UNL A   1      31.613  28.574  22.693  1.00  0.00     0.010 A 
ATOM     16  C   UNL A   1      29.659  27.210  22.902  1.00  0.00     0.010 A 
ATOM     17  C   UNL A   1      30.860  29.703  23.057  1.00  0.00     0.013 A 
ATOM     18  C   UNL A   1      28.896  28.334  23.228  1.00  0.00     0.013 A 
ATOM     19  C   UNL A   1      29.476  29.603  23.253  1.00  0.00     0.056 A 
BRANCH  19  20
ATOM     20  C   UNL A   1      28.609  30.835  23.382  1.00  0.00     0.416 C 
ATOM     21  F   UNL A   1      28.422  31.492  22.210  1.00  0.00    -0.166 F 
ATOM     22  F   UNL A   1      27.376  30.520  23.874  1.00  0.00    -0.166 F 
ATOM     23  F   UNL A   1      29.116  31.755  24.252  1.00  0.00    -0.166 F 
ENDBRANCH  19  20
ENDBRANCH  13  14
ENDBRANCH   9  13
ENDBRANCH   3   6
ENDBRANCH   1   2
BRANCH   1  24
ATOM     24  C   UNL A   1      31.944  28.441  26.965  1.00  0.00     0.042 C 
BRANCH  24  25
ATOM     25  C   UNL A   1      32.833  29.318  26.093  1.00  0.00     0.118 C 
BRANCH  25  26
ATOM     26  N   UNL A   1      32.662  30.744  26.359  1.00  0.00    -0.352 N 
ATOM     27  C   UNL A   1      33.336  31.628  27.157  1.00  0.00     0.251 C 
ATOM     28  H   UNL A   1      31.914  31.151  25.866  1.00  0.00     0.163 HD
ATOM     29  O   UNL A   1      32.848  32.749  27.341  1.00  0.00    -0.269 OA
BRANCH  27  30
ATOM     30  C   UNL A   1      34.604  31.302  27.836  1.00  0.00     0.039 A 
ATOM     31  C   UNL A   1      34.753  30.020  28.389  1.00  0.00     0.014 A 
ATOM     32  C   UNL A   1      35.603  32.252  28.034  1.00  0.00     0.014 A 
ATOM     33  C   UNL A   1      35.908  29.686  29.099  1.00  0.00     0.010 A 
ATOM     34  C   UNL A   1      36.795  31.891  28.652  1.00  0.00     0.010 A 
ATOM     35  C   UNL A   1      36.949  30.614  29.214  1.00  0.00    -0.014 A 
BRANCH  35  36
ATOM     36  C   UNL A   1      38.187  30.318  29.975  1.00  0.00     0.031 A 
ATOM     37  C   UNL A   1      39.193  29.361  29.397  1.00  0.00     0.074 A 
ATOM     38  C   UNL A   1      38.355  30.824  31.210  1.00  0.00     0.049 A 
ATOM     39  N   UNL A   1      40.223  28.791  29.966  1.00  0.00    -0.248 NA
ATOM     40  C   UNL A   1      38.978  28.953  27.998  1.00  0.00     0.031 C 
ATOM     41  C   UNL A   1      37.431  31.738  31.883  1.00  0.00     0.029 A 
ATOM     42  N   UNL A   1      39.350  30.619  32.131  1.00  0.00    -0.354 N 
ATOM     43  C   UNL A   1      40.748  27.927  29.014  1.00  0.00     0.074 A 
ATOM     44  C   UNL A   1      39.897  28.013  27.847  1.00  0.00     0.031 C 
ATOM     45  C   UNL A   1      37.905  32.019  33.107  1.00  0.00     0.029 A 
ATOM     46  C   UNL A   1      39.139  31.270  33.321  1.00  0.00     0.049 A 
ATOM     47  H   UNL A   1      40.141  30.059  31.954  1.00  0.00     0.167 HD
ATOM     48  C   UNL A   1      41.851  27.144  29.101  1.00  0.00     0.037 A 
ATOM     49  C   UNL A   1      39.853  31.244  34.461  1.00  0.00     0.037 A 
ATOM     50  C   UNL A   1      42.716  27.110  30.250  1.00  0.00     0.049 A 
ATOM     51  C   UNL A   1      41.098  30.404  34.518  1.00  0.00     0.074 A 
ATOM     52  C   UNL A   1      43.890  26.400  30.431  1.00  0.00     0.029 A 
ATOM     53  N   UNL A   1      42.504  27.837  31.414  1.00  0.00    -0.354 N 
ATOM     54  N   UNL A   1      41.600  29.605  33.608  1.00  0.00    -0.248 NA
ATOM     55  C   UNL A   1      41.882  30.468  35.759  1.00  0.00     0.031 C 
ATOM     56  C   UNL A   1      44.373  26.675  31.715  1.00  0.00     0.029 A 
ATOM     57  C   UNL A   1      43.523  27.589  32.319  1.00  0.00     0.049 A 
ATOM     58  H   UNL A   1      41.742  28.438  31.574  1.00  0.00     0.167 HD
ATOM     59  C   UNL A   1      42.764  29.085  34.154  1.00  0.00     0.074 A 
ATOM     60  C   UNL A   1      42.906  29.677  35.469  1.00  0.00     0.031 C 
ATOM     61  C   UNL A   1      43.637  28.196  33.620  1.00  0.00     0.037 A 
BRANCH  48  62
ATOM     62  C   UNL A   1      42.178  26.271  27.923  1.00  0.00     0.064 A 
ATOM     63  C   UNL A   1      41.547  25.033  27.722  1.00  0.00     0.173 A 
ATOM     64  C   UNL A   1      43.129  26.680  26.974  1.00  0.00     0.173 A 
ATOM     65  F   UNL A   1      40.641  24.588  28.605  1.00  0.00    -0.203 F 
ATOM     66  C   UNL A   1      41.883  24.222  26.642  1.00  0.00     0.198 A 
ATOM     67  C   UNL A   1      43.438  25.880  25.876  1.00  0.00     0.198 A 
ATOM     68  F   UNL A   1      43.761  27.855  27.113  1.00  0.00    -0.203 F 
ATOM     69  F   UNL A   1      41.312  23.017  26.508  1.00  0.00    -0.200 F 
ATOM     70  C   UNL A   1      42.824  24.648  25.716  1.00  0.00     0.200 A 
ATOM     71  F   UNL A   1      44.339  26.299  24.977  1.00  0.00    -0.200 F 
ATOM     72  F   UNL A   1      43.146  23.866  24.677  1.00  0.00    -0.200 F 
ENDBRANCH  48  62
BRANCH  49  73
ATOM     73  C   UNL A   1      39.415  32.058  35.624  1.00  0.00     0.064 A 
ATOM     74  C   UNL A   1      39.874  33.372  35.794  1.00  0.00     0.173 A 
ATOM     75  C   UNL A   1      38.514  31.553  36.574  1.00  0.00     0.173 A 
ATOM     76  F   UNL A   1      40.748  33.892  34.921  1.00  0.00    -0.203 F 
ATOM     77  C   UNL A   1      39.460  34.144  36.877  1.00  0.00     0.198 A 
ATOM     78  C   UNL A   1      38.081  32.336  37.642  1.00  0.00     0.198 A 
ATOM     79  F   UNL A   1      38.038  30.305  36.452  1.00  0.00    -0.203 F 
ATOM     80  F   UNL A   1      39.943  35.384  37.034  1.00  0.00    -0.200 F 
ATOM     81  C   UNL A   1      38.559  33.629  37.796  1.00  0.00     0.200 A 
ATOM     82  F   UNL A   1      37.197  31.840  38.518  1.00  0.00    -0.200 F 
ATOM     83  F   UNL A   1      38.154  34.376  38.831  1.00  0.00    -0.200 F 
ENDBRANCH  49  73
BRANCH  61  84
ATOM     84  C   UNL A   1      44.832  27.836  34.453  1.00  0.00     0.064 A 
ATOM     85  C   UNL A   1      46.017  28.585  34.399  1.00  0.00     0.173 A 
ATOM     86  C   UNL A   1      44.781  26.745  35.334  1.00  0.00     0.173 A 
ATOM     87  F   UNL A   1      46.118  29.628  33.560  1.00  0.00    -0.203 F 
ATOM     88  C   UNL A   1      47.117  28.237  35.176  1.00  0.00     0.198 A 
ATOM     89  C   UNL A   1      45.873  26.418  36.130  1.00  0.00     0.198 A 
ATOM     90  F   UNL A   1      43.667  26.003  35.426  1.00  0.00    -0.203 F 
ATOM     91  F   UNL A   1      48.257  28.934  35.071  1.00  0.00    -0.200 F 
ATOM     92  C   UNL A   1      47.043  27.158  36.044  1.00  0.00     0.200 A 
ATOM     93  F   UNL A   1      45.797  25.382  36.977  1.00  0.00    -0.200 F 
ATOM     94  F   UNL A   1      48.104  26.825  36.793  1.00  0.00    -0.200 F 
ENDBRANCH  61  84
ENDBRANCH  35  36
ENDBRANCH  27  30
ENDBRANCH  25  26
ENDBRANCH  24  25
ENDBRANCH   1  24
TORSDOF 13
ENDMDL
