MODEL 1
REMARK VINA RESULT:     -12.5      0.000      0.000
REMARK SMILES Cc1nn(C)c(Cl)c1C[N@@H+]1CC[C@H](O)C[C@@H]1C(=O)NCCCNC(=O)c1ccc(-c2c3nc(c(-c4c(F)c(F)c(F)c(F)c4F)c4ccc([nH]4)c(-c4c(F)c(F)c(F)c(F)c4F)c4nc(c(-c5c(F)c(F)c(F)c(F)c5F)c5ccc2[nH]5)C=C4)C=C3)cc1
REMARK SMILES IDX 21 1 20 2 19 3 17 4 18 5 16 7 10 8 11 9 12 11 15 12 13 13
REMARK SMILES IDX 9 14 8 15 1 16 2 17 3 18 4 19 6 20 5 21 7 22 14 23 22 25
REMARK SMILES IDX 23 26 24 27 25 29 26 30 27 31 88 32 28 33 87 34 29 35 30 36
REMARK SMILES IDX 31 37 81 38 32 39 86 40 80 41 82 42 33 43 85 44 79 45 78 46
REMARK SMILES IDX 34 48 66 49 46 50 65 51 47 52 50 53 64 54 83 55 48 56 49 57
REMARK SMILES IDX 63 59 84 60 51 61 35 62 36 63 44 64 37 65 38 66 42 67 45 68
REMARK SMILES IDX 39 69 40 70 43 71 41 72 67 73 68 74 76 75 69 76 70 77 74 78
REMARK SMILES IDX 77 79 71 80 72 81 75 82 73 83 52 84 53 85 61 86 54 87 55 88
REMARK SMILES IDX 59 89 62 90 56 91 57 92 60 93 58 94
REMARK H PARENT 19 6 10 10 14 24 23 28 82 47 50 58
REMARK Flexibility Score: inf
ROOT
ATOM      1  C   UNL A   1      37.542  20.843  25.024  1.00  0.00     0.042 C 
ENDROOT
BRANCH   1   2
ATOM      2  C   UNL A   1      36.659  22.078  25.173  1.00  0.00     0.118 C 
BRANCH   2   3
ATOM      3  N   UNL A   1      35.704  21.978  26.271  1.00  0.00    -0.351 N 
ATOM      4  C   UNL A   1      34.506  22.562  26.532  1.00  0.00     0.278 C 
ATOM      5  O   UNL A   1      34.295  22.719  27.741  1.00  0.00    -0.268 OA
ATOM      6  H   UNL A   1      35.990  21.353  26.976  1.00  0.00     0.163 HD
BRANCH   4   7
ATOM      7  C   UNL A   1      33.452  23.040  25.496  1.00  0.00     0.277 C 
ATOM      8  N   UNL A   1      33.142  24.492  25.523  1.00  0.00    -0.321 N 
ATOM      9  C   UNL A   1      32.061  24.955  26.377  1.00  0.00     0.265 C 
ATOM     10  H   UNL A   1      32.704  24.456  24.602  1.00  0.00     0.349 HD
ATOM     11  C   UNL A   1      30.780  24.146  26.219  1.00  0.00     0.093 C 
ATOM     12  C   UNL A   1      32.151  22.246  25.390  1.00  0.00     0.107 C 
ATOM     13  C   UNL A   1      31.070  22.674  26.398  1.00  0.00     0.126 C 
BRANCH   8  14
ATOM     14  C   UNL A   1      34.189  25.481  25.232  1.00  0.00     0.304 C 
BRANCH  14  15
ATOM     15  C   UNL A   1      33.692  26.773  24.668  1.00  0.00     0.066 A 
ATOM     16  C   UNL A   1      34.218  28.446  26.641  1.00  0.00     0.069 C 
ATOM     17  C   UNL A   1      33.676  28.057  25.312  1.00  0.00     0.070 A 
ATOM     18  N   UNL A   1      33.060  28.990  24.569  1.00  0.00    -0.177 NA
ATOM     19  N   UNL A   1      32.687  28.317  23.466  1.00  0.00    -0.256 N 
ATOM     20  C   UNL A   1      33.249  27.082  23.400  1.00  0.00     0.135 A 
ATOM     21  C   UNL A   1      31.684  28.895  22.604  1.00  0.00     0.175 C 
ATOM     22  Cl  UNL A   1      33.275  26.243  21.917  1.00  0.00    -0.062 Cl
ENDBRANCH  14  15
ENDBRANCH   8  14
BRANCH  13  23
ATOM     23  O   UNL A   1      31.389  22.462  27.770  1.00  0.00    -0.393 OA
ATOM     24  H   UNL A   1      30.581  22.518  28.302  1.00  0.00     0.210 HD
ENDBRANCH  13  23
ENDBRANCH   4   7
ENDBRANCH   2   3
ENDBRANCH   1   2
BRANCH   1  25
ATOM     25  C   UNL A   1      38.859  21.042  25.740  1.00  0.00     0.118 C 
BRANCH  25  26
ATOM     26  N   UNL A   1      39.707  19.840  25.704  1.00  0.00    -0.352 N 
ATOM     27  C   UNL A   1      41.068  19.750  25.913  1.00  0.00     0.251 C 
ATOM     28  H   UNL A   1      39.245  18.993  25.507  1.00  0.00     0.163 HD
ATOM     29  O   UNL A   1      41.709  18.748  25.613  1.00  0.00    -0.269 OA
BRANCH  27  30
ATOM     30  C   UNL A   1      41.729  20.908  26.517  1.00  0.00     0.039 A 
ATOM     31  C   UNL A   1      42.190  21.975  25.746  1.00  0.00     0.014 A 
ATOM     32  C   UNL A   1      41.703  20.967  27.907  1.00  0.00     0.014 A 
ATOM     33  C   UNL A   1      42.531  23.152  26.399  1.00  0.00     0.010 A 
ATOM     34  C   UNL A   1      41.799  22.186  28.508  1.00  0.00     0.010 A 
ATOM     35  C   UNL A   1      42.290  23.259  27.779  1.00  0.00    -0.014 A 
BRANCH  35  36
ATOM     36  C   UNL A   1      42.402  24.536  28.467  1.00  0.00     0.031 A 
ATOM     37  C   UNL A   1      41.253  25.436  28.199  1.00  0.00     0.074 A 
ATOM     38  C   UNL A   1      43.337  24.768  29.417  1.00  0.00     0.049 A 
ATOM     39  N   UNL A   1      41.238  26.469  27.424  1.00  0.00    -0.248 NA
ATOM     40  C   UNL A   1      39.913  25.034  28.665  1.00  0.00     0.031 C 
ATOM     41  C   UNL A   1      44.289  23.806  29.993  1.00  0.00     0.029 A 
ATOM     42  N   UNL A   1      43.573  25.892  30.152  1.00  0.00    -0.354 N 
ATOM     43  C   UNL A   1      39.961  27.012  27.554  1.00  0.00     0.074 A 
ATOM     44  C   UNL A   1      39.143  25.963  28.091  1.00  0.00     0.031 C 
ATOM     45  C   UNL A   1      44.809  24.300  31.136  1.00  0.00     0.029 A 
ATOM     46  C   UNL A   1      44.394  25.681  31.260  1.00  0.00     0.049 A 
ATOM     47  H   UNL A   1      43.198  26.773  29.921  1.00  0.00     0.167 HD
ATOM     48  C   UNL A   1      39.816  28.369  27.574  1.00  0.00     0.037 A 
ATOM     49  C   UNL A   1      44.708  26.591  32.213  1.00  0.00     0.037 A 
ATOM     50  C   UNL A   1      41.039  28.990  27.119  1.00  0.00     0.049 A 
ATOM     51  C   UNL A   1      44.488  27.929  31.619  1.00  0.00     0.074 A 
ATOM     52  C   UNL A   1      41.694  29.176  25.922  1.00  0.00     0.029 A 
ATOM     53  N   UNL A   1      41.967  29.131  28.118  1.00  0.00    -0.354 N 
ATOM     54  N   UNL A   1      45.191  28.390  30.619  1.00  0.00    -0.248 NA
ATOM     55  C   UNL A   1      43.223  28.613  31.863  1.00  0.00     0.031 C 
ATOM     56  C   UNL A   1      43.080  29.313  26.242  1.00  0.00     0.029 A 
ATOM     57  C   UNL A   1      43.233  29.275  27.626  1.00  0.00     0.049 A 
ATOM     58  H   UNL A   1      41.747  29.129  29.077  1.00  0.00     0.167 HD
ATOM     59  C   UNL A   1      44.282  29.107  29.865  1.00  0.00     0.074 A 
ATOM     60  C   UNL A   1      43.152  29.355  30.754  1.00  0.00     0.031 C 
ATOM     61  C   UNL A   1      44.372  29.128  28.504  1.00  0.00     0.037 A 
BRANCH  48  62
ATOM     62  C   UNL A   1      38.885  29.140  28.505  1.00  0.00     0.064 A 
ATOM     63  C   UNL A   1      38.991  28.905  29.897  1.00  0.00     0.173 A 
ATOM     64  C   UNL A   1      37.711  29.815  28.107  1.00  0.00     0.173 A 
ATOM     65  F   UNL A   1      40.067  28.285  30.405  1.00  0.00    -0.203 F 
ATOM     66  C   UNL A   1      37.957  29.213  30.787  1.00  0.00     0.198 A 
ATOM     67  C   UNL A   1      36.697  30.154  29.005  1.00  0.00     0.198 A 
ATOM     68  F   UNL A   1      37.432  30.094  26.831  1.00  0.00    -0.203 F 
ATOM     69  F   UNL A   1      38.055  28.851  32.074  1.00  0.00    -0.200 F 
ATOM     70  C   UNL A   1      36.803  29.823  30.337  1.00  0.00     0.200 A 
ATOM     71  F   UNL A   1      35.580  30.733  28.544  1.00  0.00    -0.200 F 
ATOM     72  F   UNL A   1      35.782  30.056  31.171  1.00  0.00    -0.200 F 
ENDBRANCH  48  62
BRANCH  49  73
ATOM     73  C   UNL A   1      44.897  26.379  33.667  1.00  0.00     0.064 A 
ATOM     74  C   UNL A   1      43.807  26.104  34.508  1.00  0.00     0.173 A 
ATOM     75  C   UNL A   1      46.178  26.145  34.203  1.00  0.00     0.173 A 
ATOM     76  F   UNL A   1      42.552  26.267  34.060  1.00  0.00    -0.203 F 
ATOM     77  C   UNL A   1      43.985  25.580  35.794  1.00  0.00     0.198 A 
ATOM     78  C   UNL A   1      46.355  25.623  35.486  1.00  0.00     0.198 A 
ATOM     79  F   UNL A   1      47.276  26.317  33.454  1.00  0.00    -0.203 F 
ATOM     80  F   UNL A   1      42.919  25.259  36.540  1.00  0.00    -0.200 F 
ATOM     81  C   UNL A   1      45.259  25.325  36.275  1.00  0.00     0.200 A 
ATOM     82  F   UNL A   1      47.590  25.342  35.925  1.00  0.00    -0.200 F 
ATOM     83  F   UNL A   1      45.428  24.751  37.474  1.00  0.00    -0.200 F 
ENDBRANCH  49  73
BRANCH  61  84
ATOM     84  C   UNL A   1      45.706  28.844  27.888  1.00  0.00     0.064 A 
ATOM     85  C   UNL A   1      46.121  27.591  27.411  1.00  0.00     0.173 A 
ATOM     86  C   UNL A   1      46.572  29.928  27.703  1.00  0.00     0.173 A 
ATOM     87  F   UNL A   1      45.319  26.522  27.486  1.00  0.00    -0.203 F 
ATOM     88  C   UNL A   1      47.367  27.432  26.804  1.00  0.00     0.198 A 
ATOM     89  C   UNL A   1      47.798  29.775  27.066  1.00  0.00     0.198 A 
ATOM     90  F   UNL A   1      46.207  31.155  28.108  1.00  0.00    -0.203 F 
ATOM     91  F   UNL A   1      47.754  26.224  26.368  1.00  0.00    -0.200 F 
ATOM     92  C   UNL A   1      48.200  28.525  26.626  1.00  0.00     0.200 A 
ATOM     93  F   UNL A   1      48.579  30.845  26.861  1.00  0.00    -0.200 F 
ATOM     94  F   UNL A   1      49.383  28.380  26.014  1.00  0.00    -0.200 F 
ENDBRANCH  61  84
ENDBRANCH  35  36
ENDBRANCH  27  30
ENDBRANCH  25  26
ENDBRANCH   1  25
TORSDOF 13
ENDMDL
MODEL 2
REMARK VINA RESULT:     -12.5      3.219      7.648
REMARK SMILES Cc1nn(C)c(Cl)c1C[N@@H+]1CC[C@H](O)C[C@@H]1C(=O)NCCCNC(=O)c1ccc(-c2c3nc(c(-c4c(F)c(F)c(F)c(F)c4F)c4ccc([nH]4)c(-c4c(F)c(F)c(F)c(F)c4F)c4nc(c(-c5c(F)c(F)c(F)c(F)c5F)c5ccc2[nH]5)C=C4)C=C3)cc1
REMARK SMILES IDX 21 1 20 2 19 3 17 4 18 5 16 7 10 8 11 9 12 11 15 12 13 13
REMARK SMILES IDX 9 14 8 15 1 16 2 17 3 18 4 19 6 20 5 21 7 22 14 23 22 25
REMARK SMILES IDX 23 26 24 27 25 29 26 30 27 31 88 32 28 33 87 34 29 35 30 36
REMARK SMILES IDX 31 37 81 38 32 39 86 40 80 41 82 42 33 43 85 44 79 45 78 46
REMARK SMILES IDX 34 48 66 49 46 50 65 51 47 52 50 53 64 54 83 55 48 56 49 57
REMARK SMILES IDX 63 59 84 60 51 61 35 62 36 63 44 64 37 65 38 66 42 67 45 68
REMARK SMILES IDX 39 69 40 70 43 71 41 72 67 73 68 74 76 75 69 76 70 77 74 78
REMARK SMILES IDX 77 79 71 80 72 81 75 82 73 83 52 84 53 85 61 86 54 87 55 88
REMARK SMILES IDX 59 89 62 90 56 91 57 92 60 93 58 94
REMARK H PARENT 19 6 10 10 14 24 23 28 82 47 50 58
REMARK Flexibility Score: inf
ROOT
ATOM      1  C   UNL A   1      33.566  30.327  27.610  1.00  0.00     0.042 C 
ENDROOT
BRANCH   1   2
ATOM      2  C   UNL A   1      34.360  29.204  26.950  1.00  0.00     0.118 C 
BRANCH   2   3
ATOM      3  N   UNL A   1      34.327  29.251  25.493  1.00  0.00    -0.351 N 
ATOM      4  C   UNL A   1      33.629  28.573  24.546  1.00  0.00     0.278 C 
ATOM      5  O   UNL A   1      34.256  28.430  23.489  1.00  0.00    -0.268 OA
ATOM      6  H   UNL A   1      34.946  29.917  25.114  1.00  0.00     0.163 HD
BRANCH   4   7
ATOM      7  C   UNL A   1      32.200  27.980  24.681  1.00  0.00     0.277 C 
ATOM      8  N   UNL A   1      31.980  26.679  24.000  1.00  0.00    -0.321 N 
ATOM      9  C   UNL A   1      31.514  26.687  22.624  1.00  0.00     0.265 C 
ATOM     10  H   UNL A   1      31.125  26.502  24.529  1.00  0.00     0.349 HD
ATOM     11  C   UNL A   1      30.321  27.607  22.397  1.00  0.00     0.093 C 
ATOM     12  C   UNL A   1      31.017  28.907  24.398  1.00  0.00     0.107 C 
ATOM     13  C   UNL A   1      30.630  28.994  22.912  1.00  0.00     0.126 C 
BRANCH   8  14
ATOM     14  C   UNL A   1      32.743  25.490  24.406  1.00  0.00     0.304 C 
BRANCH  14  15
ATOM     15  C   UNL A   1      32.123  24.694  25.508  1.00  0.00     0.066 A 
ATOM     16  C   UNL A   1      34.242  23.542  26.581  1.00  0.00     0.069 C 
ATOM     17  C   UNL A   1      32.788  23.814  26.429  1.00  0.00     0.070 A 
ATOM     18  N   UNL A   1      31.923  23.166  27.225  1.00  0.00    -0.177 NA
ATOM     19  N   UNL A   1      30.724  23.621  26.824  1.00  0.00    -0.256 N 
ATOM     20  C   UNL A   1      30.829  24.685  25.984  1.00  0.00     0.135 A 
ATOM     21  C   UNL A   1      29.540  22.885  27.196  1.00  0.00     0.175 C 
ATOM     22  Cl  UNL A   1      29.475  25.680  25.706  1.00  0.00    -0.062 Cl
ENDBRANCH  14  15
ENDBRANCH   8  14
BRANCH  13  23
ATOM     23  O   UNL A   1      31.614  29.562  22.052  1.00  0.00    -0.393 OA
ATOM     24  H   UNL A   1      31.821  28.937  21.340  1.00  0.00     0.210 HD
ENDBRANCH  13  23
ENDBRANCH   4   7
ENDBRANCH   2   3
ENDBRANCH   1   2
BRANCH   1  25
ATOM     25  C   UNL A   1      34.429  31.555  27.789  1.00  0.00     0.118 C 
BRANCH  25  26
ATOM     26  N   UNL A   1      34.455  32.029  29.182  1.00  0.00    -0.352 N 
ATOM     27  C   UNL A   1      35.367  31.721  30.170  1.00  0.00     0.251 C 
ATOM     28  H   UNL A   1      33.731  32.644  29.440  1.00  0.00     0.163 HD
ATOM     29  O   UNL A   1      35.154  31.966  31.353  1.00  0.00    -0.269 OA
BRANCH  27  30
ATOM     30  C   UNL A   1      36.617  31.084  29.751  1.00  0.00     0.039 A 
ATOM     31  C   UNL A   1      37.783  31.821  29.545  1.00  0.00     0.014 A 
ATOM     32  C   UNL A   1      36.620  29.693  29.749  1.00  0.00     0.014 A 
ATOM     33  C   UNL A   1      38.981  31.129  29.440  1.00  0.00     0.010 A 
ATOM     34  C   UNL A   1      37.810  29.046  29.894  1.00  0.00     0.010 A 
ATOM     35  C   UNL A   1      38.987  29.741  29.659  1.00  0.00    -0.014 A 
BRANCH  35  36
ATOM     36  C   UNL A   1      40.234  29.005  29.799  1.00  0.00     0.031 A 
ATOM     37  C   UNL A   1      40.654  28.845  31.214  1.00  0.00     0.074 A 
ATOM     38  C   UNL A   1      40.810  28.351  28.764  1.00  0.00     0.049 A 
ATOM     39  N   UNL A   1      41.593  29.488  31.823  1.00  0.00    -0.248 NA
ATOM     40  C   UNL A   1      39.807  28.048  32.120  1.00  0.00     0.031 C 
ATOM     41  C   UNL A   1      40.269  28.164  27.408  1.00  0.00     0.029 A 
ATOM     42  N   UNL A   1      41.960  27.620  28.725  1.00  0.00    -0.354 N 
ATOM     43  C   UNL A   1      41.643  28.946  33.105  1.00  0.00     0.074 A 
ATOM     44  C   UNL A   1      40.383  28.288  33.301  1.00  0.00     0.031 C 
ATOM     45  C   UNL A   1      40.943  27.182  26.774  1.00  0.00     0.029 A 
ATOM     46  C   UNL A   1      42.084  26.821  27.588  1.00  0.00     0.049 A 
ATOM     47  H   UNL A   1      42.641  27.652  29.435  1.00  0.00     0.167 HD
ATOM     48  C   UNL A   1      42.856  28.763  33.703  1.00  0.00     0.037 A 
ATOM     49  C   UNL A   1      43.068  25.924  27.339  1.00  0.00     0.037 A 
ATOM     50  C   UNL A   1      43.866  29.497  32.974  1.00  0.00     0.049 A 
ATOM     51  C   UNL A   1      44.223  26.307  28.182  1.00  0.00     0.074 A 
ATOM     52  C   UNL A   1      44.247  30.811  32.822  1.00  0.00     0.029 A 
ATOM     53  N   UNL A   1      44.355  28.803  31.898  1.00  0.00    -0.354 N 
ATOM     54  N   UNL A   1      44.883  27.423  28.023  1.00  0.00    -0.248 NA
ATOM     55  C   UNL A   1      44.411  25.646  29.469  1.00  0.00     0.031 C 
ATOM     56  C   UNL A   1      44.882  30.898  31.544  1.00  0.00     0.029 A 
ATOM     57  C   UNL A   1      44.934  29.627  30.976  1.00  0.00     0.049 A 
ATOM     58  H   UNL A   1      44.296  27.825  31.802  1.00  0.00     0.167 HD
ATOM     59  C   UNL A   1      45.207  27.813  29.308  1.00  0.00     0.074 A 
ATOM     60  C   UNL A   1      45.052  26.616  30.128  1.00  0.00     0.031 C 
ATOM     61  C   UNL A   1      45.227  29.135  29.649  1.00  0.00     0.037 A 
BRANCH  48  62
ATOM     62  C   UNL A   1      43.262  27.537  34.516  1.00  0.00     0.064 A 
ATOM     63  C   UNL A   1      43.581  27.721  35.883  1.00  0.00     0.173 A 
ATOM     64  C   UNL A   1      43.669  26.299  33.975  1.00  0.00     0.173 A 
ATOM     65  F   UNL A   1      43.235  28.850  36.520  1.00  0.00    -0.203 F 
ATOM     66  C   UNL A   1      44.344  26.795  36.602  1.00  0.00     0.198 A 
ATOM     67  C   UNL A   1      44.400  25.362  34.708  1.00  0.00     0.198 A 
ATOM     68  F   UNL A   1      43.476  25.968  32.696  1.00  0.00    -0.203 F 
ATOM     69  F   UNL A   1      44.728  27.078  37.855  1.00  0.00    -0.200 F 
ATOM     70  C   UNL A   1      44.767  25.623  36.008  1.00  0.00     0.200 A 
ATOM     71  F   UNL A   1      44.811  24.236  34.107  1.00  0.00    -0.200 F 
ATOM     72  F   UNL A   1      45.556  24.767  36.669  1.00  0.00    -0.200 F 
ENDBRANCH  48  62
BRANCH  49  73
ATOM     73  C   UNL A   1      42.972  24.612  26.657  1.00  0.00     0.064 A 
ATOM     74  C   UNL A   1      43.559  24.404  25.398  1.00  0.00     0.173 A 
ATOM     75  C   UNL A   1      42.568  23.460  27.359  1.00  0.00     0.173 A 
ATOM     76  F   UNL A   1      44.004  25.447  24.682  1.00  0.00    -0.203 F 
ATOM     77  C   UNL A   1      43.770  23.117  24.891  1.00  0.00     0.198 A 
ATOM     78  C   UNL A   1      42.778  22.176  26.852  1.00  0.00     0.198 A 
ATOM     79  F   UNL A   1      42.057  23.554  28.595  1.00  0.00    -0.203 F 
ATOM     80  F   UNL A   1      44.401  22.954  23.719  1.00  0.00    -0.200 F 
ATOM     81  C   UNL A   1      43.395  22.004  25.626  1.00  0.00     0.200 A 
ATOM     82  F   UNL A   1      42.448  21.107  27.589  1.00  0.00    -0.200 F 
ATOM     83  F   UNL A   1      43.667  20.771  25.176  1.00  0.00    -0.200 F 
ENDBRANCH  49  73
BRANCH  61  84
ATOM     84  C   UNL A   1      45.428  30.134  28.553  1.00  0.00     0.064 A 
ATOM     85  C   UNL A   1      44.397  30.777  27.851  1.00  0.00     0.173 A 
ATOM     86  C   UNL A   1      46.745  30.514  28.264  1.00  0.00     0.173 A 
ATOM     87  F   UNL A   1      43.112  30.519  28.122  1.00  0.00    -0.203 F 
ATOM     88  C   UNL A   1      44.681  31.735  26.877  1.00  0.00     0.198 A 
ATOM     89  C   UNL A   1      47.024  31.496  27.321  1.00  0.00     0.198 A 
ATOM     90  F   UNL A   1      47.766  29.958  28.935  1.00  0.00    -0.203 F 
ATOM     91  F   UNL A   1      43.683  32.327  26.205  1.00  0.00    -0.200 F 
ATOM     92  C   UNL A   1      45.993  32.098  26.619  1.00  0.00     0.200 A 
ATOM     93  F   UNL A   1      48.293  31.870  27.107  1.00  0.00    -0.200 F 
ATOM     94  F   UNL A   1      46.266  33.042  25.708  1.00  0.00    -0.200 F 
ENDBRANCH  61  84
ENDBRANCH  35  36
ENDBRANCH  27  30
ENDBRANCH  25  26
ENDBRANCH   1  25
TORSDOF 13
ENDMDL
MODEL 3
REMARK VINA RESULT:     -12.4      3.079      8.064
REMARK SMILES Cc1nn(C)c(Cl)c1C[N@@H+]1CC[C@H](O)C[C@@H]1C(=O)NCCCNC(=O)c1ccc(-c2c3nc(c(-c4c(F)c(F)c(F)c(F)c4F)c4ccc([nH]4)c(-c4c(F)c(F)c(F)c(F)c4F)c4nc(c(-c5c(F)c(F)c(F)c(F)c5F)c5ccc2[nH]5)C=C4)C=C3)cc1
REMARK SMILES IDX 21 1 20 2 19 3 17 4 18 5 16 7 10 8 11 9 12 11 15 12 13 13
REMARK SMILES IDX 9 14 8 15 1 16 2 17 3 18 4 19 6 20 5 21 7 22 14 23 22 25
REMARK SMILES IDX 23 26 24 27 25 29 26 30 27 31 88 32 28 33 87 34 29 35 30 36
REMARK SMILES IDX 31 37 81 38 32 39 86 40 80 41 82 42 33 43 85 44 79 45 78 46
REMARK SMILES IDX 34 48 66 49 46 50 65 51 47 52 50 53 64 54 83 55 48 56 49 57
REMARK SMILES IDX 63 59 84 60 51 61 35 62 36 63 44 64 37 65 38 66 42 67 45 68
REMARK SMILES IDX 39 69 40 70 43 71 41 72 67 73 68 74 76 75 69 76 70 77 74 78
REMARK SMILES IDX 77 79 71 80 72 81 75 82 73 83 52 84 53 85 61 86 54 87 55 88
REMARK SMILES IDX 59 89 62 90 56 91 57 92 60 93 58 94
REMARK H PARENT 19 6 10 10 14 24 23 28 82 47 50 58
REMARK Flexibility Score: inf
ROOT
ATOM      1  C   UNL A   1      33.561  28.801  27.250  1.00  0.00     0.042 C 
ENDROOT
BRANCH   1   2
ATOM      2  C   UNL A   1      32.762  29.546  26.187  1.00  0.00     0.118 C 
BRANCH   2   3
ATOM      3  N   UNL A   1      33.279  29.359  24.836  1.00  0.00    -0.351 N 
ATOM      4  C   UNL A   1      33.429  28.278  24.028  1.00  0.00     0.278 C 
ATOM      5  O   UNL A   1      34.400  28.371  23.267  1.00  0.00    -0.268 OA
ATOM      6  H   UNL A   1      33.588  30.197  24.421  1.00  0.00     0.163 HD
BRANCH   4   7
ATOM      7  C   UNL A   1      32.544  27.002  23.997  1.00  0.00     0.277 C 
ATOM      8  N   UNL A   1      33.256  25.724  24.250  1.00  0.00    -0.321 N 
ATOM      9  C   UNL A   1      33.803  24.999  23.117  1.00  0.00     0.265 C 
ATOM     10  H   UNL A   1      32.384  25.229  24.437  1.00  0.00     0.349 HD
ATOM     11  C   UNL A   1      32.811  24.830  21.973  1.00  0.00     0.093 C 
ATOM     12  C   UNL A   1      31.592  26.826  22.814  1.00  0.00     0.107 C 
ATOM     13  C   UNL A   1      32.238  26.172  21.580  1.00  0.00     0.126 C 
BRANCH   8  14
ATOM     14  C   UNL A   1      33.925  25.488  25.537  1.00  0.00     0.304 C 
BRANCH  14  15
ATOM     15  C   UNL A   1      34.130  24.049  25.883  1.00  0.00     0.066 A 
ATOM     16  C   UNL A   1      36.760  23.850  25.774  1.00  0.00     0.069 C 
ATOM     17  C   UNL A   1      35.374  23.335  25.946  1.00  0.00     0.070 A 
ATOM     18  N   UNL A   1      35.197  22.025  26.178  1.00  0.00    -0.177 NA
ATOM     19  N   UNL A   1      33.862  21.898  26.265  1.00  0.00    -0.256 N 
ATOM     20  C   UNL A   1      33.232  23.102  26.328  1.00  0.00     0.135 A 
ATOM     21  C   UNL A   1      33.277  20.584  26.145  1.00  0.00     0.175 C 
ATOM     22  Cl  UNL A   1      31.620  23.184  26.874  1.00  0.00    -0.062 Cl
ENDBRANCH  14  15
ENDBRANCH   8  14
BRANCH  13  23
ATOM     23  O   UNL A   1      33.281  26.921  20.963  1.00  0.00    -0.393 OA
ATOM     24  H   UNL A   1      33.732  26.366  20.308  1.00  0.00     0.210 HD
ENDBRANCH  13  23
ENDBRANCH   4   7
ENDBRANCH   2   3
ENDBRANCH   1   2
BRANCH   1  25
ATOM     25  C   UNL A   1      34.976  29.327  27.319  1.00  0.00     0.118 C 
BRANCH  25  26
ATOM     26  N   UNL A   1      35.232  30.100  28.545  1.00  0.00    -0.352 N 
ATOM     27  C   UNL A   1      36.315  30.016  29.395  1.00  0.00     0.251 C 
ATOM     28  H   UNL A   1      34.544  30.761  28.788  1.00  0.00     0.163 HD
ATOM     29  O   UNL A   1      36.307  30.521  30.513  1.00  0.00    -0.269 OA
BRANCH  27  30
ATOM     30  C   UNL A   1      37.493  29.295  28.907  1.00  0.00     0.039 A 
ATOM     31  C   UNL A   1      38.182  29.703  27.765  1.00  0.00     0.014 A 
ATOM     32  C   UNL A   1      37.987  28.301  29.744  1.00  0.00     0.014 A 
ATOM     33  C   UNL A   1      39.439  29.163  27.535  1.00  0.00     0.010 A 
ATOM     34  C   UNL A   1      39.305  27.967  29.649  1.00  0.00     0.010 A 
ATOM     35  C   UNL A   1      40.009  28.325  28.509  1.00  0.00    -0.014 A 
BRANCH  35  36
ATOM     36  C   UNL A   1      41.406  27.925  28.435  1.00  0.00     0.031 A 
ATOM     37  C   UNL A   1      41.607  26.679  27.652  1.00  0.00     0.074 A 
ATOM     38  C   UNL A   1      42.413  28.730  28.843  1.00  0.00     0.049 A 
ATOM     39  N   UNL A   1      41.855  25.501  28.118  1.00  0.00    -0.248 NA
ATOM     40  C   UNL A   1      41.288  26.686  26.213  1.00  0.00     0.031 C 
ATOM     41  C   UNL A   1      42.317  30.125  29.302  1.00  0.00     0.029 A 
ATOM     42  N   UNL A   1      43.759  28.513  28.839  1.00  0.00    -0.354 N 
ATOM     43  C   UNL A   1      42.021  24.688  26.998  1.00  0.00     0.074 A 
ATOM     44  C   UNL A   1      41.406  25.390  25.909  1.00  0.00     0.031 C 
ATOM     45  C   UNL A   1      43.537  30.700  29.286  1.00  0.00     0.029 A 
ATOM     46  C   UNL A   1      44.519  29.669  29.023  1.00  0.00     0.049 A 
ATOM     47  H   UNL A   1      44.159  27.622  28.718  1.00  0.00     0.167 HD
ATOM     48  C   UNL A   1      42.984  23.721  27.017  1.00  0.00     0.037 A 
ATOM     49  C   UNL A   1      45.869  29.763  28.961  1.00  0.00     0.037 A 
ATOM     50  C   UNL A   1      43.441  23.524  28.374  1.00  0.00     0.049 A 
ATOM     51  C   UNL A   1      46.404  28.403  29.197  1.00  0.00     0.074 A 
ATOM     52  C   UNL A   1      42.966  22.936  29.525  1.00  0.00     0.029 A 
ATOM     53  N   UNL A   1      44.412  24.418  28.743  1.00  0.00    -0.354 N 
ATOM     54  N   UNL A   1      46.268  27.769  30.331  1.00  0.00    -0.248 NA
ATOM     55  C   UNL A   1      46.749  27.569  28.051  1.00  0.00     0.031 C 
ATOM     56  C   UNL A   1      43.610  23.608  30.611  1.00  0.00     0.029 A 
ATOM     57  C   UNL A   1      44.509  24.540  30.099  1.00  0.00     0.049 A 
ATOM     58  H   UNL A   1      44.974  24.914  28.105  1.00  0.00     0.167 HD
ATOM     59  C   UNL A   1      46.083  26.451  29.965  1.00  0.00     0.074 A 
ATOM     60  C   UNL A   1      46.558  26.361  28.588  1.00  0.00     0.031 C 
ATOM     61  C   UNL A   1      45.244  25.643  30.677  1.00  0.00     0.037 A 
BRANCH  48  62
ATOM     62  C   UNL A   1      43.916  23.383  25.856  1.00  0.00     0.064 A 
ATOM     63  C   UNL A   1      43.976  22.038  25.421  1.00  0.00     0.173 A 
ATOM     64  C   UNL A   1      44.964  24.205  25.388  1.00  0.00     0.173 A 
ATOM     65  F   UNL A   1      43.030  21.159  25.784  1.00  0.00    -0.203 F 
ATOM     66  C   UNL A   1      45.055  21.540  24.683  1.00  0.00     0.198 A 
ATOM     67  C   UNL A   1      46.021  23.710  24.621  1.00  0.00     0.198 A 
ATOM     68  F   UNL A   1      45.082  25.492  25.722  1.00  0.00    -0.203 F 
ATOM     69  F   UNL A   1      45.127  20.230  24.408  1.00  0.00    -0.200 F 
ATOM     70  C   UNL A   1      46.086  22.374  24.298  1.00  0.00     0.200 A 
ATOM     71  F   UNL A   1      47.017  24.536  24.270  1.00  0.00    -0.200 F 
ATOM     72  F   UNL A   1      47.155  21.889  23.654  1.00  0.00    -0.200 F 
ENDBRANCH  48  62
BRANCH  49  73
ATOM     73  C   UNL A   1      46.696  30.871  28.429  1.00  0.00     0.064 A 
ATOM     74  C   UNL A   1      46.364  31.509  27.223  1.00  0.00     0.173 A 
ATOM     75  C   UNL A   1      47.645  31.519  29.243  1.00  0.00     0.173 A 
ATOM     76  F   UNL A   1      45.442  30.974  26.409  1.00  0.00    -0.203 F 
ATOM     77  C   UNL A   1      46.916  32.747  26.873  1.00  0.00     0.198 A 
ATOM     78  C   UNL A   1      48.196  32.754  28.892  1.00  0.00     0.198 A 
ATOM     79  F   UNL A   1      47.977  31.019  30.441  1.00  0.00    -0.203 F 
ATOM     80  F   UNL A   1      46.520  33.362  25.750  1.00  0.00    -0.200 F 
ATOM     81  C   UNL A   1      47.818  33.376  27.715  1.00  0.00     0.200 A 
ATOM     82  F   UNL A   1      49.036  33.371  29.734  1.00  0.00    -0.200 F 
ATOM     83  F   UNL A   1      48.287  34.595  27.418  1.00  0.00    -0.200 F 
ENDBRANCH  49  73
BRANCH  61  84
ATOM     84  C   UNL A   1      44.967  26.007  32.101  1.00  0.00     0.064 A 
ATOM     85  C   UNL A   1      43.836  26.708  32.547  1.00  0.00     0.173 A 
ATOM     86  C   UNL A   1      45.867  25.543  33.070  1.00  0.00     0.173 A 
ATOM     87  F   UNL A   1      42.896  27.120  31.689  1.00  0.00    -0.203 F 
ATOM     88  C   UNL A   1      43.638  26.959  33.905  1.00  0.00     0.198 A 
ATOM     89  C   UNL A   1      45.648  25.763  34.425  1.00  0.00     0.198 A 
ATOM     90  F   UNL A   1      46.945  24.835  32.699  1.00  0.00    -0.203 F 
ATOM     91  F   UNL A   1      42.558  27.645  34.312  1.00  0.00    -0.200 F 
ATOM     92  C   UNL A   1      44.539  26.480  34.842  1.00  0.00     0.200 A 
ATOM     93  F   UNL A   1      46.504  25.260  35.325  1.00  0.00    -0.200 F 
ATOM     94  F   UNL A   1      44.332  26.692  36.149  1.00  0.00    -0.200 F 
ENDBRANCH  61  84
ENDBRANCH  35  36
ENDBRANCH  27  30
ENDBRANCH  25  26
ENDBRANCH   1  25
TORSDOF 13
ENDMDL
