MODEL 1
REMARK VINA RESULT:     -11.9      0.000      0.000
REMARK SMILES Cc1cc(NS(=O)(=O)CC(=O)NCCCNC(=O)c2ccc(-c3c4nc(c(-c5c(F)c(F)c(F)c(F)c5F)c5ccc([nH]5)c(-c5c(F)c(F)c(F)c(F)c5F)c5nc(c(-c6c(F)c(F)c(F)c(F)c6F)c6ccc3[nH]6)C=C5)C=C4)cc2)ccn1
REMARK SMILES IDX 13 1 12 2 10 3 11 4 9 6 6 7 7 8 8 9 5 10 4 12 1 13 2 14 3 15
REMARK SMILES IDX 84 16 83 17 82 18 14 19 15 20 16 21 17 22 18 24 19 25 20 26
REMARK SMILES IDX 81 27 21 28 80 29 22 30 23 31 24 32 74 33 25 34 79 35 73 36
REMARK SMILES IDX 75 37 26 38 78 39 72 40 71 41 27 43 59 44 39 45 58 46 40 47
REMARK SMILES IDX 43 48 57 49 76 50 41 51 42 52 56 54 77 55 44 56 28 57 29 58
REMARK SMILES IDX 37 59 30 60 31 61 35 62 38 63 32 64 33 65 36 66 34 67 60 68
REMARK SMILES IDX 61 69 69 70 62 71 63 72 67 73 70 74 64 75 65 76 68 77 66 78
REMARK SMILES IDX 45 79 46 80 54 81 47 82 48 83 52 84 55 85 49 86 50 87 53 88
REMARK SMILES IDX 51 89
REMARK H PARENT 12 5 5 11 16 23 75 42 43 53
REMARK Flexibility Score: inf
ROOT
ATOM      1  C   UNL A   1      36.795  20.668  24.731  1.00  0.00     0.117 C 
ENDROOT
BRANCH   1   2
ATOM      2  N   UNL A   1      36.063  20.971  25.944  1.00  0.00    -0.355 N 
ATOM      3  C   UNL A   1      34.831  21.516  26.104  1.00  0.00     0.237 C 
ATOM      4  O   UNL A   1      34.410  21.605  27.259  1.00  0.00    -0.274 OA
ATOM      5  H   UNL A   1      36.531  20.746  26.780  1.00  0.00     0.163 HD
BRANCH   3   6
ATOM      6  C   UNL A   1      33.975  21.878  24.936  1.00  0.00     0.259 C 
BRANCH   6   7
ATOM      7  S   UNL A   1      32.448  20.975  24.832  1.00  0.00     0.241 S 
ATOM      8  O   UNL A   1      32.188  20.659  23.447  1.00  0.00    -0.206 OA
ATOM      9  O   UNL A   1      31.464  21.730  25.591  1.00  0.00    -0.206 OA
BRANCH   7  10
ATOM     10  N   UNL A   1      32.603  19.550  25.682  1.00  0.00    -0.283 N 
ATOM     11  H   UNL A   1      32.356  19.547  26.635  1.00  0.00     0.180 HD
BRANCH  10  12
ATOM     12  C   UNL A   1      33.074  18.326  25.099  1.00  0.00     0.052 A 
ATOM     13  C   UNL A   1      32.454  14.617  25.587  1.00  0.00     0.067 C 
ATOM     14  C   UNL A   1      33.058  15.921  25.168  1.00  0.00     0.039 A 
ATOM     15  C   UNL A   1      32.474  17.137  25.518  1.00  0.00     0.050 A 
ATOM     16  N   UNL A   1      34.224  15.847  24.490  1.00  0.00    -0.261 NA
ATOM     17  C   UNL A   1      34.790  17.006  24.104  1.00  0.00     0.113 A 
ATOM     18  C   UNL A   1      34.241  18.250  24.353  1.00  0.00     0.047 A 
ENDBRANCH  10  12
ENDBRANCH   7  10
ENDBRANCH   6   7
ENDBRANCH   3   6
ENDBRANCH   1   2
BRANCH   1  19
ATOM     19  C   UNL A   1      37.892  19.639  24.974  1.00  0.00     0.042 C 
BRANCH  19  20
ATOM     20  C   UNL A   1      39.085  20.171  25.763  1.00  0.00     0.118 C 
BRANCH  20  21
ATOM     21  N   UNL A   1      40.155  19.193  25.901  1.00  0.00    -0.352 N 
ATOM     22  C   UNL A   1      41.505  19.357  26.076  1.00  0.00     0.251 C 
ATOM     23  H   UNL A   1      39.859  18.254  25.861  1.00  0.00     0.163 HD
ATOM     24  O   UNL A   1      42.251  18.389  25.953  1.00  0.00    -0.269 OA
BRANCH  22  25
ATOM     25  C   UNL A   1      42.076  20.684  26.392  1.00  0.00     0.039 A 
ATOM     26  C   UNL A   1      42.430  21.527  25.336  1.00  0.00     0.014 A 
ATOM     27  C   UNL A   1      42.302  21.089  27.711  1.00  0.00     0.014 A 
ATOM     28  C   UNL A   1      42.946  22.796  25.602  1.00  0.00     0.010 A 
ATOM     29  C   UNL A   1      42.729  22.388  27.977  1.00  0.00     0.010 A 
ATOM     30  C   UNL A   1      43.059  23.254  26.926  1.00  0.00    -0.014 A 
BRANCH  30  31
ATOM     31  C   UNL A   1      43.493  24.646  27.209  1.00  0.00     0.031 A 
ATOM     32  C   UNL A   1      42.523  25.670  27.726  1.00  0.00     0.074 A 
ATOM     33  C   UNL A   1      44.766  25.000  26.946  1.00  0.00     0.049 A 
ATOM     34  N   UNL A   1      42.733  26.926  28.036  1.00  0.00    -0.248 NA
ATOM     35  C   UNL A   1      41.127  25.239  27.884  1.00  0.00     0.031 C 
ATOM     36  C   UNL A   1      45.782  24.120  26.365  1.00  0.00     0.029 A 
ATOM     37  N   UNL A   1      45.422  26.191  27.125  1.00  0.00    -0.354 N 
ATOM     38  C   UNL A   1      41.497  27.434  28.415  1.00  0.00     0.074 A 
ATOM     39  C   UNL A   1      40.533  26.370  28.236  1.00  0.00     0.031 C 
ATOM     40  C   UNL A   1      46.938  24.789  26.267  1.00  0.00     0.029 A 
ATOM     41  C   UNL A   1      46.740  26.155  26.741  1.00  0.00     0.049 A 
ATOM     42  H   UNL A   1      44.990  26.995  27.495  1.00  0.00     0.167 HD
ATOM     43  C   UNL A   1      41.198  28.669  28.888  1.00  0.00     0.037 A 
ATOM     44  C   UNL A   1      47.683  27.114  26.765  1.00  0.00     0.037 A 
ATOM     45  C   UNL A   1      42.168  29.719  29.074  1.00  0.00     0.049 A 
ATOM     46  C   UNL A   1      47.337  28.468  27.318  1.00  0.00     0.074 A 
ATOM     47  C   UNL A   1      41.987  30.974  29.629  1.00  0.00     0.029 A 
ATOM     48  N   UNL A   1      43.500  29.642  28.692  1.00  0.00    -0.354 N 
ATOM     49  N   UNL A   1      46.189  28.907  27.773  1.00  0.00    -0.248 NA
ATOM     50  C   UNL A   1      48.424  29.454  27.373  1.00  0.00     0.031 C 
ATOM     51  C   UNL A   1      43.192  31.679  29.521  1.00  0.00     0.029 A 
ATOM     52  C   UNL A   1      44.143  30.843  28.961  1.00  0.00     0.049 A 
ATOM     53  H   UNL A   1      43.927  28.852  28.288  1.00  0.00     0.167 HD
ATOM     54  C   UNL A   1      46.414  30.215  28.179  1.00  0.00     0.074 A 
ATOM     55  C   UNL A   1      47.818  30.486  27.943  1.00  0.00     0.031 C 
ATOM     56  C   UNL A   1      45.535  31.111  28.696  1.00  0.00     0.037 A 
BRANCH  43  57
ATOM     57  C   UNL A   1      39.760  28.953  29.221  1.00  0.00     0.064 A 
ATOM     58  C   UNL A   1      39.245  28.767  30.515  1.00  0.00     0.173 A 
ATOM     59  C   UNL A   1      38.882  29.426  28.233  1.00  0.00     0.173 A 
ATOM     60  F   UNL A   1      40.035  28.310  31.497  1.00  0.00    -0.203 F 
ATOM     61  C   UNL A   1      37.899  28.998  30.794  1.00  0.00     0.198 A 
ATOM     62  C   UNL A   1      37.546  29.691  28.525  1.00  0.00     0.198 A 
ATOM     63  F   UNL A   1      39.318  29.630  26.981  1.00  0.00    -0.203 F 
ATOM     64  F   UNL A   1      37.418  28.745  32.020  1.00  0.00    -0.200 F 
ATOM     65  C   UNL A   1      37.052  29.464  29.800  1.00  0.00     0.200 A 
ATOM     66  F   UNL A   1      36.732  30.156  27.567  1.00  0.00    -0.200 F 
ATOM     67  F   UNL A   1      35.758  29.685  30.070  1.00  0.00    -0.200 F 
ENDBRANCH  43  57
BRANCH  44  68
ATOM     68  C   UNL A   1      49.049  26.804  26.269  1.00  0.00     0.064 A 
ATOM     69  C   UNL A   1      50.008  26.219  27.106  1.00  0.00     0.173 A 
ATOM     70  C   UNL A   1      49.408  27.049  24.935  1.00  0.00     0.173 A 
ATOM     71  F   UNL A   1      49.718  25.982  28.394  1.00  0.00    -0.203 F 
ATOM     72  C   UNL A   1      51.278  25.897  26.630  1.00  0.00     0.198 A 
ATOM     73  C   UNL A   1      50.667  26.699  24.453  1.00  0.00     0.198 A 
ATOM     74  F   UNL A   1      48.522  27.599  24.092  1.00  0.00    -0.203 F 
ATOM     75  F   UNL A   1      52.187  25.367  27.459  1.00  0.00    -0.200 F 
ATOM     76  C   UNL A   1      51.602  26.127  25.302  1.00  0.00     0.200 A 
ATOM     77  F   UNL A   1      50.969  26.905  23.164  1.00  0.00    -0.200 F 
ATOM     78  F   UNL A   1      52.817  25.801  24.840  1.00  0.00    -0.200 F 
ENDBRANCH  44  68
BRANCH  56  79
ATOM     79  C   UNL A   1      46.075  32.471  29.042  1.00  0.00     0.064 A 
ATOM     80  C   UNL A   1      46.623  32.747  30.305  1.00  0.00     0.173 A 
ATOM     81  C   UNL A   1      46.051  33.510  28.098  1.00  0.00     0.173 A 
ATOM     82  F   UNL A   1      46.658  31.794  31.248  1.00  0.00    -0.203 F 
ATOM     83  C   UNL A   1      47.087  34.021  30.622  1.00  0.00     0.198 A 
ATOM     84  C   UNL A   1      46.549  34.773  28.408  1.00  0.00     0.198 A 
ATOM     85  F   UNL A   1      45.545  33.301  26.873  1.00  0.00    -0.203 F 
ATOM     86  F   UNL A   1      47.542  34.277  31.856  1.00  0.00    -0.200 F 
ATOM     87  C   UNL A   1      47.054  35.030  29.672  1.00  0.00     0.200 A 
ATOM     88  F   UNL A   1      46.532  35.743  27.483  1.00  0.00    -0.200 F 
ATOM     89  F   UNL A   1      47.500  36.257  29.980  1.00  0.00    -0.200 F 
ENDBRANCH  56  79
ENDBRANCH  30  31
ENDBRANCH  22  25
ENDBRANCH  20  21
ENDBRANCH  19  20
ENDBRANCH   1  19
TORSDOF 13
ENDMDL
MODEL 2
REMARK VINA RESULT:     -11.9      6.984     12.022
REMARK SMILES Cc1cc(NS(=O)(=O)CC(=O)NCCCNC(=O)c2ccc(-c3c4nc(c(-c5c(F)c(F)c(F)c(F)c5F)c5ccc([nH]5)c(-c5c(F)c(F)c(F)c(F)c5F)c5nc(c(-c6c(F)c(F)c(F)c(F)c6F)c6ccc3[nH]6)C=C5)C=C4)cc2)ccn1
REMARK SMILES IDX 13 1 12 2 10 3 11 4 9 6 6 7 7 8 8 9 5 10 4 12 1 13 2 14 3 15
REMARK SMILES IDX 84 16 83 17 82 18 14 19 15 20 16 21 17 22 18 24 19 25 20 26
REMARK SMILES IDX 81 27 21 28 80 29 22 30 23 31 24 32 74 33 25 34 79 35 73 36
REMARK SMILES IDX 75 37 26 38 78 39 72 40 71 41 27 43 59 44 39 45 58 46 40 47
REMARK SMILES IDX 43 48 57 49 76 50 41 51 42 52 56 54 77 55 44 56 28 57 29 58
REMARK SMILES IDX 37 59 30 60 31 61 35 62 38 63 32 64 33 65 36 66 34 67 60 68
REMARK SMILES IDX 61 69 69 70 62 71 63 72 67 73 70 74 64 75 65 76 68 77 66 78
REMARK SMILES IDX 45 79 46 80 54 81 47 82 48 83 52 84 55 85 49 86 50 87 53 88
REMARK SMILES IDX 51 89
REMARK H PARENT 12 5 5 11 16 23 75 42 43 53
REMARK Flexibility Score: inf
ROOT
ATOM      1  C   UNL A   1      31.565  30.390  26.321  1.00  0.00     0.117 C 
ENDROOT
BRANCH   1   2
ATOM      2  N   UNL A   1      32.446  30.125  25.202  1.00  0.00    -0.355 N 
ATOM      3  C   UNL A   1      32.472  29.075  24.345  1.00  0.00     0.237 C 
ATOM      4  O   UNL A   1      33.292  29.130  23.426  1.00  0.00    -0.274 OA
ATOM      5  H   UNL A   1      33.129  30.814  25.038  1.00  0.00     0.163 HD
BRANCH   3   6
ATOM      6  C   UNL A   1      31.479  27.964  24.433  1.00  0.00     0.259 C 
BRANCH   6   7
ATOM      7  S   UNL A   1      30.491  27.739  22.973  1.00  0.00     0.241 S 
ATOM      8  O   UNL A   1      29.142  27.409  23.371  1.00  0.00    -0.206 OA
ATOM      9  O   UNL A   1      31.225  26.830  22.108  1.00  0.00    -0.206 OA
BRANCH   7  10
ATOM     10  N   UNL A   1      30.457  29.168  22.116  1.00  0.00    -0.283 N 
ATOM     11  H   UNL A   1      31.150  29.318  21.432  1.00  0.00     0.180 HD
BRANCH  10  12
ATOM     12  C   UNL A   1      29.473  30.193  22.321  1.00  0.00     0.052 A 
ATOM     13  C   UNL A   1      27.646  32.732  20.178  1.00  0.00     0.067 C 
ATOM     14  C   UNL A   1      28.209  31.997  21.355  1.00  0.00     0.039 A 
ATOM     15  C   UNL A   1      28.974  30.844  21.191  1.00  0.00     0.050 A 
ATOM     16  N   UNL A   1      27.984  32.551  22.566  1.00  0.00    -0.261 NA
ATOM     17  C   UNL A   1      28.483  31.910  23.640  1.00  0.00     0.113 A 
ATOM     18  C   UNL A   1      29.194  30.728  23.569  1.00  0.00     0.047 A 
ENDBRANCH  10  12
ENDBRANCH   7  10
ENDBRANCH   6   7
ENDBRANCH   3   6
ENDBRANCH   1   2
BRANCH   1  19
ATOM     19  C   UNL A   1      31.408  31.883  26.577  1.00  0.00     0.042 C 
BRANCH  19  20
ATOM     20  C   UNL A   1      32.692  32.580  27.019  1.00  0.00     0.118 C 
BRANCH  20  21
ATOM     21  N   UNL A   1      32.467  33.942  27.483  1.00  0.00    -0.352 N 
ATOM     22  C   UNL A   1      33.024  34.641  28.523  1.00  0.00     0.251 C 
ATOM     23  H   UNL A   1      31.801  34.448  26.961  1.00  0.00     0.163 HD
ATOM     24  O   UNL A   1      32.529  35.712  28.864  1.00  0.00    -0.269 OA
BRANCH  22  25
ATOM     25  C   UNL A   1      34.201  34.116  29.248  1.00  0.00     0.039 A 
ATOM     26  C   UNL A   1      33.989  33.298  30.361  1.00  0.00     0.014 A 
ATOM     27  C   UNL A   1      35.504  34.450  28.870  1.00  0.00     0.014 A 
ATOM     28  C   UNL A   1      35.079  32.765  31.050  1.00  0.00     0.010 A 
ATOM     29  C   UNL A   1      36.589  33.845  29.500  1.00  0.00     0.010 A 
ATOM     30  C   UNL A   1      36.389  32.999  30.599  1.00  0.00    -0.014 A 
BRANCH  30  31
ATOM     31  C   UNL A   1      37.544  32.336  31.257  1.00  0.00     0.031 A 
ATOM     32  C   UNL A   1      38.250  31.183  30.603  1.00  0.00     0.074 A 
ATOM     33  C   UNL A   1      37.923  32.749  32.482  1.00  0.00     0.049 A 
ATOM     34  N   UNL A   1      39.282  30.495  31.029  1.00  0.00    -0.248 NA
ATOM     35  C   UNL A   1      37.711  30.719  29.317  1.00  0.00     0.031 C 
ATOM     36  C   UNL A   1      37.265  33.802  33.257  1.00  0.00     0.029 A 
ATOM     37  N   UNL A   1      38.947  32.329  33.293  1.00  0.00    -0.354 N 
ATOM     38  C   UNL A   1      39.504  29.515  30.072  1.00  0.00     0.074 A 
ATOM     39  C   UNL A   1      38.466  29.657  29.075  1.00  0.00     0.031 C 
ATOM     40  C   UNL A   1      37.919  33.969  34.415  1.00  0.00     0.029 A 
ATOM     41  C   UNL A   1      39.019  33.012  34.482  1.00  0.00     0.049 A 
ATOM     42  H   UNL A   1      39.570  31.608  33.046  1.00  0.00     0.167 HD
ATOM     43  C   UNL A   1      40.498  28.593  30.019  1.00  0.00     0.037 A 
ATOM     44  C   UNL A   1      39.873  32.883  35.514  1.00  0.00     0.037 A 
ATOM     45  C   UNL A   1      41.536  28.467  31.011  1.00  0.00     0.049 A 
ATOM     46  C   UNL A   1      40.983  31.873  35.422  1.00  0.00     0.074 A 
ATOM     47  C   UNL A   1      42.637  27.628  31.007  1.00  0.00     0.029 A 
ATOM     48  N   UNL A   1      41.590  29.189  32.195  1.00  0.00    -0.354 N 
ATOM     49  N   UNL A   1      41.249  31.021  34.463  1.00  0.00    -0.248 NA
ATOM     50  C   UNL A   1      41.919  31.819  36.553  1.00  0.00     0.031 C 
ATOM     51  C   UNL A   1      43.319  27.795  32.218  1.00  0.00     0.029 A 
ATOM     52  C   UNL A   1      42.683  28.785  32.949  1.00  0.00     0.049 A 
ATOM     53  H   UNL A   1      40.947  29.885  32.462  1.00  0.00     0.167 HD
ATOM     54  C   UNL A   1      42.387  30.335  34.865  1.00  0.00     0.074 A 
ATOM     55  C   UNL A   1      42.777  30.895  36.144  1.00  0.00     0.031 C 
ATOM     56  C   UNL A   1      43.046  29.330  34.235  1.00  0.00     0.037 A 
BRANCH  43  57
ATOM     57  C   UNL A   1      40.496  27.640  28.855  1.00  0.00     0.064 A 
ATOM     58  C   UNL A   1      41.245  27.885  27.692  1.00  0.00     0.173 A 
ATOM     59  C   UNL A   1      39.740  26.459  28.906  1.00  0.00     0.173 A 
ATOM     60  F   UNL A   1      41.980  29.001  27.585  1.00  0.00    -0.203 F 
ATOM     61  C   UNL A   1      41.198  27.008  26.609  1.00  0.00     0.198 A 
ATOM     62  C   UNL A   1      39.726  25.567  27.837  1.00  0.00     0.198 A 
ATOM     63  F   UNL A   1      39.011  26.168  29.994  1.00  0.00    -0.203 F 
ATOM     64  F   UNL A   1      41.867  27.301  25.485  1.00  0.00    -0.200 F 
ATOM     65  C   UNL A   1      40.443  25.848  26.684  1.00  0.00     0.200 A 
ATOM     66  F   UNL A   1      39.007  24.439  27.917  1.00  0.00    -0.200 F 
ATOM     67  F   UNL A   1      40.399  25.008  25.642  1.00  0.00    -0.200 F 
ENDBRANCH  43  57
BRANCH  44  68
ATOM     68  C   UNL A   1      39.715  33.757  36.705  1.00  0.00     0.064 A 
ATOM     69  C   UNL A   1      40.309  35.025  36.756  1.00  0.00     0.173 A 
ATOM     70  C   UNL A   1      38.932  33.357  37.798  1.00  0.00     0.173 A 
ATOM     71  F   UNL A   1      41.082  35.444  35.743  1.00  0.00    -0.203 F 
ATOM     72  C   UNL A   1      40.131  35.858  37.859  1.00  0.00     0.198 A 
ATOM     73  C   UNL A   1      38.731  34.203  38.886  1.00  0.00     0.198 A 
ATOM     74  F   UNL A   1      38.335  32.156  37.791  1.00  0.00    -0.203 F 
ATOM     75  F   UNL A   1      40.735  37.053  37.897  1.00  0.00    -0.200 F 
ATOM     76  C   UNL A   1      39.334  35.451  38.917  1.00  0.00     0.200 A 
ATOM     77  F   UNL A   1      37.943  33.812  39.897  1.00  0.00    -0.200 F 
ATOM     78  F   UNL A   1      39.148  36.259  39.970  1.00  0.00    -0.200 F 
ENDBRANCH  44  68
BRANCH  56  79
ATOM     79  C   UNL A   1      44.261  28.775  34.925  1.00  0.00     0.064 A 
ATOM     80  C   UNL A   1      44.176  27.675  35.793  1.00  0.00     0.173 A 
ATOM     81  C   UNL A   1      45.526  29.344  34.712  1.00  0.00     0.173 A 
ATOM     82  F   UNL A   1      42.989  27.102  36.044  1.00  0.00    -0.203 F 
ATOM     83  C   UNL A   1      45.304  27.195  36.453  1.00  0.00     0.198 A 
ATOM     84  C   UNL A   1      46.658  28.837  35.345  1.00  0.00     0.198 A 
ATOM     85  F   UNL A   1      45.667  30.393  33.886  1.00  0.00    -0.203 F 
ATOM     86  F   UNL A   1      45.187  26.187  37.329  1.00  0.00    -0.200 F 
ATOM     87  C   UNL A   1      46.544  27.772  36.224  1.00  0.00     0.200 A 
ATOM     88  F   UNL A   1      47.857  29.387  35.110  1.00  0.00    -0.200 F 
ATOM     89  F   UNL A   1      47.629  27.309  36.862  1.00  0.00    -0.200 F 
ENDBRANCH  56  79
ENDBRANCH  30  31
ENDBRANCH  22  25
ENDBRANCH  20  21
ENDBRANCH  19  20
ENDBRANCH   1  19
TORSDOF 13
ENDMDL
MODEL 3
REMARK VINA RESULT:     -11.9      6.947     10.911
REMARK SMILES Cc1cc(NS(=O)(=O)CC(=O)NCCCNC(=O)c2ccc(-c3c4nc(c(-c5c(F)c(F)c(F)c(F)c5F)c5ccc([nH]5)c(-c5c(F)c(F)c(F)c(F)c5F)c5nc(c(-c6c(F)c(F)c(F)c(F)c6F)c6ccc3[nH]6)C=C5)C=C4)cc2)ccn1
REMARK SMILES IDX 13 1 12 2 10 3 11 4 9 6 6 7 7 8 8 9 5 10 4 12 1 13 2 14 3 15
REMARK SMILES IDX 84 16 83 17 82 18 14 19 15 20 16 21 17 22 18 24 19 25 20 26
REMARK SMILES IDX 81 27 21 28 80 29 22 30 23 31 24 32 74 33 25 34 79 35 73 36
REMARK SMILES IDX 75 37 26 38 78 39 72 40 71 41 27 43 59 44 39 45 58 46 40 47
REMARK SMILES IDX 43 48 57 49 76 50 41 51 42 52 56 54 77 55 44 56 28 57 29 58
REMARK SMILES IDX 37 59 30 60 31 61 35 62 38 63 32 64 33 65 36 66 34 67 60 68
REMARK SMILES IDX 61 69 69 70 62 71 63 72 67 73 70 74 64 75 65 76 68 77 66 78
REMARK SMILES IDX 45 79 46 80 54 81 47 82 48 83 52 84 55 85 49 86 50 87 53 88
REMARK SMILES IDX 51 89
REMARK H PARENT 12 5 5 11 16 23 75 42 43 53
REMARK Flexibility Score: inf
ROOT
ATOM      1  C   UNL A   1      31.492  30.393  26.279  1.00  0.00     0.117 C 
ENDROOT
BRANCH   1   2
ATOM      2  N   UNL A   1      32.394  30.106  25.184  1.00  0.00    -0.355 N 
ATOM      3  C   UNL A   1      32.425  29.046  24.337  1.00  0.00     0.237 C 
ATOM      4  O   UNL A   1      33.267  29.081  23.437  1.00  0.00    -0.274 OA
ATOM      5  H   UNL A   1      33.091  30.784  25.028  1.00  0.00     0.163 HD
BRANCH   3   6
ATOM      6  C   UNL A   1      31.415  27.950  24.414  1.00  0.00     0.259 C 
BRANCH   6   7
ATOM      7  S   UNL A   1      30.433  27.748  22.947  1.00  0.00     0.241 S 
ATOM      8  O   UNL A   1      29.077  27.433  23.335  1.00  0.00    -0.206 OA
ATOM      9  O   UNL A   1      31.159  26.834  22.080  1.00  0.00    -0.206 OA
BRANCH   7  10
ATOM     10  N   UNL A   1      30.422  29.183  22.100  1.00  0.00    -0.283 N 
ATOM     11  H   UNL A   1      31.118  29.325  21.417  1.00  0.00     0.180 HD
BRANCH  10  12
ATOM     12  C   UNL A   1      29.455  30.222  22.310  1.00  0.00     0.052 A 
ATOM     13  C   UNL A   1      27.643  32.781  20.178  1.00  0.00     0.067 C 
ATOM     14  C   UNL A   1      28.208  32.041  21.351  1.00  0.00     0.039 A 
ATOM     15  C   UNL A   1      28.954  30.877  21.184  1.00  0.00     0.050 A 
ATOM     16  N   UNL A   1      28.002  32.602  22.563  1.00  0.00    -0.261 NA
ATOM     17  C   UNL A   1      28.503  31.957  23.634  1.00  0.00     0.113 A 
ATOM     18  C   UNL A   1      29.196  30.764  23.560  1.00  0.00     0.047 A 
ENDBRANCH  10  12
ENDBRANCH   7  10
ENDBRANCH   6   7
ENDBRANCH   3   6
ENDBRANCH   1   2
BRANCH   1  19
ATOM     19  C   UNL A   1      31.363  31.891  26.528  1.00  0.00     0.042 C 
BRANCH  19  20
ATOM     20  C   UNL A   1      32.648  32.558  27.010  1.00  0.00     0.118 C 
BRANCH  20  21
ATOM     21  N   UNL A   1      32.435  33.914  27.497  1.00  0.00    -0.352 N 
ATOM     22  C   UNL A   1      33.021  34.600  28.530  1.00  0.00     0.251 C 
ATOM     23  H   UNL A   1      31.755  34.425  27.000  1.00  0.00     0.163 HD
ATOM     24  O   UNL A   1      32.534  35.666  28.898  1.00  0.00    -0.269 OA
BRANCH  22  25
ATOM     25  C   UNL A   1      34.217  34.068  29.216  1.00  0.00     0.039 A 
ATOM     26  C   UNL A   1      34.037  33.271  30.350  1.00  0.00     0.014 A 
ATOM     27  C   UNL A   1      35.509  34.375  28.781  1.00  0.00     0.014 A 
ATOM     28  C   UNL A   1      35.144  32.731  31.004  1.00  0.00     0.010 A 
ATOM     29  C   UNL A   1      36.608  33.761  29.377  1.00  0.00     0.010 A 
ATOM     30  C   UNL A   1      36.439  32.936  30.497  1.00  0.00    -0.014 A 
BRANCH  30  31
ATOM     31  C   UNL A   1      37.609  32.265  31.119  1.00  0.00     0.031 A 
ATOM     32  C   UNL A   1      38.098  32.665  32.482  1.00  0.00     0.074 A 
ATOM     33  C   UNL A   1      38.267  31.319  30.421  1.00  0.00     0.049 A 
ATOM     34  N   UNL A   1      39.095  32.179  33.179  1.00  0.00    -0.248 NA
ATOM     35  C   UNL A   1      37.397  33.779  33.136  1.00  0.00     0.031 C 
ATOM     36  C   UNL A   1      37.941  30.901  29.056  1.00  0.00     0.029 A 
ATOM     37  N   UNL A   1      39.348  30.544  30.757  1.00  0.00    -0.354 N 
ATOM     38  C   UNL A   1      39.146  32.933  34.343  1.00  0.00     0.074 A 
ATOM     39  C   UNL A   1      38.121  33.948  34.233  1.00  0.00     0.031 C 
ATOM     40  C   UNL A   1      38.781  29.925  28.684  1.00  0.00     0.029 A 
ATOM     41  C   UNL A   1      39.727  29.673  29.766  1.00  0.00     0.049 A 
ATOM     42  H   UNL A   1      39.808  30.607  31.625  1.00  0.00     0.167 HD
ATOM     43  C   UNL A   1      39.961  32.779  35.417  1.00  0.00     0.037 A 
ATOM     44  C   UNL A   1      40.727  28.773  29.729  1.00  0.00     0.037 A 
ATOM     45  C   UNL A   1      40.972  31.757  35.523  1.00  0.00     0.049 A 
ATOM     46  C   UNL A   1      41.601  28.600  30.940  1.00  0.00     0.074 A 
ATOM     47  C   UNL A   1      41.788  31.459  36.601  1.00  0.00     0.029 A 
ATOM     48  N   UNL A   1      41.317  30.877  34.507  1.00  0.00    -0.354 N 
ATOM     49  N   UNL A   1      41.573  29.247  32.079  1.00  0.00    -0.248 NA
ATOM     50  C   UNL A   1      42.636  27.561  30.862  1.00  0.00     0.031 C 
ATOM     51  C   UNL A   1      42.672  30.444  36.213  1.00  0.00     0.029 A 
ATOM     52  C   UNL A   1      42.364  30.063  34.918  1.00  0.00     0.049 A 
ATOM     53  H   UNL A   1      40.884  30.836  33.624  1.00  0.00     0.167 HD
ATOM     54  C   UNL A   1      42.576  28.691  32.860  1.00  0.00     0.074 A 
ATOM     55  C   UNL A   1      43.173  27.630  32.072  1.00  0.00     0.031 C 
ATOM     56  C   UNL A   1      42.970  29.029  34.114  1.00  0.00     0.037 A 
BRANCH  43  57
ATOM     57  C   UNL A   1      39.799  33.751  36.553  1.00  0.00     0.064 A 
ATOM     58  C   UNL A   1      40.465  34.988  36.576  1.00  0.00     0.173 A 
ATOM     59  C   UNL A   1      38.958  33.444  37.635  1.00  0.00     0.173 A 
ATOM     60  F   UNL A   1      41.286  35.330  35.573  1.00  0.00    -0.203 F 
ATOM     61  C   UNL A   1      40.332  35.856  37.658  1.00  0.00     0.198 A 
ATOM     62  C   UNL A   1      38.799  34.332  38.696  1.00  0.00     0.198 A 
ATOM     63  F   UNL A   1      38.291  32.281  37.665  1.00  0.00    -0.203 F 
ATOM     64  F   UNL A   1      41.033  36.999  37.686  1.00  0.00    -0.200 F 
ATOM     65  C   UNL A   1      39.496  35.530  38.714  1.00  0.00     0.200 A 
ATOM     66  F   UNL A   1      37.978  34.021  39.709  1.00  0.00    -0.200 F 
ATOM     67  F   UNL A   1      39.370  36.366  39.754  1.00  0.00    -0.200 F 
ENDBRANCH  43  57
BRANCH  44  68
ATOM     68  C   UNL A   1      40.925  27.954  28.506  1.00  0.00     0.064 A 
ATOM     69  C   UNL A   1      40.258  26.734  28.334  1.00  0.00     0.173 A 
ATOM     70  C   UNL A   1      41.754  28.397  27.464  1.00  0.00     0.173 A 
ATOM     71  F   UNL A   1      39.469  26.260  29.310  1.00  0.00    -0.203 F 
ATOM     72  C   UNL A   1      40.419  25.984  27.171  1.00  0.00     0.198 A 
ATOM     73  C   UNL A   1      41.890  27.661  26.290  1.00  0.00     0.198 A 
ATOM     74  F   UNL A   1      42.407  29.563  27.577  1.00  0.00    -0.203 F 
ATOM     75  F   UNL A   1      39.794  24.805  27.045  1.00  0.00    -0.200 F 
ATOM     76  C   UNL A   1      41.225  26.453  26.146  1.00  0.00     0.200 A 
ATOM     77  F   UNL A   1      42.655  28.129  25.295  1.00  0.00    -0.200 F 
ATOM     78  F   UNL A   1      41.365  25.740  25.020  1.00  0.00    -0.200 F 
ENDBRANCH  44  68
BRANCH  56  79
ATOM     79  C   UNL A   1      44.102  28.239  34.708  1.00  0.00     0.064 A 
ATOM     80  C   UNL A   1      45.436  28.661  34.591  1.00  0.00     0.173 A 
ATOM     81  C   UNL A   1      43.852  27.049  35.409  1.00  0.00     0.173 A 
ATOM     82  F   UNL A   1      45.732  29.784  33.919  1.00  0.00    -0.203 F 
ATOM     83  C   UNL A   1      46.477  27.900  35.116  1.00  0.00     0.198 A 
ATOM     84  C   UNL A   1      44.894  26.310  35.964  1.00  0.00     0.198 A 
ATOM     85  F   UNL A   1      42.596  26.602  35.558  1.00  0.00    -0.203 F 
ATOM     86  F   UNL A   1      47.746  28.289  34.932  1.00  0.00    -0.200 F 
ATOM     87  C   UNL A   1      46.205  26.729  35.807  1.00  0.00     0.200 A 
ATOM     88  F   UNL A   1      44.626  25.187  36.645  1.00  0.00    -0.200 F 
ATOM     89  F   UNL A   1      47.209  25.997  36.310  1.00  0.00    -0.200 F 
ENDBRANCH  56  79
ENDBRANCH  30  31
ENDBRANCH  22  25
ENDBRANCH  20  21
ENDBRANCH  19  20
ENDBRANCH   1  19
TORSDOF 13
ENDMDL
