MODEL 1
REMARK VINA RESULT:     -11.5      0.000      0.000
REMARK SMILES COc1ccc([C@@H]([NH3+])[C@](C)(C(N)=O)C(=O)NCCCNC(=O)c2ccc(-c3c4nc(c(-c5c(F)c(F)c(F)c(F)c5F)c5ccc([nH]5)c(-c5c(F)c(F)c(F)c(F)c5F)c5nc(c(-c6c(F)c(F)c(F)c(F)c6F)c6ccc3[nH]6)C=C5)C=C4)cc2)cc1OC
REMARK SMILES IDX 17 1 16 2 14 3 15 4 9 6 10 7 7 8 6 9 3 10 4 11 87 12 5 13
REMARK SMILES IDX 86 14 2 15 1 16 88 17 89 18 8 19 11 23 12 24 13 25 18 28
REMARK SMILES IDX 19 29 20 30 21 31 22 33 23 34 24 35 85 36 25 37 84 38 26 39
REMARK SMILES IDX 27 40 28 41 78 42 29 43 83 44 77 45 79 46 30 47 82 48 76 49
REMARK SMILES IDX 75 50 31 52 63 53 43 54 62 55 44 56 47 57 61 58 80 59 45 60
REMARK SMILES IDX 46 61 60 63 81 64 48 65 32 66 33 67 41 68 34 69 35 70 39 71
REMARK SMILES IDX 42 72 36 73 37 74 40 75 38 76 64 77 65 78 73 79 66 80 67 81
REMARK SMILES IDX 71 82 74 83 68 84 69 85 72 86 70 87 49 88 50 89 58 90 51 91
REMARK SMILES IDX 52 92 56 93 59 94 53 95 54 96 57 97 55 98
REMARK H PARENT 16 5 8 20 8 21 8 22 12 26 12 27 20 32 79 51 47 62
REMARK Flexibility Score: inf
ROOT
ATOM      1  C   UNL A   1      31.184  30.267  25.552  1.00  0.00     0.117 C 
ENDROOT
BRANCH   1   2
ATOM      2  N   UNL A   1      32.370  29.966  24.768  1.00  0.00    -0.355 N 
ATOM      3  C   UNL A   1      32.590  29.043  23.787  1.00  0.00     0.241 C 
ATOM      4  O   UNL A   1      33.747  28.994  23.356  1.00  0.00    -0.274 OA
ATOM      5  H   UNL A   1      33.151  30.526  24.981  1.00  0.00     0.163 HD
BRANCH   3   6
ATOM      6  C   UNL A   1      31.484  28.090  23.284  1.00  0.00     0.180 C 
ATOM      7  C   UNL A   1      30.620  27.707  24.517  1.00  0.00     0.039 C 
BRANCH   6   8
ATOM      8  C   UNL A   1      32.193  26.827  22.613  1.00  0.00     0.237 C 
BRANCH   8   9
ATOM      9  C   UNL A   1      32.212  25.529  23.421  1.00  0.00     0.015 A 
ATOM     10  C   UNL A   1      32.394  23.055  24.755  1.00  0.00     0.160 A 
ATOM     11  C   UNL A   1      31.405  23.265  23.788  1.00  0.00     0.051 A 
ATOM     12  C   UNL A   1      33.319  24.066  25.047  1.00  0.00     0.161 A 
ATOM     13  C   UNL A   1      31.318  24.487  23.126  1.00  0.00     0.014 A 
ATOM     14  C   UNL A   1      33.204  25.300  24.387  1.00  0.00     0.060 A 
BRANCH  10  15
ATOM     15  O   UNL A   1      32.480  21.814  25.326  1.00  0.00    -0.493 OA
ATOM     16  C   UNL A   1      33.189  20.904  24.483  1.00  0.00     0.278 C 
ENDBRANCH  10  15
BRANCH  12  17
ATOM     17  O   UNL A   1      34.384  24.027  25.907  1.00  0.00    -0.493 OA
ATOM     18  C   UNL A   1      35.688  23.884  25.366  1.00  0.00     0.278 C 
ENDBRANCH  12  17
ENDBRANCH   8   9
BRANCH   8  19
ATOM     19  N   UNL A   1      31.778  26.432  21.258  1.00  0.00    -0.350 N 
ATOM     20  H   UNL A   1      32.503  25.851  20.837  1.00  0.00     0.345 HD
ATOM     21  H   UNL A   1      31.636  27.265  20.689  1.00  0.00     0.345 HD
ATOM     22  H   UNL A   1      30.907  25.903  21.310  1.00  0.00     0.345 HD
ENDBRANCH   8  19
ENDBRANCH   6   8
BRANCH   6  23
ATOM     23  C   UNL A   1      30.520  28.869  22.366  1.00  0.00     0.239 C 
ATOM     24  N   UNL A   1      31.028  29.939  21.682  1.00  0.00    -0.369 N 
ATOM     25  O   UNL A   1      29.323  28.628  22.225  1.00  0.00    -0.274 OA
ATOM     26  H   UNL A   1      31.982  30.168  21.765  1.00  0.00     0.159 HD
ATOM     27  H   UNL A   1      30.440  30.480  21.106  1.00  0.00     0.159 HD
ENDBRANCH   6  23
ENDBRANCH   3   6
ENDBRANCH   1   2
BRANCH   1  28
ATOM     28  C   UNL A   1      31.189  31.681  26.117  1.00  0.00     0.042 C 
BRANCH  28  29
ATOM     29  C   UNL A   1      32.451  32.044  26.887  1.00  0.00     0.118 C 
BRANCH  29  30
ATOM     30  N   UNL A   1      32.504  33.452  27.251  1.00  0.00    -0.352 N 
ATOM     31  C   UNL A   1      33.300  34.106  28.156  1.00  0.00     0.251 C 
ATOM     32  H   UNL A   1      31.867  34.028  26.770  1.00  0.00     0.163 HD
ATOM     33  O   UNL A   1      33.046  35.277  28.449  1.00  0.00    -0.269 OA
BRANCH  31  34
ATOM     34  C   UNL A   1      34.449  33.429  28.794  1.00  0.00     0.039 A 
ATOM     35  C   UNL A   1      34.208  32.350  29.651  1.00  0.00     0.014 A 
ATOM     36  C   UNL A   1      35.758  33.878  28.598  1.00  0.00     0.014 A 
ATOM     37  C   UNL A   1      35.277  31.694  30.266  1.00  0.00     0.010 A 
ATOM     38  C   UNL A   1      36.827  33.167  29.134  1.00  0.00     0.010 A 
ATOM     39  C   UNL A   1      36.599  32.082  29.993  1.00  0.00    -0.014 A 
BRANCH  39  40
ATOM     40  C   UNL A   1      37.753  31.401  30.634  1.00  0.00     0.031 A 
ATOM     41  C   UNL A   1      38.127  31.736  32.053  1.00  0.00     0.074 A 
ATOM     42  C   UNL A   1      38.497  30.528  29.929  1.00  0.00     0.049 A 
ATOM     43  N   UNL A   1      39.139  31.313  32.769  1.00  0.00    -0.248 NA
ATOM     44  C   UNL A   1      37.264  32.702  32.753  1.00  0.00     0.031 C 
ATOM     45  C   UNL A   1      38.268  30.152  28.534  1.00  0.00     0.029 A 
ATOM     46  N   UNL A   1      39.605  29.802  30.291  1.00  0.00    -0.354 N 
ATOM     47  C   UNL A   1      39.045  31.977  33.985  1.00  0.00     0.074 A 
ATOM     48  C   UNL A   1      37.917  32.874  33.892  1.00  0.00     0.031 C 
ATOM     49  C   UNL A   1      39.188  29.247  28.165  1.00  0.00     0.029 A 
ATOM     50  C   UNL A   1      40.092  29.003  29.286  1.00  0.00     0.049 A 
ATOM     51  H   UNL A   1      40.012  29.849  31.186  1.00  0.00     0.167 HD
ATOM     52  C   UNL A   1      39.814  31.831  35.091  1.00  0.00     0.037 A 
ATOM     53  C   UNL A   1      41.150  28.169  29.271  1.00  0.00     0.037 A 
ATOM     54  C   UNL A   1      40.913  30.908  35.195  1.00  0.00     0.049 A 
ATOM     55  C   UNL A   1      41.980  28.014  30.517  1.00  0.00     0.074 A 
ATOM     56  C   UNL A   1      41.718  30.643  36.289  1.00  0.00     0.029 A 
ATOM     57  N   UNL A   1      41.357  30.093  34.164  1.00  0.00    -0.354 N 
ATOM     58  N   UNL A   1      41.846  28.603  31.680  1.00  0.00    -0.248 NA
ATOM     59  C   UNL A   1      43.104  27.069  30.449  1.00  0.00     0.031 C 
ATOM     60  C   UNL A   1      42.674  29.694  35.908  1.00  0.00     0.029 A 
ATOM     61  C   UNL A   1      42.434  29.334  34.592  1.00  0.00     0.049 A 
ATOM     62  H   UNL A   1      40.964  30.060  33.261  1.00  0.00     0.167 HD
ATOM     63  C   UNL A   1      42.844  28.078  32.491  1.00  0.00     0.074 A 
ATOM     64  C   UNL A   1      43.569  27.115  31.689  1.00  0.00     0.031 C 
ATOM     65  C   UNL A   1      43.133  28.367  33.784  1.00  0.00     0.037 A 
BRANCH  52  66
ATOM     66  C   UNL A   1      39.485  32.686  36.280  1.00  0.00     0.064 A 
ATOM     67  C   UNL A   1      40.127  33.916  36.503  1.00  0.00     0.173 A 
ATOM     68  C   UNL A   1      38.503  32.284  37.199  1.00  0.00     0.173 A 
ATOM     69  F   UNL A   1      41.082  34.340  35.663  1.00  0.00    -0.203 F 
ATOM     70  C   UNL A   1      39.823  34.691  37.619  1.00  0.00     0.198 A 
ATOM     71  C   UNL A   1      38.181  33.079  38.296  1.00  0.00     0.198 A 
ATOM     72  F   UNL A   1      37.856  31.122  37.032  1.00  0.00    -0.203 F 
ATOM     73  F   UNL A   1      40.491  35.832  37.841  1.00  0.00    -0.200 F 
ATOM     74  C   UNL A   1      38.847  34.276  38.511  1.00  0.00     0.200 A 
ATOM     75  F   UNL A   1      37.227  32.682  39.151  1.00  0.00    -0.200 F 
ATOM     76  F   UNL A   1      38.555  35.025  39.583  1.00  0.00    -0.200 F 
ENDBRANCH  52  66
BRANCH  53  77
ATOM     77  C   UNL A   1      41.460  27.385  28.047  1.00  0.00     0.064 A 
ATOM     78  C   UNL A   1      40.876  26.128  27.835  1.00  0.00     0.173 A 
ATOM     79  C   UNL A   1      42.343  27.869  27.072  1.00  0.00     0.173 A 
ATOM     80  F   UNL A   1      40.042  25.614  28.751  1.00  0.00    -0.203 F 
ATOM     81  C   UNL A   1      41.180  25.376  26.703  1.00  0.00     0.198 A 
ATOM     82  C   UNL A   1      42.624  27.127  25.926  1.00  0.00     0.198 A 
ATOM     83  F   UNL A   1      42.922  29.068  27.226  1.00  0.00    -0.203 F 
ATOM     84  F   UNL A   1      40.642  24.159  26.547  1.00  0.00    -0.200 F 
ATOM     85  C   UNL A   1      42.049  25.878  25.746  1.00  0.00     0.200 A 
ATOM     86  F   UNL A   1      43.454  27.622  24.997  1.00  0.00    -0.200 F 
ATOM     87  F   UNL A   1      42.338  25.156  24.655  1.00  0.00    -0.200 F 
ENDBRANCH  53  77
BRANCH  65  88
ATOM     88  C   UNL A   1      44.251  27.600  34.427  1.00  0.00     0.064 A 
ATOM     89  C   UNL A   1      45.564  28.092  34.450  1.00  0.00     0.173 A 
ATOM     90  C   UNL A   1      43.994  26.377  35.064  1.00  0.00     0.173 A 
ATOM     91  F   UNL A   1      45.863  29.249  33.844  1.00  0.00    -0.203 F 
ATOM     92  C   UNL A   1      46.584  27.371  35.066  1.00  0.00     0.198 A 
ATOM     93  C   UNL A   1      45.011  25.675  35.703  1.00  0.00     0.198 A 
ATOM     94  F   UNL A   1      42.752  25.867  35.075  1.00  0.00    -0.203 F 
ATOM     95  F   UNL A   1      47.842  27.836  35.035  1.00  0.00    -0.200 F 
ATOM     96  C   UNL A   1      46.306  26.169  35.697  1.00  0.00     0.200 A 
ATOM     97  F   UNL A   1      44.737  24.519  36.325  1.00  0.00    -0.200 F 
ATOM     98  F   UNL A   1      47.290  25.481  36.295  1.00  0.00    -0.200 F 
ENDBRANCH  65  88
ENDBRANCH  39  40
ENDBRANCH  31  34
ENDBRANCH  29  30
ENDBRANCH  28  29
ENDBRANCH   1  28
TORSDOF 16
ENDMDL
MODEL 2
REMARK VINA RESULT:     -11.5      1.567      7.566
REMARK SMILES COc1ccc([C@@H]([NH3+])[C@](C)(C(N)=O)C(=O)NCCCNC(=O)c2ccc(-c3c4nc(c(-c5c(F)c(F)c(F)c(F)c5F)c5ccc([nH]5)c(-c5c(F)c(F)c(F)c(F)c5F)c5nc(c(-c6c(F)c(F)c(F)c(F)c6F)c6ccc3[nH]6)C=C5)C=C4)cc2)cc1OC
REMARK SMILES IDX 17 1 16 2 14 3 15 4 9 6 10 7 7 8 6 9 3 10 4 11 87 12 5 13
REMARK SMILES IDX 86 14 2 15 1 16 88 17 89 18 8 19 11 23 12 24 13 25 18 28
REMARK SMILES IDX 19 29 20 30 21 31 22 33 23 34 24 35 85 36 25 37 84 38 26 39
REMARK SMILES IDX 27 40 28 41 78 42 29 43 83 44 77 45 79 46 30 47 82 48 76 49
REMARK SMILES IDX 75 50 31 52 63 53 43 54 62 55 44 56 47 57 61 58 80 59 45 60
REMARK SMILES IDX 46 61 60 63 81 64 48 65 32 66 33 67 41 68 34 69 35 70 39 71
REMARK SMILES IDX 42 72 36 73 37 74 40 75 38 76 64 77 65 78 73 79 66 80 67 81
REMARK SMILES IDX 71 82 74 83 68 84 69 85 72 86 70 87 49 88 50 89 58 90 51 91
REMARK SMILES IDX 52 92 56 93 59 94 53 95 54 96 57 97 55 98
REMARK H PARENT 16 5 8 20 8 21 8 22 12 26 12 27 20 32 79 51 47 62
REMARK Flexibility Score: inf
ROOT
ATOM      1  C   UNL A   1      31.413  31.108  26.583  1.00  0.00     0.117 C 
ENDROOT
BRANCH   1   2
ATOM      2  N   UNL A   1      31.204  30.551  25.257  1.00  0.00    -0.355 N 
ATOM      3  C   UNL A   1      31.426  29.300  24.761  1.00  0.00     0.241 C 
ATOM      4  O   UNL A   1      31.202  29.161  23.554  1.00  0.00    -0.274 OA
ATOM      5  H   UNL A   1      30.837  31.188  24.602  1.00  0.00     0.163 HD
BRANCH   3   6
ATOM      6  C   UNL A   1      31.967  28.147  25.635  1.00  0.00     0.180 C 
ATOM      7  C   UNL A   1      31.875  28.617  27.113  1.00  0.00     0.039 C 
BRANCH   6   8
ATOM      8  C   UNL A   1      33.466  27.846  25.177  1.00  0.00     0.237 C 
BRANCH   8   9
ATOM      9  C   UNL A   1      33.774  26.429  24.692  1.00  0.00     0.015 A 
ATOM     10  C   UNL A   1      34.120  23.769  23.832  1.00  0.00     0.160 A 
ATOM     11  C   UNL A   1      34.306  24.106  25.177  1.00  0.00     0.051 A 
ATOM     12  C   UNL A   1      33.733  24.748  22.908  1.00  0.00     0.161 A 
ATOM     13  C   UNL A   1      34.131  25.421  25.603  1.00  0.00     0.014 A 
ATOM     14  C   UNL A   1      33.582  26.073  23.348  1.00  0.00     0.060 A 
BRANCH  10  15
ATOM     15  O   UNL A   1      34.237  22.451  23.479  1.00  0.00    -0.493 OA
ATOM     16  C   UNL A   1      34.300  21.611  24.632  1.00  0.00     0.278 C 
ENDBRANCH  10  15
BRANCH  12  17
ATOM     17  O   UNL A   1      33.446  24.600  21.577  1.00  0.00    -0.493 OA
ATOM     18  C   UNL A   1      32.660  25.595  20.939  1.00  0.00     0.278 C 
ENDBRANCH  12  17
ENDBRANCH   8   9
BRANCH   8  19
ATOM     19  N   UNL A   1      34.084  28.737  24.183  1.00  0.00    -0.350 N 
ATOM     20  H   UNL A   1      33.991  29.705  24.490  1.00  0.00     0.345 HD
ATOM     21  H   UNL A   1      33.619  28.618  23.284  1.00  0.00     0.345 HD
ATOM     22  H   UNL A   1      35.073  28.504  24.087  1.00  0.00     0.345 HD
ENDBRANCH   8  19
ENDBRANCH   6   8
BRANCH   6  23
ATOM     23  C   UNL A   1      31.000  26.948  25.552  1.00  0.00     0.239 C 
ATOM     24  N   UNL A   1      30.359  26.736  24.362  1.00  0.00    -0.369 N 
ATOM     25  O   UNL A   1      30.731  26.187  26.480  1.00  0.00    -0.274 OA
ATOM     26  H   UNL A   1      30.544  27.322  23.593  1.00  0.00     0.159 HD
ATOM     27  H   UNL A   1      29.713  25.999  24.276  1.00  0.00     0.159 HD
ENDBRANCH   6  23
ENDBRANCH   3   6
ENDBRANCH   1   2
BRANCH   1  28
ATOM     28  C   UNL A   1      31.431  32.631  26.592  1.00  0.00     0.042 C 
BRANCH  28  29
ATOM     29  C   UNL A   1      32.713  33.239  27.144  1.00  0.00     0.118 C 
BRANCH  29  30
ATOM     30  N   UNL A   1      32.494  34.528  27.785  1.00  0.00    -0.352 N 
ATOM     31  C   UNL A   1      33.050  35.062  28.919  1.00  0.00     0.251 C 
ATOM     32  H   UNL A   1      31.843  35.110  27.331  1.00  0.00     0.163 HD
ATOM     33  O   UNL A   1      32.578  36.097  29.394  1.00  0.00    -0.269 OA
BRANCH  31  34
ATOM     34  C   UNL A   1      34.198  34.412  29.587  1.00  0.00     0.039 A 
ATOM     35  C   UNL A   1      35.485  34.635  29.089  1.00  0.00     0.014 A 
ATOM     36  C   UNL A   1      34.014  33.546  30.668  1.00  0.00     0.014 A 
ATOM     37  C   UNL A   1      36.586  34.033  29.703  1.00  0.00     0.010 A 
ATOM     38  C   UNL A   1      35.116  33.021  31.337  1.00  0.00     0.010 A 
ATOM     39  C   UNL A   1      36.413  33.239  30.848  1.00  0.00    -0.014 A 
BRANCH  39  40
ATOM     40  C   UNL A   1      37.566  32.587  31.520  1.00  0.00     0.031 A 
ATOM     41  C   UNL A   1      38.280  31.447  30.844  1.00  0.00     0.074 A 
ATOM     42  C   UNL A   1      37.937  32.977  32.755  1.00  0.00     0.049 A 
ATOM     43  N   UNL A   1      39.257  30.697  31.290  1.00  0.00    -0.248 NA
ATOM     44  C   UNL A   1      37.812  31.080  29.498  1.00  0.00     0.031 C 
ATOM     45  C   UNL A   1      37.298  34.037  33.535  1.00  0.00     0.029 A 
ATOM     46  N   UNL A   1      38.940  32.520  33.573  1.00  0.00    -0.354 N 
ATOM     47  C   UNL A   1      39.500  29.761  30.292  1.00  0.00     0.074 A 
ATOM     48  C   UNL A   1      38.532  29.997  29.246  1.00  0.00     0.031 C 
ATOM     49  C   UNL A   1      37.940  34.167  34.707  1.00  0.00     0.029 A 
ATOM     50  C   UNL A   1      39.013  33.179  34.775  1.00  0.00     0.049 A 
ATOM     51  H   UNL A   1      39.549  31.789  33.322  1.00  0.00     0.167 HD
ATOM     52  C   UNL A   1      40.461  28.808  30.240  1.00  0.00     0.037 A 
ATOM     53  C   UNL A   1      39.850  33.005  35.815  1.00  0.00     0.037 A 
ATOM     54  C   UNL A   1      41.449  28.602  31.265  1.00  0.00     0.049 A 
ATOM     55  C   UNL A   1      40.919  31.949  35.727  1.00  0.00     0.074 A 
ATOM     56  C   UNL A   1      42.501  27.702  31.283  1.00  0.00     0.029 A 
ATOM     57  N   UNL A   1      41.509  29.311  32.456  1.00  0.00    -0.354 N 
ATOM     58  N   UNL A   1      41.177  31.110  34.754  1.00  0.00    -0.248 NA
ATOM     59  C   UNL A   1      41.822  31.824  36.881  1.00  0.00     0.031 C 
ATOM     60  C   UNL A   1      43.175  27.841  32.501  1.00  0.00     0.029 A 
ATOM     61  C   UNL A   1      42.572  28.860  33.221  1.00  0.00     0.049 A 
ATOM     62  H   UNL A   1      40.887  30.028  32.718  1.00  0.00     0.167 HD
ATOM     63  C   UNL A   1      42.287  30.381  35.161  1.00  0.00     0.074 A 
ATOM     64  C   UNL A   1      42.661  30.885  36.466  1.00  0.00     0.031 C 
ATOM     65  C   UNL A   1      42.939  29.385  34.512  1.00  0.00     0.037 A 
BRANCH  52  66
ATOM     66  C   UNL A   1      40.494  27.924  29.027  1.00  0.00     0.064 A 
ATOM     67  C   UNL A   1      41.268  28.247  27.901  1.00  0.00     0.173 A 
ATOM     68  C   UNL A   1      39.759  26.729  28.995  1.00  0.00     0.173 A 
ATOM     69  F   UNL A   1      41.979  29.385  27.875  1.00  0.00    -0.203 F 
ATOM     70  C   UNL A   1      41.277  27.426  26.776  1.00  0.00     0.198 A 
ATOM     71  C   UNL A   1      39.796  25.895  27.880  1.00  0.00     0.198 A 
ATOM     72  F   UNL A   1      39.006  26.369  30.045  1.00  0.00    -0.203 F 
ATOM     73  F   UNL A   1      41.977  27.786  25.692  1.00  0.00    -0.200 F 
ATOM     74  C   UNL A   1      40.546  26.248  26.769  1.00  0.00     0.200 A 
ATOM     75  F   UNL A   1      39.098  24.749  27.880  1.00  0.00    -0.200 F 
ATOM     76  F   UNL A   1      40.558  25.458  25.687  1.00  0.00    -0.200 F 
ENDBRANCH  52  66
BRANCH  53  77
ATOM     77  C   UNL A   1      39.739  33.877  37.014  1.00  0.00     0.064 A 
ATOM     78  C   UNL A   1      38.997  33.467  38.131  1.00  0.00     0.173 A 
ATOM     79  C   UNL A   1      40.366  35.130  37.068  1.00  0.00     0.173 A 
ATOM     80  F   UNL A   1      38.364  32.286  38.117  1.00  0.00    -0.203 F 
ATOM     81  C   UNL A   1      38.869  34.288  39.249  1.00  0.00     0.198 A 
ATOM     82  C   UNL A   1      40.259  35.938  38.198  1.00  0.00     0.198 A 
ATOM     83  F   UNL A   1      41.091  35.563  36.027  1.00  0.00    -0.203 F 
ATOM     84  F   UNL A   1      38.118  33.891  40.285  1.00  0.00    -0.200 F 
ATOM     85  C   UNL A   1      39.504  35.520  39.285  1.00  0.00     0.200 A 
ATOM     86  F   UNL A   1      40.885  37.122  38.234  1.00  0.00    -0.200 F 
ATOM     87  F   UNL A   1      39.384  36.308  40.362  1.00  0.00    -0.200 F 
ENDBRANCH  53  77
BRANCH  65  88
ATOM     88  C   UNL A   1      44.151  28.806  35.180  1.00  0.00     0.064 A 
ATOM     89  C   UNL A   1      44.060  27.707  36.047  1.00  0.00     0.173 A 
ATOM     90  C   UNL A   1      45.424  29.334  34.917  1.00  0.00     0.173 A 
ATOM     91  F   UNL A   1      42.865  27.175  36.341  1.00  0.00    -0.203 F 
ATOM     92  C   UNL A   1      45.199  27.175  36.646  1.00  0.00     0.198 A 
ATOM     93  C   UNL A   1      46.562  28.780  35.495  1.00  0.00     0.198 A 
ATOM     94  F   UNL A   1      45.564  30.381  34.090  1.00  0.00    -0.203 F 
ATOM     95  F   UNL A   1      45.085  26.154  37.508  1.00  0.00    -0.200 F 
ATOM     96  C   UNL A   1      46.448  27.706  36.364  1.00  0.00     0.200 A 
ATOM     97  F   UNL A   1      47.770  29.287  35.210  1.00  0.00    -0.200 F 
ATOM     98  F   UNL A   1      47.544  27.187  36.937  1.00  0.00    -0.200 F 
ENDBRANCH  65  88
ENDBRANCH  39  40
ENDBRANCH  31  34
ENDBRANCH  29  30
ENDBRANCH  28  29
ENDBRANCH   1  28
TORSDOF 16
ENDMDL
MODEL 3
REMARK VINA RESULT:     -11.4      2.464      3.804
REMARK SMILES COc1ccc([C@@H]([NH3+])[C@](C)(C(N)=O)C(=O)NCCCNC(=O)c2ccc(-c3c4nc(c(-c5c(F)c(F)c(F)c(F)c5F)c5ccc([nH]5)c(-c5c(F)c(F)c(F)c(F)c5F)c5nc(c(-c6c(F)c(F)c(F)c(F)c6F)c6ccc3[nH]6)C=C5)C=C4)cc2)cc1OC
REMARK SMILES IDX 17 1 16 2 14 3 15 4 9 6 10 7 7 8 6 9 3 10 4 11 87 12 5 13
REMARK SMILES IDX 86 14 2 15 1 16 88 17 89 18 8 19 11 23 12 24 13 25 18 28
REMARK SMILES IDX 19 29 20 30 21 31 22 33 23 34 24 35 85 36 25 37 84 38 26 39
REMARK SMILES IDX 27 40 28 41 78 42 29 43 83 44 77 45 79 46 30 47 82 48 76 49
REMARK SMILES IDX 75 50 31 52 63 53 43 54 62 55 44 56 47 57 61 58 80 59 45 60
REMARK SMILES IDX 46 61 60 63 81 64 48 65 32 66 33 67 41 68 34 69 35 70 39 71
REMARK SMILES IDX 42 72 36 73 37 74 40 75 38 76 64 77 65 78 73 79 66 80 67 81
REMARK SMILES IDX 71 82 74 83 68 84 69 85 72 86 70 87 49 88 50 89 58 90 51 91
REMARK SMILES IDX 52 92 56 93 59 94 53 95 54 96 57 97 55 98
REMARK H PARENT 16 5 8 20 8 21 8 22 12 26 12 27 20 32 79 51 47 62
REMARK Flexibility Score: inf
ROOT
ATOM      1  C   UNL A   1      33.455  26.986  24.090  1.00  0.00     0.117 C 
ENDROOT
BRANCH   1   2
ATOM      2  N   UNL A   1      32.046  26.703  24.308  1.00  0.00    -0.355 N 
ATOM      3  C   UNL A   1      31.417  25.605  24.819  1.00  0.00     0.241 C 
ATOM      4  O   UNL A   1      30.182  25.652  24.811  1.00  0.00    -0.274 OA
ATOM      5  H   UNL A   1      31.440  27.431  24.041  1.00  0.00     0.163 HD
BRANCH   3   6
ATOM      6  C   UNL A   1      32.191  24.369  25.326  1.00  0.00     0.180 C 
ATOM      7  C   UNL A   1      33.404  24.897  26.139  1.00  0.00     0.039 C 
BRANCH   6   8
ATOM      8  C   UNL A   1      32.628  23.509  24.055  1.00  0.00     0.237 C 
BRANCH   8   9
ATOM      9  C   UNL A   1      33.056  22.063  24.307  1.00  0.00     0.015 A 
ATOM     10  C   UNL A   1      33.923  19.395  24.556  1.00  0.00     0.160 A 
ATOM     11  C   UNL A   1      32.618  19.677  24.141  1.00  0.00     0.051 A 
ATOM     12  C   UNL A   1      34.818  20.438  24.825  1.00  0.00     0.161 A 
ATOM     13  C   UNL A   1      32.191  20.997  24.014  1.00  0.00     0.014 A 
ATOM     14  C   UNL A   1      34.366  21.763  24.715  1.00  0.00     0.060 A 
BRANCH  10  15
ATOM     15  O   UNL A   1      34.313  18.083  24.598  1.00  0.00    -0.493 OA
ATOM     16  C   UNL A   1      33.817  17.359  23.471  1.00  0.00     0.278 C 
ENDBRANCH  10  15
BRANCH  12  17
ATOM     17  O   UNL A   1      36.139  20.361  25.179  1.00  0.00    -0.493 OA
ATOM     18  C   UNL A   1      36.899  21.559  25.225  1.00  0.00     0.278 C 
ENDBRANCH  12  17
ENDBRANCH   8   9
BRANCH   8  19
ATOM     19  N   UNL A   1      31.712  23.445  22.907  1.00  0.00    -0.350 N 
ATOM     20  H   UNL A   1      31.227  22.547  22.908  1.00  0.00     0.345 HD
ATOM     21  H   UNL A   1      32.242  23.545  22.042  1.00  0.00     0.345 HD
ATOM     22  H   UNL A   1      31.028  24.200  22.975  1.00  0.00     0.345 HD
ENDBRANCH   8  19
ENDBRANCH   6   8
BRANCH   6  23
ATOM     23  C   UNL A   1      31.329  23.620  26.364  1.00  0.00     0.239 C 
ATOM     24  N   UNL A   1      30.146  23.085  25.933  1.00  0.00    -0.369 N 
ATOM     25  O   UNL A   1      31.604  23.493  27.555  1.00  0.00    -0.274 OA
ATOM     26  H   UNL A   1      29.887  23.163  24.987  1.00  0.00     0.159 HD
ATOM     27  H   UNL A   1      29.554  22.624  26.570  1.00  0.00     0.159 HD
ENDBRANCH   6  23
ENDBRANCH   3   6
ENDBRANCH   1   2
BRANCH   1  28
ATOM     28  C   UNL A   1      33.853  28.390  24.523  1.00  0.00     0.042 C 
BRANCH  28  29
ATOM     29  C   UNL A   1      34.014  28.560  26.028  1.00  0.00     0.118 C 
BRANCH  29  30
ATOM     30  N   UNL A   1      33.769  29.925  26.470  1.00  0.00    -0.352 N 
ATOM     31  C   UNL A   1      34.413  30.681  27.416  1.00  0.00     0.251 C 
ATOM     32  H   UNL A   1      33.023  30.379  26.017  1.00  0.00     0.163 HD
ATOM     33  O   UNL A   1      33.919  31.753  27.772  1.00  0.00    -0.269 OA
BRANCH  31  34
ATOM     34  C   UNL A   1      35.682  30.227  28.024  1.00  0.00     0.039 A 
ATOM     35  C   UNL A   1      36.872  30.393  27.309  1.00  0.00     0.014 A 
ATOM     36  C   UNL A   1      35.706  29.594  29.270  1.00  0.00     0.014 A 
ATOM     37  C   UNL A   1      38.085  29.973  27.861  1.00  0.00     0.010 A 
ATOM     38  C   UNL A   1      36.922  29.261  29.860  1.00  0.00     0.010 A 
ATOM     39  C   UNL A   1      38.123  29.425  29.153  1.00  0.00    -0.014 A 
BRANCH  39  40
ATOM     40  C   UNL A   1      39.398  28.970  29.764  1.00  0.00     0.031 A 
ATOM     41  C   UNL A   1      39.958  29.696  30.958  1.00  0.00     0.074 A 
ATOM     42  C   UNL A   1      40.079  27.945  29.218  1.00  0.00     0.049 A 
ATOM     43  N   UNL A   1      41.089  29.507  31.591  1.00  0.00    -0.248 NA
ATOM     44  C   UNL A   1      39.153  30.807  31.492  1.00  0.00     0.031 C 
ATOM     45  C   UNL A   1      39.667  27.188  28.035  1.00  0.00     0.029 A 
ATOM     46  N   UNL A   1      41.269  27.366  29.584  1.00  0.00    -0.354 N 
ATOM     47  C   UNL A   1      41.138  30.484  32.577  1.00  0.00     0.074 A 
ATOM     48  C   UNL A   1      39.957  31.302  32.421  1.00  0.00     0.031 C 
ATOM     49  C   UNL A   1      40.575  26.230  27.789  1.00  0.00     0.029 A 
ATOM     50  C   UNL A   1      41.648  26.325  28.774  1.00  0.00     0.049 A 
ATOM     51  H   UNL A   1      41.801  27.670  30.355  1.00  0.00     0.167 HD
ATOM     52  C   UNL A   1      42.070  30.668  33.542  1.00  0.00     0.037 A 
ATOM     53  C   UNL A   1      42.739  25.536  28.821  1.00  0.00     0.037 A 
ATOM     54  C   UNL A   1      43.225  29.827  33.720  1.00  0.00     0.049 A 
ATOM     55  C   UNL A   1      43.753  25.751  29.912  1.00  0.00     0.074 A 
ATOM     56  C   UNL A   1      44.198  29.893  34.702  1.00  0.00     0.029 A 
ATOM     57  N   UNL A   1      43.557  28.762  32.896  1.00  0.00    -0.354 N 
ATOM     58  N   UNL A   1      43.759  26.641  30.874  1.00  0.00    -0.248 NA
ATOM     59  C   UNL A   1      44.908  24.842  29.930  1.00  0.00     0.031 C 
ATOM     60  C   UNL A   1      45.141  28.890  34.450  1.00  0.00     0.029 A 
ATOM     61  C   UNL A   1      44.729  28.170  33.339  1.00  0.00     0.049 A 
ATOM     62  H   UNL A   1      43.038  28.470  32.112  1.00  0.00     0.167 HD
ATOM     63  C   UNL A   1      44.896  26.381  31.629  1.00  0.00     0.074 A 
ATOM     64  C   UNL A   1      45.549  25.241  31.019  1.00  0.00     0.031 C 
ATOM     65  C   UNL A   1      45.356  27.026  32.729  1.00  0.00     0.037 A 
BRANCH  52  66
ATOM     66  C   UNL A   1      41.872  31.818  34.487  1.00  0.00     0.064 A 
ATOM     67  C   UNL A   1      42.450  33.075  34.247  1.00  0.00     0.173 A 
ATOM     68  C   UNL A   1      41.079  31.670  35.635  1.00  0.00     0.173 A 
ATOM     69  F   UNL A   1      43.227  33.266  33.170  1.00  0.00    -0.203 F 
ATOM     70  C   UNL A   1      42.270  34.129  35.139  1.00  0.00     0.198 A 
ATOM     71  C   UNL A   1      40.877  32.736  36.508  1.00  0.00     0.198 A 
ATOM     72  F   UNL A   1      40.500  30.493  35.910  1.00  0.00    -0.203 F 
ATOM     73  F   UNL A   1      42.880  35.302  34.918  1.00  0.00    -0.200 F 
ATOM     74  C   UNL A   1      41.480  33.961  36.265  1.00  0.00     0.200 A 
ATOM     75  F   UNL A   1      40.101  32.576  37.590  1.00  0.00    -0.200 F 
ATOM     76  F   UNL A   1      41.307  34.977  37.121  1.00  0.00    -0.200 F 
ENDBRANCH  52  66
BRANCH  53  77
ATOM     77  C   UNL A   1      42.910  24.444  27.828  1.00  0.00     0.064 A 
ATOM     78  C   UNL A   1      43.464  24.703  26.566  1.00  0.00     0.173 A 
ATOM     79  C   UNL A   1      42.523  23.127  28.115  1.00  0.00     0.173 A 
ATOM     80  F   UNL A   1      43.830  25.951  26.239  1.00  0.00    -0.203 F 
ATOM     81  C   UNL A   1      43.606  23.690  25.622  1.00  0.00     0.198 A 
ATOM     82  C   UNL A   1      42.692  22.109  27.178  1.00  0.00     0.198 A 
ATOM     83  F   UNL A   1      41.994  22.827  29.309  1.00  0.00    -0.203 F 
ATOM     84  F   UNL A   1      44.098  23.974  24.408  1.00  0.00    -0.200 F 
ATOM     85  C   UNL A   1      43.226  22.392  25.929  1.00  0.00     0.200 A 
ATOM     86  F   UNL A   1      42.335  20.855  27.484  1.00  0.00    -0.200 F 
ATOM     87  F   UNL A   1      43.366  21.417  25.022  1.00  0.00    -0.200 F 
ENDBRANCH  53  77
BRANCH  65  88
ATOM     88  C   UNL A   1      46.601  26.488  33.372  1.00  0.00     0.064 A 
ATOM     89  C   UNL A   1      47.873  26.968  33.030  1.00  0.00     0.173 A 
ATOM     90  C   UNL A   1      46.513  25.508  34.373  1.00  0.00     0.173 A 
ATOM     91  F   UNL A   1      48.011  27.894  32.070  1.00  0.00    -0.203 F 
ATOM     92  C   UNL A   1      49.015  26.466  33.649  1.00  0.00     0.198 A 
ATOM     93  C   UNL A   1      47.654  25.031  35.009  1.00  0.00     0.198 A 
ATOM     94  F   UNL A   1      45.317  25.022  34.740  1.00  0.00    -0.203 F 
ATOM     95  F   UNL A   1      50.225  26.904  33.274  1.00  0.00    -0.200 F 
ATOM     96  C   UNL A   1      48.904  25.504  34.642  1.00  0.00     0.200 A 
ATOM     97  F   UNL A   1      47.543  24.111  35.978  1.00  0.00    -0.200 F 
ATOM     98  F   UNL A   1      50.005  25.028  35.241  1.00  0.00    -0.200 F 
ENDBRANCH  65  88
ENDBRANCH  39  40
ENDBRANCH  31  34
ENDBRANCH  29  30
ENDBRANCH  28  29
ENDBRANCH   1  28
TORSDOF 16
ENDMDL
