MODEL 1
REMARK VINA RESULT:     -14.0      0.000      0.000
REMARK SMILES C[C@H]1OCC[C@@H]1C(=O)Nc1sc2c(c1C(=O)NCCCNC(=O)c1ccc(-c3c4nc(c(-c5c(F)c(F)c(F)c(F)c5F)c5ccc([nH]5)c(-c5c(F)c(F)c(F)c(F)c5F)c5nc(c(-c6c(F)c(F)c(F)c(F)c6F)c6ccc3[nH]6)C=C5)C=C4)cc1)CCC2
REMARK SMILES IDX 19 1 18 2 17 3 15 4 16 5 14 7 10 8 11 9 12 10 13 11 89 12
REMARK SMILES IDX 87 13 88 14 9 15 7 16 8 17 6 19 1 20 2 21 3 22 4 23 5 24
REMARK SMILES IDX 20 25 21 26 22 27 23 29 24 30 25 31 86 32 26 33 85 34 27 35
REMARK SMILES IDX 28 36 29 37 79 38 30 39 84 40 78 41 80 42 31 43 83 44 77 45
REMARK SMILES IDX 76 46 32 48 64 49 44 50 63 51 45 52 48 53 62 54 81 55 46 56
REMARK SMILES IDX 47 57 61 59 82 60 49 61 33 62 34 63 42 64 35 65 36 66 40 67
REMARK SMILES IDX 43 68 37 69 38 70 41 71 39 72 65 73 66 74 74 75 67 76 68 77
REMARK SMILES IDX 72 78 75 79 69 80 70 81 73 82 71 83 50 84 51 85 59 86 52 87
REMARK SMILES IDX 53 88 57 89 60 90 54 91 55 92 58 93 56 94
REMARK H PARENT 17 6 9 18 21 28 80 47 48 58
REMARK Flexibility Score: inf
ROOT
ATOM      1  C   UNL A   1      32.533  28.516  27.564  1.00  0.00     0.042 C 
ENDROOT
BRANCH   1   2
ATOM      2  C   UNL A   1      31.551  27.932  26.548  1.00  0.00     0.118 C 
BRANCH   2   3
ATOM      3  N   UNL A   1      31.126  26.583  26.830  1.00  0.00    -0.352 N 
ATOM      4  C   UNL A   1      31.617  25.366  26.430  1.00  0.00     0.254 C 
ATOM      5  O   UNL A   1      31.426  24.462  27.251  1.00  0.00    -0.269 OA
ATOM      6  H   UNL A   1      30.337  26.525  27.417  1.00  0.00     0.163 HD
BRANCH   4   7
ATOM      7  C   UNL A   1      32.297  25.093  25.155  1.00  0.00     0.078 A 
ATOM      8  C   UNL A   1      33.422  24.255  25.135  1.00  0.00     0.108 A 
ATOM      9  S   UNL A   1      34.417  24.460  23.752  1.00  0.00    -0.122 S 
ATOM     10  C   UNL A   1      33.218  25.346  23.024  1.00  0.00     0.011 A 
ATOM     11  C   UNL A   1      32.124  25.598  23.816  1.00  0.00    -0.019 A 
ATOM     12  C   UNL A   1      33.178  25.960  21.674  1.00  0.00     0.047 C 
ATOM     13  C   UNL A   1      31.170  26.430  23.029  1.00  0.00     0.038 C 
ATOM     14  C   UNL A   1      31.680  26.310  21.567  1.00  0.00     0.010 C 
BRANCH   8  15
ATOM     15  N   UNL A   1      34.021  23.411  26.039  1.00  0.00    -0.317 N 
ATOM     16  C   UNL A   1      34.195  22.064  26.028  1.00  0.00     0.230 C 
ATOM     17  O   UNL A   1      34.739  21.577  27.031  1.00  0.00    -0.274 OA
ATOM     18  H   UNL A   1      34.388  23.862  26.833  1.00  0.00     0.170 HD
BRANCH  16  19
ATOM     19  C   UNL A   1      33.921  21.129  24.851  1.00  0.00     0.110 C 
ATOM     20  C   UNL A   1      32.150  21.261  23.051  1.00  0.00     0.039 C 
ATOM     21  C   UNL A   1      32.447  20.939  24.515  1.00  0.00     0.127 C 
ATOM     22  O   UNL A   1      32.152  19.553  24.752  1.00  0.00    -0.378 OA
ATOM     23  C   UNL A   1      33.363  18.811  24.603  1.00  0.00     0.161 C 
ATOM     24  C   UNL A   1      34.512  19.744  24.912  1.00  0.00     0.044 C 
ENDBRANCH  16  19
ENDBRANCH   8  15
ENDBRANCH   4   7
ENDBRANCH   2   3
ENDBRANCH   1   2
BRANCH   1  25
ATOM     25  C   UNL A   1      33.804  29.029  26.919  1.00  0.00     0.118 C 
BRANCH  25  26
ATOM     26  N   UNL A   1      33.904  30.490  27.007  1.00  0.00    -0.352 N 
ATOM     27  C   UNL A   1      34.810  31.258  27.702  1.00  0.00     0.251 C 
ATOM     28  H   UNL A   1      33.228  30.991  26.497  1.00  0.00     0.163 HD
ATOM     29  O   UNL A   1      34.596  32.450  27.912  1.00  0.00    -0.269 OA
BRANCH  27  30
ATOM     30  C   UNL A   1      36.034  30.626  28.205  1.00  0.00     0.039 A 
ATOM     31  C   UNL A   1      36.311  29.279  27.951  1.00  0.00     0.014 A 
ATOM     32  C   UNL A   1      36.938  31.426  28.893  1.00  0.00     0.014 A 
ATOM     33  C   UNL A   1      37.549  28.767  28.325  1.00  0.00     0.010 A 
ATOM     34  C   UNL A   1      38.214  30.977  29.084  1.00  0.00     0.010 A 
ATOM     35  C   UNL A   1      38.504  29.632  28.874  1.00  0.00    -0.014 A 
BRANCH  35  36
ATOM     36  C   UNL A   1      39.867  29.189  29.144  1.00  0.00     0.031 A 
ATOM     37  C   UNL A   1      40.189  28.978  30.584  1.00  0.00     0.074 A 
ATOM     38  C   UNL A   1      40.649  28.733  28.141  1.00  0.00     0.049 A 
ATOM     39  N   UNL A   1      41.164  29.489  31.263  1.00  0.00    -0.248 NA
ATOM     40  C   UNL A   1      39.257  28.180  31.402  1.00  0.00     0.031 C 
ATOM     41  C   UNL A   1      40.310  28.609  26.715  1.00  0.00     0.029 A 
ATOM     42  N   UNL A   1      41.863  28.126  28.202  1.00  0.00    -0.354 N 
ATOM     43  C   UNL A   1      41.080  28.936  32.541  1.00  0.00     0.074 A 
ATOM     44  C   UNL A   1      39.803  28.279  32.616  1.00  0.00     0.031 C 
ATOM     45  C   UNL A   1      41.151  27.735  26.124  1.00  0.00     0.029 A 
ATOM     46  C   UNL A   1      42.184  27.377  27.076  1.00  0.00     0.049 A 
ATOM     47  H   UNL A   1      42.464  28.210  28.977  1.00  0.00     0.167 HD
ATOM     48  C   UNL A   1      42.175  28.859  33.348  1.00  0.00     0.037 A 
ATOM     49  C   UNL A   1      43.192  26.476  26.966  1.00  0.00     0.037 A 
ATOM     50  C   UNL A   1      43.207  29.765  32.908  1.00  0.00     0.049 A 
ATOM     51  C   UNL A   1      44.154  26.769  28.060  1.00  0.00     0.074 A 
ATOM     52  C   UNL A   1      43.272  31.131  32.715  1.00  0.00     0.029 A 
ATOM     53  N   UNL A   1      44.279  29.246  32.223  1.00  0.00    -0.354 N 
ATOM     54  N   UNL A   1      44.867  27.861  28.124  1.00  0.00    -0.248 NA
ATOM     55  C   UNL A   1      43.968  26.070  29.323  1.00  0.00     0.031 C 
ATOM     56  C   UNL A   1      44.043  31.296  31.526  1.00  0.00     0.029 A 
ATOM     57  C   UNL A   1      44.469  30.033  31.116  1.00  0.00     0.049 A 
ATOM     58  H   UNL A   1      44.811  28.457  32.479  1.00  0.00     0.167 HD
ATOM     59  C   UNL A   1      44.843  28.217  29.464  1.00  0.00     0.074 A 
ATOM     60  C   UNL A   1      44.349  27.033  30.166  1.00  0.00     0.031 C 
ATOM     61  C   UNL A   1      44.934  29.525  29.848  1.00  0.00     0.037 A 
BRANCH  48  62
ATOM     62  C   UNL A   1      42.461  27.717  34.294  1.00  0.00     0.064 A 
ATOM     63  C   UNL A   1      43.042  26.536  33.787  1.00  0.00     0.173 A 
ATOM     64  C   UNL A   1      41.911  27.611  35.591  1.00  0.00     0.173 A 
ATOM     65  F   UNL A   1      43.584  26.513  32.560  1.00  0.00    -0.203 F 
ATOM     66  C   UNL A   1      42.990  25.326  34.485  1.00  0.00     0.198 A 
ATOM     67  C   UNL A   1      41.911  26.415  36.307  1.00  0.00     0.198 A 
ATOM     68  F   UNL A   1      41.251  28.619  36.172  1.00  0.00    -0.203 F 
ATOM     69  F   UNL A   1      43.431  24.203  33.904  1.00  0.00    -0.200 F 
ATOM     70  C   UNL A   1      42.416  25.265  35.742  1.00  0.00     0.200 A 
ATOM     71  F   UNL A   1      41.334  26.374  37.517  1.00  0.00    -0.200 F 
ATOM     72  F   UNL A   1      42.304  24.096  36.385  1.00  0.00    -0.200 F 
ENDBRANCH  48  62
BRANCH  49  73
ATOM     73  C   UNL A   1      43.202  25.205  26.199  1.00  0.00     0.064 A 
ATOM     74  C   UNL A   1      44.251  24.907  25.313  1.00  0.00     0.173 A 
ATOM     75  C   UNL A   1      42.332  24.138  26.509  1.00  0.00     0.173 A 
ATOM     76  F   UNL A   1      45.151  25.849  24.995  1.00  0.00    -0.203 F 
ATOM     77  C   UNL A   1      44.438  23.619  24.799  1.00  0.00     0.198 A 
ATOM     78  C   UNL A   1      42.511  22.858  25.984  1.00  0.00     0.198 A 
ATOM     79  F   UNL A   1      41.344  24.288  27.403  1.00  0.00    -0.203 F 
ATOM     80  F   UNL A   1      45.493  23.360  24.013  1.00  0.00    -0.200 F 
ATOM     81  C   UNL A   1      43.574  22.593  25.143  1.00  0.00     0.200 A 
ATOM     82  F   UNL A   1      41.687  21.867  26.355  1.00  0.00    -0.200 F 
ATOM     83  F   UNL A   1      43.789  21.346  24.701  1.00  0.00    -0.200 F 
ENDBRANCH  49  73
BRANCH  61  84
ATOM     84  C   UNL A   1      45.307  30.548  28.808  1.00  0.00     0.064 A 
ATOM     85  C   UNL A   1      44.381  31.208  27.982  1.00  0.00     0.173 A 
ATOM     86  C   UNL A   1      46.634  30.993  28.762  1.00  0.00     0.173 A 
ATOM     87  F   UNL A   1      43.076  30.923  28.041  1.00  0.00    -0.203 F 
ATOM     88  C   UNL A   1      44.775  32.230  27.120  1.00  0.00     0.198 A 
ATOM     89  C   UNL A   1      47.019  32.040  27.928  1.00  0.00     0.198 A 
ATOM     90  F   UNL A   1      47.555  30.443  29.570  1.00  0.00    -0.203 F 
ATOM     91  F   UNL A   1      43.868  32.835  26.336  1.00  0.00    -0.200 F 
ATOM     92  C   UNL A   1      46.092  32.651  27.100  1.00  0.00     0.200 A 
ATOM     93  F   UNL A   1      48.285  32.477  27.952  1.00  0.00    -0.200 F 
ATOM     94  F   UNL A   1      46.464  33.662  26.304  1.00  0.00    -0.200 F 
ENDBRANCH  61  84
ENDBRANCH  35  36
ENDBRANCH  27  30
ENDBRANCH  25  26
ENDBRANCH   1  25
TORSDOF 12
ENDMDL
MODEL 2
REMARK VINA RESULT:     -13.9      2.455      4.088
REMARK SMILES C[C@H]1OCC[C@@H]1C(=O)Nc1sc2c(c1C(=O)NCCCNC(=O)c1ccc(-c3c4nc(c(-c5c(F)c(F)c(F)c(F)c5F)c5ccc([nH]5)c(-c5c(F)c(F)c(F)c(F)c5F)c5nc(c(-c6c(F)c(F)c(F)c(F)c6F)c6ccc3[nH]6)C=C5)C=C4)cc1)CCC2
REMARK SMILES IDX 19 1 18 2 17 3 15 4 16 5 14 7 10 8 11 9 12 10 13 11 89 12
REMARK SMILES IDX 87 13 88 14 9 15 7 16 8 17 6 19 1 20 2 21 3 22 4 23 5 24
REMARK SMILES IDX 20 25 21 26 22 27 23 29 24 30 25 31 86 32 26 33 85 34 27 35
REMARK SMILES IDX 28 36 29 37 79 38 30 39 84 40 78 41 80 42 31 43 83 44 77 45
REMARK SMILES IDX 76 46 32 48 64 49 44 50 63 51 45 52 48 53 62 54 81 55 46 56
REMARK SMILES IDX 47 57 61 59 82 60 49 61 33 62 34 63 42 64 35 65 36 66 40 67
REMARK SMILES IDX 43 68 37 69 38 70 41 71 39 72 65 73 66 74 74 75 67 76 68 77
REMARK SMILES IDX 72 78 75 79 69 80 70 81 73 82 71 83 50 84 51 85 59 86 52 87
REMARK SMILES IDX 53 88 57 89 60 90 54 91 55 92 58 93 56 94
REMARK H PARENT 17 6 9 18 21 28 80 47 48 58
REMARK Flexibility Score: inf
ROOT
ATOM      1  C   UNL A   1      33.188  30.155  27.378  1.00  0.00     0.042 C 
ENDROOT
BRANCH   1   2
ATOM      2  C   UNL A   1      33.922  28.918  26.859  1.00  0.00     0.118 C 
BRANCH   2   3
ATOM      3  N   UNL A   1      34.279  28.974  25.462  1.00  0.00    -0.352 N 
ATOM      4  C   UNL A   1      33.601  28.605  24.328  1.00  0.00     0.254 C 
ATOM      5  O   UNL A   1      33.898  29.275  23.333  1.00  0.00    -0.269 OA
ATOM      6  H   UNL A   1      35.175  29.344  25.291  1.00  0.00     0.163 HD
BRANCH   4   7
ATOM      7  C   UNL A   1      32.618  27.515  24.234  1.00  0.00     0.078 A 
ATOM      8  C   UNL A   1      31.541  27.627  23.340  1.00  0.00     0.108 A 
ATOM      9  S   UNL A   1      30.217  26.602  23.714  1.00  0.00    -0.122 S 
ATOM     10  C   UNL A   1      31.170  25.768  24.788  1.00  0.00     0.011 A 
ATOM     11  C   UNL A   1      32.427  26.291  24.970  1.00  0.00    -0.019 A 
ATOM     12  C   UNL A   1      30.845  24.587  25.625  1.00  0.00     0.047 C 
ATOM     13  C   UNL A   1      33.128  25.453  25.985  1.00  0.00     0.038 C 
ATOM     14  C   UNL A   1      32.258  24.171  26.085  1.00  0.00     0.010 C 
BRANCH   8  15
ATOM     15  N   UNL A   1      31.214  28.484  22.318  1.00  0.00    -0.317 N 
ATOM     16  C   UNL A   1      30.138  29.296  22.140  1.00  0.00     0.230 C 
ATOM     17  O   UNL A   1      30.101  29.922  21.069  1.00  0.00    -0.274 OA
ATOM     18  H   UNL A   1      31.871  28.515  21.586  1.00  0.00     0.170 HD
BRANCH  16  19
ATOM     19  C   UNL A   1      29.068  29.614  23.181  1.00  0.00     0.110 C 
ATOM     20  C   UNL A   1      26.846  28.491  23.624  1.00  0.00     0.039 C 
ATOM     21  C   UNL A   1      27.634  29.424  22.704  1.00  0.00     0.127 C 
ATOM     22  O   UNL A   1      27.021  30.722  22.730  1.00  0.00    -0.378 OA
ATOM     23  C   UNL A   1      27.702  31.514  23.702  1.00  0.00     0.161 C 
ATOM     24  C   UNL A   1      29.110  30.977  23.826  1.00  0.00     0.044 C 
ENDBRANCH  16  19
ENDBRANCH   8  15
ENDBRANCH   4   7
ENDBRANCH   2   3
ENDBRANCH   1   2
BRANCH   1  25
ATOM     25  C   UNL A   1      34.082  31.375  27.452  1.00  0.00     0.118 C 
BRANCH  25  26
ATOM     26  N   UNL A   1      33.962  32.057  28.746  1.00  0.00    -0.352 N 
ATOM     27  C   UNL A   1      34.808  32.016  29.830  1.00  0.00     0.251 C 
ATOM     28  H   UNL A   1      33.164  32.622  28.853  1.00  0.00     0.163 HD
ATOM     29  O   UNL A   1      34.435  32.402  30.936  1.00  0.00    -0.269 OA
BRANCH  27  30
ATOM     30  C   UNL A   1      36.164  31.486  29.650  1.00  0.00     0.039 A 
ATOM     31  C   UNL A   1      37.265  32.340  29.533  1.00  0.00     0.014 A 
ATOM     32  C   UNL A   1      36.325  30.106  29.658  1.00  0.00     0.014 A 
ATOM     33  C   UNL A   1      38.542  31.788  29.509  1.00  0.00     0.010 A 
ATOM     34  C   UNL A   1      37.575  29.582  29.828  1.00  0.00     0.010 A 
ATOM     35  C   UNL A   1      38.688  30.406  29.678  1.00  0.00    -0.014 A 
BRANCH  35  36
ATOM     36  C   UNL A   1      40.002  29.789  29.814  1.00  0.00     0.031 A 
ATOM     37  C   UNL A   1      40.484  29.628  31.215  1.00  0.00     0.074 A 
ATOM     38  C   UNL A   1      40.574  29.160  28.763  1.00  0.00     0.049 A 
ATOM     39  N   UNL A   1      41.601  30.035  31.723  1.00  0.00    -0.248 NA
ATOM     40  C   UNL A   1      39.571  29.028  32.206  1.00  0.00     0.031 C 
ATOM     41  C   UNL A   1      40.032  28.993  27.405  1.00  0.00     0.029 A 
ATOM     42  N   UNL A   1      41.691  28.389  28.723  1.00  0.00    -0.354 N 
ATOM     43  C   UNL A   1      41.616  29.585  33.043  1.00  0.00     0.074 A 
ATOM     44  C   UNL A   1      40.284  29.126  33.330  1.00  0.00     0.031 C 
ATOM     45  C   UNL A   1      40.660  27.971  26.790  1.00  0.00     0.029 A 
ATOM     46  C   UNL A   1      41.754  27.529  27.632  1.00  0.00     0.049 A 
ATOM     47  H   UNL A   1      42.397  28.435  29.408  1.00  0.00     0.167 HD
ATOM     48  C   UNL A   1      42.789  29.404  33.711  1.00  0.00     0.037 A 
ATOM     49  C   UNL A   1      42.607  26.487  27.474  1.00  0.00     0.037 A 
ATOM     50  C   UNL A   1      43.865  30.119  33.073  1.00  0.00     0.049 A 
ATOM     51  C   UNL A   1      43.738  26.708  28.412  1.00  0.00     0.074 A 
ATOM     52  C   UNL A   1      44.088  31.446  32.759  1.00  0.00     0.029 A 
ATOM     53  N   UNL A   1      44.755  29.407  32.306  1.00  0.00    -0.354 N 
ATOM     54  N   UNL A   1      44.594  27.687  28.296  1.00  0.00    -0.248 NA
ATOM     55  C   UNL A   1      43.631  26.127  29.742  1.00  0.00     0.031 C 
ATOM     56  C   UNL A   1      44.707  31.420  31.475  1.00  0.00     0.029 A 
ATOM     57  C   UNL A   1      44.899  30.084  31.122  1.00  0.00     0.049 A 
ATOM     58  H   UNL A   1      45.206  28.568  32.558  1.00  0.00     0.167 HD
ATOM     59  C   UNL A   1      44.799  28.130  29.594  1.00  0.00     0.074 A 
ATOM     60  C   UNL A   1      44.249  27.078  30.448  1.00  0.00     0.031 C 
ATOM     61  C   UNL A   1      45.116  29.433  29.853  1.00  0.00     0.037 A 
BRANCH  48  62
ATOM     62  C   UNL A   1      43.043  28.296  34.707  1.00  0.00     0.064 A 
ATOM     63  C   UNL A   1      43.499  28.628  36.000  1.00  0.00     0.173 A 
ATOM     64  C   UNL A   1      43.159  26.933  34.356  1.00  0.00     0.173 A 
ATOM     65  F   UNL A   1      43.450  29.895  36.438  1.00  0.00    -0.203 F 
ATOM     66  C   UNL A   1      44.108  27.687  36.834  1.00  0.00     0.198 A 
ATOM     67  C   UNL A   1      43.717  25.986  35.214  1.00  0.00     0.198 A 
ATOM     68  F   UNL A   1      42.850  26.479  33.137  1.00  0.00    -0.203 F 
ATOM     69  F   UNL A   1      44.650  28.078  37.995  1.00  0.00    -0.200 F 
ATOM     70  C   UNL A   1      44.225  26.367  36.437  1.00  0.00     0.200 A 
ATOM     71  F   UNL A   1      43.836  24.715  34.802  1.00  0.00    -0.200 F 
ATOM     72  F   UNL A   1      44.868  25.478  37.203  1.00  0.00    -0.200 F 
ENDBRANCH  48  62
BRANCH  49  73
ATOM     73  C   UNL A   1      42.341  25.180  26.820  1.00  0.00     0.064 A 
ATOM     74  C   UNL A   1      43.049  24.795  25.669  1.00  0.00     0.173 A 
ATOM     75  C   UNL A   1      41.588  24.169  27.452  1.00  0.00     0.173 A 
ATOM     76  F   UNL A   1      43.825  25.681  25.029  1.00  0.00    -0.203 F 
ATOM     77  C   UNL A   1      43.031  23.477  25.201  1.00  0.00     0.198 A 
ATOM     78  C   UNL A   1      41.559  22.857  26.975  1.00  0.00     0.198 A 
ATOM     79  F   UNL A   1      40.937  24.404  28.600  1.00  0.00    -0.203 F 
ATOM     80  F   UNL A   1      43.777  23.135  24.140  1.00  0.00    -0.200 F 
ATOM     81  C   UNL A   1      42.294  22.506  25.860  1.00  0.00     0.200 A 
ATOM     82  F   UNL A   1      40.870  21.922  27.645  1.00  0.00    -0.200 F 
ATOM     83  F   UNL A   1      42.328  21.231  25.448  1.00  0.00    -0.200 F 
ENDBRANCH  49  73
BRANCH  61  84
ATOM     84  C   UNL A   1      45.481  30.321  28.693  1.00  0.00     0.064 A 
ATOM     85  C   UNL A   1      44.551  31.066  27.946  1.00  0.00     0.173 A 
ATOM     86  C   UNL A   1      46.838  30.551  28.434  1.00  0.00     0.173 A 
ATOM     87  F   UNL A   1      43.241  30.992  28.201  1.00  0.00    -0.203 F 
ATOM     88  C   UNL A   1      44.961  31.961  26.959  1.00  0.00     0.198 A 
ATOM     89  C   UNL A   1      47.247  31.473  27.475  1.00  0.00     0.198 A 
ATOM     90  F   UNL A   1      47.776  29.914  29.154  1.00  0.00    -0.203 F 
ATOM     91  F   UNL A   1      44.049  32.650  26.256  1.00  0.00    -0.200 F 
ATOM     92  C   UNL A   1      46.310  32.170  26.730  1.00  0.00     0.200 A 
ATOM     93  F   UNL A   1      48.554  31.709  27.294  1.00  0.00    -0.200 F 
ATOM     94  F   UNL A   1      46.706  33.061  25.812  1.00  0.00    -0.200 F 
ENDBRANCH  61  84
ENDBRANCH  35  36
ENDBRANCH  27  30
ENDBRANCH  25  26
ENDBRANCH   1  25
TORSDOF 12
ENDMDL
MODEL 3
REMARK VINA RESULT:     -13.8      3.160      8.182
REMARK SMILES C[C@H]1OCC[C@@H]1C(=O)Nc1sc2c(c1C(=O)NCCCNC(=O)c1ccc(-c3c4nc(c(-c5c(F)c(F)c(F)c(F)c5F)c5ccc([nH]5)c(-c5c(F)c(F)c(F)c(F)c5F)c5nc(c(-c6c(F)c(F)c(F)c(F)c6F)c6ccc3[nH]6)C=C5)C=C4)cc1)CCC2
REMARK SMILES IDX 19 1 18 2 17 3 15 4 16 5 14 7 10 8 11 9 12 10 13 11 89 12
REMARK SMILES IDX 87 13 88 14 9 15 7 16 8 17 6 19 1 20 2 21 3 22 4 23 5 24
REMARK SMILES IDX 20 25 21 26 22 27 23 29 24 30 25 31 86 32 26 33 85 34 27 35
REMARK SMILES IDX 28 36 29 37 79 38 30 39 84 40 78 41 80 42 31 43 83 44 77 45
REMARK SMILES IDX 76 46 32 48 64 49 44 50 63 51 45 52 48 53 62 54 81 55 46 56
REMARK SMILES IDX 47 57 61 59 82 60 49 61 33 62 34 63 42 64 35 65 36 66 40 67
REMARK SMILES IDX 43 68 37 69 38 70 41 71 39 72 65 73 66 74 74 75 67 76 68 77
REMARK SMILES IDX 72 78 75 79 69 80 70 81 73 82 71 83 50 84 51 85 59 86 52 87
REMARK SMILES IDX 53 88 57 89 60 90 54 91 55 92 58 93 56 94
REMARK H PARENT 17 6 9 18 21 28 80 47 48 58
REMARK Flexibility Score: inf
ROOT
ATOM      1  C   UNL A   1      38.250  21.906  25.705  1.00  0.00     0.042 C 
ENDROOT
BRANCH   1   2
ATOM      2  C   UNL A   1      37.109  22.907  25.517  1.00  0.00     0.118 C 
BRANCH   2   3
ATOM      3  N   UNL A   1      36.143  22.924  26.588  1.00  0.00    -0.352 N 
ATOM      4  C   UNL A   1      34.814  22.588  26.629  1.00  0.00     0.254 C 
ATOM      5  O   UNL A   1      34.442  22.171  27.731  1.00  0.00    -0.269 OA
ATOM      6  H   UNL A   1      36.504  23.236  27.449  1.00  0.00     0.163 HD
BRANCH   4   7
ATOM      7  C   UNL A   1      33.865  22.705  25.511  1.00  0.00     0.078 A 
ATOM      8  C   UNL A   1      33.019  21.629  25.203  1.00  0.00     0.108 A 
ATOM      9  S   UNL A   1      32.393  21.671  23.606  1.00  0.00    -0.122 S 
ATOM     10  C   UNL A   1      32.910  23.241  23.447  1.00  0.00     0.011 A 
ATOM     11  C   UNL A   1      33.640  23.717  24.509  1.00  0.00    -0.019 A 
ATOM     12  C   UNL A   1      32.760  24.179  22.308  1.00  0.00     0.047 C 
ATOM     13  C   UNL A   1      34.056  25.113  24.190  1.00  0.00     0.038 C 
ATOM     14  C   UNL A   1      33.163  25.507  22.982  1.00  0.00     0.010 C 
BRANCH   8  15
ATOM     15  N   UNL A   1      32.690  20.446  25.818  1.00  0.00    -0.317 N 
ATOM     16  C   UNL A   1      32.751  19.161  25.379  1.00  0.00     0.230 C 
ATOM     17  O   UNL A   1      32.327  18.298  26.163  1.00  0.00    -0.274 OA
ATOM     18  H   UNL A   1      32.349  20.546  26.736  1.00  0.00     0.170 HD
BRANCH  16  19
ATOM     19  C   UNL A   1      33.419  18.679  24.093  1.00  0.00     0.110 C 
ATOM     20  C   UNL A   1      32.464  18.415  21.766  1.00  0.00     0.039 C 
ATOM     21  C   UNL A   1      32.528  17.844  23.183  1.00  0.00     0.127 C 
ATOM     22  O   UNL A   1      33.118  16.535  23.127  1.00  0.00    -0.378 OA
ATOM     23  C   UNL A   1      34.515  16.668  23.385  1.00  0.00     0.161 C 
ATOM     24  C   UNL A   1      34.709  17.910  24.226  1.00  0.00     0.044 C 
ENDBRANCH  16  19
ENDBRANCH   8  15
ENDBRANCH   4   7
ENDBRANCH   2   3
ENDBRANCH   1   2
BRANCH   1  25
ATOM     25  C   UNL A   1      39.397  22.475  26.513  1.00  0.00     0.118 C 
BRANCH  25  26
ATOM     26  N   UNL A   1      40.693  21.970  26.045  1.00  0.00    -0.352 N 
ATOM     27  C   UNL A   1      41.870  22.654  25.844  1.00  0.00     0.251 C 
ATOM     28  H   UNL A   1      40.724  21.007  25.846  1.00  0.00     0.163 HD
ATOM     29  O   UNL A   1      42.780  22.162  25.181  1.00  0.00    -0.269 OA
BRANCH  27  30
ATOM     30  C   UNL A   1      42.017  23.994  26.423  1.00  0.00     0.039 A 
ATOM     31  C   UNL A   1      41.347  25.095  25.880  1.00  0.00     0.014 A 
ATOM     32  C   UNL A   1      42.799  24.123  27.563  1.00  0.00     0.014 A 
ATOM     33  C   UNL A   1      41.405  26.312  26.550  1.00  0.00     0.010 A 
ATOM     34  C   UNL A   1      42.698  25.258  28.316  1.00  0.00     0.010 A 
ATOM     35  C   UNL A   1      42.068  26.379  27.781  1.00  0.00    -0.014 A 
BRANCH  35  36
ATOM     36  C   UNL A   1      42.034  27.584  28.601  1.00  0.00     0.031 A 
ATOM     37  C   UNL A   1      43.104  28.580  28.306  1.00  0.00     0.074 A 
ATOM     38  C   UNL A   1      40.944  27.875  29.345  1.00  0.00     0.049 A 
ATOM     39  N   UNL A   1      43.946  29.109  29.131  1.00  0.00    -0.248 NA
ATOM     40  C   UNL A   1      43.335  28.965  26.901  1.00  0.00     0.031 C 
ATOM     41  C   UNL A   1      39.698  27.102  29.463  1.00  0.00     0.029 A 
ATOM     42  N   UNL A   1      40.646  29.008  30.032  1.00  0.00    -0.354 N 
ATOM     43  C   UNL A   1      44.691  30.028  28.392  1.00  0.00     0.074 A 
ATOM     44  C   UNL A   1      44.390  29.775  27.009  1.00  0.00     0.031 C 
ATOM     45  C   UNL A   1      38.713  27.899  29.925  1.00  0.00     0.029 A 
ATOM     46  C   UNL A   1      39.291  29.175  30.298  1.00  0.00     0.049 A 
ATOM     47  H   UNL A   1      41.330  29.656  30.317  1.00  0.00     0.167 HD
ATOM     48  C   UNL A   1      45.308  31.082  28.995  1.00  0.00     0.037 A 
ATOM     49  C   UNL A   1      38.688  30.309  30.730  1.00  0.00     0.037 A 
ATOM     50  C   UNL A   1      45.449  30.858  30.412  1.00  0.00     0.049 A 
ATOM     51  C   UNL A   1      39.750  31.171  31.309  1.00  0.00     0.074 A 
ATOM     52  C   UNL A   1      46.059  29.882  31.178  1.00  0.00     0.029 A 
ATOM     53  N   UNL A   1      44.585  31.504  31.262  1.00  0.00    -0.354 N 
ATOM     54  N   UNL A   1      40.415  30.872  32.393  1.00  0.00    -0.248 NA
ATOM     55  C   UNL A   1      40.401  32.124  30.421  1.00  0.00     0.031 C 
ATOM     56  C   UNL A   1      45.166  29.661  32.268  1.00  0.00     0.029 A 
ATOM     57  C   UNL A   1      44.112  30.567  32.145  1.00  0.00     0.049 A 
ATOM     58  H   UNL A   1      44.349  32.461  31.242  1.00  0.00     0.167 HD
ATOM     59  C   UNL A   1      41.723  31.241  32.115  1.00  0.00     0.074 A 
ATOM     60  C   UNL A   1      41.638  32.083  30.923  1.00  0.00     0.031 C 
ATOM     61  C   UNL A   1      42.776  30.588  32.690  1.00  0.00     0.037 A 
BRANCH  48  62
ATOM     62  C   UNL A   1      45.445  32.457  28.384  1.00  0.00     0.064 A 
ATOM     63  C   UNL A   1      44.279  33.178  28.052  1.00  0.00     0.173 A 
ATOM     64  C   UNL A   1      46.644  32.957  27.829  1.00  0.00     0.173 A 
ATOM     65  F   UNL A   1      43.080  32.788  28.511  1.00  0.00    -0.203 F 
ATOM     66  C   UNL A   1      44.303  34.254  27.160  1.00  0.00     0.198 A 
ATOM     67  C   UNL A   1      46.670  34.066  26.984  1.00  0.00     0.198 A 
ATOM     68  F   UNL A   1      47.817  32.334  27.982  1.00  0.00    -0.203 F 
ATOM     69  F   UNL A   1      43.153  34.819  26.768  1.00  0.00    -0.200 F 
ATOM     70  C   UNL A   1      45.498  34.692  26.620  1.00  0.00     0.200 A 
ATOM     71  F   UNL A   1      47.838  34.463  26.458  1.00  0.00    -0.200 F 
ATOM     72  F   UNL A   1      45.517  35.678  25.715  1.00  0.00    -0.200 F 
ENDBRANCH  48  62
BRANCH  49  73
ATOM     73  C   UNL A   1      37.337  30.817  30.378  1.00  0.00     0.064 A 
ATOM     74  C   UNL A   1      36.440  31.229  31.377  1.00  0.00     0.173 A 
ATOM     75  C   UNL A   1      36.991  31.163  29.054  1.00  0.00     0.173 A 
ATOM     76  F   UNL A   1      36.710  30.980  32.667  1.00  0.00    -0.203 F 
ATOM     77  C   UNL A   1      35.289  31.966  31.076  1.00  0.00     0.198 A 
ATOM     78  C   UNL A   1      35.836  31.886  28.754  1.00  0.00     0.198 A 
ATOM     79  F   UNL A   1      37.812  30.890  28.030  1.00  0.00    -0.203 F 
ATOM     80  F   UNL A   1      34.497  32.401  32.067  1.00  0.00    -0.200 F 
ATOM     81  C   UNL A   1      34.994  32.304  29.766  1.00  0.00     0.200 A 
ATOM     82  F   UNL A   1      35.582  32.235  27.484  1.00  0.00    -0.200 F 
ATOM     83  F   UNL A   1      33.926  33.064  29.484  1.00  0.00    -0.200 F 
ENDBRANCH  49  73
BRANCH  61  84
ATOM     84  C   UNL A   1      42.491  29.628  33.814  1.00  0.00     0.064 A 
ATOM     85  C   UNL A   1      42.143  28.278  33.631  1.00  0.00     0.173 A 
ATOM     86  C   UNL A   1      42.740  30.050  35.126  1.00  0.00     0.173 A 
ATOM     87  F   UNL A   1      41.995  27.762  32.406  1.00  0.00    -0.203 F 
ATOM     88  C   UNL A   1      42.006  27.409  34.712  1.00  0.00     0.198 A 
ATOM     89  C   UNL A   1      42.640  29.172  36.201  1.00  0.00     0.198 A 
ATOM     90  F   UNL A   1      43.134  31.312  35.361  1.00  0.00    -0.203 F 
ATOM     91  F   UNL A   1      41.662  26.128  34.505  1.00  0.00    -0.200 F 
ATOM     92  C   UNL A   1      42.263  27.855  35.996  1.00  0.00     0.200 A 
ATOM     93  F   UNL A   1      42.942  29.596  37.436  1.00  0.00    -0.200 F 
ATOM     94  F   UNL A   1      42.175  27.010  37.032  1.00  0.00    -0.200 F 
ENDBRANCH  61  84
ENDBRANCH  35  36
ENDBRANCH  27  30
ENDBRANCH  25  26
ENDBRANCH   1  25
TORSDOF 12
ENDMDL
