MODEL 1
REMARK VINA RESULT:     -11.5      0.000      0.000
REMARK SMILES O=C(CSc1nc(-c2cccc(F)c2)n[nH]1)NCCCNC(=O)c1ccc(-c2c3nc(c(-c4c(F)c(F)c(F)c(F)c4F)c4ccc([nH]4)c(-c4c(F)c(F)c(F)c(F)c4F)c4nc(c(-c5c(F)c(F)c(F)c(F)c5F)c5ccc2[nH]5)C=C4)C=C3)cc1
REMARK SMILES IDX 18 1 17 2 1 3 2 4 3 6 4 7 5 8 6 9 16 10 7 11 15 12 8 14 9 15
REMARK SMILES IDX 14 16 10 17 12 18 11 19 13 20 19 21 20 22 21 23 22 24 23 26
REMARK SMILES IDX 24 27 25 28 86 29 26 30 85 31 27 32 28 33 29 34 79 35 30 36
REMARK SMILES IDX 84 37 78 38 80 39 31 40 83 41 77 42 76 43 32 45 64 46 44 47
REMARK SMILES IDX 63 48 45 49 48 50 62 51 81 52 46 53 47 54 61 56 82 57 49 58
REMARK SMILES IDX 33 59 34 60 42 61 35 62 36 63 40 64 43 65 37 66 38 67 41 68
REMARK SMILES IDX 39 69 65 70 66 71 74 72 67 73 68 74 72 75 75 76 69 77 70 78
REMARK SMILES IDX 73 79 71 80 50 81 51 82 59 83 52 84 53 85 57 86 60 87 54 88
REMARK SMILES IDX 55 89 58 90 56 91
REMARK H PARENT 17 5 16 13 21 25 80 44 48 55
REMARK Flexibility Score: inf
ROOT
ATOM      1  C   UNL A   1      41.864  19.710  27.284  1.00  0.00     0.117 C 
ENDROOT
BRANCH   1   2
ATOM      2  N   UNL A   1      42.820  19.746  26.199  1.00  0.00    -0.355 N 
ATOM      3  O   UNL A   1      43.621  17.628  26.528  1.00  0.00    -0.274 OA
ATOM      4  C   UNL A   1      43.580  18.653  25.848  1.00  0.00     0.230 C 
ATOM      5  H   UNL A   1      42.931  20.584  25.694  1.00  0.00     0.163 HD
BRANCH   4   6
ATOM      6  C   UNL A   1      44.484  18.828  24.637  1.00  0.00     0.178 C 
BRANCH   6   7
ATOM      7  S   UNL A   1      46.090  19.607  25.000  1.00  0.00    -0.077 SA
BRANCH   7   8
ATOM      8  C   UNL A   1      45.709  21.257  24.710  1.00  0.00     0.184 A 
ATOM      9  N   UNL A   1      46.097  22.304  25.389  1.00  0.00    -0.201 NA
ATOM     10  N   UNL A   1      44.910  21.638  23.680  1.00  0.00    -0.254 N 
ATOM     11  C   UNL A   1      45.444  23.342  24.757  1.00  0.00     0.182 A 
ATOM     12  N   UNL A   1      44.692  22.963  23.709  1.00  0.00    -0.153 NA
ATOM     13  H   UNL A   1      44.541  21.025  23.004  1.00  0.00     0.192 HD
BRANCH  11  14
ATOM     14  C   UNL A   1      45.564  24.719  25.207  1.00  0.00     0.024 A 
ATOM     15  C   UNL A   1      46.779  25.188  25.731  1.00  0.00     0.012 A 
ATOM     16  C   UNL A   1      44.471  25.589  25.127  1.00  0.00     0.051 A 
ATOM     17  C   UNL A   1      46.902  26.514  26.158  1.00  0.00     0.004 A 
ATOM     18  C   UNL A   1      44.601  26.900  25.571  1.00  0.00     0.123 A 
ATOM     19  C   UNL A   1      45.806  27.371  26.080  1.00  0.00     0.039 A 
ATOM     20  F   UNL A   1      43.546  27.723  25.512  1.00  0.00    -0.207 F 
ENDBRANCH  11  14
ENDBRANCH   7   8
ENDBRANCH   6   7
ENDBRANCH   4   6
ENDBRANCH   1   2
BRANCH   1  21
ATOM     21  C   UNL A   1      41.069  21.004  27.422  1.00  0.00     0.042 C 
BRANCH  21  22
ATOM     22  C   UNL A   1      40.933  21.811  26.134  1.00  0.00     0.118 C 
BRANCH  22  23
ATOM     23  N   UNL A   1      39.549  22.099  25.775  1.00  0.00    -0.352 N 
ATOM     24  C   UNL A   1      38.750  23.172  26.070  1.00  0.00     0.251 C 
ATOM     25  H   UNL A   1      39.116  21.403  25.229  1.00  0.00     0.163 HD
ATOM     26  O   UNL A   1      37.558  23.138  25.756  1.00  0.00    -0.269 OA
BRANCH  24  27
ATOM     27  C   UNL A   1      39.276  24.360  26.778  1.00  0.00     0.039 A 
ATOM     28  C   UNL A   1      40.029  25.289  26.051  1.00  0.00     0.014 A 
ATOM     29  C   UNL A   1      39.079  24.551  28.148  1.00  0.00     0.014 A 
ATOM     30  C   UNL A   1      40.521  26.438  26.677  1.00  0.00     0.010 A 
ATOM     31  C   UNL A   1      39.514  25.728  28.758  1.00  0.00     0.010 A 
ATOM     32  C   UNL A   1      40.235  26.685  28.028  1.00  0.00    -0.014 A 
BRANCH  32  33
ATOM     33  C   UNL A   1      40.667  27.945  28.688  1.00  0.00     0.031 A 
ATOM     34  C   UNL A   1      42.090  28.124  29.134  1.00  0.00     0.074 A 
ATOM     35  C   UNL A   1      39.759  28.909  28.941  1.00  0.00     0.049 A 
ATOM     36  N   UNL A   1      42.630  29.112  29.806  1.00  0.00    -0.248 NA
ATOM     37  C   UNL A   1      43.030  27.042  28.800  1.00  0.00     0.031 C 
ATOM     38  C   UNL A   1      38.341  28.847  28.584  1.00  0.00     0.029 A 
ATOM     39  N   UNL A   1      39.892  30.126  29.565  1.00  0.00    -0.354 N 
ATOM     40  C   UNL A   1      43.962  28.765  29.986  1.00  0.00     0.074 A 
ATOM     41  C   UNL A   1      44.142  27.458  29.390  1.00  0.00     0.031 C 
ATOM     42  C   UNL A   1      37.740  29.982  28.973  1.00  0.00     0.029 A 
ATOM     43  C   UNL A   1      38.718  30.834  29.644  1.00  0.00     0.049 A 
ATOM     44  H   UNL A   1      40.747  30.458  29.921  1.00  0.00     0.167 HD
ATOM     45  C   UNL A   1      44.947  29.480  30.577  1.00  0.00     0.037 A 
ATOM     46  C   UNL A   1      38.454  32.031  30.203  1.00  0.00     0.037 A 
ATOM     47  C   UNL A   1      44.774  30.793  31.142  1.00  0.00     0.049 A 
ATOM     48  C   UNL A   1      39.564  32.800  30.867  1.00  0.00     0.074 A 
ATOM     49  C   UNL A   1      45.728  31.614  31.718  1.00  0.00     0.029 A 
ATOM     50  N   UNL A   1      43.569  31.477  31.201  1.00  0.00    -0.354 N 
ATOM     51  N   UNL A   1      40.827  32.477  30.998  1.00  0.00    -0.248 NA
ATOM     52  C   UNL A   1      39.212  34.098  31.460  1.00  0.00     0.031 C 
ATOM     53  C   UNL A   1      45.095  32.779  32.160  1.00  0.00     0.029 A 
ATOM     54  C   UNL A   1      43.754  32.704  31.819  1.00  0.00     0.049 A 
ATOM     55  H   UNL A   1      42.711  31.142  30.855  1.00  0.00     0.167 HD
ATOM     56  C   UNL A   1      41.424  33.536  31.665  1.00  0.00     0.074 A 
ATOM     57  C   UNL A   1      40.389  34.519  31.905  1.00  0.00     0.031 C 
ATOM     58  C   UNL A   1      42.717  33.678  32.043  1.00  0.00     0.037 A 
BRANCH  45  59
ATOM     59  C   UNL A   1      46.316  28.869  30.637  1.00  0.00     0.064 A 
ATOM     60  C   UNL A   1      47.181  28.950  29.535  1.00  0.00     0.173 A 
ATOM     61  C   UNL A   1      46.742  28.140  31.756  1.00  0.00     0.173 A 
ATOM     62  F   UNL A   1      46.817  29.629  28.437  1.00  0.00    -0.203 F 
ATOM     63  C   UNL A   1      48.418  28.313  29.549  1.00  0.00     0.198 A 
ATOM     64  C   UNL A   1      47.992  27.527  31.776  1.00  0.00     0.198 A 
ATOM     65  F   UNL A   1      45.955  28.042  32.838  1.00  0.00    -0.203 F 
ATOM     66  F   UNL A   1      49.217  28.377  28.474  1.00  0.00    -0.200 F 
ATOM     67  C   UNL A   1      48.825  27.605  30.670  1.00  0.00     0.200 A 
ATOM     68  F   UNL A   1      48.392  26.862  32.869  1.00  0.00    -0.200 F 
ATOM     69  F   UNL A   1      50.020  27.000  30.686  1.00  0.00    -0.200 F 
ENDBRANCH  45  59
BRANCH  46  70
ATOM     70  C   UNL A   1      37.079  32.586  30.129  1.00  0.00     0.064 A 
ATOM     71  C   UNL A   1      36.653  33.343  29.027  1.00  0.00     0.173 A 
ATOM     72  C   UNL A   1      36.171  32.390  31.178  1.00  0.00     0.173 A 
ATOM     73  F   UNL A   1      37.486  33.559  27.999  1.00  0.00    -0.203 F 
ATOM     74  C   UNL A   1      35.377  33.900  28.988  1.00  0.00     0.198 A 
ATOM     75  C   UNL A   1      34.887  32.928  31.127  1.00  0.00     0.198 A 
ATOM     76  F   UNL A   1      36.526  31.655  32.242  1.00  0.00    -0.203 F 
ATOM     77  F   UNL A   1      35.006  34.645  27.939  1.00  0.00    -0.200 F 
ATOM     78  C   UNL A   1      34.494  33.689  30.036  1.00  0.00     0.200 A 
ATOM     79  F   UNL A   1      34.028  32.702  32.131  1.00  0.00    -0.200 F 
ATOM     80  F   UNL A   1      33.262  34.216  29.994  1.00  0.00    -0.200 F 
ENDBRANCH  46  70
BRANCH  58  81
ATOM     81  C   UNL A   1      43.108  34.952  32.734  1.00  0.00     0.064 A 
ATOM     82  C   UNL A   1      42.985  35.070  34.126  1.00  0.00     0.173 A 
ATOM     83  C   UNL A   1      43.519  36.080  32.010  1.00  0.00     0.173 A 
ATOM     84  F   UNL A   1      42.587  34.020  34.861  1.00  0.00    -0.203 F 
ATOM     85  C   UNL A   1      43.242  36.278  34.768  1.00  0.00     0.198 A 
ATOM     86  C   UNL A   1      43.800  37.280  32.658  1.00  0.00     0.198 A 
ATOM     87  F   UNL A   1      43.664  36.012  30.678  1.00  0.00    -0.203 F 
ATOM     88  F   UNL A   1      43.083  36.378  36.094  1.00  0.00    -0.200 F 
ATOM     89  C   UNL A   1      43.650  37.381  34.033  1.00  0.00     0.200 A 
ATOM     90  F   UNL A   1      44.215  38.340  31.951  1.00  0.00    -0.200 F 
ATOM     91  F   UNL A   1      43.902  38.543  34.653  1.00  0.00    -0.200 F 
ENDBRANCH  58  81
ENDBRANCH  32  33
ENDBRANCH  24  27
ENDBRANCH  22  23
ENDBRANCH  21  22
ENDBRANCH   1  21
TORSDOF 13
ENDMDL
MODEL 2
REMARK VINA RESULT:     -11.1      2.549      8.422
REMARK SMILES O=C(CSc1nc(-c2cccc(F)c2)n[nH]1)NCCCNC(=O)c1ccc(-c2c3nc(c(-c4c(F)c(F)c(F)c(F)c4F)c4ccc([nH]4)c(-c4c(F)c(F)c(F)c(F)c4F)c4nc(c(-c5c(F)c(F)c(F)c(F)c5F)c5ccc2[nH]5)C=C4)C=C3)cc1
REMARK SMILES IDX 18 1 17 2 1 3 2 4 3 6 4 7 5 8 6 9 16 10 7 11 15 12 8 14 9 15
REMARK SMILES IDX 14 16 10 17 12 18 11 19 13 20 19 21 20 22 21 23 22 24 23 26
REMARK SMILES IDX 24 27 25 28 86 29 26 30 85 31 27 32 28 33 29 34 79 35 30 36
REMARK SMILES IDX 84 37 78 38 80 39 31 40 83 41 77 42 76 43 32 45 64 46 44 47
REMARK SMILES IDX 63 48 45 49 48 50 62 51 81 52 46 53 47 54 61 56 82 57 49 58
REMARK SMILES IDX 33 59 34 60 42 61 35 62 36 63 40 64 43 65 37 66 38 67 41 68
REMARK SMILES IDX 39 69 65 70 66 71 74 72 67 73 68 74 72 75 75 76 69 77 70 78
REMARK SMILES IDX 73 79 71 80 50 81 51 82 59 83 52 84 53 85 57 86 60 87 54 88
REMARK SMILES IDX 55 89 58 90 56 91
REMARK H PARENT 17 5 16 13 21 25 80 44 48 55
REMARK Flexibility Score: inf
ROOT
ATOM      1  C   UNL A   1      45.829  19.533  24.494  1.00  0.00     0.117 C 
ENDROOT
BRANCH   1   2
ATOM      2  N   UNL A   1      45.705  20.900  24.039  1.00  0.00    -0.355 N 
ATOM      3  O   UNL A   1      45.965  21.855  26.103  1.00  0.00    -0.274 OA
ATOM      4  C   UNL A   1      45.867  21.977  24.883  1.00  0.00     0.230 C 
ATOM      5  H   UNL A   1      45.496  21.067  23.092  1.00  0.00     0.163 HD
BRANCH   4   6
ATOM      6  C   UNL A   1      45.780  23.352  24.236  1.00  0.00     0.178 C 
BRANCH   6   7
ATOM      7  S   UNL A   1      47.161  24.466  24.643  1.00  0.00    -0.077 SA
BRANCH   7   8
ATOM      8  C   UNL A   1      46.296  25.868  25.134  1.00  0.00     0.184 A 
ATOM      9  N   UNL A   1      46.779  27.030  25.482  1.00  0.00    -0.201 NA
ATOM     10  N   UNL A   1      44.941  25.884  25.211  1.00  0.00    -0.254 N 
ATOM     11  C   UNL A   1      45.652  27.741  25.836  1.00  0.00     0.182 A 
ATOM     12  N   UNL A   1      44.503  27.058  25.695  1.00  0.00    -0.153 NA
ATOM     13  H   UNL A   1      44.358  25.135  24.948  1.00  0.00     0.192 HD
BRANCH  11  14
ATOM     14  C   UNL A   1      45.721  29.108  26.328  1.00  0.00     0.024 A 
ATOM     15  C   UNL A   1      46.964  29.740  26.485  1.00  0.00     0.012 A 
ATOM     16  C   UNL A   1      44.552  29.805  26.652  1.00  0.00     0.051 A 
ATOM     17  C   UNL A   1      47.036  31.057  26.949  1.00  0.00     0.004 A 
ATOM     18  C   UNL A   1      44.637  31.107  27.129  1.00  0.00     0.123 A 
ATOM     19  C   UNL A   1      45.867  31.741  27.276  1.00  0.00     0.039 A 
ATOM     20  F   UNL A   1      43.517  31.764  27.458  1.00  0.00    -0.207 F 
ENDBRANCH  11  14
ENDBRANCH   7   8
ENDBRANCH   6   7
ENDBRANCH   4   6
ENDBRANCH   1   2
BRANCH   1  21
ATOM     21  C   UNL A   1      44.502  18.783  24.502  1.00  0.00     0.042 C 
BRANCH  21  22
ATOM     22  C   UNL A   1      43.756  18.819  25.833  1.00  0.00     0.118 C 
BRANCH  22  23
ATOM     23  N   UNL A   1      42.309  18.916  25.684  1.00  0.00    -0.352 N 
ATOM     24  C   UNL A   1      41.429  19.889  26.081  1.00  0.00     0.251 C 
ATOM     25  H   UNL A   1      41.894  18.154  25.219  1.00  0.00     0.163 HD
ATOM     26  O   UNL A   1      40.219  19.693  25.952  1.00  0.00    -0.269 OA
BRANCH  24  27
ATOM     27  C   UNL A   1      41.895  21.157  26.684  1.00  0.00     0.039 A 
ATOM     28  C   UNL A   1      42.249  22.209  25.833  1.00  0.00     0.014 A 
ATOM     29  C   UNL A   1      42.030  21.312  28.066  1.00  0.00     0.014 A 
ATOM     30  C   UNL A   1      42.669  23.432  26.364  1.00  0.00     0.010 A 
ATOM     31  C   UNL A   1      42.386  22.551  28.598  1.00  0.00     0.010 A 
ATOM     32  C   UNL A   1      42.705  23.626  27.753  1.00  0.00    -0.014 A 
BRANCH  32  33
ATOM     33  C   UNL A   1      43.055  24.946  28.338  1.00  0.00     0.031 A 
ATOM     34  C   UNL A   1      41.992  25.981  28.577  1.00  0.00     0.074 A 
ATOM     35  C   UNL A   1      44.344  25.237  28.601  1.00  0.00     0.049 A 
ATOM     36  N   UNL A   1      42.118  27.217  28.992  1.00  0.00    -0.248 NA
ATOM     37  C   UNL A   1      40.604  25.583  28.293  1.00  0.00     0.031 C 
ATOM     38  C   UNL A   1      45.473  24.331  28.389  1.00  0.00     0.029 A 
ATOM     39  N   UNL A   1      44.924  26.381  29.094  1.00  0.00    -0.354 N 
ATOM     40  C   UNL A   1      40.835  27.746  29.005  1.00  0.00     0.074 A 
ATOM     41  C   UNL A   1      39.947  26.712  28.518  1.00  0.00     0.031 C 
ATOM     42  C   UNL A   1      46.605  24.943  28.770  1.00  0.00     0.029 A 
ATOM     43  C   UNL A   1      46.289  26.298  29.213  1.00  0.00     0.049 A 
ATOM     44  H   UNL A   1      44.409  27.183  29.339  1.00  0.00     0.167 HD
ATOM     45  C   UNL A   1      40.433  28.975  29.406  1.00  0.00     0.037 A 
ATOM     46  C   UNL A   1      47.189  27.213  29.623  1.00  0.00     0.037 A 
ATOM     47  C   UNL A   1      41.312  29.992  29.919  1.00  0.00     0.049 A 
ATOM     48  C   UNL A   1      46.718  28.576  30.050  1.00  0.00     0.074 A 
ATOM     49  C   UNL A   1      40.986  31.250  30.396  1.00  0.00     0.029 A 
ATOM     50  N   UNL A   1      42.689  29.868  30.026  1.00  0.00    -0.354 N 
ATOM     51  N   UNL A   1      45.498  29.051  30.092  1.00  0.00    -0.248 NA
ATOM     52  C   UNL A   1      47.748  29.530  30.485  1.00  0.00     0.031 C 
ATOM     53  C   UNL A   1      42.169  31.903  30.756  1.00  0.00     0.029 A 
ATOM     54  C   UNL A   1      43.229  31.035  30.546  1.00  0.00     0.049 A 
ATOM     55  H   UNL A   1      43.206  29.071  29.772  1.00  0.00     0.167 HD
ATOM     56  C   UNL A   1      45.609  30.346  30.577  1.00  0.00     0.074 A 
ATOM     57  C   UNL A   1      47.015  30.582  30.826  1.00  0.00     0.031 C 
ATOM     58  C   UNL A   1      44.629  31.255  30.798  1.00  0.00     0.037 A 
BRANCH  45  59
ATOM     59  C   UNL A   1      38.969  29.295  29.321  1.00  0.00     0.064 A 
ATOM     60  C   UNL A   1      38.379  29.605  28.086  1.00  0.00     0.173 A 
ATOM     61  C   UNL A   1      38.169  29.368  30.470  1.00  0.00     0.173 A 
ATOM     62  F   UNL A   1      39.104  29.557  26.959  1.00  0.00    -0.203 F 
ATOM     63  C   UNL A   1      37.043  29.988  28.008  1.00  0.00     0.198 A 
ATOM     64  C   UNL A   1      36.826  29.725  30.385  1.00  0.00     0.198 A 
ATOM     65  F   UNL A   1      38.685  29.071  31.672  1.00  0.00    -0.203 F 
ATOM     66  F   UNL A   1      36.507  30.309  26.823  1.00  0.00    -0.200 F 
ATOM     67  C   UNL A   1      36.267  30.043  29.156  1.00  0.00     0.200 A 
ATOM     68  F   UNL A   1      36.072  29.757  31.492  1.00  0.00    -0.200 F 
ATOM     69  F   UNL A   1      34.978  30.403  29.079  1.00  0.00    -0.200 F 
ENDBRANCH  45  59
BRANCH  46  70
ATOM     70  C   UNL A   1      48.629  26.851  29.677  1.00  0.00     0.064 A 
ATOM     71  C   UNL A   1      49.183  26.216  30.798  1.00  0.00     0.173 A 
ATOM     72  C   UNL A   1      49.484  27.161  28.611  1.00  0.00     0.173 A 
ATOM     73  F   UNL A   1      48.405  25.901  31.844  1.00  0.00    -0.203 F 
ATOM     74  C   UNL A   1      50.544  25.923  30.859  1.00  0.00     0.198 A 
ATOM     75  C   UNL A   1      50.840  26.846  28.663  1.00  0.00     0.198 A 
ATOM     76  F   UNL A   1      48.995  27.747  27.510  1.00  0.00    -0.203 F 
ATOM     77  F   UNL A   1      51.054  25.346  31.955  1.00  0.00    -0.200 F 
ATOM     78  C   UNL A   1      51.370  26.235  29.790  1.00  0.00     0.200 A 
ATOM     79  F   UNL A   1      51.631  27.127  27.619  1.00  0.00    -0.200 F 
ATOM     80  F   UNL A   1      52.677  25.945  29.844  1.00  0.00    -0.200 F 
ENDBRANCH  46  70
BRANCH  58  81
ATOM     81  C   UNL A   1      45.026  32.588  31.361  1.00  0.00     0.064 A 
ATOM     82  C   UNL A   1      45.170  33.700  30.518  1.00  0.00     0.173 A 
ATOM     83  C   UNL A   1      45.347  32.742  32.717  1.00  0.00     0.173 A 
ATOM     84  F   UNL A   1      44.882  33.599  29.211  1.00  0.00    -0.203 F 
ATOM     85  C   UNL A   1      45.639  34.914  31.008  1.00  0.00     0.198 A 
ATOM     86  C   UNL A   1      45.793  33.966  33.209  1.00  0.00     0.198 A 
ATOM     87  F   UNL A   1      45.213  31.711  33.565  1.00  0.00    -0.203 F 
ATOM     88  F   UNL A   1      45.803  35.953  30.179  1.00  0.00    -0.200 F 
ATOM     89  C   UNL A   1      45.949  35.047  32.354  1.00  0.00     0.200 A 
ATOM     90  F   UNL A   1      46.072  34.100  34.513  1.00  0.00    -0.200 F 
ATOM     91  F   UNL A   1      46.397  36.219  32.827  1.00  0.00    -0.200 F 
ENDBRANCH  58  81
ENDBRANCH  32  33
ENDBRANCH  24  27
ENDBRANCH  22  23
ENDBRANCH  21  22
ENDBRANCH   1  21
TORSDOF 13
ENDMDL
MODEL 3
REMARK VINA RESULT:     -11.1      2.404      4.105
REMARK SMILES O=C(CSc1nc(-c2cccc(F)c2)n[nH]1)NCCCNC(=O)c1ccc(-c2c3nc(c(-c4c(F)c(F)c(F)c(F)c4F)c4ccc([nH]4)c(-c4c(F)c(F)c(F)c(F)c4F)c4nc(c(-c5c(F)c(F)c(F)c(F)c5F)c5ccc2[nH]5)C=C4)C=C3)cc1
REMARK SMILES IDX 18 1 17 2 1 3 2 4 3 6 4 7 5 8 6 9 16 10 7 11 15 12 8 14 9 15
REMARK SMILES IDX 14 16 10 17 12 18 11 19 13 20 19 21 20 22 21 23 22 24 23 26
REMARK SMILES IDX 24 27 25 28 86 29 26 30 85 31 27 32 28 33 29 34 79 35 30 36
REMARK SMILES IDX 84 37 78 38 80 39 31 40 83 41 77 42 76 43 32 45 64 46 44 47
REMARK SMILES IDX 63 48 45 49 48 50 62 51 81 52 46 53 47 54 61 56 82 57 49 58
REMARK SMILES IDX 33 59 34 60 42 61 35 62 36 63 40 64 43 65 37 66 38 67 41 68
REMARK SMILES IDX 39 69 65 70 66 71 74 72 67 73 68 74 72 75 75 76 69 77 70 78
REMARK SMILES IDX 73 79 71 80 50 81 51 82 59 83 52 84 53 85 57 86 60 87 54 88
REMARK SMILES IDX 55 89 58 90 56 91
REMARK H PARENT 17 5 16 13 21 25 80 44 48 55
REMARK Flexibility Score: inf
ROOT
ATOM      1  C   UNL A   1      45.799  19.536  24.312  1.00  0.00     0.117 C 
ENDROOT
BRANCH   1   2
ATOM      2  N   UNL A   1      45.660  20.925  23.935  1.00  0.00    -0.355 N 
ATOM      3  O   UNL A   1      46.019  21.769  26.032  1.00  0.00    -0.274 OA
ATOM      4  C   UNL A   1      45.866  21.956  24.825  1.00  0.00     0.230 C 
ATOM      5  H   UNL A   1      45.409  21.142  23.008  1.00  0.00     0.163 HD
BRANCH   4   6
ATOM      6  C   UNL A   1      45.756  23.363  24.257  1.00  0.00     0.178 C 
BRANCH   6   7
ATOM      7  S   UNL A   1      47.128  24.470  24.712  1.00  0.00    -0.077 SA
BRANCH   7   8
ATOM      8  C   UNL A   1      46.257  25.895  25.117  1.00  0.00     0.184 A 
ATOM      9  N   UNL A   1      46.730  27.027  25.565  1.00  0.00    -0.201 NA
ATOM     10  N   UNL A   1      44.906  25.967  25.001  1.00  0.00    -0.254 N 
ATOM     11  C   UNL A   1      45.592  27.777  25.777  1.00  0.00     0.182 A 
ATOM     12  N   UNL A   1      44.449  27.146  25.453  1.00  0.00    -0.153 NA
ATOM     13  H   UNL A   1      44.339  25.250  24.635  1.00  0.00     0.192 HD
BRANCH  11  14
ATOM     14  C   UNL A   1      45.643  29.127  26.314  1.00  0.00     0.024 A 
ATOM     15  C   UNL A   1      46.879  29.761  26.513  1.00  0.00     0.012 A 
ATOM     16  C   UNL A   1      44.463  29.805  26.641  1.00  0.00     0.051 A 
ATOM     17  C   UNL A   1      46.933  31.063  27.022  1.00  0.00     0.004 A 
ATOM     18  C   UNL A   1      44.532  31.091  27.162  1.00  0.00     0.123 A 
ATOM     19  C   UNL A   1      45.754  31.728  27.350  1.00  0.00     0.039 A 
ATOM     20  F   UNL A   1      43.401  31.729  27.493  1.00  0.00    -0.207 F 
ENDBRANCH  11  14
ENDBRANCH   7   8
ENDBRANCH   6   7
ENDBRANCH   4   6
ENDBRANCH   1   2
BRANCH   1  21
ATOM     21  C   UNL A   1      44.463  18.806  24.403  1.00  0.00     0.042 C 
BRANCH  21  22
ATOM     22  C   UNL A   1      43.793  18.869  25.773  1.00  0.00     0.118 C 
BRANCH  22  23
ATOM     23  N   UNL A   1      42.336  18.879  25.704  1.00  0.00    -0.352 N 
ATOM     24  C   UNL A   1      41.425  19.814  26.121  1.00  0.00     0.251 C 
ATOM     25  H   UNL A   1      41.941  18.078  25.290  1.00  0.00     0.163 HD
ATOM     26  O   UNL A   1      40.223  19.545  26.068  1.00  0.00    -0.269 OA
BRANCH  24  27
ATOM     27  C   UNL A   1      41.849  21.127  26.654  1.00  0.00     0.039 A 
ATOM     28  C   UNL A   1      42.072  22.172  25.751  1.00  0.00     0.014 A 
ATOM     29  C   UNL A   1      42.072  21.333  28.018  1.00  0.00     0.014 A 
ATOM     30  C   UNL A   1      42.447  23.435  26.218  1.00  0.00     0.010 A 
ATOM     31  C   UNL A   1      42.383  22.608  28.489  1.00  0.00     0.010 A 
ATOM     32  C   UNL A   1      42.570  23.674  27.595  1.00  0.00    -0.014 A 
BRANCH  32  33
ATOM     33  C   UNL A   1      42.874  25.031  28.118  1.00  0.00     0.031 A 
ATOM     34  C   UNL A   1      44.280  25.408  28.490  1.00  0.00     0.074 A 
ATOM     35  C   UNL A   1      41.871  25.909  28.314  1.00  0.00     0.049 A 
ATOM     36  N   UNL A   1      44.723  26.509  29.045  1.00  0.00    -0.248 NA
ATOM     37  C   UNL A   1      45.326  24.409  28.222  1.00  0.00     0.031 C 
ATOM     38  C   UNL A   1      40.459  25.657  28.019  1.00  0.00     0.029 A 
ATOM     39  N   UNL A   1      41.882  27.188  28.816  1.00  0.00    -0.354 N 
ATOM     40  C   UNL A   1      46.090  26.330  29.205  1.00  0.00     0.074 A 
ATOM     41  C   UNL A   1      46.400  25.000  28.727  1.00  0.00     0.031 C 
ATOM     42  C   UNL A   1      39.745  26.751  28.323  1.00  0.00     0.029 A 
ATOM     43  C   UNL A   1      40.638  27.767  28.874  1.00  0.00     0.049 A 
ATOM     44  H   UNL A   1      42.704  27.645  29.107  1.00  0.00     0.167 HD
ATOM     45  C   UNL A   1      47.004  27.204  29.688  1.00  0.00     0.037 A 
ATOM     46  C   UNL A   1      40.256  28.976  29.329  1.00  0.00     0.037 A 
ATOM     47  C   UNL A   1      46.699  28.538  30.135  1.00  0.00     0.049 A 
ATOM     48  C   UNL A   1      41.289  29.923  29.875  1.00  0.00     0.074 A 
ATOM     49  C   UNL A   1      47.569  29.511  30.595  1.00  0.00     0.029 A 
ATOM     50  N   UNL A   1      45.427  29.088  30.176  1.00  0.00    -0.354 N 
ATOM     51  N   UNL A   1      42.584  29.756  29.987  1.00  0.00    -0.248 NA
ATOM     52  C   UNL A   1      40.810  31.226  30.357  1.00  0.00     0.031 C 
ATOM     53  C   UNL A   1      46.821  30.637  30.950  1.00  0.00     0.029 A 
ATOM     54  C   UNL A   1      45.488  30.382  30.669  1.00  0.00     0.049 A 
ATOM     55  H   UNL A   1      44.603  28.629  29.896  1.00  0.00     0.167 HD
ATOM     56  C   UNL A   1      43.076  30.934  30.528  1.00  0.00     0.074 A 
ATOM     57  C   UNL A   1      41.943  31.815  30.715  1.00  0.00     0.031 C 
ATOM     58  C   UNL A   1      44.355  31.253  30.841  1.00  0.00     0.037 A 
BRANCH  45  59
ATOM     59  C   UNL A   1      48.434  26.756  29.752  1.00  0.00     0.064 A 
ATOM     60  C   UNL A   1      48.893  25.991  30.835  1.00  0.00     0.173 A 
ATOM     61  C   UNL A   1      49.366  27.147  28.781  1.00  0.00     0.173 A 
ATOM     62  F   UNL A   1      48.043  25.598  31.795  1.00  0.00    -0.203 F 
ATOM     63  C   UNL A   1      50.237  25.644  30.948  1.00  0.00     0.198 A 
ATOM     64  C   UNL A   1      50.704  26.775  28.882  1.00  0.00     0.198 A 
ATOM     65  F   UNL A   1      48.974  27.870  27.721  1.00  0.00    -0.203 F 
ATOM     66  F   UNL A   1      50.660  24.939  32.006  1.00  0.00    -0.200 F 
ATOM     67  C   UNL A   1      51.140  26.032  29.970  1.00  0.00     0.200 A 
ATOM     68  F   UNL A   1      51.572  27.132  27.925  1.00  0.00    -0.200 F 
ATOM     69  F   UNL A   1      52.431  25.690  30.074  1.00  0.00    -0.200 F 
ENDBRANCH  45  59
BRANCH  46  70
ATOM     70  C   UNL A   1      38.825  29.367  29.256  1.00  0.00     0.064 A 
ATOM     71  C   UNL A   1      38.014  29.395  30.401  1.00  0.00     0.173 A 
ATOM     72  C   UNL A   1      38.235  29.693  28.028  1.00  0.00     0.173 A 
ATOM     73  F   UNL A   1      38.533  29.089  31.598  1.00  0.00    -0.203 F 
ATOM     74  C   UNL A   1      36.661  29.716  30.315  1.00  0.00     0.198 A 
ATOM     75  C   UNL A   1      36.887  30.037  27.947  1.00  0.00     0.198 A 
ATOM     76  F   UNL A   1      38.975  29.700  26.911  1.00  0.00    -0.203 F 
ATOM     77  F   UNL A   1      35.902  29.705  31.418  1.00  0.00    -0.200 F 
ATOM     78  C   UNL A   1      36.100  30.040  29.089  1.00  0.00     0.200 A 
ATOM     79  F   UNL A   1      36.353  30.372  26.765  1.00  0.00    -0.200 F 
ATOM     80  F   UNL A   1      34.800  30.359  29.008  1.00  0.00    -0.200 F 
ENDBRANCH  46  70
BRANCH  58  81
ATOM     81  C   UNL A   1      44.617  32.623  31.394  1.00  0.00     0.064 A 
ATOM     82  C   UNL A   1      44.626  32.839  32.780  1.00  0.00     0.173 A 
ATOM     83  C   UNL A   1      44.773  33.734  30.553  1.00  0.00     0.173 A 
ATOM     84  F   UNL A   1      44.474  31.808  33.626  1.00  0.00    -0.203 F 
ATOM     85  C   UNL A   1      44.763  34.120  33.305  1.00  0.00     0.198 A 
ATOM     86  C   UNL A   1      44.935  35.012  31.082  1.00  0.00     0.198 A 
ATOM     87  F   UNL A   1      44.785  33.576  29.221  1.00  0.00    -0.203 F 
ATOM     88  F   UNL A   1      44.733  34.307  34.632  1.00  0.00    -0.200 F 
ATOM     89  C   UNL A   1      44.919  35.205  32.456  1.00  0.00     0.200 A 
ATOM     90  F   UNL A   1      45.107  36.058  30.262  1.00  0.00    -0.200 F 
ATOM     91  F   UNL A   1      45.055  36.439  32.963  1.00  0.00    -0.200 F 
ENDBRANCH  58  81
ENDBRANCH  32  33
ENDBRANCH  24  27
ENDBRANCH  22  23
ENDBRANCH  21  22
ENDBRANCH   1  21
TORSDOF 13
ENDMDL
