MODEL 1
REMARK VINA RESULT:     -12.1      0.000      0.000
REMARK SMILES CCCCNC(=O)[C@]1(C)CC[C@@](C)(C(=O)NCCCNC(=O)c2ccc(-c3c4nc(c(-c5c(F)c(F)c(F)c(F)c5F)c5ccc([nH]5)c(-c5c(F)c(F)c(F)c(F)c5F)c5nc(c(-c6c(F)c(F)c(F)c(F)c6F)c6ccc3[nH]6)C=C5)C=C4)cc2)C1(C)C
REMARK SMILES IDX 17 1 16 2 14 3 15 4 12 6 8 7 10 8 86 9 9 10 11 11 87 12
REMARK SMILES IDX 88 13 13 14 6 15 5 16 7 18 4 19 3 20 2 21 1 22 18 23 19 24
REMARK SMILES IDX 20 25 21 26 22 28 23 29 24 30 85 31 25 32 84 33 26 34 27 35
REMARK SMILES IDX 28 36 78 37 29 38 83 39 77 40 79 41 30 42 82 43 76 44 75 45
REMARK SMILES IDX 31 47 63 48 43 49 62 50 44 51 47 52 61 53 80 54 45 55 46 56
REMARK SMILES IDX 60 58 81 59 48 60 32 61 33 62 41 63 34 64 35 65 39 66 42 67
REMARK SMILES IDX 36 68 37 69 40 70 38 71 64 72 65 73 73 74 66 75 67 76 71 77
REMARK SMILES IDX 74 78 68 79 69 80 72 81 70 82 49 83 50 84 58 85 51 86 52 87
REMARK SMILES IDX 56 88 59 89 53 90 54 91 57 92 55 93
REMARK H PARENT 16 5 5 17 20 27 79 46 47 57
REMARK Flexibility Score: inf
ROOT
ATOM      1  C   UNL A   1      31.517  30.499  26.000  1.00  0.00     0.117 C 
ENDROOT
BRANCH   1   2
ATOM      2  N   UNL A   1      30.964  30.290  24.681  1.00  0.00    -0.356 N 
ATOM      3  C   UNL A   1      30.831  29.263  23.812  1.00  0.00     0.226 C 
ATOM      4  O   UNL A   1      30.244  29.627  22.779  1.00  0.00    -0.274 OA
ATOM      5  H   UNL A   1      30.579  31.120  24.317  1.00  0.00     0.163 HD
BRANCH   3   6
ATOM      6  C   UNL A   1      31.310  27.763  23.959  1.00  0.00     0.052 C 
ATOM      7  C   UNL A   1      33.158  26.997  25.580  1.00  0.00     0.052 C 
ATOM      8  C   UNL A   1      31.750  26.964  26.260  1.00  0.00     0.018 C 
ATOM      9  C   UNL A   1      32.877  27.457  24.053  1.00  0.00    -0.007 C 
ATOM     10  C   UNL A   1      34.028  27.936  26.436  1.00  0.00     0.022 C 
ATOM     11  C   UNL A   1      30.695  27.056  25.177  1.00  0.00     0.018 C 
ATOM     12  C   UNL A   1      33.711  28.646  23.539  1.00  0.00     0.013 C 
ATOM     13  C   UNL A   1      33.320  26.325  23.068  1.00  0.00     0.013 C 
ATOM     14  C   UNL A   1      30.654  27.072  22.713  1.00  0.00     0.022 C 
BRANCH   7  15
ATOM     15  C   UNL A   1      33.677  25.520  25.658  1.00  0.00     0.226 C 
ATOM     16  N   UNL A   1      32.961  24.466  26.120  1.00  0.00    -0.356 N 
ATOM     17  H   UNL A   1      33.522  23.682  26.317  1.00  0.00     0.163 HD
ATOM     18  O   UNL A   1      34.857  25.255  25.390  1.00  0.00    -0.274 OA
BRANCH  16  19
ATOM     19  C   UNL A   1      31.554  24.232  26.390  1.00  0.00     0.116 C 
BRANCH  19  20
ATOM     20  C   UNL A   1      30.987  23.167  25.444  1.00  0.00     0.021 C 
BRANCH  20  21
ATOM     21  C   UNL A   1      30.991  23.582  23.968  1.00  0.00    -0.002 C 
ATOM     22  C   UNL A   1      31.952  22.758  23.126  1.00  0.00     0.004 C 
ENDBRANCH  20  21
ENDBRANCH  19  20
ENDBRANCH  16  19
ENDBRANCH   7  15
ENDBRANCH   3   6
ENDBRANCH   1   2
BRANCH   1  23
ATOM     23  C   UNL A   1      31.396  31.940  26.502  1.00  0.00     0.042 C 
BRANCH  23  24
ATOM     24  C   UNL A   1      32.658  32.457  27.177  1.00  0.00     0.118 C 
BRANCH  24  25
ATOM     25  N   UNL A   1      32.530  33.870  27.493  1.00  0.00    -0.352 N 
ATOM     26  C   UNL A   1      33.062  34.582  28.538  1.00  0.00     0.251 C 
ATOM     27  H   UNL A   1      31.981  34.393  26.866  1.00  0.00     0.163 HD
ATOM     28  O   UNL A   1      32.573  35.676  28.829  1.00  0.00    -0.269 OA
BRANCH  26  29
ATOM     29  C   UNL A   1      34.210  34.068  29.322  1.00  0.00     0.039 A 
ATOM     30  C   UNL A   1      35.509  34.375  28.900  1.00  0.00     0.014 A 
ATOM     31  C   UNL A   1      34.028  33.211  30.411  1.00  0.00     0.014 A 
ATOM     32  C   UNL A   1      36.614  33.849  29.577  1.00  0.00     0.010 A 
ATOM     33  C   UNL A   1      35.128  32.750  31.135  1.00  0.00     0.010 A 
ATOM     34  C   UNL A   1      36.433  33.041  30.712  1.00  0.00    -0.014 A 
BRANCH  34  35
ATOM     35  C   UNL A   1      37.589  32.445  31.433  1.00  0.00     0.031 A 
ATOM     36  C   UNL A   1      38.345  31.294  30.822  1.00  0.00     0.074 A 
ATOM     37  C   UNL A   1      37.926  32.893  32.658  1.00  0.00     0.049 A 
ATOM     38  N   UNL A   1      39.312  30.572  31.331  1.00  0.00    -0.248 NA
ATOM     39  C   UNL A   1      37.940  30.882  29.468  1.00  0.00     0.031 C 
ATOM     40  C   UNL A   1      37.252  33.971  33.381  1.00  0.00     0.029 A 
ATOM     41  N   UNL A   1      38.914  32.482  33.520  1.00  0.00    -0.354 N 
ATOM     42  C   UNL A   1      39.604  29.605  30.377  1.00  0.00     0.074 A 
ATOM     43  C   UNL A   1      38.689  29.807  29.275  1.00  0.00     0.031 C 
ATOM     44  C   UNL A   1      37.853  34.147  34.569  1.00  0.00     0.029 A 
ATOM     45  C   UNL A   1      38.931  33.172  34.708  1.00  0.00     0.049 A 
ATOM     46  H   UNL A   1      39.550  31.761  33.306  1.00  0.00     0.167 HD
ATOM     47  C   UNL A   1      40.563  28.648  30.407  1.00  0.00     0.037 A 
ATOM     48  C   UNL A   1      39.721  33.028  35.789  1.00  0.00     0.037 A 
ATOM     49  C   UNL A   1      41.510  28.481  31.476  1.00  0.00     0.049 A 
ATOM     50  C   UNL A   1      40.799  31.978  35.783  1.00  0.00     0.074 A 
ATOM     51  C   UNL A   1      42.567  27.590  31.562  1.00  0.00     0.029 A 
ATOM     52  N   UNL A   1      41.520  29.228  32.644  1.00  0.00    -0.354 N 
ATOM     53  N   UNL A   1      41.101  31.108  34.851  1.00  0.00    -0.248 NA
ATOM     54  C   UNL A   1      41.650  31.894  36.979  1.00  0.00     0.031 C 
ATOM     55  C   UNL A   1      43.197  27.777  32.798  1.00  0.00     0.029 A 
ATOM     56  C   UNL A   1      42.556  28.809  33.464  1.00  0.00     0.049 A 
ATOM     57  H   UNL A   1      40.885  29.948  32.860  1.00  0.00     0.167 HD
ATOM     58  C   UNL A   1      42.187  30.392  35.334  1.00  0.00     0.074 A 
ATOM     59  C   UNL A   1      42.502  30.939  36.637  1.00  0.00     0.031 C 
ATOM     60  C   UNL A   1      42.862  29.372  34.752  1.00  0.00     0.037 A 
BRANCH  47  61
ATOM     61  C   UNL A   1      40.645  27.706  29.241  1.00  0.00     0.064 A 
ATOM     62  C   UNL A   1      39.786  26.603  29.126  1.00  0.00     0.173 A 
ATOM     63  C   UNL A   1      41.560  27.938  28.203  1.00  0.00     0.173 A 
ATOM     64  F   UNL A   1      38.901  26.332  30.097  1.00  0.00    -0.203 F 
ATOM     65  C   UNL A   1      39.857  25.752  28.025  1.00  0.00     0.198 A 
ATOM     66  C   UNL A   1      41.609  27.101  27.091  1.00  0.00     0.198 A 
ATOM     67  F   UNL A   1      42.399  28.983  28.262  1.00  0.00    -0.203 F 
ATOM     68  F   UNL A   1      39.055  24.681  27.957  1.00  0.00    -0.200 F 
ATOM     69  C   UNL A   1      40.763  26.006  27.007  1.00  0.00     0.200 A 
ATOM     70  F   UNL A   1      42.477  27.354  26.102  1.00  0.00    -0.200 F 
ATOM     71  F   UNL A   1      40.823  25.191  25.944  1.00  0.00    -0.200 F 
ENDBRANCH  47  61
BRANCH  48  72
ATOM     72  C   UNL A   1      39.535  33.916  36.966  1.00  0.00     0.064 A 
ATOM     73  C   UNL A   1      40.129  35.185  37.009  1.00  0.00     0.173 A 
ATOM     74  C   UNL A   1      38.771  33.514  38.070  1.00  0.00     0.173 A 
ATOM     75  F   UNL A   1      40.887  35.604  35.985  1.00  0.00    -0.203 F 
ATOM     76  C   UNL A   1      39.982  36.011  38.121  1.00  0.00     0.198 A 
ATOM     77  C   UNL A   1      38.603  34.352  39.171  1.00  0.00     0.198 A 
ATOM     78  F   UNL A   1      38.178  32.311  38.075  1.00  0.00    -0.203 F 
ATOM     79  F   UNL A   1      40.596  37.202  38.155  1.00  0.00    -0.200 F 
ATOM     80  C   UNL A   1      39.215  35.595  39.198  1.00  0.00     0.200 A 
ATOM     81  F   UNL A   1      37.849  33.953  40.205  1.00  0.00    -0.200 F 
ATOM     82  F   UNL A   1      39.071  36.392  40.267  1.00  0.00    -0.200 F 
ENDBRANCH  48  72
BRANCH  60  83
ATOM     83  C   UNL A   1      44.026  28.800  35.504  1.00  0.00     0.064 A 
ATOM     84  C   UNL A   1      45.326  29.298  35.334  1.00  0.00     0.173 A 
ATOM     85  C   UNL A   1      43.831  27.772  36.439  1.00  0.00     0.173 A 
ATOM     86  F   UNL A   1      45.563  30.271  34.440  1.00  0.00    -0.203 F 
ATOM     87  C   UNL A   1      46.393  28.772  36.055  1.00  0.00     0.198 A 
ATOM     88  C   UNL A   1      44.897  27.266  37.177  1.00  0.00     0.198 A 
ATOM     89  F   UNL A   1      42.606  27.267  36.642  1.00  0.00    -0.203 F 
ATOM     90  F   UNL A   1      47.634  29.234  35.847  1.00  0.00    -0.200 F 
ATOM     91  C   UNL A   1      46.178  27.762  36.981  1.00  0.00     0.200 A 
ATOM     92  F   UNL A   1      44.686  26.297  38.079  1.00  0.00    -0.200 F 
ATOM     93  F   UNL A   1      47.206  27.260  37.679  1.00  0.00    -0.200 F 
ENDBRANCH  60  83
ENDBRANCH  34  35
ENDBRANCH  26  29
ENDBRANCH  24  25
ENDBRANCH  23  24
ENDBRANCH   1  23
TORSDOF 14
ENDMDL
MODEL 2
REMARK VINA RESULT:     -12.1      0.072      1.603
REMARK SMILES CCCCNC(=O)[C@]1(C)CC[C@@](C)(C(=O)NCCCNC(=O)c2ccc(-c3c4nc(c(-c5c(F)c(F)c(F)c(F)c5F)c5ccc([nH]5)c(-c5c(F)c(F)c(F)c(F)c5F)c5nc(c(-c6c(F)c(F)c(F)c(F)c6F)c6ccc3[nH]6)C=C5)C=C4)cc2)C1(C)C
REMARK SMILES IDX 17 1 16 2 14 3 15 4 12 6 8 7 10 8 86 9 9 10 11 11 87 12
REMARK SMILES IDX 88 13 13 14 6 15 5 16 7 18 4 19 3 20 2 21 1 22 18 23 19 24
REMARK SMILES IDX 20 25 21 26 22 28 23 29 24 30 85 31 25 32 84 33 26 34 27 35
REMARK SMILES IDX 28 36 78 37 29 38 83 39 77 40 79 41 30 42 82 43 76 44 75 45
REMARK SMILES IDX 31 47 63 48 43 49 62 50 44 51 47 52 61 53 80 54 45 55 46 56
REMARK SMILES IDX 60 58 81 59 48 60 32 61 33 62 41 63 34 64 35 65 39 66 42 67
REMARK SMILES IDX 36 68 37 69 40 70 38 71 64 72 65 73 73 74 66 75 67 76 71 77
REMARK SMILES IDX 74 78 68 79 69 80 72 81 70 82 49 83 50 84 58 85 51 86 52 87
REMARK SMILES IDX 56 88 59 89 53 90 54 91 57 92 55 93
REMARK H PARENT 16 5 5 17 20 27 79 46 47 57
REMARK Flexibility Score: inf
ROOT
ATOM      1  C   UNL A   1      31.493  30.551  25.981  1.00  0.00     0.117 C 
ENDROOT
BRANCH   1   2
ATOM      2  N   UNL A   1      30.918  30.325  24.674  1.00  0.00    -0.356 N 
ATOM      3  C   UNL A   1      30.780  29.291  23.815  1.00  0.00     0.226 C 
ATOM      4  O   UNL A   1      30.170  29.640  22.791  1.00  0.00    -0.274 OA
ATOM      5  H   UNL A   1      30.518  31.149  24.311  1.00  0.00     0.163 HD
BRANCH   3   6
ATOM      6  C   UNL A   1      31.277  27.797  23.965  1.00  0.00     0.052 C 
ATOM      7  C   UNL A   1      33.153  27.060  25.567  1.00  0.00     0.052 C 
ATOM      8  C   UNL A   1      31.754  27.015  26.265  1.00  0.00     0.018 C 
ATOM      9  C   UNL A   1      32.848  27.509  24.041  1.00  0.00    -0.007 C 
ATOM     10  C   UNL A   1      34.023  28.014  26.407  1.00  0.00     0.022 C 
ATOM     11  C   UNL A   1      30.685  27.090  25.194  1.00  0.00     0.018 C 
ATOM     12  C   UNL A   1      33.663  28.705  23.511  1.00  0.00     0.013 C 
ATOM     13  C   UNL A   1      33.292  26.376  23.057  1.00  0.00     0.013 C 
ATOM     14  C   UNL A   1      30.614  27.092  22.731  1.00  0.00     0.022 C 
BRANCH   7  15
ATOM     15  C   UNL A   1      33.690  25.590  25.646  1.00  0.00     0.226 C 
ATOM     16  N   UNL A   1      32.991  24.531  26.124  1.00  0.00    -0.356 N 
ATOM     17  H   UNL A   1      33.564  23.754  26.319  1.00  0.00     0.163 HD
ATOM     18  O   UNL A   1      34.869  25.336  25.365  1.00  0.00    -0.274 OA
BRANCH  16  19
ATOM     19  C   UNL A   1      31.591  24.283  26.414  1.00  0.00     0.116 C 
BRANCH  19  20
ATOM     20  C   UNL A   1      31.027  23.197  25.491  1.00  0.00     0.021 C 
BRANCH  20  21
ATOM     21  C   UNL A   1      30.952  23.612  24.017  1.00  0.00    -0.002 C 
ATOM     22  C   UNL A   1      31.900  22.818  23.131  1.00  0.00     0.004 C 
ENDBRANCH  20  21
ENDBRANCH  19  20
ENDBRANCH  16  19
ENDBRANCH   7  15
ENDBRANCH   3   6
ENDBRANCH   1   2
BRANCH   1  23
ATOM     23  C   UNL A   1      31.382  31.998  26.466  1.00  0.00     0.042 C 
BRANCH  23  24
ATOM     24  C   UNL A   1      32.602  32.474  27.243  1.00  0.00     0.118 C 
BRANCH  24  25
ATOM     25  N   UNL A   1      32.513  33.899  27.516  1.00  0.00    -0.352 N 
ATOM     26  C   UNL A   1      33.078  34.630  28.530  1.00  0.00     0.251 C 
ATOM     27  H   UNL A   1      31.968  34.416  26.880  1.00  0.00     0.163 HD
ATOM     28  O   UNL A   1      32.621  35.744  28.793  1.00  0.00    -0.269 OA
BRANCH  26  29
ATOM     29  C   UNL A   1      34.225  34.112  29.314  1.00  0.00     0.039 A 
ATOM     30  C   UNL A   1      35.524  34.359  28.855  1.00  0.00     0.014 A 
ATOM     31  C   UNL A   1      34.037  33.307  30.442  1.00  0.00     0.014 A 
ATOM     32  C   UNL A   1      36.625  33.826  29.534  1.00  0.00     0.010 A 
ATOM     33  C   UNL A   1      35.136  32.841  31.163  1.00  0.00     0.010 A 
ATOM     34  C   UNL A   1      36.441  33.072  30.704  1.00  0.00    -0.014 A 
BRANCH  34  35
ATOM     35  C   UNL A   1      37.592  32.470  31.428  1.00  0.00     0.031 A 
ATOM     36  C   UNL A   1      38.353  31.325  30.813  1.00  0.00     0.074 A 
ATOM     37  C   UNL A   1      37.920  32.906  32.660  1.00  0.00     0.049 A 
ATOM     38  N   UNL A   1      39.316  30.598  31.322  1.00  0.00    -0.248 NA
ATOM     39  C   UNL A   1      37.958  30.925  29.452  1.00  0.00     0.031 C 
ATOM     40  C   UNL A   1      37.240  33.978  33.388  1.00  0.00     0.029 A 
ATOM     41  N   UNL A   1      38.902  32.488  33.525  1.00  0.00    -0.354 N 
ATOM     42  C   UNL A   1      39.616  29.639  30.361  1.00  0.00     0.074 A 
ATOM     43  C   UNL A   1      38.709  29.851  29.255  1.00  0.00     0.031 C 
ATOM     44  C   UNL A   1      37.832  34.143  34.582  1.00  0.00     0.029 A 
ATOM     45  C   UNL A   1      38.910  33.167  34.720  1.00  0.00     0.049 A 
ATOM     46  H   UNL A   1      39.539  31.768  33.310  1.00  0.00     0.167 HD
ATOM     47  C   UNL A   1      40.574  28.682  30.390  1.00  0.00     0.037 A 
ATOM     48  C   UNL A   1      39.692  33.013  35.806  1.00  0.00     0.037 A 
ATOM     49  C   UNL A   1      41.514  28.505  31.465  1.00  0.00     0.049 A 
ATOM     50  C   UNL A   1      40.770  31.963  35.798  1.00  0.00     0.074 A 
ATOM     51  C   UNL A   1      42.569  27.614  31.550  1.00  0.00     0.029 A 
ATOM     52  N   UNL A   1      41.514  29.241  32.639  1.00  0.00    -0.354 N 
ATOM     53  N   UNL A   1      41.079  31.101  34.861  1.00  0.00    -0.248 NA
ATOM     54  C   UNL A   1      41.612  31.868  36.999  1.00  0.00     0.031 C 
ATOM     55  C   UNL A   1      43.190  27.789  32.792  1.00  0.00     0.029 A 
ATOM     56  C   UNL A   1      42.544  28.815  33.462  1.00  0.00     0.049 A 
ATOM     57  H   UNL A   1      40.878  29.960  32.857  1.00  0.00     0.167 HD
ATOM     58  C   UNL A   1      42.162  30.381  35.345  1.00  0.00     0.074 A 
ATOM     59  C   UNL A   1      42.467  30.916  36.655  1.00  0.00     0.031 C 
ATOM     60  C   UNL A   1      42.841  29.366  34.758  1.00  0.00     0.037 A 
BRANCH  47  61
ATOM     61  C   UNL A   1      40.665  27.751  29.216  1.00  0.00     0.064 A 
ATOM     62  C   UNL A   1      41.614  27.940  28.201  1.00  0.00     0.173 A 
ATOM     63  C   UNL A   1      39.824  26.631  29.130  1.00  0.00     0.173 A 
ATOM     64  F   UNL A   1      42.433  29.001  28.231  1.00  0.00    -0.203 F 
ATOM     65  C   UNL A   1      41.702  27.053  27.130  1.00  0.00     0.198 A 
ATOM     66  C   UNL A   1      39.934  25.732  28.072  1.00  0.00     0.198 A 
ATOM     67  F   UNL A   1      38.903  26.402  30.078  1.00  0.00    -0.203 F 
ATOM     68  F   UNL A   1      42.590  27.276  26.151  1.00  0.00    -0.200 F 
ATOM     69  C   UNL A   1      40.868  25.948  27.070  1.00  0.00     0.200 A 
ATOM     70  F   UNL A   1      39.135  24.658  28.022  1.00  0.00    -0.200 F 
ATOM     71  F   UNL A   1      40.961  25.091  26.044  1.00  0.00    -0.200 F 
ENDBRANCH  47  61
BRANCH  48  72
ATOM     72  C   UNL A   1      39.497  33.889  36.989  1.00  0.00     0.064 A 
ATOM     73  C   UNL A   1      38.736  33.458  38.084  1.00  0.00     0.173 A 
ATOM     74  C   UNL A   1      40.059  35.171  37.048  1.00  0.00     0.173 A 
ATOM     75  F   UNL A   1      38.161  32.246  38.064  1.00  0.00    -0.203 F 
ATOM     76  C   UNL A   1      38.527  34.285  39.185  1.00  0.00     0.198 A 
ATOM     77  C   UNL A   1      39.871  35.988  38.161  1.00  0.00     0.198 A 
ATOM     78  F   UNL A   1      40.800  35.628  36.028  1.00  0.00    -0.203 F 
ATOM     79  F   UNL A   1      37.759  33.865  40.200  1.00  0.00    -0.200 F 
ATOM     80  C   UNL A   1      39.099  35.548  39.225  1.00  0.00     0.200 A 
ATOM     81  F   UNL A   1      40.437  37.203  38.202  1.00  0.00    -0.200 F 
ATOM     82  F   UNL A   1      38.900  36.342  40.286  1.00  0.00    -0.200 F 
ENDBRANCH  48  72
BRANCH  60  83
ATOM     83  C   UNL A   1      43.999  28.788  35.513  1.00  0.00     0.064 A 
ATOM     84  C   UNL A   1      45.300  29.290  35.360  1.00  0.00     0.173 A 
ATOM     85  C   UNL A   1      43.799  27.748  36.434  1.00  0.00     0.173 A 
ATOM     86  F   UNL A   1      45.543  30.274  34.480  1.00  0.00    -0.203 F 
ATOM     87  C   UNL A   1      46.362  28.757  36.085  1.00  0.00     0.198 A 
ATOM     88  C   UNL A   1      44.859  27.235  37.176  1.00  0.00     0.198 A 
ATOM     89  F   UNL A   1      42.573  27.238  36.620  1.00  0.00    -0.203 F 
ATOM     90  F   UNL A   1      47.603  29.224  35.893  1.00  0.00    -0.200 F 
ATOM     91  C   UNL A   1      46.140  27.735  36.997  1.00  0.00     0.200 A 
ATOM     92  F   UNL A   1      44.642  26.255  38.063  1.00  0.00    -0.200 F 
ATOM     93  F   UNL A   1      47.163  27.227  37.698  1.00  0.00    -0.200 F 
ENDBRANCH  60  83
ENDBRANCH  34  35
ENDBRANCH  26  29
ENDBRANCH  24  25
ENDBRANCH  23  24
ENDBRANCH   1  23
TORSDOF 14
ENDMDL
MODEL 3
REMARK VINA RESULT:     -12.0      3.880      7.824
REMARK SMILES CCCCNC(=O)[C@]1(C)CC[C@@](C)(C(=O)NCCCNC(=O)c2ccc(-c3c4nc(c(-c5c(F)c(F)c(F)c(F)c5F)c5ccc([nH]5)c(-c5c(F)c(F)c(F)c(F)c5F)c5nc(c(-c6c(F)c(F)c(F)c(F)c6F)c6ccc3[nH]6)C=C5)C=C4)cc2)C1(C)C
REMARK SMILES IDX 17 1 16 2 14 3 15 4 12 6 8 7 10 8 86 9 9 10 11 11 87 12
REMARK SMILES IDX 88 13 13 14 6 15 5 16 7 18 4 19 3 20 2 21 1 22 18 23 19 24
REMARK SMILES IDX 20 25 21 26 22 28 23 29 24 30 85 31 25 32 84 33 26 34 27 35
REMARK SMILES IDX 28 36 78 37 29 38 83 39 77 40 79 41 30 42 82 43 76 44 75 45
REMARK SMILES IDX 31 47 63 48 43 49 62 50 44 51 47 52 61 53 80 54 45 55 46 56
REMARK SMILES IDX 60 58 81 59 48 60 32 61 33 62 41 63 34 64 35 65 39 66 42 67
REMARK SMILES IDX 36 68 37 69 40 70 38 71 64 72 65 73 73 74 66 75 67 76 71 77
REMARK SMILES IDX 74 78 68 79 69 80 72 81 70 82 49 83 50 84 58 85 51 86 52 87
REMARK SMILES IDX 56 88 59 89 53 90 54 91 57 92 55 93
REMARK H PARENT 16 5 5 17 20 27 79 46 47 57
REMARK Flexibility Score: inf
ROOT
ATOM      1  C   UNL A   1      34.872  23.023  23.499  1.00  0.00     0.117 C 
ENDROOT
BRANCH   1   2
ATOM      2  N   UNL A   1      34.287  22.417  24.674  1.00  0.00    -0.356 N 
ATOM      3  C   UNL A   1      33.177  22.581  25.427  1.00  0.00     0.226 C 
ATOM      4  O   UNL A   1      33.143  21.756  26.356  1.00  0.00    -0.274 OA
ATOM      5  H   UNL A   1      34.850  21.686  25.019  1.00  0.00     0.163 HD
BRANCH   3   6
ATOM      6  C   UNL A   1      32.008  23.633  25.265  1.00  0.00     0.052 C 
ATOM      7  C   UNL A   1      32.168  25.745  23.800  1.00  0.00     0.052 C 
ATOM      8  C   UNL A   1      31.630  24.522  22.986  1.00  0.00     0.018 C 
ATOM      9  C   UNL A   1      32.358  25.192  25.311  1.00  0.00    -0.007 C 
ATOM     10  C   UNL A   1      33.438  26.222  23.073  1.00  0.00     0.022 C 
ATOM     11  C   UNL A   1      31.211  23.445  23.965  1.00  0.00     0.018 C 
ATOM     12  C   UNL A   1      33.738  25.437  25.952  1.00  0.00     0.013 C 
ATOM     13  C   UNL A   1      31.423  25.982  26.286  1.00  0.00     0.013 C 
ATOM     14  C   UNL A   1      31.018  23.223  26.411  1.00  0.00     0.022 C 
BRANCH   7  15
ATOM     15  C   UNL A   1      31.030  26.819  23.712  1.00  0.00     0.226 C 
ATOM     16  N   UNL A   1      31.194  28.147  23.929  1.00  0.00    -0.356 N 
ATOM     17  H   UNL A   1      30.341  28.618  24.067  1.00  0.00     0.163 HD
ATOM     18  O   UNL A   1      29.853  26.474  23.538  1.00  0.00    -0.274 OA
BRANCH  16  19
ATOM     19  C   UNL A   1      32.342  29.031  24.005  1.00  0.00     0.116 C 
BRANCH  19  20
ATOM     20  C   UNL A   1      32.659  29.389  25.462  1.00  0.00     0.021 C 
BRANCH  20  21
ATOM     21  C   UNL A   1      34.061  28.966  25.914  1.00  0.00    -0.002 C 
ATOM     22  C   UNL A   1      34.234  29.009  27.424  1.00  0.00     0.004 C 
ENDBRANCH  20  21
ENDBRANCH  19  20
ENDBRANCH  16  19
ENDBRANCH   7  15
ENDBRANCH   3   6
ENDBRANCH   1   2
BRANCH   1  23
ATOM     23  C   UNL A   1      36.402  23.063  23.519  1.00  0.00     0.042 C 
BRANCH  23  24
ATOM     24  C   UNL A   1      36.981  23.571  24.832  1.00  0.00     0.118 C 
BRANCH  24  25
ATOM     25  N   UNL A   1      37.883  22.589  25.411  1.00  0.00    -0.352 N 
ATOM     26  C   UNL A   1      39.051  22.779  26.103  1.00  0.00     0.251 C 
ATOM     27  H   UNL A   1      37.616  21.650  25.288  1.00  0.00     0.163 HD
ATOM     28  O   UNL A   1      39.842  21.839  26.215  1.00  0.00    -0.269 OA
BRANCH  26  29
ATOM     29  C   UNL A   1      39.384  24.085  26.721  1.00  0.00     0.039 A 
ATOM     30  C   UNL A   1      40.111  25.020  25.975  1.00  0.00     0.014 A 
ATOM     31  C   UNL A   1      39.074  24.364  28.056  1.00  0.00     0.014 A 
ATOM     32  C   UNL A   1      40.500  26.233  26.553  1.00  0.00     0.010 A 
ATOM     33  C   UNL A   1      39.393  25.604  28.607  1.00  0.00     0.010 A 
ATOM     34  C   UNL A   1      40.132  26.543  27.872  1.00  0.00    -0.014 A 
BRANCH  34  35
ATOM     35  C   UNL A   1      40.558  27.813  28.519  1.00  0.00     0.031 A 
ATOM     36  C   UNL A   1      41.981  27.981  28.983  1.00  0.00     0.074 A 
ATOM     37  C   UNL A   1      39.660  28.791  28.745  1.00  0.00     0.049 A 
ATOM     38  N   UNL A   1      42.524  28.963  29.657  1.00  0.00    -0.248 NA
ATOM     39  C   UNL A   1      42.911  26.883  28.673  1.00  0.00     0.031 C 
ATOM     40  C   UNL A   1      38.243  28.740  28.385  1.00  0.00     0.029 A 
ATOM     41  N   UNL A   1      39.805  30.016  29.350  1.00  0.00    -0.354 N 
ATOM     42  C   UNL A   1      43.844  28.587  29.878  1.00  0.00     0.074 A 
ATOM     43  C   UNL A   1      44.011  27.271  29.301  1.00  0.00     0.031 C 
ATOM     44  C   UNL A   1      37.652  29.886  28.762  1.00  0.00     0.029 A 
ATOM     45  C   UNL A   1      38.638  30.737  29.421  1.00  0.00     0.049 A 
ATOM     46  H   UNL A   1      40.665  30.346  29.700  1.00  0.00     0.167 HD
ATOM     47  C   UNL A   1      44.833  29.283  30.488  1.00  0.00     0.037 A 
ATOM     48  C   UNL A   1      38.390  31.945  29.965  1.00  0.00     0.037 A 
ATOM     49  C   UNL A   1      44.684  30.614  31.013  1.00  0.00     0.049 A 
ATOM     50  C   UNL A   1      39.514  32.711  30.608  1.00  0.00     0.074 A 
ATOM     51  C   UNL A   1      45.647  31.431  31.580  1.00  0.00     0.029 A 
ATOM     52  N   UNL A   1      43.495  31.326  31.029  1.00  0.00    -0.354 N 
ATOM     53  N   UNL A   1      40.769  32.367  30.760  1.00  0.00    -0.248 NA
ATOM     54  C   UNL A   1      39.187  34.037  31.152  1.00  0.00     0.031 C 
ATOM     55  C   UNL A   1      45.033  32.627  31.967  1.00  0.00     0.029 A 
ATOM     56  C   UNL A   1      43.697  32.569  31.607  1.00  0.00     0.049 A 
ATOM     57  H   UNL A   1      42.634  30.998  30.680  1.00  0.00     0.167 HD
ATOM     58  C   UNL A   1      41.386  33.438  31.390  1.00  0.00     0.074 A 
ATOM     59  C   UNL A   1      40.370  34.452  31.582  1.00  0.00     0.031 C 
ATOM     60  C   UNL A   1      42.677  33.570  31.779  1.00  0.00     0.037 A 
BRANCH  47  61
ATOM     61  C   UNL A   1      46.174  28.623  30.616  1.00  0.00     0.064 A 
ATOM     62  C   UNL A   1      46.506  27.843  31.733  1.00  0.00     0.173 A 
ATOM     63  C   UNL A   1      47.121  28.731  29.585  1.00  0.00     0.173 A 
ATOM     64  F   UNL A   1      45.640  27.718  32.750  1.00  0.00    -0.203 F 
ATOM     65  C   UNL A   1      47.747  27.216  31.826  1.00  0.00     0.198 A 
ATOM     66  C   UNL A   1      48.349  28.079  29.669  1.00  0.00     0.198 A 
ATOM     67  F   UNL A   1      46.850  29.460  28.492  1.00  0.00    -0.203 F 
ATOM     68  F   UNL A   1      48.057  26.510  32.922  1.00  0.00    -0.200 F 
ATOM     69  C   UNL A   1      48.663  27.328  30.792  1.00  0.00     0.200 A 
ATOM     70  F   UNL A   1      49.229  28.180  28.664  1.00  0.00    -0.200 F 
ATOM     71  F   UNL A   1      49.852  26.716  30.879  1.00  0.00    -0.200 F 
ENDBRANCH  47  61
BRANCH  48  72
ATOM     72  C   UNL A   1      37.020  32.516  29.908  1.00  0.00     0.064 A 
ATOM     73  C   UNL A   1      36.596  33.257  28.797  1.00  0.00     0.173 A 
ATOM     74  C   UNL A   1      36.112  32.340  30.961  1.00  0.00     0.173 A 
ATOM     75  F   UNL A   1      37.438  33.469  27.774  1.00  0.00    -0.203 F 
ATOM     76  C   UNL A   1      35.322  33.818  28.749  1.00  0.00     0.198 A 
ATOM     77  C   UNL A   1      34.829  32.881  30.901  1.00  0.00     0.198 A 
ATOM     78  F   UNL A   1      36.467  31.634  32.045  1.00  0.00    -0.203 F 
ATOM     79  F   UNL A   1      34.958  34.560  27.693  1.00  0.00    -0.200 F 
ATOM     80  C   UNL A   1      34.438  33.625  29.799  1.00  0.00     0.200 A 
ATOM     81  F   UNL A   1      33.972  32.680  31.912  1.00  0.00    -0.200 F 
ATOM     82  F   UNL A   1      33.211  34.164  29.752  1.00  0.00    -0.200 F 
ENDBRANCH  48  72
BRANCH  60  83
ATOM     83  C   UNL A   1      43.072  34.865  32.421  1.00  0.00     0.064 A 
ATOM     84  C   UNL A   1      43.547  35.946  31.663  1.00  0.00     0.173 A 
ATOM     85  C   UNL A   1      42.933  35.042  33.807  1.00  0.00     0.173 A 
ATOM     86  F   UNL A   1      43.712  35.818  30.338  1.00  0.00    -0.203 F 
ATOM     87  C   UNL A   1      43.889  37.150  32.272  1.00  0.00     0.198 A 
ATOM     88  C   UNL A   1      43.252  36.257  34.408  1.00  0.00     0.198 A 
ATOM     89  F   UNL A   1      42.478  34.042  34.573  1.00  0.00    -0.203 F 
ATOM     90  F   UNL A   1      44.380  38.155  31.534  1.00  0.00    -0.200 F 
ATOM     91  C   UNL A   1      43.735  37.307  33.642  1.00  0.00     0.200 A 
ATOM     92  F   UNL A   1      43.094  36.411  35.730  1.00  0.00    -0.200 F 
ATOM     93  F   UNL A   1      44.060  38.469  34.225  1.00  0.00    -0.200 F 
ENDBRANCH  60  83
ENDBRANCH  34  35
ENDBRANCH  26  29
ENDBRANCH  24  25
ENDBRANCH  23  24
ENDBRANCH   1  23
TORSDOF 14
ENDMDL
