MODEL 1
REMARK VINA RESULT:     -12.6      0.000      0.000
REMARK SMILES CC(C)(C)C(=O)NCC(=O)Nc1cc(Cl)ccc1C(=O)NCCCNC(=O)c1ccc(-c2c3nc(c(-c4c(F)c(F)c(F)c(F)c4F)c4ccc([nH]4)c(-c4c(F)c(F)c(F)c(F)c4F)c4nc(c(-c5c(F)c(F)c(F)c(F)c5F)c5ccc2[nH]5)C=C4)C=C3)cc1
REMARK SMILES IDX 22 1 21 2 19 3 20 4 18 6 12 7 13 8 14 9 17 10 15 11 16 12
REMARK SMILES IDX 11 13 9 14 10 15 8 17 7 18 5 19 6 20 2 22 1 23 3 24 4 25
REMARK SMILES IDX 23 26 24 27 25 28 26 29 27 31 28 32 29 33 90 34 30 35 89 36
REMARK SMILES IDX 31 37 32 38 33 39 83 40 34 41 88 42 82 43 84 44 35 45 87 46
REMARK SMILES IDX 81 47 80 48 36 50 68 51 48 52 67 53 49 54 52 55 66 56 85 57
REMARK SMILES IDX 50 58 51 59 65 61 86 62 53 63 37 64 38 65 46 66 39 67 40 68
REMARK SMILES IDX 44 69 47 70 41 71 42 72 45 73 43 74 69 75 70 76 78 77 71 78
REMARK SMILES IDX 72 79 76 80 79 81 73 82 74 83 77 84 75 85 54 86 55 87 63 88
REMARK SMILES IDX 56 89 57 90 61 91 64 92 58 93 59 94 62 95 60 96
REMARK H PARENT 21 5 11 16 7 21 25 30 84 49 52 60
REMARK Flexibility Score: inf
ROOT
ATOM      1  C   UNL A   1      35.336  21.390  25.839  1.00  0.00     0.118 C 
ENDROOT
BRANCH   1   2
ATOM      2  N   UNL A   1      34.135  20.603  25.838  1.00  0.00    -0.352 N 
ATOM      3  C   UNL A   1      32.967  20.773  25.136  1.00  0.00     0.253 C 
ATOM      4  O   UNL A   1      32.119  19.888  25.275  1.00  0.00    -0.269 OA
ATOM      5  H   UNL A   1      34.151  19.819  26.434  1.00  0.00     0.163 HD
BRANCH   3   6
ATOM      6  C   UNL A   1      32.618  21.967  24.292  1.00  0.00     0.063 A 
ATOM      7  C   UNL A   1      31.527  22.860  24.405  1.00  0.00     0.055 A 
ATOM      8  C   UNL A   1      31.447  23.966  23.541  1.00  0.00     0.047 A 
ATOM      9  C   UNL A   1      32.383  24.164  22.528  1.00  0.00     0.043 A 
ATOM     10  C   UNL A   1      33.547  22.191  23.247  1.00  0.00     0.017 A 
ATOM     11  Cl  UNL A   1      32.254  25.528  21.493  1.00  0.00    -0.084 Cl
ATOM     12  C   UNL A   1      33.428  23.269  22.367  1.00  0.00     0.021 A 
BRANCH   7  13
ATOM     13  N   UNL A   1      30.601  22.831  25.458  1.00  0.00    -0.324 N 
ATOM     14  C   UNL A   1      30.614  23.500  26.662  1.00  0.00     0.243 C 
ATOM     15  O   UNL A   1      29.662  23.292  27.425  1.00  0.00    -0.273 OA
ATOM     16  H   UNL A   1      29.824  22.244  25.315  1.00  0.00     0.170 HD
BRANCH  14  17
ATOM     17  C   UNL A   1      31.572  24.686  26.950  1.00  0.00     0.216 C 
BRANCH  17  18
ATOM     18  N   UNL A   1      31.190  25.955  26.383  1.00  0.00    -0.347 N 
ATOM     19  C   UNL A   1      31.850  26.981  25.800  1.00  0.00     0.225 C 
ATOM     20  O   UNL A   1      31.112  27.916  25.466  1.00  0.00    -0.275 OA
ATOM     21  H   UNL A   1      30.219  26.111  26.431  1.00  0.00     0.164 HD
BRANCH  19  22
ATOM     22  C   UNL A   1      33.360  27.010  25.466  1.00  0.00     0.041 C 
ATOM     23  C   UNL A   1      34.042  27.889  26.546  1.00  0.00     0.021 C 
ATOM     24  C   UNL A   1      33.552  27.677  24.099  1.00  0.00     0.021 C 
ATOM     25  C   UNL A   1      34.106  25.673  25.490  1.00  0.00     0.021 C 
ENDBRANCH  19  22
ENDBRANCH  17  18
ENDBRANCH  14  17
ENDBRANCH   7  13
ENDBRANCH   3   6
ENDBRANCH   1   2
BRANCH   1  26
ATOM     26  C   UNL A   1      36.483  20.903  24.984  1.00  0.00     0.042 C 
BRANCH  26  27
ATOM     27  C   UNL A   1      37.823  21.546  25.285  1.00  0.00     0.118 C 
BRANCH  27  28
ATOM     28  N   UNL A   1      38.796  20.649  25.897  1.00  0.00    -0.352 N 
ATOM     29  C   UNL A   1      39.944  20.881  26.616  1.00  0.00     0.251 C 
ATOM     30  H   UNL A   1      38.592  19.695  25.770  1.00  0.00     0.163 HD
ATOM     31  O   UNL A   1      40.635  19.920  26.960  1.00  0.00    -0.269 OA
BRANCH  29  32
ATOM     32  C   UNL A   1      40.392  22.251  26.956  1.00  0.00     0.039 A 
ATOM     33  C   UNL A   1      41.377  22.420  27.936  1.00  0.00     0.014 A 
ATOM     34  C   UNL A   1      39.847  23.375  26.343  1.00  0.00     0.014 A 
ATOM     35  C   UNL A   1      41.856  23.699  28.233  1.00  0.00     0.010 A 
ATOM     36  C   UNL A   1      40.430  24.623  26.523  1.00  0.00     0.010 A 
ATOM     37  C   UNL A   1      41.422  24.811  27.493  1.00  0.00    -0.014 A 
BRANCH  37  38
ATOM     38  C   UNL A   1      41.946  26.178  27.747  1.00  0.00     0.031 A 
ATOM     39  C   UNL A   1      43.305  26.576  27.226  1.00  0.00     0.074 A 
ATOM     40  C   UNL A   1      41.232  27.041  28.497  1.00  0.00     0.049 A 
ATOM     41  N   UNL A   1      43.965  27.693  27.398  1.00  0.00    -0.248 NA
ATOM     42  C   UNL A   1      44.039  25.567  26.443  1.00  0.00     0.031 C 
ATOM     43  C   UNL A   1      39.936  26.757  29.117  1.00  0.00     0.029 A 
ATOM     44  N   UNL A   1      41.499  28.335  28.870  1.00  0.00    -0.354 N 
ATOM     45  C   UNL A   1      45.191  27.509  26.770  1.00  0.00     0.074 A 
ATOM     46  C   UNL A   1      45.217  26.149  26.283  1.00  0.00     0.031 C 
ATOM     47  C   UNL A   1      39.502  27.855  29.754  1.00  0.00     0.029 A 
ATOM     48  C   UNL A   1      40.504  28.907  29.626  1.00  0.00     0.049 A 
ATOM     49  H   UNL A   1      42.325  28.809  28.617  1.00  0.00     0.167 HD
ATOM     50  C   UNL A   1      46.191  28.402  26.579  1.00  0.00     0.037 A 
ATOM     51  C   UNL A   1      40.413  30.142  30.154  1.00  0.00     0.037 A 
ATOM     52  C   UNL A   1      46.143  29.768  27.027  1.00  0.00     0.049 A 
ATOM     53  C   UNL A   1      41.530  31.122  29.914  1.00  0.00     0.074 A 
ATOM     54  C   UNL A   1      47.068  30.776  26.824  1.00  0.00     0.029 A 
ATOM     55  N   UNL A   1      45.106  30.317  27.768  1.00  0.00    -0.354 N 
ATOM     56  N   UNL A   1      42.648  30.959  29.250  1.00  0.00    -0.248 NA
ATOM     57  C   UNL A   1      41.366  32.464  30.491  1.00  0.00     0.031 C 
ATOM     58  C   UNL A   1      46.617  31.921  27.487  1.00  0.00     0.029 A 
ATOM     59  C   UNL A   1      45.381  31.645  28.053  1.00  0.00     0.049 A 
ATOM     60  H   UNL A   1      44.296  29.836  28.050  1.00  0.00     0.167 HD
ATOM     61  C   UNL A   1      43.307  32.180  29.306  1.00  0.00     0.074 A 
ATOM     62  C   UNL A   1      42.450  33.081  30.048  1.00  0.00     0.031 C 
ATOM     63  C   UNL A   1      44.515  32.526  28.793  1.00  0.00     0.037 A 
BRANCH  50  64
ATOM     64  C   UNL A   1      47.414  27.931  25.844  1.00  0.00     0.064 A 
ATOM     65  C   UNL A   1      47.444  27.836  24.443  1.00  0.00     0.173 A 
ATOM     66  C   UNL A   1      48.581  27.592  26.545  1.00  0.00     0.173 A 
ATOM     67  F   UNL A   1      46.352  28.134  23.722  1.00  0.00    -0.203 F 
ATOM     68  C   UNL A   1      48.581  27.386  23.776  1.00  0.00     0.198 A 
ATOM     69  C   UNL A   1      49.729  27.177  25.873  1.00  0.00     0.198 A 
ATOM     70  F   UNL A   1      48.613  27.666  27.884  1.00  0.00    -0.203 F 
ATOM     71  F   UNL A   1      48.562  27.245  22.443  1.00  0.00    -0.200 F 
ATOM     72  C   UNL A   1      49.724  27.064  24.491  1.00  0.00     0.200 A 
ATOM     73  F   UNL A   1      50.838  26.880  26.564  1.00  0.00    -0.200 F 
ATOM     74  F   UNL A   1      50.820  26.638  23.847  1.00  0.00    -0.200 F 
ENDBRANCH  50  64
BRANCH  51  75
ATOM     75  C   UNL A   1      39.207  30.533  30.931  1.00  0.00     0.064 A 
ATOM     76  C   UNL A   1      38.114  31.150  30.304  1.00  0.00     0.173 A 
ATOM     77  C   UNL A   1      39.122  30.311  32.314  1.00  0.00     0.173 A 
ATOM     78  F   UNL A   1      38.155  31.402  28.987  1.00  0.00    -0.203 F 
ATOM     79  C   UNL A   1      36.996  31.551  31.032  1.00  0.00     0.198 A 
ATOM     80  C   UNL A   1      37.990  30.684  33.035  1.00  0.00     0.198 A 
ATOM     81  F   UNL A   1      40.135  29.718  32.963  1.00  0.00    -0.203 F 
ATOM     82  F   UNL A   1      35.990  32.185  30.414  1.00  0.00    -0.200 F 
ATOM     83  C   UNL A   1      36.933  31.313  32.396  1.00  0.00     0.200 A 
ATOM     84  F   UNL A   1      37.925  30.436  34.351  1.00  0.00    -0.200 F 
ATOM     85  F   UNL A   1      35.856  31.697  33.095  1.00  0.00    -0.200 F 
ENDBRANCH  51  75
BRANCH  63  86
ATOM     86  C   UNL A   1      44.963  33.945  28.995  1.00  0.00     0.064 A 
ATOM     87  C   UNL A   1      45.746  34.320  30.098  1.00  0.00     0.173 A 
ATOM     88  C   UNL A   1      44.625  34.936  28.062  1.00  0.00     0.173 A 
ATOM     89  F   UNL A   1      46.085  33.412  31.025  1.00  0.00    -0.203 F 
ATOM     90  C   UNL A   1      46.140  35.643  30.278  1.00  0.00     0.198 A 
ATOM     91  C   UNL A   1      45.053  36.250  28.225  1.00  0.00     0.198 A 
ATOM     92  F   UNL A   1      43.888  34.629  26.984  1.00  0.00    -0.203 F 
ATOM     93  F   UNL A   1      46.833  35.989  31.371  1.00  0.00    -0.200 F 
ATOM     94  C   UNL A   1      45.799  36.605  29.339  1.00  0.00     0.200 A 
ATOM     95  F   UNL A   1      44.737  37.176  27.308  1.00  0.00    -0.200 F 
ATOM     96  F   UNL A   1      46.182  37.878  29.512  1.00  0.00    -0.200 F 
ENDBRANCH  63  86
ENDBRANCH  37  38
ENDBRANCH  29  32
ENDBRANCH  27  28
ENDBRANCH  26  27
ENDBRANCH   1  26
TORSDOF 14
ENDMDL
MODEL 2
REMARK VINA RESULT:     -12.5      2.391      3.557
REMARK SMILES CC(C)(C)C(=O)NCC(=O)Nc1cc(Cl)ccc1C(=O)NCCCNC(=O)c1ccc(-c2c3nc(c(-c4c(F)c(F)c(F)c(F)c4F)c4ccc([nH]4)c(-c4c(F)c(F)c(F)c(F)c4F)c4nc(c(-c5c(F)c(F)c(F)c(F)c5F)c5ccc2[nH]5)C=C4)C=C3)cc1
REMARK SMILES IDX 22 1 21 2 19 3 20 4 18 6 12 7 13 8 14 9 17 10 15 11 16 12
REMARK SMILES IDX 11 13 9 14 10 15 8 17 7 18 5 19 6 20 2 22 1 23 3 24 4 25
REMARK SMILES IDX 23 26 24 27 25 28 26 29 27 31 28 32 29 33 90 34 30 35 89 36
REMARK SMILES IDX 31 37 32 38 33 39 83 40 34 41 88 42 82 43 84 44 35 45 87 46
REMARK SMILES IDX 81 47 80 48 36 50 68 51 48 52 67 53 49 54 52 55 66 56 85 57
REMARK SMILES IDX 50 58 51 59 65 61 86 62 53 63 37 64 38 65 46 66 39 67 40 68
REMARK SMILES IDX 44 69 47 70 41 71 42 72 45 73 43 74 69 75 70 76 78 77 71 78
REMARK SMILES IDX 72 79 76 80 79 81 73 82 74 83 77 84 75 85 54 86 55 87 63 88
REMARK SMILES IDX 56 89 57 90 61 91 64 92 58 93 59 94 62 95 60 96
REMARK H PARENT 21 5 11 16 7 21 25 30 84 49 52 60
REMARK Flexibility Score: inf
ROOT
ATOM      1  C   UNL A   1      35.265  21.087  25.560  1.00  0.00     0.118 C 
ENDROOT
BRANCH   1   2
ATOM      2  N   UNL A   1      34.020  20.370  25.571  1.00  0.00    -0.352 N 
ATOM      3  C   UNL A   1      32.829  20.656  24.951  1.00  0.00     0.253 C 
ATOM      4  O   UNL A   1      31.939  19.812  25.073  1.00  0.00    -0.269 OA
ATOM      5  H   UNL A   1      34.021  19.544  26.107  1.00  0.00     0.163 HD
BRANCH   3   6
ATOM      6  C   UNL A   1      32.508  21.928  24.215  1.00  0.00     0.063 A 
ATOM      7  C   UNL A   1      31.531  22.910  24.502  1.00  0.00     0.055 A 
ATOM      8  C   UNL A   1      31.465  24.070  23.710  1.00  0.00     0.047 A 
ATOM      9  C   UNL A   1      32.295  24.241  22.604  1.00  0.00     0.043 A 
ATOM     10  C   UNL A   1      33.330  22.128  23.080  1.00  0.00     0.017 A 
ATOM     11  Cl  UNL A   1      32.187  25.673  21.662  1.00  0.00    -0.084 Cl
ATOM     12  C   UNL A   1      33.221  23.265  22.275  1.00  0.00     0.021 A 
BRANCH   7  13
ATOM     13  N   UNL A   1      30.732  22.903  25.654  1.00  0.00    -0.324 N 
ATOM     14  C   UNL A   1      30.223  23.957  26.381  1.00  0.00     0.243 C 
ATOM     15  O   UNL A   1      29.541  23.672  27.373  1.00  0.00    -0.273 OA
ATOM     16  H   UNL A   1      30.500  22.010  25.996  1.00  0.00     0.170 HD
BRANCH  14  17
ATOM     17  C   UNL A   1      30.215  25.414  25.848  1.00  0.00     0.216 C 
BRANCH  17  18
ATOM     18  N   UNL A   1      30.627  26.429  26.785  1.00  0.00    -0.347 N 
ATOM     19  C   UNL A   1      31.726  27.201  26.939  1.00  0.00     0.225 C 
ATOM     20  O   UNL A   1      31.670  27.948  27.924  1.00  0.00    -0.275 OA
ATOM     21  H   UNL A   1      29.946  26.600  27.475  1.00  0.00     0.164 HD
BRANCH  19  22
ATOM     22  C   UNL A   1      32.928  27.265  25.969  1.00  0.00     0.041 C 
ATOM     23  C   UNL A   1      33.930  28.289  26.561  1.00  0.00     0.021 C 
ATOM     24  C   UNL A   1      32.442  27.785  24.611  1.00  0.00     0.021 C 
ATOM     25  C   UNL A   1      33.729  25.976  25.763  1.00  0.00     0.021 C 
ENDBRANCH  19  22
ENDBRANCH  17  18
ENDBRANCH  14  17
ENDBRANCH   7  13
ENDBRANCH   3   6
ENDBRANCH   1   2
BRANCH   1  26
ATOM     26  C   UNL A   1      35.287  22.445  26.222  1.00  0.00     0.042 C 
BRANCH  26  27
ATOM     27  C   UNL A   1      36.539  23.261  25.968  1.00  0.00     0.118 C 
BRANCH  27  28
ATOM     28  N   UNL A   1      37.778  22.496  26.032  1.00  0.00    -0.352 N 
ATOM     29  C   UNL A   1      39.054  22.831  26.420  1.00  0.00     0.251 C 
ATOM     30  H   UNL A   1      37.684  21.561  25.743  1.00  0.00     0.163 HD
ATOM     31  O   UNL A   1      39.950  21.994  26.303  1.00  0.00    -0.269 OA
BRANCH  29  32
ATOM     32  C   UNL A   1      39.387  24.178  26.937  1.00  0.00     0.039 A 
ATOM     33  C   UNL A   1      39.080  24.491  28.265  1.00  0.00     0.014 A 
ATOM     34  C   UNL A   1      39.979  25.147  26.131  1.00  0.00     0.014 A 
ATOM     35  C   UNL A   1      39.437  25.736  28.791  1.00  0.00     0.010 A 
ATOM     36  C   UNL A   1      40.472  26.319  26.693  1.00  0.00     0.010 A 
ATOM     37  C   UNL A   1      40.182  26.645  28.023  1.00  0.00    -0.014 A 
BRANCH  37  38
ATOM     38  C   UNL A   1      40.622  27.958  28.565  1.00  0.00     0.031 A 
ATOM     39  C   UNL A   1      42.075  28.191  28.896  1.00  0.00     0.074 A 
ATOM     40  C   UNL A   1      39.710  28.918  28.820  1.00  0.00     0.049 A 
ATOM     41  N   UNL A   1      42.646  29.236  29.438  1.00  0.00    -0.248 NA
ATOM     42  C   UNL A   1      43.006  27.083  28.621  1.00  0.00     0.031 C 
ATOM     43  C   UNL A   1      38.266  28.794  28.610  1.00  0.00     0.029 A 
ATOM     44  N   UNL A   1      39.864  30.188  29.316  1.00  0.00    -0.354 N 
ATOM     45  C   UNL A   1      43.986  28.902  29.588  1.00  0.00     0.074 A 
ATOM     46  C   UNL A   1      44.130  27.530  29.157  1.00  0.00     0.031 C 
ATOM     47  C   UNL A   1      37.673  29.954  28.932  1.00  0.00     0.029 A 
ATOM     48  C   UNL A   1      38.686  30.889  29.412  1.00  0.00     0.049 A 
ATOM     49  H   UNL A   1      40.736  30.563  29.577  1.00  0.00     0.167 HD
ATOM     50  C   UNL A   1      45.014  29.676  30.009  1.00  0.00     0.037 A 
ATOM     51  C   UNL A   1      38.450  32.144  29.837  1.00  0.00     0.037 A 
ATOM     52  C   UNL A   1      44.874  31.055  30.396  1.00  0.00     0.049 A 
ATOM     53  C   UNL A   1      39.612  32.991  30.285  1.00  0.00     0.074 A 
ATOM     54  C   UNL A   1      45.858  31.951  30.769  1.00  0.00     0.029 A 
ATOM     55  N   UNL A   1      43.666  31.736  30.455  1.00  0.00    -0.354 N 
ATOM     56  N   UNL A   1      40.885  32.687  30.347  1.00  0.00    -0.248 NA
ATOM     57  C   UNL A   1      39.301  34.362  30.714  1.00  0.00     0.031 C 
ATOM     58  C   UNL A   1      45.242  33.161  31.105  1.00  0.00     0.029 A 
ATOM     59  C   UNL A   1      43.879  33.037  30.883  1.00  0.00     0.049 A 
ATOM     60  H   UNL A   1      42.789  31.354  30.227  1.00  0.00     0.167 HD
ATOM     61  C   UNL A   1      41.530  33.833  30.794  1.00  0.00     0.074 A 
ATOM     62  C   UNL A   1      40.509  34.845  30.963  1.00  0.00     0.031 C 
ATOM     63  C   UNL A   1      42.848  34.030  31.046  1.00  0.00     0.037 A 
BRANCH  50  64
ATOM     64  C   UNL A   1      46.380  29.052  30.061  1.00  0.00     0.064 A 
ATOM     65  C   UNL A   1      46.863  28.424  31.221  1.00  0.00     0.173 A 
ATOM     66  C   UNL A   1      47.211  29.060  28.930  1.00  0.00     0.173 A 
ATOM     67  F   UNL A   1      46.117  28.400  32.336  1.00  0.00    -0.203 F 
ATOM     68  C   UNL A   1      48.137  27.862  31.257  1.00  0.00     0.198 A 
ATOM     69  C   UNL A   1      48.470  28.464  28.959  1.00  0.00     0.198 A 
ATOM     70  F   UNL A   1      46.801  29.642  27.793  1.00  0.00    -0.203 F 
ATOM     71  F   UNL A   1      48.597  27.325  32.396  1.00  0.00    -0.200 F 
ATOM     72  C   UNL A   1      48.936  27.876  30.125  1.00  0.00     0.200 A 
ATOM     73  F   UNL A   1      49.236  28.466  27.859  1.00  0.00    -0.200 F 
ATOM     74  F   UNL A   1      50.158  27.327  30.160  1.00  0.00    -0.200 F 
ENDBRANCH  50  64
BRANCH  51  75
ATOM     75  C   UNL A   1      37.067  32.688  29.828  1.00  0.00     0.064 A 
ATOM     76  C   UNL A   1      36.228  32.543  30.943  1.00  0.00     0.173 A 
ATOM     77  C   UNL A   1      36.549  33.354  28.708  1.00  0.00     0.173 A 
ATOM     78  F   UNL A   1      36.669  31.897  32.032  1.00  0.00    -0.203 F 
ATOM     79  C   UNL A   1      34.919  33.019  30.928  1.00  0.00     0.198 A 
ATOM     80  C   UNL A   1      35.250  33.858  28.705  1.00  0.00     0.198 A 
ATOM     81  F   UNL A   1      37.311  33.527  27.617  1.00  0.00    -0.203 F 
ATOM     82  F   UNL A   1      34.123  32.819  31.987  1.00  0.00    -0.200 F 
ATOM     83  C   UNL A   1      34.433  33.681  29.811  1.00  0.00     0.200 A 
ATOM     84  F   UNL A   1      34.789  34.513  27.630  1.00  0.00    -0.200 F 
ATOM     85  F   UNL A   1      33.174  34.141  29.798  1.00  0.00    -0.200 F 
ENDBRANCH  51  75
BRANCH  63  86
ATOM     86  C   UNL A   1      43.260  35.400  31.504  1.00  0.00     0.064 A 
ATOM     87  C   UNL A   1      43.257  35.754  32.862  1.00  0.00     0.173 A 
ATOM     88  C   UNL A   1      43.685  36.362  30.576  1.00  0.00     0.173 A 
ATOM     89  F   UNL A   1      42.848  34.875  33.788  1.00  0.00    -0.203 F 
ATOM     90  C   UNL A   1      43.627  37.033  33.268  1.00  0.00     0.198 A 
ATOM     91  C   UNL A   1      44.090  37.627  30.989  1.00  0.00     0.198 A 
ATOM     92  F   UNL A   1      43.717  36.071  29.266  1.00  0.00    -0.203 F 
ATOM     93  F   UNL A   1      43.556  37.368  34.563  1.00  0.00    -0.200 F 
ATOM     94  C   UNL A   1      44.049  37.966  32.333  1.00  0.00     0.200 A 
ATOM     95  F   UNL A   1      44.514  38.522  30.085  1.00  0.00    -0.200 F 
ATOM     96  F   UNL A   1      44.407  39.196  32.726  1.00  0.00    -0.200 F 
ENDBRANCH  63  86
ENDBRANCH  37  38
ENDBRANCH  29  32
ENDBRANCH  27  28
ENDBRANCH  26  27
ENDBRANCH   1  26
TORSDOF 14
ENDMDL
MODEL 3
REMARK VINA RESULT:     -12.2      2.053      7.843
REMARK SMILES CC(C)(C)C(=O)NCC(=O)Nc1cc(Cl)ccc1C(=O)NCCCNC(=O)c1ccc(-c2c3nc(c(-c4c(F)c(F)c(F)c(F)c4F)c4ccc([nH]4)c(-c4c(F)c(F)c(F)c(F)c4F)c4nc(c(-c5c(F)c(F)c(F)c(F)c5F)c5ccc2[nH]5)C=C4)C=C3)cc1
REMARK SMILES IDX 22 1 21 2 19 3 20 4 18 6 12 7 13 8 14 9 17 10 15 11 16 12
REMARK SMILES IDX 11 13 9 14 10 15 8 17 7 18 5 19 6 20 2 22 1 23 3 24 4 25
REMARK SMILES IDX 23 26 24 27 25 28 26 29 27 31 28 32 29 33 90 34 30 35 89 36
REMARK SMILES IDX 31 37 32 38 33 39 83 40 34 41 88 42 82 43 84 44 35 45 87 46
REMARK SMILES IDX 81 47 80 48 36 50 68 51 48 52 67 53 49 54 52 55 66 56 85 57
REMARK SMILES IDX 50 58 51 59 65 61 86 62 53 63 37 64 38 65 46 66 39 67 40 68
REMARK SMILES IDX 44 69 47 70 41 71 42 72 45 73 43 74 69 75 70 76 78 77 71 78
REMARK SMILES IDX 72 79 76 80 79 81 73 82 74 83 77 84 75 85 54 86 55 87 63 88
REMARK SMILES IDX 56 89 57 90 61 91 64 92 58 93 59 94 62 95 60 96
REMARK H PARENT 21 5 11 16 7 21 25 30 84 49 52 60
REMARK Flexibility Score: inf
ROOT
ATOM      1  C   UNL A   1      36.377  20.548  24.994  1.00  0.00     0.118 C 
ENDROOT
BRANCH   1   2
ATOM      2  N   UNL A   1      36.657  21.955  24.912  1.00  0.00    -0.352 N 
ATOM      3  C   UNL A   1      35.845  23.034  25.162  1.00  0.00     0.253 C 
ATOM      4  O   UNL A   1      36.381  24.142  25.085  1.00  0.00    -0.269 OA
ATOM      5  H   UNL A   1      37.573  22.180  24.632  1.00  0.00     0.163 HD
BRANCH   3   6
ATOM      6  C   UNL A   1      34.369  22.974  25.440  1.00  0.00     0.063 A 
ATOM      7  C   UNL A   1      33.283  22.973  24.535  1.00  0.00     0.055 A 
ATOM      8  C   UNL A   1      31.974  22.828  25.026  1.00  0.00     0.047 A 
ATOM      9  C   UNL A   1      31.716  22.756  26.394  1.00  0.00     0.043 A 
ATOM     10  C   UNL A   1      34.073  22.907  26.824  1.00  0.00     0.017 A 
ATOM     11  Cl  UNL A   1      30.104  22.577  26.957  1.00  0.00    -0.084 Cl
ATOM     12  C   UNL A   1      32.763  22.810  27.299  1.00  0.00     0.021 A 
BRANCH   7  13
ATOM     13  N   UNL A   1      33.429  22.914  23.141  1.00  0.00    -0.324 N 
ATOM     14  C   UNL A   1      33.330  23.916  22.201  1.00  0.00     0.243 C 
ATOM     15  O   UNL A   1      33.502  23.591  21.020  1.00  0.00    -0.273 OA
ATOM     16  H   UNL A   1      33.631  22.021  22.780  1.00  0.00     0.170 HD
BRANCH  14  17
ATOM     17  C   UNL A   1      33.321  25.421  22.580  1.00  0.00     0.216 C 
BRANCH  17  18
ATOM     18  N   UNL A   1      32.083  25.927  23.117  1.00  0.00    -0.347 N 
ATOM     19  C   UNL A   1      31.745  26.753  24.133  1.00  0.00     0.225 C 
ATOM     20  O   UNL A   1      30.524  26.905  24.260  1.00  0.00    -0.275 OA
ATOM     21  H   UNL A   1      31.297  25.593  22.627  1.00  0.00     0.164 HD
BRANCH  19  22
ATOM     22  C   UNL A   1      32.735  27.538  25.025  1.00  0.00     0.041 C 
ATOM     23  C   UNL A   1      33.482  26.493  25.894  1.00  0.00     0.021 C 
ATOM     24  C   UNL A   1      31.940  28.465  25.952  1.00  0.00     0.021 C 
ATOM     25  C   UNL A   1      33.828  28.342  24.316  1.00  0.00     0.021 C 
ENDBRANCH  19  22
ENDBRANCH  17  18
ENDBRANCH  14  17
ENDBRANCH   7  13
ENDBRANCH   3   6
ENDBRANCH   1   2
BRANCH   1  26
ATOM     26  C   UNL A   1      37.560  19.607  25.003  1.00  0.00     0.042 C 
BRANCH  26  27
ATOM     27  C   UNL A   1      38.807  20.153  25.671  1.00  0.00     0.118 C 
BRANCH  27  28
ATOM     28  N   UNL A   1      39.894  19.190  25.793  1.00  0.00    -0.352 N 
ATOM     29  C   UNL A   1      41.233  19.335  26.069  1.00  0.00     0.251 C 
ATOM     30  H   UNL A   1      39.617  18.257  25.651  1.00  0.00     0.163 HD
ATOM     31  O   UNL A   1      41.958  18.339  26.039  1.00  0.00    -0.269 OA
BRANCH  29  32
ATOM     32  C   UNL A   1      41.833  20.656  26.364  1.00  0.00     0.039 A 
ATOM     33  C   UNL A   1      42.107  21.529  25.306  1.00  0.00     0.014 A 
ATOM     34  C   UNL A   1      42.152  21.044  27.662  1.00  0.00     0.014 A 
ATOM     35  C   UNL A   1      42.621  22.803  25.564  1.00  0.00     0.010 A 
ATOM     36  C   UNL A   1      42.511  22.359  27.932  1.00  0.00     0.010 A 
ATOM     37  C   UNL A   1      42.782  23.250  26.886  1.00  0.00    -0.014 A 
BRANCH  37  38
ATOM     38  C   UNL A   1      43.279  24.615  27.199  1.00  0.00     0.031 A 
ATOM     39  C   UNL A   1      42.347  25.639  27.800  1.00  0.00     0.074 A 
ATOM     40  C   UNL A   1      44.545  24.957  26.888  1.00  0.00     0.049 A 
ATOM     41  N   UNL A   1      42.568  26.898  28.082  1.00  0.00    -0.248 NA
ATOM     42  C   UNL A   1      40.969  25.202  28.081  1.00  0.00     0.031 C 
ATOM     43  C   UNL A   1      45.525  24.081  26.241  1.00  0.00     0.029 A 
ATOM     44  N   UNL A   1      45.224  26.135  27.070  1.00  0.00    -0.354 N 
ATOM     45  C   UNL A   1      41.359  27.400  28.546  1.00  0.00     0.074 A 
ATOM     46  C   UNL A   1      40.388  26.336  28.434  1.00  0.00     0.031 C 
ATOM     47  C   UNL A   1      46.690  24.737  26.121  1.00  0.00     0.029 A 
ATOM     48  C   UNL A   1      46.529  26.091  26.641  1.00  0.00     0.049 A 
ATOM     49  H   UNL A   1      44.816  26.936  27.472  1.00  0.00     0.167 HD
ATOM     50  C   UNL A   1      41.087  28.624  29.059  1.00  0.00     0.037 A 
ATOM     51  C   UNL A   1      47.487  27.037  26.667  1.00  0.00     0.037 A 
ATOM     52  C   UNL A   1      42.068  29.666  29.211  1.00  0.00     0.049 A 
ATOM     53  C   UNL A   1      47.165  28.384  27.257  1.00  0.00     0.074 A 
ATOM     54  C   UNL A   1      41.917  30.916  29.783  1.00  0.00     0.029 A 
ATOM     55  N   UNL A   1      43.386  29.573  28.788  1.00  0.00    -0.354 N 
ATOM     56  N   UNL A   1      46.039  28.819  27.766  1.00  0.00    -0.248 NA
ATOM     57  C   UNL A   1      48.256  29.369  27.284  1.00  0.00     0.031 C 
ATOM     58  C   UNL A   1      43.130  31.600  29.660  1.00  0.00     0.029 A 
ATOM     59  C   UNL A   1      44.054  30.756  29.064  1.00  0.00     0.049 A 
ATOM     60  H   UNL A   1      43.787  28.786  28.356  1.00  0.00     0.167 HD
ATOM     61  C   UNL A   1      46.289  30.115  28.196  1.00  0.00     0.074 A 
ATOM     62  C   UNL A   1      47.683  30.385  27.912  1.00  0.00     0.031 C 
ATOM     63  C   UNL A   1      45.443  31.005  28.773  1.00  0.00     0.037 A 
BRANCH  50  64
ATOM     64  C   UNL A   1      39.677  28.895  29.504  1.00  0.00     0.064 A 
ATOM     65  C   UNL A   1      39.253  28.635  30.817  1.00  0.00     0.173 A 
ATOM     66  C   UNL A   1      38.743  29.446  28.614  1.00  0.00     0.173 A 
ATOM     67  F   UNL A   1      40.101  28.095  31.706  1.00  0.00    -0.203 F 
ATOM     68  C   UNL A   1      37.940  28.880  31.211  1.00  0.00     0.198 A 
ATOM     69  C   UNL A   1      37.439  29.724  29.022  1.00  0.00     0.198 A 
ATOM     70  F   UNL A   1      39.092  29.719  27.348  1.00  0.00    -0.203 F 
ATOM     71  F   UNL A   1      37.545  28.564  32.452  1.00  0.00    -0.200 F 
ATOM     72  C   UNL A   1      37.037  29.431  30.315  1.00  0.00     0.200 A 
ATOM     73  F   UNL A   1      36.572  30.270  28.158  1.00  0.00    -0.200 F 
ATOM     74  F   UNL A   1      35.775  29.673  30.698  1.00  0.00    -0.200 F 
ENDBRANCH  50  64
BRANCH  51  75
ATOM     75  C   UNL A   1      48.848  26.734  26.152  1.00  0.00     0.064 A 
ATOM     76  C   UNL A   1      49.802  26.101  26.963  1.00  0.00     0.173 A 
ATOM     77  C   UNL A   1      49.231  27.076  24.846  1.00  0.00     0.173 A 
ATOM     78  F   UNL A   1      49.492  25.771  28.225  1.00  0.00    -0.203 F 
ATOM     79  C   UNL A   1      51.090  25.847  26.498  1.00  0.00     0.198 A 
ATOM     80  C   UNL A   1      50.509  26.792  24.371  1.00  0.00     0.198 A 
ATOM     81  F   UNL A   1      48.355  27.676  24.025  1.00  0.00    -0.203 F 
ATOM     82  F   UNL A   1      51.996  25.289  27.313  1.00  0.00    -0.200 F 
ATOM     83  C   UNL A   1      51.441  26.187  25.201  1.00  0.00     0.200 A 
ATOM     84  F   UNL A   1      50.839  27.107  23.111  1.00  0.00    -0.200 F 
ATOM     85  F   UNL A   1      52.680  25.939  24.753  1.00  0.00    -0.200 F 
ENDBRANCH  51  75
BRANCH  63  86
ATOM     86  C   UNL A   1      46.011  32.341  29.157  1.00  0.00     0.064 A 
ATOM     87  C   UNL A   1      45.974  33.437  28.282  1.00  0.00     0.173 A 
ATOM     88  C   UNL A   1      46.579  32.533  30.425  1.00  0.00     0.173 A 
ATOM     89  F   UNL A   1      45.453  33.302  27.053  1.00  0.00    -0.203 F 
ATOM     90  C   UNL A   1      46.520  34.663  28.648  1.00  0.00     0.198 A 
ATOM     91  C   UNL A   1      47.090  33.771  30.802  1.00  0.00     0.198 A 
ATOM     92  F   UNL A   1      46.631  31.520  31.305  1.00  0.00    -0.203 F 
ATOM     93  F   UNL A   1      46.530  35.677  27.772  1.00  0.00    -0.200 F 
ATOM     94  C   UNL A   1      47.071  34.831  29.909  1.00  0.00     0.200 A 
ATOM     95  F   UNL A   1      47.607  33.936  32.028  1.00  0.00    -0.200 F 
ATOM     96  F   UNL A   1      47.593  36.014  30.262  1.00  0.00    -0.200 F 
ENDBRANCH  63  86
ENDBRANCH  37  38
ENDBRANCH  29  32
ENDBRANCH  27  28
ENDBRANCH  26  27
ENDBRANCH   1  26
TORSDOF 14
ENDMDL
