MODEL 1
REMARK VINA RESULT:     -13.9      0.000      0.000
REMARK SMILES O=C(NCCCNC(=O)c1cccc(N/C(=[NH+]\Cc2ccccc2)N2CCN(c3ccc(F)cc3)CC2)c1)c1ccc(-c2c3nc(c(-c4c(F)c(F)c(F)c(F)c4F)c4ccc([nH]4)c(-c4c(F)c(F)c(F)c(F)c4F)c4nc(c(-c5c(F)c(F)c(F)c(F)c5F)c5ccc2[nH]5)C=C4)C=C3)cc1
REMARK SMILES IDX 5 1 4 2 3 3 1 4 2 5 39 7 40 8 101 9 41 10 100 11 42 12 43 13
REMARK SMILES IDX 44 14 94 15 45 16 99 17 93 18 95 19 46 20 98 21 92 22 91 23
REMARK SMILES IDX 47 25 79 26 59 27 78 28 60 29 63 30 77 31 96 32 61 33 62 34
REMARK SMILES IDX 76 36 97 37 64 38 48 39 49 40 57 41 50 42 51 43 55 44 58 45
REMARK SMILES IDX 52 46 53 47 56 48 54 49 80 50 81 51 89 52 82 53 83 54 87 55
REMARK SMILES IDX 90 56 84 57 85 58 88 59 86 60 65 61 66 62 74 63 67 64 68 65
REMARK SMILES IDX 72 66 75 67 69 68 70 69 73 70 71 71 6 72 7 73 8 74 9 76
REMARK SMILES IDX 10 77 11 78 38 79 12 80 14 81 13 82 15 83 16 84 17 86 25 87
REMARK SMILES IDX 26 89 37 90 27 91 36 92 28 93 18 94 19 95 20 96 24 97 21 98
REMARK SMILES IDX 23 99 22 100 29 101 30 102 35 103 31 104 34 105 32 106
REMARK SMILES IDX 33 107
REMARK H PARENT 3 6 95 24 63 35 7 75 15 85 17 88
REMARK Flexibility Score: inf
ROOT
ATOM      1  C   UNL A   1      33.278  34.279  29.233  1.00  0.00     0.042 C 
ENDROOT
BRANCH   1   2
ATOM      2  C   UNL A   1      33.353  35.786  29.407  1.00  0.00     0.118 C 
BRANCH   2   3
ATOM      3  N   UNL A   1      32.528  36.281  30.504  1.00  0.00    -0.352 N 
ATOM      4  O   UNL A   1      31.703  36.399  32.600  1.00  0.00    -0.269 OA
ATOM      5  C   UNL A   1      32.585  36.007  31.852  1.00  0.00     0.251 C 
ATOM      6  H   UNL A   1      31.819  36.910  30.238  1.00  0.00     0.163 HD
BRANCH   5   7
ATOM      7  C   UNL A   1      33.710  35.206  32.382  1.00  0.00     0.039 A 
ATOM      8  C   UNL A   1      34.996  35.740  32.400  1.00  0.00     0.014 A 
ATOM      9  C   UNL A   1      33.484  33.907  32.844  1.00  0.00     0.014 A 
ATOM     10  C   UNL A   1      36.075  34.913  32.658  1.00  0.00     0.010 A 
ATOM     11  C   UNL A   1      34.566  33.118  33.251  1.00  0.00     0.010 A 
ATOM     12  C   UNL A   1      35.876  33.603  33.124  1.00  0.00    -0.014 A 
BRANCH  12  13
ATOM     13  C   UNL A   1      37.071  32.826  33.545  1.00  0.00     0.031 A 
ATOM     14  C   UNL A   1      37.721  31.817  32.643  1.00  0.00     0.074 A 
ATOM     15  C   UNL A   1      37.615  33.116  34.745  1.00  0.00     0.049 A 
ATOM     16  N   UNL A   1      38.815  31.123  32.841  1.00  0.00    -0.248 NA
ATOM     17  C   UNL A   1      37.062  31.536  31.359  1.00  0.00     0.031 C 
ATOM     18  C   UNL A   1      37.052  34.064  35.713  1.00  0.00     0.029 A 
ATOM     19  N   UNL A   1      38.772  32.687  35.339  1.00  0.00    -0.354 N 
ATOM     20  C   UNL A   1      38.972  30.323  31.717  1.00  0.00     0.074 A 
ATOM     21  C   UNL A   1      37.841  30.587  30.854  1.00  0.00     0.031 C 
ATOM     22  C   UNL A   1      37.899  34.203  36.739  1.00  0.00     0.029 A 
ATOM     23  C   UNL A   1      39.018  33.290  36.549  1.00  0.00     0.049 A 
ATOM     24  H   UNL A   1      39.368  32.014  34.939  1.00  0.00     0.167 HD
ATOM     25  C   UNL A   1      39.977  29.459  31.432  1.00  0.00     0.037 A 
ATOM     26  C   UNL A   1      40.021  33.112  37.426  1.00  0.00     0.037 A 
ATOM     27  C   UNL A   1      41.099  29.205  32.300  1.00  0.00     0.049 A 
ATOM     28  C   UNL A   1      41.105  32.133  37.088  1.00  0.00     0.074 A 
ATOM     29  C   UNL A   1      42.171  28.350  32.102  1.00  0.00     0.029 A 
ATOM     30  N   UNL A   1      41.296  29.805  33.537  1.00  0.00    -0.354 N 
ATOM     31  N   UNL A   1      41.251  31.399  36.011  1.00  0.00    -0.248 NA
ATOM     32  C   UNL A   1      42.165  31.954  38.087  1.00  0.00     0.031 C 
ATOM     33  C   UNL A   1      42.988  28.396  33.235  1.00  0.00     0.029 A 
ATOM     34  C   UNL A   1      42.462  29.325  34.118  1.00  0.00     0.049 A 
ATOM     35  H   UNL A   1      40.698  30.472  33.943  1.00  0.00     0.167 HD
ATOM     36  C   UNL A   1      42.420  30.678  36.198  1.00  0.00     0.074 A 
ATOM     37  C   UNL A   1      42.965  31.095  37.473  1.00  0.00     0.031 C 
ATOM     38  C   UNL A   1      42.985  29.745  35.393  1.00  0.00     0.037 A 
BRANCH  25  39
ATOM     39  C   UNL A   1      39.911  28.713  30.128  1.00  0.00     0.064 A 
ATOM     40  C   UNL A   1      40.477  29.232  28.954  1.00  0.00     0.173 A 
ATOM     41  C   UNL A   1      39.334  27.434  30.065  1.00  0.00     0.173 A 
ATOM     42  F   UNL A   1      41.032  30.453  28.955  1.00  0.00    -0.203 F 
ATOM     43  C   UNL A   1      40.452  28.509  27.763  1.00  0.00     0.198 A 
ATOM     44  C   UNL A   1      39.337  26.702  28.880  1.00  0.00     0.198 A 
ATOM     45  F   UNL A   1      38.784  26.885  31.158  1.00  0.00    -0.203 F 
ATOM     46  F   UNL A   1      40.965  29.042  26.646  1.00  0.00    -0.200 F 
ATOM     47  C   UNL A   1      39.891  27.241  27.729  1.00  0.00     0.200 A 
ATOM     48  F   UNL A   1      38.809  25.470  28.853  1.00  0.00    -0.200 F 
ATOM     49  F   UNL A   1      39.881  26.541  26.586  1.00  0.00    -0.200 F 
ENDBRANCH  25  39
BRANCH  26  50
ATOM     50  C   UNL A   1      40.020  33.855  38.714  1.00  0.00     0.064 A 
ATOM     51  C   UNL A   1      39.282  33.406  39.816  1.00  0.00     0.173 A 
ATOM     52  C   UNL A   1      40.761  35.038  38.863  1.00  0.00     0.173 A 
ATOM     53  F   UNL A   1      38.545  32.290  39.720  1.00  0.00    -0.203 F 
ATOM     54  C   UNL A   1      39.262  34.127  41.009  1.00  0.00     0.198 A 
ATOM     55  C   UNL A   1      40.774  35.734  40.068  1.00  0.00     0.198 A 
ATOM     56  F   UNL A   1      41.494  35.506  37.842  1.00  0.00    -0.203 F 
ATOM     57  F   UNL A   1      38.502  33.707  42.030  1.00  0.00    -0.200 F 
ATOM     58  C   UNL A   1      40.014  35.286  41.137  1.00  0.00     0.200 A 
ATOM     59  F   UNL A   1      41.522  36.839  40.192  1.00  0.00    -0.200 F 
ATOM     60  F   UNL A   1      40.000  35.974  42.285  1.00  0.00    -0.200 F 
ENDBRANCH  26  50
BRANCH  38  61
ATOM     61  C   UNL A   1      44.272  29.136  35.870  1.00  0.00     0.064 A 
ATOM     62  C   UNL A   1      45.517  29.698  35.546  1.00  0.00     0.173 A 
ATOM     63  C   UNL A   1      44.261  27.972  36.653  1.00  0.00     0.173 A 
ATOM     64  F   UNL A   1      45.583  30.800  34.784  1.00  0.00    -0.203 F 
ATOM     65  C   UNL A   1      46.703  29.091  35.950  1.00  0.00     0.198 A 
ATOM     66  C   UNL A   1      45.448  27.389  37.087  1.00  0.00     0.198 A 
ATOM     67  F   UNL A   1      43.098  27.399  36.997  1.00  0.00    -0.203 F 
ATOM     68  F   UNL A   1      47.880  29.605  35.566  1.00  0.00    -0.200 F 
ATOM     69  C   UNL A   1      46.667  27.940  36.723  1.00  0.00     0.200 A 
ATOM     70  F   UNL A   1      45.412  26.286  37.845  1.00  0.00    -0.200 F 
ATOM     71  F   UNL A   1      47.810  27.355  37.108  1.00  0.00    -0.200 F 
ENDBRANCH  38  61
ENDBRANCH  12  13
ENDBRANCH   5   7
ENDBRANCH   2   3
ENDBRANCH   1   2
BRANCH   1  72
ATOM     72  C   UNL A   1      33.356  33.828  27.785  1.00  0.00     0.118 C 
BRANCH  72  73
ATOM     73  N   UNL A   1      32.164  33.102  27.381  1.00  0.00    -0.352 N 
ATOM     74  C   UNL A   1      32.025  31.837  26.876  1.00  0.00     0.251 C 
ATOM     75  H   UNL A   1      31.322  33.601  27.484  1.00  0.00     0.163 HD
ATOM     76  O   UNL A   1      30.990  31.540  26.286  1.00  0.00    -0.269 OA
BRANCH  74  77
ATOM     77  C   UNL A   1      33.082  30.822  27.052  1.00  0.00     0.043 A 
ATOM     78  C   UNL A   1      34.312  31.225  27.569  1.00  0.00     0.014 A 
ATOM     79  C   UNL A   1      32.899  29.501  26.622  1.00  0.00     0.056 A 
ATOM     80  C   UNL A   1      35.356  30.312  27.626  1.00  0.00     0.004 A 
ATOM     81  C   UNL A   1      33.911  28.543  26.758  1.00  0.00     0.100 A 
ATOM     82  C   UNL A   1      35.152  28.994  27.204  1.00  0.00     0.043 A 
BRANCH  81  83
ATOM     83  N   UNL A   1      33.575  27.195  26.542  1.00  0.00    -0.245 N 
ATOM     84  C   UNL A   1      32.858  26.558  25.557  1.00  0.00     0.351 C 
ATOM     85  H   UNL A   1      33.922  26.586  27.233  1.00  0.00     0.267 HD
ATOM     86  N   UNL A   1      32.836  25.281  25.348  1.00  0.00    -0.273 N 
ATOM     87  N   UNL A   1      32.085  27.356  24.754  1.00  0.00    -0.261 N 
ATOM     88  H   UNL A   1      32.249  24.923  24.644  1.00  0.00     0.260 HD
ATOM     89  C   UNL A   1      30.653  27.064  24.614  1.00  0.00     0.221 C 
ATOM     90  C   UNL A   1      32.642  27.955  23.527  1.00  0.00     0.221 C 
ATOM     91  C   UNL A   1      29.892  28.384  24.410  1.00  0.00     0.154 C 
ATOM     92  C   UNL A   1      31.882  29.246  23.125  1.00  0.00     0.154 C 
ATOM     93  N   UNL A   1      30.408  29.122  23.241  1.00  0.00    -0.365 N 
BRANCH  86  94
ATOM     94  C   UNL A   1      33.658  24.355  26.126  1.00  0.00     0.233 C 
BRANCH  94  95
ATOM     95  C   UNL A   1      34.829  23.802  25.342  1.00  0.00    -0.014 A 
ATOM     96  C   UNL A   1      36.111  23.714  25.905  1.00  0.00     0.007 A 
ATOM     97  C   UNL A   1      34.659  23.406  24.007  1.00  0.00     0.007 A 
ATOM     98  C   UNL A   1      37.199  23.282  25.145  1.00  0.00     0.000 A 
ATOM     99  C   UNL A   1      35.745  22.953  23.253  1.00  0.00     0.000 A 
ATOM    100  C   UNL A   1      37.017  22.905  23.818  1.00  0.00     0.000 A 
ENDBRANCH  94  95
ENDBRANCH  86  94
BRANCH  93 101
ATOM    101  C   UNL A   1      29.646  30.159  22.708  1.00  0.00     0.037 A 
ATOM    102  C   UNL A   1      29.323  30.244  21.343  1.00  0.00     0.029 A 
ATOM    103  C   UNL A   1      29.194  31.192  23.545  1.00  0.00     0.029 A 
ATOM    104  C   UNL A   1      28.588  31.320  20.834  1.00  0.00     0.041 A 
ATOM    105  C   UNL A   1      28.466  32.274  23.043  1.00  0.00     0.041 A 
ATOM    106  C   UNL A   1      28.171  32.328  21.690  1.00  0.00     0.123 A 
ATOM    107  F   UNL A   1      27.482  33.369  21.203  1.00  0.00    -0.207 F 
ENDBRANCH  93 101
ENDBRANCH  81  83
ENDBRANCH  74  77
ENDBRANCH  72  73
ENDBRANCH   1  72
TORSDOF 14
ENDMDL
MODEL 2
REMARK VINA RESULT:     -13.7      7.095     12.967
REMARK SMILES O=C(NCCCNC(=O)c1cccc(N/C(=[NH+]\Cc2ccccc2)N2CCN(c3ccc(F)cc3)CC2)c1)c1ccc(-c2c3nc(c(-c4c(F)c(F)c(F)c(F)c4F)c4ccc([nH]4)c(-c4c(F)c(F)c(F)c(F)c4F)c4nc(c(-c5c(F)c(F)c(F)c(F)c5F)c5ccc2[nH]5)C=C4)C=C3)cc1
REMARK SMILES IDX 5 1 4 2 3 3 1 4 2 5 39 7 40 8 101 9 41 10 100 11 42 12 43 13
REMARK SMILES IDX 44 14 94 15 45 16 99 17 93 18 95 19 46 20 98 21 92 22 91 23
REMARK SMILES IDX 47 25 79 26 59 27 78 28 60 29 63 30 77 31 96 32 61 33 62 34
REMARK SMILES IDX 76 36 97 37 64 38 48 39 49 40 57 41 50 42 51 43 55 44 58 45
REMARK SMILES IDX 52 46 53 47 56 48 54 49 80 50 81 51 89 52 82 53 83 54 87 55
REMARK SMILES IDX 90 56 84 57 85 58 88 59 86 60 65 61 66 62 74 63 67 64 68 65
REMARK SMILES IDX 72 66 75 67 69 68 70 69 73 70 71 71 6 72 7 73 8 74 9 76
REMARK SMILES IDX 10 77 11 78 38 79 12 80 14 81 13 82 15 83 16 84 17 86 25 87
REMARK SMILES IDX 26 89 37 90 27 91 36 92 28 93 18 94 19 95 20 96 24 97 21 98
REMARK SMILES IDX 23 99 22 100 29 101 30 102 35 103 31 104 34 105 32 106
REMARK SMILES IDX 33 107
REMARK H PARENT 3 6 95 24 63 35 7 75 15 85 17 88
REMARK Flexibility Score: inf
ROOT
ATOM      1  C   UNL A   1      41.880  20.008  25.748  1.00  0.00     0.042 C 
ENDROOT
BRANCH   1   2
ATOM      2  C   UNL A   1      43.021  19.111  26.195  1.00  0.00     0.118 C 
BRANCH   2   3
ATOM      3  N   UNL A   1      43.880  18.680  25.098  1.00  0.00    -0.352 N 
ATOM      4  O   UNL A   1      45.242  18.893  23.312  1.00  0.00    -0.269 OA
ATOM      5  C   UNL A   1      44.719  19.411  24.286  1.00  0.00     0.251 C 
ATOM      6  H   UNL A   1      43.856  17.715  24.907  1.00  0.00     0.163 HD
BRANCH   5   7
ATOM      7  C   UNL A   1      44.958  20.839  24.589  1.00  0.00     0.039 A 
ATOM      8  C   UNL A   1      45.655  21.198  25.740  1.00  0.00     0.014 A 
ATOM      9  C   UNL A   1      44.465  21.826  23.732  1.00  0.00     0.014 A 
ATOM     10  C   UNL A   1      45.660  22.520  26.149  1.00  0.00     0.010 A 
ATOM     11  C   UNL A   1      44.607  23.175  24.073  1.00  0.00     0.010 A 
ATOM     12  C   UNL A   1      45.172  23.532  25.306  1.00  0.00    -0.014 A 
BRANCH  12  13
ATOM     13  C   UNL A   1      45.363  24.943  25.730  1.00  0.00     0.031 A 
ATOM     14  C   UNL A   1      44.264  25.734  26.381  1.00  0.00     0.074 A 
ATOM     15  C   UNL A   1      46.594  25.478  25.591  1.00  0.00     0.049 A 
ATOM     16  N   UNL A   1      44.307  26.946  26.877  1.00  0.00    -0.248 NA
ATOM     17  C   UNL A   1      42.943  25.096  26.481  1.00  0.00     0.031 C 
ATOM     18  C   UNL A   1      47.731  24.807  24.951  1.00  0.00     0.029 A 
ATOM     19  N   UNL A   1      47.112  26.675  26.009  1.00  0.00    -0.354 N 
ATOM     20  C   UNL A   1      43.028  27.217  27.342  1.00  0.00     0.074 A 
ATOM     21  C   UNL A   1      42.216  26.059  27.034  1.00  0.00     0.031 C 
ATOM     22  C   UNL A   1      48.825  25.564  25.088  1.00  0.00     0.029 A 
ATOM     23  C   UNL A   1      48.452  26.811  25.741  1.00  0.00     0.049 A 
ATOM     24  H   UNL A   1      46.576  27.368  26.458  1.00  0.00     0.167 HD
ATOM     25  C   UNL A   1      42.580  28.328  27.976  1.00  0.00     0.037 A 
ATOM     26  C   UNL A   1      49.289  27.837  25.972  1.00  0.00     0.037 A 
ATOM     27  C   UNL A   1      43.398  29.476  28.277  1.00  0.00     0.049 A 
ATOM     28  C   UNL A   1      48.755  29.060  26.658  1.00  0.00     0.074 A 
ATOM     29  C   UNL A   1      43.040  30.651  28.919  1.00  0.00     0.029 A 
ATOM     30  N   UNL A   1      44.744  29.596  27.956  1.00  0.00    -0.354 N 
ATOM     31  N   UNL A   1      47.547  29.293  27.109  1.00  0.00    -0.248 NA
ATOM     32  C   UNL A   1      49.700  30.163  26.865  1.00  0.00     0.031 C 
ATOM     33  C   UNL A   1      44.153  31.497  28.943  1.00  0.00     0.029 A 
ATOM     34  C   UNL A   1      45.224  30.830  28.371  1.00  0.00     0.049 A 
ATOM     35  H   UNL A   1      45.280  28.907  27.501  1.00  0.00     0.167 HD
ATOM     36  C   UNL A   1      47.587  30.564  27.660  1.00  0.00     0.074 A 
ATOM     37  C   UNL A   1      48.950  31.034  27.524  1.00  0.00     0.031 C 
ATOM     38  C   UNL A   1      46.583  31.285  28.218  1.00  0.00     0.037 A 
BRANCH  25  39
ATOM     39  C   UNL A   1      41.134  28.367  28.385  1.00  0.00     0.064 A 
ATOM     40  C   UNL A   1      40.713  27.918  29.645  1.00  0.00     0.173 A 
ATOM     41  C   UNL A   1      40.164  28.921  27.533  1.00  0.00     0.173 A 
ATOM     42  F   UNL A   1      41.594  27.369  30.495  1.00  0.00    -0.203 F 
ATOM     43  C   UNL A   1      39.376  28.004  30.031  1.00  0.00     0.198 A 
ATOM     44  C   UNL A   1      38.835  29.033  27.933  1.00  0.00     0.198 A 
ATOM     45  F   UNL A   1      40.510  29.374  26.319  1.00  0.00    -0.203 F 
ATOM     46  F   UNL A   1      38.994  27.533  31.226  1.00  0.00    -0.200 F 
ATOM     47  C   UNL A   1      38.440  28.570  29.179  1.00  0.00     0.200 A 
ATOM     48  F   UNL A   1      37.935  29.596  27.114  1.00  0.00    -0.200 F 
ATOM     49  F   UNL A   1      37.159  28.666  29.557  1.00  0.00    -0.200 F 
ENDBRANCH  25  39
BRANCH  26  50
ATOM     50  C   UNL A   1      50.703  27.756  25.520  1.00  0.00     0.064 A 
ATOM     51  C   UNL A   1      51.739  27.443  26.410  1.00  0.00     0.173 A 
ATOM     52  C   UNL A   1      51.046  27.996  24.180  1.00  0.00     0.173 A 
ATOM     53  F   UNL A   1      51.466  27.220  27.704  1.00  0.00    -0.203 F 
ATOM     54  C   UNL A   1      53.064  27.401  25.983  1.00  0.00     0.198 A 
ATOM     55  C   UNL A   1      52.365  27.912  23.746  1.00  0.00     0.198 A 
ATOM     56  F   UNL A   1      50.092  28.290  23.284  1.00  0.00    -0.203 F 
ATOM     57  F   UNL A   1      54.042  27.155  26.866  1.00  0.00    -0.200 F 
ATOM     58  C   UNL A   1      53.376  27.627  24.651  1.00  0.00     0.200 A 
ATOM     59  F   UNL A   1      52.657  28.109  22.453  1.00  0.00    -0.200 F 
ATOM     60  F   UNL A   1      54.650  27.580  24.240  1.00  0.00    -0.200 F 
ENDBRANCH  26  50
BRANCH  38  61
ATOM     61  C   UNL A   1      46.941  32.646  28.739  1.00  0.00     0.064 A 
ATOM     62  C   UNL A   1      47.342  32.843  30.070  1.00  0.00     0.173 A 
ATOM     63  C   UNL A   1      46.874  33.769  27.901  1.00  0.00     0.173 A 
ATOM     64  F   UNL A   1      47.405  31.805  30.917  1.00  0.00    -0.203 F 
ATOM     65  C   UNL A   1      47.619  34.119  30.553  1.00  0.00     0.198 A 
ATOM     66  C   UNL A   1      47.187  35.039  28.378  1.00  0.00     0.198 A 
ATOM     67  F   UNL A   1      46.503  33.636  26.619  1.00  0.00    -0.203 F 
ATOM     68  F   UNL A   1      47.929  34.291  31.846  1.00  0.00    -0.200 F 
ATOM     69  C   UNL A   1      47.546  35.215  29.706  1.00  0.00     0.200 A 
ATOM     70  F   UNL A   1      47.130  36.094  27.555  1.00  0.00    -0.200 F 
ATOM     71  F   UNL A   1      47.808  36.443  30.173  1.00  0.00    -0.200 F 
ENDBRANCH  38  61
ENDBRANCH  12  13
ENDBRANCH   5   7
ENDBRANCH   2   3
ENDBRANCH   1   2
BRANCH   1  72
ATOM     72  C   UNL A   1      40.567  19.721  26.454  1.00  0.00     0.118 C 
BRANCH  72  73
ATOM     73  N   UNL A   1      39.494  19.456  25.510  1.00  0.00    -0.352 N 
ATOM     74  C   UNL A   1      38.356  20.167  25.238  1.00  0.00     0.251 C 
ATOM     75  H   UNL A   1      39.602  18.632  24.983  1.00  0.00     0.163 HD
ATOM     76  O   UNL A   1      37.425  19.609  24.664  1.00  0.00    -0.269 OA
BRANCH  74  77
ATOM     77  C   UNL A   1      38.241  21.595  25.598  1.00  0.00     0.043 A 
ATOM     78  C   UNL A   1      39.256  22.173  26.358  1.00  0.00     0.014 A 
ATOM     79  C   UNL A   1      37.097  22.335  25.274  1.00  0.00     0.056 A 
ATOM     80  C   UNL A   1      39.106  23.477  26.811  1.00  0.00     0.004 A 
ATOM     81  C   UNL A   1      36.971  23.680  25.642  1.00  0.00     0.100 A 
ATOM     82  C   UNL A   1      37.964  24.205  26.466  1.00  0.00     0.043 A 
BRANCH  81  83
ATOM     83  N   UNL A   1      35.922  24.423  25.071  1.00  0.00    -0.245 N 
ATOM     84  C   UNL A   1      34.593  24.148  24.855  1.00  0.00     0.351 C 
ATOM     85  H   UNL A   1      36.194  25.318  24.765  1.00  0.00     0.267 HD
ATOM     86  N   UNL A   1      33.684  25.016  24.546  1.00  0.00    -0.273 N 
ATOM     87  N   UNL A   1      34.219  22.832  24.955  1.00  0.00    -0.261 N 
ATOM     88  H   UNL A   1      32.768  24.706  24.365  1.00  0.00     0.260 HD
ATOM     89  C   UNL A   1      33.516  22.198  23.833  1.00  0.00     0.221 C 
ATOM     90  C   UNL A   1      33.806  22.263  26.250  1.00  0.00     0.221 C 
ATOM     91  C   UNL A   1      33.904  20.711  23.779  1.00  0.00     0.154 C 
ATOM     92  C   UNL A   1      34.026  20.728  26.296  1.00  0.00     0.154 C 
ATOM     93  N   UNL A   1      33.602  20.034  25.055  1.00  0.00    -0.365 N 
BRANCH  86  94
ATOM     94  C   UNL A   1      33.979  26.446  24.457  1.00  0.00     0.233 C 
BRANCH  94  95
ATOM     95  C   UNL A   1      33.260  27.265  25.508  1.00  0.00    -0.014 A 
ATOM     96  C   UNL A   1      33.854  28.394  26.090  1.00  0.00     0.007 A 
ATOM     97  C   UNL A   1      31.990  26.874  25.958  1.00  0.00     0.007 A 
ATOM     98  C   UNL A   1      33.216  29.091  27.118  1.00  0.00     0.000 A 
ATOM     99  C   UNL A   1      31.342  27.584  26.973  1.00  0.00     0.000 A 
ATOM    100  C   UNL A   1      31.963  28.683  27.563  1.00  0.00     0.000 A 
ENDBRANCH  94  95
ENDBRANCH  86  94
BRANCH  93 101
ATOM    101  C   UNL A   1      33.575  18.642  25.091  1.00  0.00     0.037 A 
ATOM    102  C   UNL A   1      34.512  17.844  24.412  1.00  0.00     0.029 A 
ATOM    103  C   UNL A   1      32.561  17.984  25.804  1.00  0.00     0.029 A 
ATOM    104  C   UNL A   1      34.433  16.448  24.439  1.00  0.00     0.041 A 
ATOM    105  C   UNL A   1      32.471  16.590  25.829  1.00  0.00     0.041 A 
ATOM    106  C   UNL A   1      33.408  15.834  25.143  1.00  0.00     0.123 A 
ATOM    107  F   UNL A   1      33.320  14.498  25.155  1.00  0.00    -0.207 F 
ENDBRANCH  93 101
ENDBRANCH  81  83
ENDBRANCH  74  77
ENDBRANCH  72  73
ENDBRANCH   1  72
TORSDOF 14
ENDMDL
MODEL 3
REMARK VINA RESULT:     -13.6      6.245     12.580
REMARK SMILES O=C(NCCCNC(=O)c1cccc(N/C(=[NH+]\Cc2ccccc2)N2CCN(c3ccc(F)cc3)CC2)c1)c1ccc(-c2c3nc(c(-c4c(F)c(F)c(F)c(F)c4F)c4ccc([nH]4)c(-c4c(F)c(F)c(F)c(F)c4F)c4nc(c(-c5c(F)c(F)c(F)c(F)c5F)c5ccc2[nH]5)C=C4)C=C3)cc1
REMARK SMILES IDX 5 1 4 2 3 3 1 4 2 5 39 7 40 8 101 9 41 10 100 11 42 12 43 13
REMARK SMILES IDX 44 14 94 15 45 16 99 17 93 18 95 19 46 20 98 21 92 22 91 23
REMARK SMILES IDX 47 25 79 26 59 27 78 28 60 29 63 30 77 31 96 32 61 33 62 34
REMARK SMILES IDX 76 36 97 37 64 38 48 39 49 40 57 41 50 42 51 43 55 44 58 45
REMARK SMILES IDX 52 46 53 47 56 48 54 49 80 50 81 51 89 52 82 53 83 54 87 55
REMARK SMILES IDX 90 56 84 57 85 58 88 59 86 60 65 61 66 62 74 63 67 64 68 65
REMARK SMILES IDX 72 66 75 67 69 68 70 69 73 70 71 71 6 72 7 73 8 74 9 76
REMARK SMILES IDX 10 77 11 78 38 79 12 80 14 81 13 82 15 83 16 84 17 86 25 87
REMARK SMILES IDX 26 89 37 90 27 91 36 92 28 93 18 94 19 95 20 96 24 97 21 98
REMARK SMILES IDX 23 99 22 100 29 101 30 102 35 103 31 104 34 105 32 106
REMARK SMILES IDX 33 107
REMARK H PARENT 3 6 95 24 63 35 7 75 15 85 17 88
REMARK Flexibility Score: inf
ROOT
ATOM      1  C   UNL A   1      41.645  21.562  26.234  1.00  0.00     0.042 C 
ENDROOT
BRANCH   1   2
ATOM      2  C   UNL A   1      40.340  21.732  26.992  1.00  0.00     0.118 C 
BRANCH   2   3
ATOM      3  N   UNL A   1      39.246  22.211  26.155  1.00  0.00    -0.352 N 
ATOM      4  O   UNL A   1      37.616  23.606  25.456  1.00  0.00    -0.269 OA
ATOM      5  C   UNL A   1      38.626  23.441  26.121  1.00  0.00     0.251 C 
ATOM      6  H   UNL A   1      38.894  21.552  25.514  1.00  0.00     0.163 HD
BRANCH   5   7
ATOM      7  C   UNL A   1      39.181  24.554  26.922  1.00  0.00     0.039 A 
ATOM      8  C   UNL A   1      38.898  24.640  28.282  1.00  0.00     0.014 A 
ATOM      9  C   UNL A   1      39.969  25.530  26.307  1.00  0.00     0.014 A 
ATOM     10  C   UNL A   1      39.204  25.801  28.971  1.00  0.00     0.010 A 
ATOM     11  C   UNL A   1      40.409  26.634  27.046  1.00  0.00     0.010 A 
ATOM     12  C   UNL A   1      39.995  26.798  28.377  1.00  0.00    -0.014 A 
BRANCH  12  13
ATOM     13  C   UNL A   1      40.430  27.938  29.224  1.00  0.00     0.031 A 
ATOM     14  C   UNL A   1      41.828  28.038  29.766  1.00  0.00     0.074 A 
ATOM     15  C   UNL A   1      39.549  28.939  29.428  1.00  0.00     0.049 A 
ATOM     16  N   UNL A   1      42.375  29.012  30.451  1.00  0.00    -0.248 NA
ATOM     17  C   UNL A   1      42.729  26.902  29.523  1.00  0.00     0.031 C 
ATOM     18  C   UNL A   1      38.157  28.935  28.967  1.00  0.00     0.029 A 
ATOM     19  N   UNL A   1      39.693  30.161  30.029  1.00  0.00    -0.354 N 
ATOM     20  C   UNL A   1      43.674  28.607  30.724  1.00  0.00     0.074 A 
ATOM     21  C   UNL A   1      43.826  27.281  30.166  1.00  0.00     0.031 C 
ATOM     22  C   UNL A   1      37.600  30.123  29.230  1.00  0.00     0.029 A 
ATOM     23  C   UNL A   1      38.563  30.939  29.959  1.00  0.00     0.049 A 
ATOM     24  H   UNL A   1      40.525  30.453  30.466  1.00  0.00     0.167 HD
ATOM     25  C   UNL A   1      44.650  29.289  31.372  1.00  0.00     0.037 A 
ATOM     26  C   UNL A   1      38.315  32.166  30.447  1.00  0.00     0.037 A 
ATOM     27  C   UNL A   1      44.487  30.611  31.925  1.00  0.00     0.049 A 
ATOM     28  C   UNL A   1      39.411  32.883  31.177  1.00  0.00     0.074 A 
ATOM     29  C   UNL A   1      45.416  31.389  32.597  1.00  0.00     0.029 A 
ATOM     30  N   UNL A   1      43.315  31.354  31.869  1.00  0.00    -0.354 N 
ATOM     31  N   UNL A   1      40.641  32.495  31.409  1.00  0.00    -0.248 NA
ATOM     32  C   UNL A   1      39.085  34.210  31.714  1.00  0.00     0.031 C 
ATOM     33  C   UNL A   1      44.793  32.578  32.990  1.00  0.00     0.029 A 
ATOM     34  C   UNL A   1      43.493  32.572  32.510  1.00  0.00     0.049 A 
ATOM     35  H   UNL A   1      42.480  31.060  31.439  1.00  0.00     0.167 HD
ATOM     36  C   UNL A   1      41.239  33.530  32.113  1.00  0.00     0.074 A 
ATOM     37  C   UNL A   1      40.247  34.579  32.231  1.00  0.00     0.031 C 
ATOM     38  C   UNL A   1      42.492  33.601  32.626  1.00  0.00     0.037 A 
BRANCH  25  39
ATOM     39  C   UNL A   1      45.987  28.620  31.531  1.00  0.00     0.064 A 
ATOM     40  C   UNL A   1      47.011  28.787  30.587  1.00  0.00     0.173 A 
ATOM     41  C   UNL A   1      46.272  27.853  32.673  1.00  0.00     0.173 A 
ATOM     42  F   UNL A   1      46.791  29.500  29.472  1.00  0.00    -0.203 F 
ATOM     43  C   UNL A   1      48.262  28.200  30.770  1.00  0.00     0.198 A 
ATOM     44  C   UNL A   1      47.532  27.293  32.867  1.00  0.00     0.198 A 
ATOM     45  F   UNL A   1      45.333  27.665  33.612  1.00  0.00    -0.203 F 
ATOM     46  F   UNL A   1      49.211  28.344  29.835  1.00  0.00    -0.200 F 
ATOM     47  C   UNL A   1      48.524  27.462  31.914  1.00  0.00     0.200 A 
ATOM     48  F   UNL A   1      47.789  26.593  33.981  1.00  0.00    -0.200 F 
ATOM     49  F   UNL A   1      49.732  26.911  32.095  1.00  0.00    -0.200 F 
ENDBRANCH  25  39
BRANCH  26  50
ATOM     50  C   UNL A   1      36.965  32.769  30.287  1.00  0.00     0.064 A 
ATOM     51  C   UNL A   1      36.578  33.387  29.091  1.00  0.00     0.173 A 
ATOM     52  C   UNL A   1      36.033  32.739  31.336  1.00  0.00     0.173 A 
ATOM     53  F   UNL A   1      37.437  33.455  28.063  1.00  0.00    -0.203 F 
ATOM     54  C   UNL A   1      35.322  33.977  28.961  1.00  0.00     0.198 A 
ATOM     55  C   UNL A   1      34.764  33.291  31.191  1.00  0.00     0.198 A 
ATOM     56  F   UNL A   1      36.349  32.150  32.499  1.00  0.00    -0.203 F 
ATOM     57  F   UNL A   1      34.998  34.613  27.826  1.00  0.00    -0.200 F 
ATOM     58  C   UNL A   1      34.414  33.922  30.008  1.00  0.00     0.200 A 
ATOM     59  F   UNL A   1      33.883  33.214  32.197  1.00  0.00    -0.200 F 
ATOM     60  F   UNL A   1      33.205  34.484  29.880  1.00  0.00    -0.200 F 
ENDBRANCH  26  50
BRANCH  38  61
ATOM     61  C   UNL A   1      42.855  34.870  33.340  1.00  0.00     0.064 A 
ATOM     62  C   UNL A   1      42.666  35.016  34.724  1.00  0.00     0.173 A 
ATOM     63  C   UNL A   1      43.389  35.958  32.633  1.00  0.00     0.173 A 
ATOM     64  F   UNL A   1      42.142  34.013  35.443  1.00  0.00    -0.203 F 
ATOM     65  C   UNL A   1      42.958  36.218  35.364  1.00  0.00     0.198 A 
ATOM     66  C   UNL A   1      43.714  37.145  33.283  1.00  0.00     0.198 A 
ATOM     67  F   UNL A   1      43.595  35.869  31.311  1.00  0.00    -0.203 F 
ATOM     68  F   UNL A   1      42.701  36.357  36.672  1.00  0.00    -0.200 F 
ATOM     69  C   UNL A   1      43.485  37.279  34.644  1.00  0.00     0.200 A 
ATOM     70  F   UNL A   1      44.236  38.165  32.588  1.00  0.00    -0.200 F 
ATOM     71  F   UNL A   1      43.761  38.436  35.260  1.00  0.00    -0.200 F 
ENDBRANCH  38  61
ENDBRANCH  12  13
ENDBRANCH   5   7
ENDBRANCH   2   3
ENDBRANCH   1   2
BRANCH   1  72
ATOM     72  C   UNL A   1      42.125  22.831  25.554  1.00  0.00     0.118 C 
BRANCH  72  73
ATOM     73  N   UNL A   1      43.226  22.571  24.641  1.00  0.00    -0.352 N 
ATOM     74  C   UNL A   1      44.455  23.166  24.542  1.00  0.00     0.251 C 
ATOM     75  H   UNL A   1      43.060  21.854  23.987  1.00  0.00     0.163 HD
ATOM     76  O   UNL A   1      45.098  23.039  23.503  1.00  0.00    -0.269 OA
BRANCH  74  77
ATOM     77  C   UNL A   1      45.029  23.929  25.668  1.00  0.00     0.043 A 
ATOM     78  C   UNL A   1      45.778  23.245  26.623  1.00  0.00     0.014 A 
ATOM     79  C   UNL A   1      44.751  25.292  25.836  1.00  0.00     0.056 A 
ATOM     80  C   UNL A   1      46.219  23.922  27.752  1.00  0.00     0.004 A 
ATOM     81  C   UNL A   1      45.267  26.012  26.921  1.00  0.00     0.100 A 
ATOM     82  C   UNL A   1      45.944  25.285  27.897  1.00  0.00     0.043 A 
BRANCH  81  83
ATOM     83  N   UNL A   1      45.159  27.414  26.891  1.00  0.00    -0.245 N 
ATOM     84  C   UNL A   1      45.950  28.400  26.350  1.00  0.00     0.351 C 
ATOM     85  H   UNL A   1      44.358  27.758  27.348  1.00  0.00     0.267 HD
ATOM     86  N   UNL A   1      45.603  29.636  26.181  1.00  0.00    -0.273 N 
ATOM     87  N   UNL A   1      47.220  28.032  25.986  1.00  0.00    -0.261 N 
ATOM     88  H   UNL A   1      46.265  30.273  25.827  1.00  0.00     0.260 HD
ATOM     89  C   UNL A   1      48.366  28.777  26.522  1.00  0.00     0.221 C 
ATOM     90  C   UNL A   1      47.495  27.504  24.638  1.00  0.00     0.221 C 
ATOM     91  C   UNL A   1      49.554  27.816  26.684  1.00  0.00     0.154 C 
ATOM     92  C   UNL A   1      48.758  26.603  24.623  1.00  0.00     0.154 C 
ATOM     93  N   UNL A   1      49.889  27.162  25.404  1.00  0.00    -0.365 N 
BRANCH  86  94
ATOM     94  C   UNL A   1      44.258  30.113  26.499  1.00  0.00     0.233 C 
BRANCH  94  95
ATOM     95  C   UNL A   1      44.243  31.533  27.023  1.00  0.00    -0.014 A 
ATOM     96  C   UNL A   1      44.170  31.806  28.397  1.00  0.00     0.007 A 
ATOM     97  C   UNL A   1      44.255  32.613  26.129  1.00  0.00     0.007 A 
ATOM     98  C   UNL A   1      44.071  33.119  28.863  1.00  0.00     0.000 A 
ATOM     99  C   UNL A   1      44.178  33.928  26.596  1.00  0.00     0.000 A 
ATOM    100  C   UNL A   1      44.071  34.179  27.963  1.00  0.00     0.000 A 
ENDBRANCH  94  95
ENDBRANCH  86  94
BRANCH  93 101
ATOM    101  C   UNL A   1      51.119  26.521  25.275  1.00  0.00     0.037 A 
ATOM    102  C   UNL A   1      51.651  25.685  26.271  1.00  0.00     0.029 A 
ATOM    103  C   UNL A   1      51.893  26.727  24.122  1.00  0.00     0.029 A 
ATOM    104  C   UNL A   1      52.907  25.087  26.125  1.00  0.00     0.041 A 
ATOM    105  C   UNL A   1      53.152  26.140  23.972  1.00  0.00     0.041 A 
ATOM    106  C   UNL A   1      53.648  25.326  24.978  1.00  0.00     0.123 A 
ATOM    107  F   UNL A   1      54.859  24.769  24.842  1.00  0.00    -0.207 F 
ENDBRANCH  93 101
ENDBRANCH  81  83
ENDBRANCH  74  77
ENDBRANCH  72  73
ENDBRANCH   1  72
TORSDOF 14
ENDMDL
