MODEL 1
REMARK VINA RESULT:     -12.6      0.000      0.000
REMARK SMILES CC1(C)C(CNC(=O)N2C[C@H](O)C[C@@H]2C(=O)NCCCNC(=O)c2ccc(-c3c4nc(c(-c5c(F)c(F)c(F)c(F)c5F)c5ccc([nH]5)c(-c5c(F)c(F)c(F)c(F)c5F)c5nc(c(-c6c(F)c(F)c(F)c(F)c6F)c6ccc3[nH]6)C=C5)C=C4)cc2)C1(C)C
REMARK SMILES IDX 18 1 17 2 15 3 16 4 14 6 9 7 10 8 11 9 13 10 7 11 6 12 8 14
REMARK SMILES IDX 5 15 4 16 1 17 2 18 3 19 87 20 88 21 89 22 12 23 19 25 20 26
REMARK SMILES IDX 21 27 22 28 23 30 24 31 25 32 86 33 26 34 85 35 27 36 28 37
REMARK SMILES IDX 29 38 79 39 30 40 84 41 78 42 80 43 31 44 83 45 77 46 76 47
REMARK SMILES IDX 32 49 64 50 44 51 63 52 45 53 48 54 62 55 81 56 46 57 47 58
REMARK SMILES IDX 61 60 82 61 49 62 33 63 34 64 42 65 35 66 36 67 40 68 43 69
REMARK SMILES IDX 37 70 38 71 41 72 39 73 65 74 66 75 74 76 67 77 68 78 72 79
REMARK SMILES IDX 75 80 69 81 70 82 73 83 71 84 50 85 51 86 59 87 52 88 53 89
REMARK SMILES IDX 57 90 60 91 54 92 55 93 58 94 56 95
REMARK H PARENT 17 5 6 13 12 24 21 29 80 48 48 59
REMARK Flexibility Score: inf
ROOT
ATOM      1  C   UNL A   1      31.940  30.324  26.850  1.00  0.00     0.117 C 
ENDROOT
BRANCH   1   2
ATOM      2  N   UNL A   1      32.801  29.856  25.779  1.00  0.00    -0.354 N 
ATOM      3  C   UNL A   1      32.454  29.209  24.624  1.00  0.00     0.242 C 
ATOM      4  O   UNL A   1      33.292  29.163  23.720  1.00  0.00    -0.273 OA
ATOM      5  H   UNL A   1      33.763  30.026  25.901  1.00  0.00     0.163 HD
BRANCH   3   6
ATOM      6  C   UNL A   1      31.032  28.627  24.474  1.00  0.00     0.179 C 
ATOM      7  N   UNL A   1      31.048  27.169  24.652  1.00  0.00    -0.310 N 
ATOM      8  C   UNL A   1      30.465  26.506  23.493  1.00  0.00     0.154 C 
ATOM      9  C   UNL A   1      30.775  27.481  22.369  1.00  0.00     0.136 C 
ATOM     10  C   UNL A   1      30.520  28.830  23.037  1.00  0.00     0.069 C 
BRANCH   7  11
ATOM     11  C   UNL A   1      31.277  26.621  25.875  1.00  0.00     0.318 C 
ATOM     12  N   UNL A   1      32.209  25.641  25.992  1.00  0.00    -0.338 N 
ATOM     13  H   UNL A   1      32.077  25.009  26.736  1.00  0.00     0.165 HD
ATOM     14  O   UNL A   1      30.700  27.021  26.886  1.00  0.00    -0.249 OA
BRANCH  12  15
ATOM     15  C   UNL A   1      33.373  25.410  25.161  1.00  0.00     0.122 C 
BRANCH  15  16
ATOM     16  C   UNL A   1      34.309  24.450  25.823  1.00  0.00     0.021 C 
ATOM     17  C   UNL A   1      34.651  22.175  27.035  1.00  0.00     0.012 C 
ATOM     18  C   UNL A   1      34.212  22.927  25.793  1.00  0.00    -0.025 C 
ATOM     19  C   UNL A   1      33.049  22.254  25.104  1.00  0.00     0.012 C 
ATOM     20  C   UNL A   1      35.300  23.661  24.975  1.00  0.00    -0.025 C 
ATOM     21  C   UNL A   1      36.739  23.671  25.451  1.00  0.00     0.012 C 
ATOM     22  C   UNL A   1      35.219  23.715  23.463  1.00  0.00     0.012 C 
ENDBRANCH  15  16
ENDBRANCH  12  15
ENDBRANCH   7  11
BRANCH   9  23
ATOM     23  O   UNL A   1      32.144  27.385  21.971  1.00  0.00    -0.391 OA
ATOM     24  H   UNL A   1      32.194  27.042  21.066  1.00  0.00     0.211 HD
ENDBRANCH   9  23
ENDBRANCH   3   6
ENDBRANCH   1   2
BRANCH   1  25
ATOM     25  C   UNL A   1      31.680  31.822  26.819  1.00  0.00     0.042 C 
BRANCH  25  26
ATOM     26  C   UNL A   1      32.851  32.698  27.250  1.00  0.00     0.118 C 
BRANCH  26  27
ATOM     27  N   UNL A   1      32.466  34.053  27.621  1.00  0.00    -0.352 N 
ATOM     28  C   UNL A   1      32.997  34.910  28.556  1.00  0.00     0.251 C 
ATOM     29  H   UNL A   1      31.699  34.414  27.121  1.00  0.00     0.163 HD
ATOM     30  O   UNL A   1      32.440  35.982  28.783  1.00  0.00    -0.269 OA
BRANCH  28  31
ATOM     31  C   UNL A   1      34.203  34.540  29.331  1.00  0.00     0.039 A 
ATOM     32  C   UNL A   1      34.037  34.016  30.617  1.00  0.00     0.014 A 
ATOM     33  C   UNL A   1      35.488  34.690  28.804  1.00  0.00     0.014 A 
ATOM     34  C   UNL A   1      35.143  33.539  31.323  1.00  0.00     0.010 A 
ATOM     35  C   UNL A   1      36.582  34.145  29.475  1.00  0.00     0.010 A 
ATOM     36  C   UNL A   1      36.416  33.541  30.731  1.00  0.00    -0.014 A 
BRANCH  36  37
ATOM     37  C   UNL A   1      37.566  32.851  31.374  1.00  0.00     0.031 A 
ATOM     38  C   UNL A   1      38.208  31.657  30.728  1.00  0.00     0.074 A 
ATOM     39  C   UNL A   1      37.971  33.252  32.596  1.00  0.00     0.049 A 
ATOM     40  N   UNL A   1      39.155  30.877  31.188  1.00  0.00    -0.248 NA
ATOM     41  C   UNL A   1      37.709  31.273  29.400  1.00  0.00     0.031 C 
ATOM     42  C   UNL A   1      37.395  34.364  33.354  1.00  0.00     0.029 A 
ATOM     43  N   UNL A   1      38.949  32.760  33.426  1.00  0.00    -0.354 N 
ATOM     44  C   UNL A   1      39.354  29.907  30.216  1.00  0.00     0.074 A 
ATOM     45  C   UNL A   1      38.402  30.171  29.157  1.00  0.00     0.031 C 
ATOM     46  C   UNL A   1      38.035  34.477  34.528  1.00  0.00     0.029 A 
ATOM     47  C   UNL A   1      39.036  33.421  34.628  1.00  0.00     0.049 A 
ATOM     48  H   UNL A   1      39.531  32.005  33.183  1.00  0.00     0.167 HD
ATOM     49  C   UNL A   1      40.260  28.900  30.201  1.00  0.00     0.037 A 
ATOM     50  C   UNL A   1      39.818  33.190  35.699  1.00  0.00     0.037 A 
ATOM     51  C   UNL A   1      41.219  28.653  31.246  1.00  0.00     0.049 A 
ATOM     52  C   UNL A   1      40.801  32.053  35.663  1.00  0.00     0.074 A 
ATOM     53  C   UNL A   1      42.230  27.707  31.281  1.00  0.00     0.029 A 
ATOM     54  N   UNL A   1      41.281  29.348  32.444  1.00  0.00    -0.354 N 
ATOM     55  N   UNL A   1      41.035  31.193  34.702  1.00  0.00    -0.248 NA
ATOM     56  C   UNL A   1      41.629  31.853  36.861  1.00  0.00     0.031 C 
ATOM     57  C   UNL A   1      42.869  27.794  32.523  1.00  0.00     0.029 A 
ATOM     58  C   UNL A   1      42.290  28.828  33.241  1.00  0.00     0.049 A 
ATOM     59  H   UNL A   1      40.696  30.099  32.694  1.00  0.00     0.167 HD
ATOM     60  C   UNL A   1      42.045  30.364  35.170  1.00  0.00     0.074 A 
ATOM     61  C   UNL A   1      42.396  30.837  36.492  1.00  0.00     0.031 C 
ATOM     62  C   UNL A   1      42.626  29.304  34.559  1.00  0.00     0.037 A 
BRANCH  49  63
ATOM     63  C   UNL A   1      40.264  27.981  29.014  1.00  0.00     0.064 A 
ATOM     64  C   UNL A   1      41.001  28.277  27.857  1.00  0.00     0.173 A 
ATOM     65  C   UNL A   1      39.575  26.760  29.057  1.00  0.00     0.173 A 
ATOM     66  F   UNL A   1      41.671  29.436  27.763  1.00  0.00    -0.203 F 
ATOM     67  C   UNL A   1      41.030  27.396  26.780  1.00  0.00     0.198 A 
ATOM     68  C   UNL A   1      39.629  25.868  27.990  1.00  0.00     0.198 A 
ATOM     69  F   UNL A   1      38.861  26.423  30.143  1.00  0.00    -0.203 F 
ATOM     70  F   UNL A   1      41.709  27.718  25.671  1.00  0.00    -0.200 F 
ATOM     71  C   UNL A   1      40.351  26.188  26.850  1.00  0.00     0.200 A 
ATOM     72  F   UNL A   1      38.984  24.695  28.065  1.00  0.00    -0.200 F 
ATOM     73  F   UNL A   1      40.391  25.335  25.818  1.00  0.00    -0.200 F 
ENDBRANCH  49  63
BRANCH  50  74
ATOM     74  C   UNL A   1      39.702  34.056  36.903  1.00  0.00     0.064 A 
ATOM     75  C   UNL A   1      38.907  33.673  37.991  1.00  0.00     0.173 A 
ATOM     76  C   UNL A   1      40.377  35.282  36.987  1.00  0.00     0.173 A 
ATOM     77  F   UNL A   1      38.224  32.518  37.948  1.00  0.00    -0.203 F 
ATOM     78  C   UNL A   1      38.773  34.494  39.109  1.00  0.00     0.198 A 
ATOM     79  C   UNL A   1      40.266  36.089  38.118  1.00  0.00     0.198 A 
ATOM     80  F   UNL A   1      41.154  35.693  35.974  1.00  0.00    -0.203 F 
ATOM     81  F   UNL A   1      37.967  34.126  40.115  1.00  0.00    -0.200 F 
ATOM     82  C   UNL A   1      39.457  35.699  39.174  1.00  0.00     0.200 A 
ATOM     83  F   UNL A   1      40.942  37.244  38.183  1.00  0.00    -0.200 F 
ATOM     84  F   UNL A   1      39.332  36.485  40.252  1.00  0.00    -0.200 F 
ENDBRANCH  50  74
BRANCH  62  85
ATOM     85  C   UNL A   1      43.712  28.588  35.309  1.00  0.00     0.064 A 
ATOM     86  C   UNL A   1      45.063  28.926  35.141  1.00  0.00     0.173 A 
ATOM     87  C   UNL A   1      43.397  27.578  36.230  1.00  0.00     0.173 A 
ATOM     88  F   UNL A   1      45.418  29.872  34.259  1.00  0.00    -0.203 F 
ATOM     89  C   UNL A   1      46.060  28.263  35.852  1.00  0.00     0.198 A 
ATOM     90  C   UNL A   1      44.394  26.938  36.961  1.00  0.00     0.198 A 
ATOM     91  F   UNL A   1      42.119  27.220  36.430  1.00  0.00    -0.203 F 
ATOM     92  F   UNL A   1      47.347  28.569  35.641  1.00  0.00    -0.200 F 
ATOM     93  C   UNL A   1      45.724  27.276  36.767  1.00  0.00     0.200 A 
ATOM     94  F   UNL A   1      44.066  25.993  37.853  1.00  0.00    -0.200 F 
ATOM     95  F   UNL A   1      46.685  26.644  37.455  1.00  0.00    -0.200 F 
ENDBRANCH  62  85
ENDBRANCH  36  37
ENDBRANCH  28  31
ENDBRANCH  26  27
ENDBRANCH  25  26
ENDBRANCH   1  25
TORSDOF 14
ENDMDL
MODEL 2
REMARK VINA RESULT:     -12.5      5.926     11.232
REMARK SMILES CC1(C)C(CNC(=O)N2C[C@H](O)C[C@@H]2C(=O)NCCCNC(=O)c2ccc(-c3c4nc(c(-c5c(F)c(F)c(F)c(F)c5F)c5ccc([nH]5)c(-c5c(F)c(F)c(F)c(F)c5F)c5nc(c(-c6c(F)c(F)c(F)c(F)c6F)c6ccc3[nH]6)C=C5)C=C4)cc2)C1(C)C
REMARK SMILES IDX 18 1 17 2 15 3 16 4 14 6 9 7 10 8 11 9 13 10 7 11 6 12 8 14
REMARK SMILES IDX 5 15 4 16 1 17 2 18 3 19 87 20 88 21 89 22 12 23 19 25 20 26
REMARK SMILES IDX 21 27 22 28 23 30 24 31 25 32 86 33 26 34 85 35 27 36 28 37
REMARK SMILES IDX 29 38 79 39 30 40 84 41 78 42 80 43 31 44 83 45 77 46 76 47
REMARK SMILES IDX 32 49 64 50 44 51 63 52 45 53 48 54 62 55 81 56 46 57 47 58
REMARK SMILES IDX 61 60 82 61 49 62 33 63 34 64 42 65 35 66 36 67 40 68 43 69
REMARK SMILES IDX 37 70 38 71 41 72 39 73 65 74 66 75 74 76 67 77 68 78 72 79
REMARK SMILES IDX 75 80 69 81 70 82 73 83 71 84 50 85 51 86 59 87 52 88 53 89
REMARK SMILES IDX 57 90 60 91 54 92 55 93 58 94 56 95
REMARK H PARENT 17 5 6 13 12 24 21 29 80 48 48 59
REMARK Flexibility Score: inf
ROOT
ATOM      1  C   UNL A   1      37.541  21.749  24.909  1.00  0.00     0.117 C 
ENDROOT
BRANCH   1   2
ATOM      2  N   UNL A   1      36.547  22.012  25.934  1.00  0.00    -0.354 N 
ATOM      3  C   UNL A   1      35.228  21.648  25.961  1.00  0.00     0.242 C 
ATOM      4  O   UNL A   1      34.639  21.711  27.043  1.00  0.00    -0.273 OA
ATOM      5  H   UNL A   1      36.865  22.522  26.715  1.00  0.00     0.163 HD
BRANCH   3   6
ATOM      6  C   UNL A   1      34.557  21.121  24.675  1.00  0.00     0.179 C 
ATOM      7  N   UNL A   1      33.819  22.197  23.999  1.00  0.00    -0.310 N 
ATOM      8  C   UNL A   1      32.426  21.815  23.802  1.00  0.00     0.154 C 
ATOM      9  C   UNL A   1      32.178  20.874  24.969  1.00  0.00     0.136 C 
ATOM     10  C   UNL A   1      33.480  20.079  25.021  1.00  0.00     0.069 C 
BRANCH   7  11
ATOM     11  C   UNL A   1      34.480  23.215  23.385  1.00  0.00     0.318 C 
ATOM     12  N   UNL A   1      34.162  24.494  23.709  1.00  0.00    -0.338 N 
ATOM     13  H   UNL A   1      34.331  25.169  23.012  1.00  0.00     0.165 HD
ATOM     14  O   UNL A   1      35.390  23.010  22.583  1.00  0.00    -0.249 OA
BRANCH  12  15
ATOM     15  C   UNL A   1      33.607  24.991  24.952  1.00  0.00     0.122 C 
BRANCH  15  16
ATOM     16  C   UNL A   1      33.838  26.463  25.079  1.00  0.00     0.021 C 
ATOM     17  C   UNL A   1      33.706  28.823  23.996  1.00  0.00     0.012 C 
ATOM     18  C   UNL A   1      32.989  27.567  24.455  1.00  0.00    -0.025 C 
ATOM     19  C   UNL A   1      31.829  27.216  23.555  1.00  0.00     0.012 C 
ATOM     20  C   UNL A   1      32.925  27.292  25.975  1.00  0.00    -0.025 C 
ATOM     21  C   UNL A   1      33.616  28.222  26.952  1.00  0.00     0.012 C 
ATOM     22  C   UNL A   1      31.690  26.665  26.590  1.00  0.00     0.012 C 
ENDBRANCH  15  16
ENDBRANCH  12  15
ENDBRANCH   7  11
BRANCH   9  23
ATOM     23  O   UNL A   1      32.002  21.602  26.185  1.00  0.00    -0.391 OA
ATOM     24  H   UNL A   1      31.055  21.719  26.358  1.00  0.00     0.211 HD
ENDBRANCH   9  23
ENDBRANCH   3   6
ENDBRANCH   1   2
BRANCH   1  25
ATOM     25  C   UNL A   1      38.248  20.412  25.069  1.00  0.00     0.042 C 
BRANCH  25  26
ATOM     26  C   UNL A   1      39.286  20.351  26.185  1.00  0.00     0.118 C 
BRANCH  26  27
ATOM     27  N   UNL A   1      40.270  19.291  26.014  1.00  0.00    -0.352 N 
ATOM     28  C   UNL A   1      41.643  19.323  26.095  1.00  0.00     0.251 C 
ATOM     29  H   UNL A   1      39.891  18.407  25.807  1.00  0.00     0.163 HD
ATOM     30  O   UNL A   1      42.292  18.321  25.804  1.00  0.00    -0.269 OA
BRANCH  28  31
ATOM     31  C   UNL A   1      42.355  20.563  26.478  1.00  0.00     0.039 A 
ATOM     32  C   UNL A   1      43.029  21.281  25.485  1.00  0.00     0.014 A 
ATOM     33  C   UNL A   1      42.356  21.031  27.794  1.00  0.00     0.014 A 
ATOM     34  C   UNL A   1      43.602  22.518  25.787  1.00  0.00     0.010 A 
ATOM     35  C   UNL A   1      42.859  22.300  28.079  1.00  0.00     0.010 A 
ATOM     36  C   UNL A   1      43.465  23.067  27.073  1.00  0.00    -0.014 A 
BRANCH  36  37
ATOM     37  C   UNL A   1      43.879  24.466  27.361  1.00  0.00     0.031 A 
ATOM     38  C   UNL A   1      42.873  25.497  27.785  1.00  0.00     0.074 A 
ATOM     39  C   UNL A   1      45.161  24.827  27.147  1.00  0.00     0.049 A 
ATOM     40  N   UNL A   1      43.038  26.781  27.986  1.00  0.00    -0.248 NA
ATOM     41  C   UNL A   1      41.494  25.031  27.991  1.00  0.00     0.031 C 
ATOM     42  C   UNL A   1      46.224  23.934  26.684  1.00  0.00     0.029 A 
ATOM     43  N   UNL A   1      45.785  26.045  27.272  1.00  0.00    -0.354 N 
ATOM     44  C   UNL A   1      41.787  27.276  28.328  1.00  0.00     0.074 A 
ATOM     45  C   UNL A   1      40.863  26.163  28.268  1.00  0.00     0.031 C 
ATOM     46  C   UNL A   1      47.368  24.628  26.575  1.00  0.00     0.029 A 
ATOM     47  C   UNL A   1      47.112  26.023  26.917  1.00  0.00     0.049 A 
ATOM     48  H   UNL A   1      45.324  26.856  27.585  1.00  0.00     0.167 HD
ATOM     49  C   UNL A   1      41.446  28.539  28.676  1.00  0.00     0.037 A 
ATOM     50  C   UNL A   1      48.018  27.016  26.852  1.00  0.00     0.037 A 
ATOM     51  C   UNL A   1      42.372  29.639  28.756  1.00  0.00     0.049 A 
ATOM     52  C   UNL A   1      47.606  28.413  27.226  1.00  0.00     0.074 A 
ATOM     53  C   UNL A   1      42.134  30.937  29.179  1.00  0.00     0.029 A 
ATOM     54  N   UNL A   1      43.709  29.577  28.395  1.00  0.00    -0.354 N 
ATOM     55  N   UNL A   1      46.438  28.852  27.626  1.00  0.00    -0.248 NA
ATOM     56  C   UNL A   1      48.640  29.455  27.138  1.00  0.00     0.031 C 
ATOM     57  C   UNL A   1      43.314  31.672  29.023  1.00  0.00     0.029 A 
ATOM     58  C   UNL A   1      44.300  30.821  28.552  1.00  0.00     0.049 A 
ATOM     59  H   UNL A   1      44.172  28.769  28.075  1.00  0.00     0.167 HD
ATOM     60  C   UNL A   1      46.599  30.212  27.855  1.00  0.00     0.074 A 
ATOM     61  C   UNL A   1      47.983  30.523  27.570  1.00  0.00     0.031 C 
ATOM     62  C   UNL A   1      45.679  31.120  28.260  1.00  0.00     0.037 A 
BRANCH  49  63
ATOM     63  C   UNL A   1      40.007  28.810  29.003  1.00  0.00     0.064 A 
ATOM     64  C   UNL A   1      39.094  29.220  28.019  1.00  0.00     0.173 A 
ATOM     65  C   UNL A   1      39.519  28.596  30.301  1.00  0.00     0.173 A 
ATOM     66  F   UNL A   1      39.511  29.447  26.764  1.00  0.00    -0.203 F 
ATOM     67  C   UNL A   1      37.752  29.427  28.327  1.00  0.00     0.198 A 
ATOM     68  C   UNL A   1      38.171  28.776  30.600  1.00  0.00     0.198 A 
ATOM     69  F   UNL A   1      40.347  28.195  31.277  1.00  0.00    -0.203 F 
ATOM     70  F   UNL A   1      36.907  29.856  27.380  1.00  0.00    -0.200 F 
ATOM     71  C   UNL A   1      37.290  29.197  29.615  1.00  0.00     0.200 A 
ATOM     72  F   UNL A   1      37.724  28.540  31.841  1.00  0.00    -0.200 F 
ATOM     73  F   UNL A   1      35.995  29.383  29.907  1.00  0.00    -0.200 F 
ENDBRANCH  49  63
BRANCH  50  74
ATOM     74  C   UNL A   1      49.409  26.726  26.413  1.00  0.00     0.064 A 
ATOM     75  C   UNL A   1      50.373  26.276  27.324  1.00  0.00     0.173 A 
ATOM     76  C   UNL A   1      49.803  26.900  25.078  1.00  0.00     0.173 A 
ATOM     77  F   UNL A   1      50.049  26.116  28.617  1.00  0.00    -0.203 F 
ATOM     78  C   UNL A   1      51.684  26.030  26.922  1.00  0.00     0.198 A 
ATOM     79  C   UNL A   1      51.107  26.625  24.671  1.00  0.00     0.198 A 
ATOM     80  F   UNL A   1      48.917  27.325  24.165  1.00  0.00    -0.203 F 
ATOM     81  F   UNL A   1      52.598  25.647  27.825  1.00  0.00    -0.200 F 
ATOM     82  C   UNL A   1      52.049  26.200  25.595  1.00  0.00     0.200 A 
ATOM     83  F   UNL A   1      51.451  26.775  23.384  1.00  0.00    -0.200 F 
ATOM     84  F   UNL A   1      53.309  25.958  25.208  1.00  0.00    -0.200 F 
ENDBRANCH  50  74
BRANCH  62  85
ATOM     85  C   UNL A   1      46.143  32.538  28.432  1.00  0.00     0.064 A 
ATOM     86  C   UNL A   1      46.048  33.471  27.389  1.00  0.00     0.173 A 
ATOM     87  C   UNL A   1      46.657  32.976  29.662  1.00  0.00     0.173 A 
ATOM     88  F   UNL A   1      45.581  33.097  26.188  1.00  0.00    -0.203 F 
ATOM     89  C   UNL A   1      46.470  34.786  27.566  1.00  0.00     0.198 A 
ATOM     90  C   UNL A   1      47.049  34.299  29.843  1.00  0.00     0.198 A 
ATOM     91  F   UNL A   1      46.765  32.124  30.692  1.00  0.00    -0.203 F 
ATOM     92  F   UNL A   1      46.414  35.649  26.542  1.00  0.00    -0.200 F 
ATOM     93  C   UNL A   1      46.963  35.201  28.794  1.00  0.00     0.200 A 
ATOM     94  F   UNL A   1      47.514  34.701  31.035  1.00  0.00    -0.200 F 
ATOM     95  F   UNL A   1      47.362  36.469  28.964  1.00  0.00    -0.200 F 
ENDBRANCH  62  85
ENDBRANCH  36  37
ENDBRANCH  28  31
ENDBRANCH  26  27
ENDBRANCH  25  26
ENDBRANCH   1  25
TORSDOF 14
ENDMDL
MODEL 3
REMARK VINA RESULT:     -12.5      0.157      1.600
REMARK SMILES CC1(C)C(CNC(=O)N2C[C@H](O)C[C@@H]2C(=O)NCCCNC(=O)c2ccc(-c3c4nc(c(-c5c(F)c(F)c(F)c(F)c5F)c5ccc([nH]5)c(-c5c(F)c(F)c(F)c(F)c5F)c5nc(c(-c6c(F)c(F)c(F)c(F)c6F)c6ccc3[nH]6)C=C5)C=C4)cc2)C1(C)C
REMARK SMILES IDX 18 1 17 2 15 3 16 4 14 6 9 7 10 8 11 9 13 10 7 11 6 12 8 14
REMARK SMILES IDX 5 15 4 16 1 17 2 18 3 19 87 20 88 21 89 22 12 23 19 25 20 26
REMARK SMILES IDX 21 27 22 28 23 30 24 31 25 32 86 33 26 34 85 35 27 36 28 37
REMARK SMILES IDX 29 38 79 39 30 40 84 41 78 42 80 43 31 44 83 45 77 46 76 47
REMARK SMILES IDX 32 49 64 50 44 51 63 52 45 53 48 54 62 55 81 56 46 57 47 58
REMARK SMILES IDX 61 60 82 61 49 62 33 63 34 64 42 65 35 66 36 67 40 68 43 69
REMARK SMILES IDX 37 70 38 71 41 72 39 73 65 74 66 75 74 76 67 77 68 78 72 79
REMARK SMILES IDX 75 80 69 81 70 82 73 83 71 84 50 85 51 86 59 87 52 88 53 89
REMARK SMILES IDX 57 90 60 91 54 92 55 93 58 94 56 95
REMARK H PARENT 17 5 6 13 12 24 21 29 80 48 48 59
REMARK Flexibility Score: inf
ROOT
ATOM      1  C   UNL A   1      32.074  30.143  26.900  1.00  0.00     0.117 C 
ENDROOT
BRANCH   1   2
ATOM      2  N   UNL A   1      32.877  29.687  25.780  1.00  0.00    -0.354 N 
ATOM      3  C   UNL A   1      32.464  29.103  24.613  1.00  0.00     0.242 C 
ATOM      4  O   UNL A   1      33.267  29.061  23.678  1.00  0.00    -0.273 OA
ATOM      5  H   UNL A   1      33.849  29.813  25.873  1.00  0.00     0.163 HD
BRANCH   3   6
ATOM      6  C   UNL A   1      31.015  28.584  24.492  1.00  0.00     0.179 C 
ATOM      7  N   UNL A   1      30.974  27.124  24.646  1.00  0.00    -0.310 N 
ATOM      8  C   UNL A   1      30.332  26.506  23.492  1.00  0.00     0.154 C 
ATOM      9  C   UNL A   1      30.654  27.487  22.377  1.00  0.00     0.136 C 
ATOM     10  C   UNL A   1      30.474  28.833  23.073  1.00  0.00     0.069 C 
BRANCH   7  11
ATOM     11  C   UNL A   1      31.211  26.545  25.853  1.00  0.00     0.318 C 
ATOM     12  N   UNL A   1      32.130  25.550  25.935  1.00  0.00    -0.338 N 
ATOM     13  H   UNL A   1      32.000  24.903  26.666  1.00  0.00     0.165 HD
ATOM     14  O   UNL A   1      30.653  26.929  26.880  1.00  0.00    -0.249 OA
BRANCH  12  15
ATOM     15  C   UNL A   1      33.280  25.321  25.083  1.00  0.00     0.122 C 
BRANCH  15  16
ATOM     16  C   UNL A   1      34.256  24.406  25.751  1.00  0.00     0.021 C 
ATOM     17  C   UNL A   1      34.689  22.167  26.999  1.00  0.00     0.012 C 
ATOM     18  C   UNL A   1      34.211  22.881  25.749  1.00  0.00    -0.025 C 
ATOM     19  C   UNL A   1      33.063  22.156  25.087  1.00  0.00     0.012 C 
ATOM     20  C   UNL A   1      35.263  23.636  24.905  1.00  0.00    -0.025 C 
ATOM     21  C   UNL A   1      36.707  23.703  25.364  1.00  0.00     0.012 C 
ATOM     22  C   UNL A   1      35.163  23.659  23.394  1.00  0.00     0.012 C 
ENDBRANCH  15  16
ENDBRANCH  12  15
ENDBRANCH   7  11
BRANCH   9  23
ATOM     23  O   UNL A   1      32.006  27.341  21.940  1.00  0.00    -0.391 OA
ATOM     24  H   UNL A   1      32.272  28.128  21.440  1.00  0.00     0.211 HD
ENDBRANCH   9  23
ENDBRANCH   3   6
ENDBRANCH   1   2
BRANCH   1  25
ATOM     25  C   UNL A   1      31.773  31.634  26.872  1.00  0.00     0.042 C 
BRANCH  25  26
ATOM     26  C   UNL A   1      32.937  32.543  27.251  1.00  0.00     0.118 C 
BRANCH  26  27
ATOM     27  N   UNL A   1      32.534  33.897  27.606  1.00  0.00    -0.352 N 
ATOM     28  C   UNL A   1      33.040  34.765  28.545  1.00  0.00     0.251 C 
ATOM     29  H   UNL A   1      31.774  34.249  27.088  1.00  0.00     0.163 HD
ATOM     30  O   UNL A   1      32.470  35.833  28.754  1.00  0.00    -0.269 OA
BRANCH  28  31
ATOM     31  C   UNL A   1      34.234  34.409  29.345  1.00  0.00     0.039 A 
ATOM     32  C   UNL A   1      34.047  33.863  30.619  1.00  0.00     0.014 A 
ATOM     33  C   UNL A   1      35.528  34.595  28.853  1.00  0.00     0.014 A 
ATOM     34  C   UNL A   1      35.145  33.401  31.347  1.00  0.00     0.010 A 
ATOM     35  C   UNL A   1      36.616  34.063  29.545  1.00  0.00     0.010 A 
ATOM     36  C   UNL A   1      36.433  33.438  30.787  1.00  0.00    -0.014 A 
BRANCH  36  37
ATOM     37  C   UNL A   1      37.581  32.764  31.450  1.00  0.00     0.031 A 
ATOM     38  C   UNL A   1      38.253  31.582  30.812  1.00  0.00     0.074 A 
ATOM     39  C   UNL A   1      37.956  33.167  32.680  1.00  0.00     0.049 A 
ATOM     40  N   UNL A   1      39.203  30.816  31.288  1.00  0.00    -0.248 NA
ATOM     41  C   UNL A   1      37.785  31.196  29.473  1.00  0.00     0.031 C 
ATOM     42  C   UNL A   1      37.348  34.268  33.431  1.00  0.00     0.029 A 
ATOM     43  N   UNL A   1      38.926  32.688  33.527  1.00  0.00    -0.354 N 
ATOM     44  C   UNL A   1      39.436  29.853  30.316  1.00  0.00     0.074 A 
ATOM     45  C   UNL A   1      38.501  30.105  29.240  1.00  0.00     0.031 C 
ATOM     46  C   UNL A   1      37.964  34.387  34.617  1.00  0.00     0.029 A 
ATOM     47  C   UNL A   1      38.980  33.346  34.732  1.00  0.00     0.049 A 
ATOM     48  H   UNL A   1      39.524  31.942  33.293  1.00  0.00     0.167 HD
ATOM     49  C   UNL A   1      40.358  28.860  30.315  1.00  0.00     0.037 A 
ATOM     50  C   UNL A   1      39.744  33.124  35.818  1.00  0.00     0.037 A 
ATOM     51  C   UNL A   1      41.301  28.624  31.378  1.00  0.00     0.049 A 
ATOM     52  C   UNL A   1      40.745  32.002  35.796  1.00  0.00     0.074 A 
ATOM     53  C   UNL A   1      42.326  27.694  31.429  1.00  0.00     0.029 A 
ATOM     54  N   UNL A   1      41.330  29.316  32.579  1.00  0.00    -0.354 N 
ATOM     55  N   UNL A   1      41.012  31.149  34.838  1.00  0.00    -0.248 NA
ATOM     56  C   UNL A   1      41.554  31.811  37.009  1.00  0.00     0.031 C 
ATOM     57  C   UNL A   1      42.940  27.787  32.683  1.00  0.00     0.029 A 
ATOM     58  C   UNL A   1      42.331  28.809  33.393  1.00  0.00     0.049 A 
ATOM     59  H   UNL A   1      40.728  30.057  32.820  1.00  0.00     0.167 HD
ATOM     60  C   UNL A   1      42.026  30.335  35.322  1.00  0.00     0.074 A 
ATOM     61  C   UNL A   1      42.344  30.808  36.652  1.00  0.00     0.031 C 
ATOM     62  C   UNL A   1      42.635  29.286  34.718  1.00  0.00     0.037 A 
BRANCH  49  63
ATOM     63  C   UNL A   1      40.399  27.946  29.126  1.00  0.00     0.064 A 
ATOM     64  C   UNL A   1      39.640  26.767  29.078  1.00  0.00     0.173 A 
ATOM     65  C   UNL A   1      41.158  28.282  27.995  1.00  0.00     0.173 A 
ATOM     66  F   UNL A   1      38.903  26.395  30.137  1.00  0.00    -0.203 F 
ATOM     67  C   UNL A   1      39.654  25.949  27.951  1.00  0.00     0.198 A 
ATOM     68  C   UNL A   1      41.149  27.478  26.859  1.00  0.00     0.198 A 
ATOM     69  F   UNL A   1      41.896  29.403  27.985  1.00  0.00    -0.203 F 
ATOM     70  F   UNL A   1      38.951  24.808  27.943  1.00  0.00    -0.200 F 
ATOM     71  C   UNL A   1      40.403  26.309  26.839  1.00  0.00     0.200 A 
ATOM     72  F   UNL A   1      41.861  27.834  25.781  1.00  0.00    -0.200 F 
ATOM     73  F   UNL A   1      40.406  25.528  25.751  1.00  0.00    -0.200 F 
ENDBRANCH  49  63
BRANCH  50  74
ATOM     74  C   UNL A   1      39.592  33.983  37.022  1.00  0.00     0.064 A 
ATOM     75  C   UNL A   1      38.798  33.575  38.101  1.00  0.00     0.173 A 
ATOM     76  C   UNL A   1      40.231  35.228  37.114  1.00  0.00     0.173 A 
ATOM     77  F   UNL A   1      38.149  32.402  38.050  1.00  0.00    -0.203 F 
ATOM     78  C   UNL A   1      38.630  34.389  39.220  1.00  0.00     0.198 A 
ATOM     79  C   UNL A   1      40.086  36.029  38.246  1.00  0.00     0.198 A 
ATOM     80  F   UNL A   1      41.006  35.663  36.110  1.00  0.00    -0.203 F 
ATOM     81  F   UNL A   1      37.825  33.997  40.217  1.00  0.00    -0.200 F 
ATOM     82  C   UNL A   1      39.279  35.613  39.293  1.00  0.00     0.200 A 
ATOM     83  F   UNL A   1      40.728  37.203  38.320  1.00  0.00    -0.200 F 
ATOM     84  F   UNL A   1      39.121  36.394  40.371  1.00  0.00    -0.200 F 
ENDBRANCH  50  74
BRANCH  62  85
ATOM     85  C   UNL A   1      43.717  28.584  35.487  1.00  0.00     0.064 A 
ATOM     86  C   UNL A   1      43.423  27.547  36.384  1.00  0.00     0.173 A 
ATOM     87  C   UNL A   1      45.064  28.930  35.300  1.00  0.00     0.173 A 
ATOM     88  F   UNL A   1      42.150  27.191  36.612  1.00  0.00    -0.203 F 
ATOM     89  C   UNL A   1      44.437  26.896  37.082  1.00  0.00     0.198 A 
ATOM     90  C   UNL A   1      46.077  28.256  35.976  1.00  0.00     0.198 A 
ATOM     91  F   UNL A   1      45.398  29.913  34.450  1.00  0.00    -0.203 F 
ATOM     92  F   UNL A   1      44.131  25.939  37.969  1.00  0.00    -0.200 F 
ATOM     93  C   UNL A   1      45.763  27.245  36.872  1.00  0.00     0.200 A 
ATOM     94  F   UNL A   1      47.358  28.587  35.763  1.00  0.00    -0.200 F 
ATOM     95  F   UNL A   1      46.738  26.612  37.539  1.00  0.00    -0.200 F 
ENDBRANCH  62  85
ENDBRANCH  36  37
ENDBRANCH  28  31
ENDBRANCH  26  27
ENDBRANCH  25  26
ENDBRANCH   1  25
TORSDOF 14
ENDMDL
