MODEL 1
REMARK VINA RESULT:     -10.7      0.000      0.000
REMARK SMILES C=CC[N@@H+](CC(=O)NCCCNC(=O)c1ccc(-c2c3nc(c(-c4c(F)c(F)c(F)c(F)c4F)c4ccc([nH]4)c(-c4c(F)c(F)c(F)c(F)c4F)c4nc(c(-c5c(F)c(F)c(F)c(F)c5F)c5ccc2[nH]5)C=C4)C=C3)cc1)C[C@H]1CCC[C@H](C)C1
REMARK SMILES IDX 9 1 8 2 6 3 7 4 5 6 4 7 3 9 2 10 1 11 78 12 79 13 80 14
REMARK SMILES IDX 85 15 81 16 83 17 82 18 84 19 10 20 11 21 12 22 13 23 14 25
REMARK SMILES IDX 15 26 16 27 77 28 17 29 76 30 18 31 19 32 20 33 70 34 21 35
REMARK SMILES IDX 75 36 69 37 71 38 22 39 74 40 68 41 67 42 23 44 55 45 35 46
REMARK SMILES IDX 54 47 36 48 39 49 53 50 72 51 37 52 38 53 52 55 73 56 40 57
REMARK SMILES IDX 24 58 25 59 33 60 26 61 27 62 31 63 34 64 28 65 29 66 32 67
REMARK SMILES IDX 30 68 56 69 57 70 65 71 58 72 59 73 63 74 66 75 60 76 61 77
REMARK SMILES IDX 64 78 62 79 41 80 42 81 50 82 43 83 44 84 48 85 51 86 45 87
REMARK SMILES IDX 46 88 49 89 47 90
REMARK H PARENT 8 5 4 8 12 24 71 43 39 54
REMARK Flexibility Score: inf
ROOT
ATOM      1  C   UNL A   1      34.033  35.353  28.308  1.00  0.00     0.118 C 
ENDROOT
BRANCH   1   2
ATOM      2  N   UNL A   1      34.226  34.297  29.288  1.00  0.00    -0.351 N 
ATOM      3  C   UNL A   1      34.278  32.939  29.185  1.00  0.00     0.275 C 
ATOM      4  O   UNL A   1      34.425  32.327  30.251  1.00  0.00    -0.269 OA
ATOM      5  H   UNL A   1      34.344  34.629  30.208  1.00  0.00     0.163 HD
BRANCH   3   6
ATOM      6  C   UNL A   1      34.201  32.162  27.848  1.00  0.00     0.363 C 
BRANCH   6   7
ATOM      7  N   UNL A   1      33.749  30.729  27.921  1.00  0.00    -0.324 N 
ATOM      8  H   UNL A   1      33.415  30.461  28.847  1.00  0.00     0.348 HD
BRANCH   7   9
ATOM      9  C   UNL A   1      34.892  29.852  27.731  1.00  0.00     0.290 C 
BRANCH   9  10
ATOM     10  C   UNL A   1      36.266  30.429  27.627  1.00  0.00     0.025 C 
ATOM     11  C   UNL A   1      37.372  29.668  27.635  1.00  0.00     0.010 C 
ENDBRANCH   9  10
ENDBRANCH   7   9
BRANCH   7  12
ATOM     12  C   UNL A   1      32.524  30.525  27.109  1.00  0.00     0.266 C 
BRANCH  12  13
ATOM     13  C   UNL A   1      32.268  29.182  26.391  1.00  0.00     0.044 C 
ATOM     14  C   UNL A   1      31.558  28.129  27.250  1.00  0.00     0.009 C 
ATOM     15  C   UNL A   1      31.409  29.392  25.122  1.00  0.00     0.012 C 
ATOM     16  C   UNL A   1      31.538  26.798  26.499  1.00  0.00     0.001 C 
ATOM     17  C   UNL A   1      31.256  28.099  24.300  1.00  0.00    -0.014 C 
ATOM     18  C   UNL A   1      30.793  26.919  25.170  1.00  0.00     0.003 C 
ATOM     19  C   UNL A   1      32.544  27.774  23.536  1.00  0.00     0.007 C 
ENDBRANCH  12  13
ENDBRANCH   7  12
ENDBRANCH   6   7
ENDBRANCH   3   6
ENDBRANCH   1   2
BRANCH   1  20
ATOM     20  C   UNL A   1      33.104  36.451  28.845  1.00  0.00     0.042 C 
BRANCH  20  21
ATOM     21  C   UNL A   1      33.448  36.969  30.232  1.00  0.00     0.118 C 
BRANCH  21  22
ATOM     22  N   UNL A   1      32.452  36.605  31.224  1.00  0.00    -0.352 N 
ATOM     23  C   UNL A   1      32.470  35.693  32.249  1.00  0.00     0.251 C 
ATOM     24  H   UNL A   1      31.607  37.105  31.147  1.00  0.00     0.163 HD
ATOM     25  O   UNL A   1      31.405  35.448  32.824  1.00  0.00    -0.269 OA
BRANCH  23  26
ATOM     26  C   UNL A   1      33.700  34.978  32.691  1.00  0.00     0.039 A 
ATOM     27  C   UNL A   1      34.937  35.605  32.484  1.00  0.00     0.014 A 
ATOM     28  C   UNL A   1      33.687  33.680  33.204  1.00  0.00     0.014 A 
ATOM     29  C   UNL A   1      36.134  34.953  32.811  1.00  0.00     0.010 A 
ATOM     30  C   UNL A   1      34.872  33.069  33.624  1.00  0.00     0.010 A 
ATOM     31  C   UNL A   1      36.114  33.683  33.405  1.00  0.00    -0.014 A 
BRANCH  31  32
ATOM     32  C   UNL A   1      37.373  32.960  33.738  1.00  0.00     0.031 A 
ATOM     33  C   UNL A   1      38.088  33.239  35.037  1.00  0.00     0.074 A 
ATOM     34  C   UNL A   1      37.900  32.077  32.869  1.00  0.00     0.049 A 
ATOM     35  N   UNL A   1      39.224  32.762  35.482  1.00  0.00    -0.248 NA
ATOM     36  C   UNL A   1      37.452  34.207  35.944  1.00  0.00     0.031 C 
ATOM     37  C   UNL A   1      37.331  31.727  31.568  1.00  0.00     0.029 A 
ATOM     38  N   UNL A   1      39.039  31.313  32.950  1.00  0.00    -0.354 N 
ATOM     39  C   UNL A   1      39.446  33.384  36.704  1.00  0.00     0.074 A 
ATOM     40  C   UNL A   1      38.357  34.316  36.904  1.00  0.00     0.031 C 
ATOM     41  C   UNL A   1      38.101  30.793  30.989  1.00  0.00     0.029 A 
ATOM     42  C   UNL A   1      39.239  30.505  31.856  1.00  0.00     0.049 A 
ATOM     43  H   UNL A   1      39.654  31.341  33.718  1.00  0.00     0.167 HD
ATOM     44  C   UNL A   1      40.447  33.183  37.594  1.00  0.00     0.037 A 
ATOM     45  C   UNL A   1      40.228  29.632  31.584  1.00  0.00     0.037 A 
ATOM     46  C   UNL A   1      41.515  32.234  37.416  1.00  0.00     0.049 A 
ATOM     47  C   UNL A   1      41.341  29.438  32.579  1.00  0.00     0.074 A 
ATOM     48  C   UNL A   1      42.549  31.922  38.282  1.00  0.00     0.029 A 
ATOM     49  N   UNL A   1      41.683  31.439  36.292  1.00  0.00    -0.354 N 
ATOM     50  N   UNL A   1      41.514  30.000  33.749  1.00  0.00    -0.248 NA
ATOM     51  C   UNL A   1      42.396  28.483  32.210  1.00  0.00     0.031 C 
ATOM     52  C   UNL A   1      43.364  30.966  37.665  1.00  0.00     0.029 A 
ATOM     53  C   UNL A   1      42.813  30.649  36.434  1.00  0.00     0.049 A 
ATOM     54  H   UNL A   1      41.087  31.436  35.509  1.00  0.00     0.167 HD
ATOM     55  C   UNL A   1      42.675  29.445  34.271  1.00  0.00     0.074 A 
ATOM     56  C   UNL A   1      43.163  28.497  33.292  1.00  0.00     0.031 C 
ATOM     57  C   UNL A   1      43.281  29.700  35.458  1.00  0.00     0.037 A 
BRANCH  44  58
ATOM     58  C   UNL A   1      40.431  34.012  38.848  1.00  0.00     0.064 A 
ATOM     59  C   UNL A   1      41.104  35.242  38.926  1.00  0.00     0.173 A 
ATOM     60  C   UNL A   1      39.730  33.577  39.983  1.00  0.00     0.173 A 
ATOM     61  F   UNL A   1      41.800  35.698  37.873  1.00  0.00    -0.203 F 
ATOM     62  C   UNL A   1      41.112  35.983  40.105  1.00  0.00     0.198 A 
ATOM     63  C   UNL A   1      39.713  34.337  41.150  1.00  0.00     0.198 A 
ATOM     64  F   UNL A   1      39.062  32.415  39.961  1.00  0.00    -0.203 F 
ATOM     65  F   UNL A   1      41.815  37.122  40.174  1.00  0.00    -0.200 F 
ATOM     66  C   UNL A   1      40.413  35.531  41.214  1.00  0.00     0.200 A 
ATOM     67  F   UNL A   1      39.027  33.907  42.218  1.00  0.00    -0.200 F 
ATOM     68  F   UNL A   1      40.424  36.244  42.349  1.00  0.00    -0.200 F 
ENDBRANCH  44  58
BRANCH  45  69
ATOM     69  C   UNL A   1      40.187  28.838  30.330  1.00  0.00     0.064 A 
ATOM     70  C   UNL A   1      40.822  29.305  29.170  1.00  0.00     0.173 A 
ATOM     71  C   UNL A   1      39.530  27.602  30.263  1.00  0.00     0.173 A 
ATOM     72  F   UNL A   1      41.445  30.492  29.179  1.00  0.00    -0.203 F 
ATOM     73  C   UNL A   1      40.789  28.570  27.986  1.00  0.00     0.198 A 
ATOM     74  C   UNL A   1      39.518  26.856  29.086  1.00  0.00     0.198 A 
ATOM     75  F   UNL A   1      38.909  27.112  31.347  1.00  0.00    -0.203 F 
ATOM     76  F   UNL A   1      41.373  29.056  26.883  1.00  0.00    -0.200 F 
ATOM     77  C   UNL A   1      40.143  27.343  27.948  1.00  0.00     0.200 A 
ATOM     78  F   UNL A   1      38.903  25.667  29.054  1.00  0.00    -0.200 F 
ATOM     79  F   UNL A   1      40.119  26.634  26.811  1.00  0.00    -0.200 F 
ENDBRANCH  45  69
BRANCH  57  80
ATOM     80  C   UNL A   1      44.515  28.912  35.782  1.00  0.00     0.064 A 
ATOM     81  C   UNL A   1      45.795  29.372  35.441  1.00  0.00     0.173 A 
ATOM     82  C   UNL A   1      44.417  27.695  36.477  1.00  0.00     0.173 A 
ATOM     83  F   UNL A   1      45.941  30.520  34.763  1.00  0.00    -0.203 F 
ATOM     84  C   UNL A   1      46.930  28.632  35.763  1.00  0.00     0.198 A 
ATOM     85  C   UNL A   1      45.556  26.973  36.820  1.00  0.00     0.198 A 
ATOM     86  F   UNL A   1      43.217  27.214  36.831  1.00  0.00    -0.203 F 
ATOM     87  F   UNL A   1      48.141  29.069  35.387  1.00  0.00    -0.200 F 
ATOM     88  C   UNL A   1      46.811  27.437  36.457  1.00  0.00     0.200 A 
ATOM     89  F   UNL A   1      45.439  25.824  37.501  1.00  0.00    -0.200 F 
ATOM     90  F   UNL A   1      47.904  26.730  36.771  1.00  0.00    -0.200 F 
ENDBRANCH  57  80
ENDBRANCH  31  32
ENDBRANCH  23  26
ENDBRANCH  21  22
ENDBRANCH  20  21
ENDBRANCH   1  20
TORSDOF 15
ENDMDL
MODEL 2
REMARK VINA RESULT:     -10.6      3.280      9.235
REMARK SMILES C=CC[N@@H+](CC(=O)NCCCNC(=O)c1ccc(-c2c3nc(c(-c4c(F)c(F)c(F)c(F)c4F)c4ccc([nH]4)c(-c4c(F)c(F)c(F)c(F)c4F)c4nc(c(-c5c(F)c(F)c(F)c(F)c5F)c5ccc2[nH]5)C=C4)C=C3)cc1)C[C@H]1CCC[C@H](C)C1
REMARK SMILES IDX 9 1 8 2 6 3 7 4 5 6 4 7 3 9 2 10 1 11 78 12 79 13 80 14
REMARK SMILES IDX 85 15 81 16 83 17 82 18 84 19 10 20 11 21 12 22 13 23 14 25
REMARK SMILES IDX 15 26 16 27 77 28 17 29 76 30 18 31 19 32 20 33 70 34 21 35
REMARK SMILES IDX 75 36 69 37 71 38 22 39 74 40 68 41 67 42 23 44 55 45 35 46
REMARK SMILES IDX 54 47 36 48 39 49 53 50 72 51 37 52 38 53 52 55 73 56 40 57
REMARK SMILES IDX 24 58 25 59 33 60 26 61 27 62 31 63 34 64 28 65 29 66 32 67
REMARK SMILES IDX 30 68 56 69 57 70 65 71 58 72 59 73 63 74 66 75 60 76 61 77
REMARK SMILES IDX 64 78 62 79 41 80 42 81 50 82 43 83 44 84 48 85 51 86 45 87
REMARK SMILES IDX 46 88 49 89 47 90
REMARK H PARENT 8 5 4 8 12 24 71 43 39 54
REMARK Flexibility Score: inf
ROOT
ATOM      1  C   UNL A   1      32.123  28.202  22.777  1.00  0.00     0.118 C 
ENDROOT
BRANCH   1   2
ATOM      2  N   UNL A   1      32.544  27.316  21.704  1.00  0.00    -0.351 N 
ATOM      3  C   UNL A   1      32.872  25.993  21.675  1.00  0.00     0.275 C 
ATOM      4  O   UNL A   1      33.228  25.555  20.572  1.00  0.00    -0.269 OA
ATOM      5  H   UNL A   1      32.602  27.758  20.826  1.00  0.00     0.163 HD
BRANCH   3   6
ATOM      6  C   UNL A   1      32.789  25.045  22.896  1.00  0.00     0.363 C 
BRANCH   6   7
ATOM      7  N   UNL A   1      31.794  23.921  22.816  1.00  0.00    -0.324 N 
ATOM      8  H   UNL A   1      31.629  23.599  21.861  1.00  0.00     0.348 HD
BRANCH   7   9
ATOM      9  C   UNL A   1      30.484  24.405  23.218  1.00  0.00     0.290 C 
BRANCH   9  10
ATOM     10  C   UNL A   1      30.353  25.306  24.401  1.00  0.00     0.025 C 
ATOM     11  C   UNL A   1      29.503  26.345  24.427  1.00  0.00     0.010 C 
ENDBRANCH   9  10
ENDBRANCH   7   9
BRANCH   7  12
ATOM     12  C   UNL A   1      32.343  22.690  23.437  1.00  0.00     0.266 C 
BRANCH  12  13
ATOM     13  C   UNL A   1      33.045  22.745  24.811  1.00  0.00     0.044 C 
ATOM     14  C   UNL A   1      32.152  22.361  25.995  1.00  0.00     0.009 C 
ATOM     15  C   UNL A   1      34.272  21.803  24.839  1.00  0.00     0.012 C 
ATOM     16  C   UNL A   1      32.899  22.639  27.300  1.00  0.00     0.001 C 
ATOM     17  C   UNL A   1      35.084  21.940  26.140  1.00  0.00    -0.014 C 
ATOM     18  C   UNL A   1      34.190  21.828  27.387  1.00  0.00     0.003 C 
ATOM     19  C   UNL A   1      35.908  23.232  26.144  1.00  0.00     0.007 C 
ENDBRANCH  12  13
ENDBRANCH   7  12
ENDBRANCH   6   7
ENDBRANCH   3   6
ENDBRANCH   1   2
BRANCH   1  20
ATOM     20  C   UNL A   1      33.315  28.963  23.373  1.00  0.00     0.042 C 
BRANCH  20  21
ATOM     21  C   UNL A   1      33.403  28.942  24.891  1.00  0.00     0.118 C 
BRANCH  21  22
ATOM     22  N   UNL A   1      32.868  30.149  25.495  1.00  0.00    -0.352 N 
ATOM     23  C   UNL A   1      33.249  30.866  26.602  1.00  0.00     0.251 C 
ATOM     24  H   UNL A   1      32.087  30.522  25.024  1.00  0.00     0.163 HD
ATOM     25  O   UNL A   1      32.490  31.753  27.004  1.00  0.00    -0.269 OA
BRANCH  23  26
ATOM     26  C   UNL A   1      34.516  30.621  27.343  1.00  0.00     0.039 A 
ATOM     27  C   UNL A   1      34.725  29.346  27.891  1.00  0.00     0.014 A 
ATOM     28  C   UNL A   1      35.455  31.620  27.606  1.00  0.00     0.014 A 
ATOM     29  C   UNL A   1      35.863  29.075  28.661  1.00  0.00     0.010 A 
ATOM     30  C   UNL A   1      36.638  31.325  28.288  1.00  0.00     0.010 A 
ATOM     31  C   UNL A   1      36.845  30.058  28.851  1.00  0.00    -0.014 A 
BRANCH  31  32
ATOM     32  C   UNL A   1      38.051  29.800  29.687  1.00  0.00     0.031 A 
ATOM     33  C   UNL A   1      39.156  28.912  29.172  1.00  0.00     0.074 A 
ATOM     34  C   UNL A   1      38.149  30.330  30.921  1.00  0.00     0.049 A 
ATOM     35  N   UNL A   1      40.255  28.517  29.767  1.00  0.00    -0.248 NA
ATOM     36  C   UNL A   1      38.990  28.374  27.812  1.00  0.00     0.031 C 
ATOM     37  C   UNL A   1      37.148  31.186  31.556  1.00  0.00     0.029 A 
ATOM     38  N   UNL A   1      39.142  30.224  31.864  1.00  0.00    -0.354 N 
ATOM     39  C   UNL A   1      40.893  27.673  28.868  1.00  0.00     0.074 A 
ATOM     40  C   UNL A   1      40.034  27.567  27.709  1.00  0.00     0.031 C 
ATOM     41  C   UNL A   1      37.592  31.557  32.767  1.00  0.00     0.029 A 
ATOM     42  C   UNL A   1      38.889  30.934  33.013  1.00  0.00     0.049 A 
ATOM     43  H   UNL A   1      39.958  29.689  31.731  1.00  0.00     0.167 HD
ATOM     44  C   UNL A   1      42.098  27.062  28.980  1.00  0.00     0.037 A 
ATOM     45  C   UNL A   1      39.620  31.068  34.136  1.00  0.00     0.037 A 
ATOM     46  C   UNL A   1      42.972  27.190  30.116  1.00  0.00     0.049 A 
ATOM     47  C   UNL A   1      40.947  30.365  34.247  1.00  0.00     0.074 A 
ATOM     48  C   UNL A   1      44.233  26.649  30.303  1.00  0.00     0.029 A 
ATOM     49  N   UNL A   1      42.676  27.915  31.261  1.00  0.00    -0.354 N 
ATOM     50  N   UNL A   1      41.558  29.607  33.371  1.00  0.00    -0.248 NA
ATOM     51  C   UNL A   1      41.684  30.541  35.507  1.00  0.00     0.031 C 
ATOM     52  C   UNL A   1      44.683  27.017  31.577  1.00  0.00     0.029 A 
ATOM     53  C   UNL A   1      43.722  27.823  32.165  1.00  0.00     0.049 A 
ATOM     54  H   UNL A   1      41.844  28.422  31.408  1.00  0.00     0.167 HD
ATOM     55  C   UNL A   1      42.763  29.243  33.958  1.00  0.00     0.074 A 
ATOM     56  C   UNL A   1      42.800  29.868  35.262  1.00  0.00     0.031 C 
ATOM     57  C   UNL A   1      43.751  28.460  33.456  1.00  0.00     0.037 A 
BRANCH  44  58
ATOM     58  C   UNL A   1      42.539  26.195  27.834  1.00  0.00     0.064 A 
ATOM     59  C   UNL A   1      43.400  26.677  26.835  1.00  0.00     0.173 A 
ATOM     60  C   UNL A   1      42.103  24.865  27.735  1.00  0.00     0.173 A 
ATOM     61  F   UNL A   1      43.837  27.945  26.877  1.00  0.00    -0.203 F 
ATOM     62  C   UNL A   1      43.772  25.875  25.759  1.00  0.00     0.198 A 
ATOM     63  C   UNL A   1      42.503  24.056  26.675  1.00  0.00     0.198 A 
ATOM     64  F   UNL A   1      41.286  24.350  28.665  1.00  0.00    -0.203 F 
ATOM     65  F   UNL A   1      44.543  26.380  24.785  1.00  0.00    -0.200 F 
ATOM     66  C   UNL A   1      43.326  24.565  25.682  1.00  0.00     0.200 A 
ATOM     67  F   UNL A   1      42.082  22.786  26.607  1.00  0.00    -0.200 F 
ATOM     68  F   UNL A   1      43.683  23.795  24.644  1.00  0.00    -0.200 F 
ENDBRANCH  44  58
BRANCH  45  69
ATOM     69  C   UNL A   1      39.134  31.943  35.234  1.00  0.00     0.064 A 
ATOM     70  C   UNL A   1      38.402  31.405  36.302  1.00  0.00     0.173 A 
ATOM     71  C   UNL A   1      39.395  33.319  35.248  1.00  0.00     0.173 A 
ATOM     72  F   UNL A   1      38.108  30.097  36.321  1.00  0.00    -0.203 F 
ATOM     73  C   UNL A   1      37.938  32.216  37.337  1.00  0.00     0.198 A 
ATOM     74  C   UNL A   1      38.952  34.125  36.295  1.00  0.00     0.198 A 
ATOM     75  F   UNL A   1      40.093  33.881  34.249  1.00  0.00    -0.203 F 
ATOM     76  F   UNL A   1      37.210  31.682  38.326  1.00  0.00    -0.200 F 
ATOM     77  C   UNL A   1      38.219  33.573  37.335  1.00  0.00     0.200 A 
ATOM     78  F   UNL A   1      39.235  35.435  36.297  1.00  0.00    -0.200 F 
ATOM     79  F   UNL A   1      37.780  34.350  38.335  1.00  0.00    -0.200 F 
ENDBRANCH  45  69
BRANCH  57  80
ATOM     80  C   UNL A   1      44.974  28.270  34.304  1.00  0.00     0.064 A 
ATOM     81  C   UNL A   1      45.086  27.205  35.209  1.00  0.00     0.173 A 
ATOM     82  C   UNL A   1      46.065  29.145  34.180  1.00  0.00     0.173 A 
ATOM     83  F   UNL A   1      44.065  26.351  35.376  1.00  0.00    -0.203 F 
ATOM     84  C   UNL A   1      46.235  27.038  35.978  1.00  0.00     0.198 A 
ATOM     85  C   UNL A   1      47.222  28.958  34.931  1.00  0.00     0.198 A 
ATOM     86  F   UNL A   1      46.011  30.176  33.324  1.00  0.00    -0.203 F 
ATOM     87  F   UNL A   1      46.302  26.039  36.871  1.00  0.00    -0.200 F 
ATOM     88  C   UNL A   1      47.304  27.909  35.834  1.00  0.00     0.200 A 
ATOM     89  F   UNL A   1      48.259  29.795  34.781  1.00  0.00    -0.200 F 
ATOM     90  F   UNL A   1      48.411  27.743  36.570  1.00  0.00    -0.200 F 
ENDBRANCH  57  80
ENDBRANCH  31  32
ENDBRANCH  23  26
ENDBRANCH  21  22
ENDBRANCH  20  21
ENDBRANCH   1  20
TORSDOF 15
ENDMDL
MODEL 3
REMARK VINA RESULT:     -10.5      0.301      2.018
REMARK SMILES C=CC[N@@H+](CC(=O)NCCCNC(=O)c1ccc(-c2c3nc(c(-c4c(F)c(F)c(F)c(F)c4F)c4ccc([nH]4)c(-c4c(F)c(F)c(F)c(F)c4F)c4nc(c(-c5c(F)c(F)c(F)c(F)c5F)c5ccc2[nH]5)C=C4)C=C3)cc1)C[C@H]1CCC[C@H](C)C1
REMARK SMILES IDX 9 1 8 2 6 3 7 4 5 6 4 7 3 9 2 10 1 11 78 12 79 13 80 14
REMARK SMILES IDX 85 15 81 16 83 17 82 18 84 19 10 20 11 21 12 22 13 23 14 25
REMARK SMILES IDX 15 26 16 27 77 28 17 29 76 30 18 31 19 32 20 33 70 34 21 35
REMARK SMILES IDX 75 36 69 37 71 38 22 39 74 40 68 41 67 42 23 44 55 45 35 46
REMARK SMILES IDX 54 47 36 48 39 49 53 50 72 51 37 52 38 53 52 55 73 56 40 57
REMARK SMILES IDX 24 58 25 59 33 60 26 61 27 62 31 63 34 64 28 65 29 66 32 67
REMARK SMILES IDX 30 68 56 69 57 70 65 71 58 72 59 73 63 74 66 75 60 76 61 77
REMARK SMILES IDX 64 78 62 79 41 80 42 81 50 82 43 83 44 84 48 85 51 86 45 87
REMARK SMILES IDX 46 88 49 89 47 90
REMARK H PARENT 8 5 4 8 12 24 71 43 39 54
REMARK Flexibility Score: inf
ROOT
ATOM      1  C   UNL A   1      34.414  35.314  28.277  1.00  0.00     0.118 C 
ENDROOT
BRANCH   1   2
ATOM      2  N   UNL A   1      34.656  34.191  29.168  1.00  0.00    -0.351 N 
ATOM      3  C   UNL A   1      34.353  32.864  29.086  1.00  0.00     0.275 C 
ATOM      4  O   UNL A   1      34.684  32.179  30.063  1.00  0.00    -0.269 OA
ATOM      5  H   UNL A   1      35.135  34.438  29.992  1.00  0.00     0.163 HD
BRANCH   3   6
ATOM      6  C   UNL A   1      33.675  32.198  27.865  1.00  0.00     0.363 C 
BRANCH   6   7
ATOM      7  N   UNL A   1      33.698  30.696  27.811  1.00  0.00    -0.324 N 
ATOM      8  H   UNL A   1      33.729  30.263  28.735  1.00  0.00     0.348 HD
BRANCH   7   9
ATOM      9  C   UNL A   1      34.946  30.252  27.213  1.00  0.00     0.290 C 
BRANCH   9  10
ATOM     10  C   UNL A   1      35.974  29.569  28.053  1.00  0.00     0.025 C 
ATOM     11  C   UNL A   1      37.286  29.617  27.770  1.00  0.00     0.010 C 
ENDBRANCH   9  10
ENDBRANCH   7   9
BRANCH   7  12
ATOM     12  C   UNL A   1      32.410  30.170  27.296  1.00  0.00     0.266 C 
BRANCH  12  13
ATOM     13  C   UNL A   1      32.357  28.841  26.511  1.00  0.00     0.044 C 
ATOM     14  C   UNL A   1      31.402  27.796  27.097  1.00  0.00     0.009 C 
ATOM     15  C   UNL A   1      31.924  29.085  25.046  1.00  0.00     0.012 C 
ATOM     16  C   UNL A   1      31.584  26.474  26.352  1.00  0.00     0.001 C 
ATOM     17  C   UNL A   1      32.002  27.806  24.193  1.00  0.00    -0.014 C 
ATOM     18  C   UNL A   1      31.277  26.626  24.863  1.00  0.00     0.003 C 
ATOM     19  C   UNL A   1      33.454  27.460  23.847  1.00  0.00     0.007 C 
ENDBRANCH  12  13
ENDBRANCH   7  12
ENDBRANCH   6   7
ENDBRANCH   3   6
ENDBRANCH   1   2
BRANCH   1  20
ATOM     20  C   UNL A   1      33.249  36.181  28.774  1.00  0.00     0.042 C 
BRANCH  20  21
ATOM     21  C   UNL A   1      33.485  36.883  30.101  1.00  0.00     0.118 C 
BRANCH  21  22
ATOM     22  N   UNL A   1      32.497  36.526  31.103  1.00  0.00    -0.352 N 
ATOM     23  C   UNL A   1      32.526  35.627  32.139  1.00  0.00     0.251 C 
ATOM     24  H   UNL A   1      31.648  37.020  31.025  1.00  0.00     0.163 HD
ATOM     25  O   UNL A   1      31.466  35.383  32.723  1.00  0.00    -0.269 OA
BRANCH  23  26
ATOM     26  C   UNL A   1      33.763  34.925  32.583  1.00  0.00     0.039 A 
ATOM     27  C   UNL A   1      34.991  35.577  32.406  1.00  0.00     0.014 A 
ATOM     28  C   UNL A   1      33.766  33.616  33.068  1.00  0.00     0.014 A 
ATOM     29  C   UNL A   1      36.195  34.940  32.735  1.00  0.00     0.010 A 
ATOM     30  C   UNL A   1      34.956  33.017  33.491  1.00  0.00     0.010 A 
ATOM     31  C   UNL A   1      36.189  33.657  33.303  1.00  0.00    -0.014 A 
BRANCH  31  32
ATOM     32  C   UNL A   1      37.457  32.950  33.637  1.00  0.00     0.031 A 
ATOM     33  C   UNL A   1      38.155  33.221  34.947  1.00  0.00     0.074 A 
ATOM     34  C   UNL A   1      38.006  32.088  32.761  1.00  0.00     0.049 A 
ATOM     35  N   UNL A   1      39.294  32.755  35.396  1.00  0.00    -0.248 NA
ATOM     36  C   UNL A   1      37.495  34.166  35.862  1.00  0.00     0.031 C 
ATOM     37  C   UNL A   1      37.455  31.748  31.449  1.00  0.00     0.029 A 
ATOM     38  N   UNL A   1      39.156  31.341  32.841  1.00  0.00    -0.354 N 
ATOM     39  C   UNL A   1      39.494  33.364  36.629  1.00  0.00     0.074 A 
ATOM     40  C   UNL A   1      38.389  34.275  36.832  1.00  0.00     0.031 C 
ATOM     41  C   UNL A   1      38.245  30.834  30.864  1.00  0.00     0.029 A 
ATOM     42  C   UNL A   1      39.380  30.553  31.739  1.00  0.00     0.049 A 
ATOM     43  H   UNL A   1      39.764  31.368  33.616  1.00  0.00     0.167 HD
ATOM     44  C   UNL A   1      40.490  33.165  37.526  1.00  0.00     0.037 A 
ATOM     45  C   UNL A   1      40.385  29.700  31.464  1.00  0.00     0.037 A 
ATOM     46  C   UNL A   1      41.574  32.236  37.345  1.00  0.00     0.049 A 
ATOM     47  C   UNL A   1      41.492  29.508  32.466  1.00  0.00     0.074 A 
ATOM     48  C   UNL A   1      42.605  31.929  38.216  1.00  0.00     0.029 A 
ATOM     49  N   UNL A   1      41.766  31.460  36.211  1.00  0.00    -0.354 N 
ATOM     50  N   UNL A   1      41.644  30.056  33.646  1.00  0.00    -0.248 NA
ATOM     51  C   UNL A   1      42.566  28.576  32.094  1.00  0.00     0.031 C 
ATOM     52  C   UNL A   1      43.442  30.994  37.594  1.00  0.00     0.029 A 
ATOM     53  C   UNL A   1      42.907  30.687  36.353  1.00  0.00     0.049 A 
ATOM     54  H   UNL A   1      41.177  31.459  35.422  1.00  0.00     0.167 HD
ATOM     55  C   UNL A   1      42.809  29.513  34.171  1.00  0.00     0.074 A 
ATOM     56  C   UNL A   1      43.321  28.586  33.184  1.00  0.00     0.031 C 
ATOM     57  C   UNL A   1      43.400  29.760  35.367  1.00  0.00     0.037 A 
BRANCH  44  58
ATOM     58  C   UNL A   1      40.449  33.976  38.792  1.00  0.00     0.064 A 
ATOM     59  C   UNL A   1      39.715  33.554  39.912  1.00  0.00     0.173 A 
ATOM     60  C   UNL A   1      41.154  35.184  38.890  1.00  0.00     0.173 A 
ATOM     61  F   UNL A   1      39.012  32.411  39.867  1.00  0.00    -0.203 F 
ATOM     62  C   UNL A   1      39.654  34.331  41.066  1.00  0.00     0.198 A 
ATOM     63  C   UNL A   1      41.118  35.943  40.057  1.00  0.00     0.198 A 
ATOM     64  F   UNL A   1      41.879  35.631  37.853  1.00  0.00    -0.203 F 
ATOM     65  F   UNL A   1      38.895  33.938  42.097  1.00  0.00    -0.200 F 
ATOM     66  C   UNL A   1      40.360  35.523  41.138  1.00  0.00     0.200 A 
ATOM     67  F   UNL A   1      41.810  37.088  40.131  1.00  0.00    -0.200 F 
ATOM     68  F   UNL A   1      40.298  36.272  42.248  1.00  0.00    -0.200 F 
ENDBRANCH  44  58
BRANCH  45  69
ATOM     69  C   UNL A   1      40.369  28.923  30.198  1.00  0.00     0.064 A 
ATOM     70  C   UNL A   1      39.729  27.677  30.135  1.00  0.00     0.173 A 
ATOM     71  C   UNL A   1      40.977  29.405  29.031  1.00  0.00     0.173 A 
ATOM     72  F   UNL A   1      39.153  27.164  31.231  1.00  0.00    -0.203 F 
ATOM     73  C   UNL A   1      39.709  26.937  28.954  1.00  0.00     0.198 A 
ATOM     74  C   UNL A   1      40.936  28.676  27.844  1.00  0.00     0.198 A 
ATOM     75  F   UNL A   1      41.601  30.593  29.040  1.00  0.00    -0.203 F 
ATOM     76  F   UNL A   1      39.121  25.734  28.931  1.00  0.00    -0.200 F 
ATOM     77  C   UNL A   1      40.306  27.441  27.808  1.00  0.00     0.200 A 
ATOM     78  F   UNL A   1      41.503  29.169  26.736  1.00  0.00    -0.200 F 
ATOM     79  F   UNL A   1      40.279  26.732  26.671  1.00  0.00    -0.200 F 
ENDBRANCH  45  69
BRANCH  57  80
ATOM     80  C   UNL A   1      44.643  28.986  35.693  1.00  0.00     0.064 A 
ATOM     81  C   UNL A   1      44.590  27.741  36.336  1.00  0.00     0.173 A 
ATOM     82  C   UNL A   1      45.904  29.482  35.322  1.00  0.00     0.173 A 
ATOM     83  F   UNL A   1      43.412  27.231  36.724  1.00  0.00    -0.203 F 
ATOM     84  C   UNL A   1      45.756  27.032  36.617  1.00  0.00     0.198 A 
ATOM     85  C   UNL A   1      47.063  28.757  35.582  1.00  0.00     0.198 A 
ATOM     86  F   UNL A   1      46.008  30.665  34.700  1.00  0.00    -0.203 F 
ATOM     87  F   UNL A   1      45.685  25.864  37.273  1.00  0.00    -0.200 F 
ATOM     88  C   UNL A   1      46.989  27.536  36.234  1.00  0.00     0.200 A 
ATOM     89  F   UNL A   1      48.253  29.241  35.201  1.00  0.00    -0.200 F 
ATOM     90  F   UNL A   1      48.108  26.850  36.501  1.00  0.00    -0.200 F 
ENDBRANCH  57  80
ENDBRANCH  31  32
ENDBRANCH  23  26
ENDBRANCH  21  22
ENDBRANCH  20  21
ENDBRANCH   1  20
TORSDOF 15
ENDMDL
