MODEL 1
REMARK VINA RESULT:     -12.8      0.000      0.000
REMARK SMILES COc1cc(/C=C/C(=O)NCCCNC(=O)c2ccc(-c3c4nc(c(-c5c(F)c(F)c(F)c(F)c5F)c5ccc([nH]5)c(-c5c(F)c(F)c(F)c(F)c5F)c5nc(c(-c6c(F)c(F)c(F)c(F)c6F)c6ccc3[nH]6)C=C5)C=C4)cc2)cc(S(=O)(=O)Nc2ccc3c(c2)OCCO3)c1OC
REMARK SMILES IDX 11 1 10 2 8 3 9 4 7 6 6 7 5 8 3 9 4 10 96 11 81 12 80 13
REMARK SMILES IDX 2 14 1 15 97 16 98 17 82 18 83 19 84 20 85 21 86 23 87 24
REMARK SMILES IDX 91 25 88 26 90 27 89 28 92 29 95 30 93 31 94 32 12 33 13 34
REMARK SMILES IDX 14 35 15 36 16 38 17 39 18 40 79 41 19 42 78 43 20 44 21 45
REMARK SMILES IDX 22 46 72 47 23 48 77 49 71 50 73 51 24 52 76 53 70 54 69 55
REMARK SMILES IDX 25 57 57 58 37 59 56 60 38 61 41 62 55 63 74 64 39 65 40 66
REMARK SMILES IDX 54 68 75 69 42 70 26 71 27 72 35 73 28 74 29 75 33 76 36 77
REMARK SMILES IDX 30 78 31 79 34 80 32 81 58 82 59 83 67 84 60 85 61 86 65 87
REMARK SMILES IDX 68 88 62 89 63 90 66 91 64 92 43 93 44 94 52 95 45 96 46 97
REMARK SMILES IDX 50 98 53 99 47 100 48 101 51 102 49 103
REMARK H PARENT 10 5 85 22 14 37 73 56 41 67
REMARK Flexibility Score: inf
ROOT
ATOM      1  C   UNL A   1      37.527  21.180  24.624  1.00  0.00     0.118 C 
ENDROOT
BRANCH   1   2
ATOM      2  N   UNL A   1      38.109  22.290  25.359  1.00  0.00    -0.352 N 
ATOM      3  C   UNL A   1      37.625  23.534  25.617  1.00  0.00     0.244 C 
ATOM      4  O   UNL A   1      38.276  24.304  26.319  1.00  0.00    -0.270 OA
ATOM      5  H   UNL A   1      39.002  22.111  25.732  1.00  0.00     0.163 HD
BRANCH   3   6
ATOM      6  C   UNL A   1      36.266  23.921  25.178  1.00  0.00     0.072 C 
ATOM      7  C   UNL A   1      35.212  24.133  25.984  1.00  0.00     0.014 C 
BRANCH   7   8
ATOM      8  C   UNL A   1      33.896  24.627  25.526  1.00  0.00    -0.020 A 
ATOM      9  C   UNL A   1      31.464  24.794  25.714  1.00  0.00     0.162 A 
ATOM     10  C   UNL A   1      32.720  24.475  26.265  1.00  0.00     0.058 A 
ATOM     11  C   UNL A   1      31.348  25.270  24.392  1.00  0.00     0.181 A 
ATOM     12  C   UNL A   1      32.536  25.517  23.686  1.00  0.00     0.134 A 
ATOM     13  C   UNL A   1      33.793  25.205  24.255  1.00  0.00     0.034 A 
BRANCH   9  14
ATOM     14  O   UNL A   1      30.360  24.423  26.445  1.00  0.00    -0.493 OA
ATOM     15  C   UNL A   1      30.308  23.018  26.699  1.00  0.00     0.278 C 
ENDBRANCH   9  14
BRANCH  11  16
ATOM     16  O   UNL A   1      30.181  25.440  23.701  1.00  0.00    -0.492 OA
ATOM     17  C   UNL A   1      29.221  26.364  24.198  1.00  0.00     0.278 C 
ENDBRANCH  11  16
BRANCH  12  18
ATOM     18  S   UNL A   1      32.569  26.134  22.002  1.00  0.00     0.265 S 
ATOM     19  O   UNL A   1      33.970  26.294  21.654  1.00  0.00    -0.201 OA
ATOM     20  O   UNL A   1      31.725  25.257  21.220  1.00  0.00    -0.201 OA
BRANCH  18  21
ATOM     21  N   UNL A   1      31.861  27.678  21.926  1.00  0.00    -0.279 N 
ATOM     22  H   UNL A   1      31.345  27.942  21.130  1.00  0.00     0.180 HD
BRANCH  21  23
ATOM     23  C   UNL A   1      32.016  28.589  23.010  1.00  0.00     0.053 A 
ATOM     24  C   UNL A   1      30.882  29.290  23.439  1.00  0.00     0.031 A 
ATOM     25  C   UNL A   1      33.206  28.679  23.719  1.00  0.00     0.077 A 
ATOM     26  C   UNL A   1      30.848  29.816  24.728  1.00  0.00     0.052 A 
ATOM     27  C   UNL A   1      33.153  29.128  25.028  1.00  0.00     0.163 A 
ATOM     28  C   UNL A   1      31.947  29.609  25.551  1.00  0.00     0.161 A 
ATOM     29  O   UNL A   1      34.270  28.901  25.788  1.00  0.00    -0.486 OA
ATOM     30  O   UNL A   1      31.757  29.725  26.906  1.00  0.00    -0.486 OA
ATOM     31  C   UNL A   1      34.011  28.928  27.198  1.00  0.00     0.271 C 
ATOM     32  C   UNL A   1      32.545  28.692  27.522  1.00  0.00     0.271 C 
ENDBRANCH  21  23
ENDBRANCH  18  21
ENDBRANCH  12  18
ENDBRANCH   7   8
ENDBRANCH   3   6
ENDBRANCH   1   2
BRANCH   1  33
ATOM     33  C   UNL A   1      38.285  19.884  24.898  1.00  0.00     0.042 C 
BRANCH  33  34
ATOM     34  C   UNL A   1      39.162  19.943  26.146  1.00  0.00     0.118 C 
BRANCH  34  35
ATOM     35  N   UNL A   1      40.334  19.087  26.037  1.00  0.00    -0.352 N 
ATOM     36  C   UNL A   1      41.666  19.411  25.988  1.00  0.00     0.251 C 
ATOM     37  H   UNL A   1      40.141  18.122  25.991  1.00  0.00     0.163 HD
ATOM     38  O   UNL A   1      42.484  18.550  25.680  1.00  0.00    -0.269 OA
BRANCH  36  39
ATOM     39  C   UNL A   1      42.130  20.781  26.305  1.00  0.00     0.039 A 
ATOM     40  C   UNL A   1      42.401  21.103  27.639  1.00  0.00     0.014 A 
ATOM     41  C   UNL A   1      42.227  21.766  25.320  1.00  0.00     0.014 A 
ATOM     42  C   UNL A   1      42.786  22.401  27.979  1.00  0.00     0.010 A 
ATOM     43  C   UNL A   1      42.690  23.039  25.646  1.00  0.00     0.010 A 
ATOM     44  C   UNL A   1      42.945  23.378  26.983  1.00  0.00    -0.014 A 
BRANCH  44  45
ATOM     45  C   UNL A   1      43.323  24.771  27.335  1.00  0.00     0.031 A 
ATOM     46  C   UNL A   1      44.726  25.255  27.089  1.00  0.00     0.074 A 
ATOM     47  C   UNL A   1      42.414  25.585  27.903  1.00  0.00     0.049 A 
ATOM     48  N   UNL A   1      45.259  26.424  27.346  1.00  0.00    -0.248 NA
ATOM     49  C   UNL A   1      45.667  24.288  26.502  1.00  0.00     0.031 C 
ATOM     50  C   UNL A   1      41.039  25.215  28.237  1.00  0.00     0.029 A 
ATOM     51  N   UNL A   1      42.512  26.895  28.303  1.00  0.00    -0.354 N 
ATOM     52  C   UNL A   1      46.592  26.325  26.969  1.00  0.00     0.074 A 
ATOM     53  C   UNL A   1      46.805  24.965  26.524  1.00  0.00     0.031 C 
ATOM     54  C   UNL A   1      40.411  26.279  28.762  1.00  0.00     0.029 A 
ATOM     55  C   UNL A   1      41.348  27.397  28.832  1.00  0.00     0.049 A 
ATOM     56  H   UNL A   1      43.338  27.424  28.218  1.00  0.00     0.167 HD
ATOM     57  C   UNL A   1      47.545  27.287  26.965  1.00  0.00     0.037 A 
ATOM     58  C   UNL A   1      41.071  28.623  29.314  1.00  0.00     0.037 A 
ATOM     59  C   UNL A   1      47.318  28.646  27.382  1.00  0.00     0.049 A 
ATOM     60  C   UNL A   1      42.143  29.678  29.285  1.00  0.00     0.074 A 
ATOM     61  C   UNL A   1      48.199  29.714  27.369  1.00  0.00     0.029 A 
ATOM     62  N   UNL A   1      46.117  29.125  27.887  1.00  0.00    -0.354 N 
ATOM     63  N   UNL A   1      43.381  29.593  28.861  1.00  0.00    -0.248 NA
ATOM     64  C   UNL A   1      41.772  31.009  29.786  1.00  0.00     0.031 C 
ATOM     65  C   UNL A   1      47.545  30.826  27.910  1.00  0.00     0.029 A 
ATOM     66  C   UNL A   1      46.239  30.468  28.204  1.00  0.00     0.049 A 
ATOM     67  H   UNL A   1      45.299  28.589  28.003  1.00  0.00     0.167 HD
ATOM     68  C   UNL A   1      43.925  30.861  29.013  1.00  0.00     0.074 A 
ATOM     69  C   UNL A   1      42.877  31.702  29.552  1.00  0.00     0.031 C 
ATOM     70  C   UNL A   1      45.180  31.292  28.730  1.00  0.00     0.037 A 
BRANCH  57  71
ATOM     71  C   UNL A   1      48.919  26.903  26.492  1.00  0.00     0.064 A 
ATOM     72  C   UNL A   1      49.873  26.354  27.363  1.00  0.00     0.173 A 
ATOM     73  C   UNL A   1      49.280  27.062  25.145  1.00  0.00     0.173 A 
ATOM     74  F   UNL A   1      49.586  26.191  28.663  1.00  0.00    -0.203 F 
ATOM     75  C   UNL A   1      51.146  26.014  26.912  1.00  0.00     0.198 A 
ATOM     76  C   UNL A   1      50.543  26.688  24.691  1.00  0.00     0.198 A 
ATOM     77  F   UNL A   1      48.406  27.574  24.265  1.00  0.00    -0.203 F 
ATOM     78  F   UNL A   1      52.059  25.548  27.777  1.00  0.00    -0.200 F 
ATOM     79  C   UNL A   1      51.478  26.175  25.576  1.00  0.00     0.200 A 
ATOM     80  F   UNL A   1      50.857  26.831  23.396  1.00  0.00    -0.200 F 
ATOM     81  F   UNL A   1      52.702  25.842  25.143  1.00  0.00    -0.200 F 
ENDBRANCH  57  71
BRANCH  58  82
ATOM     82  C   UNL A   1      39.709  28.928  29.827  1.00  0.00     0.064 A 
ATOM     83  C   UNL A   1      38.737  29.500  28.993  1.00  0.00     0.173 A 
ATOM     84  C   UNL A   1      39.351  28.662  31.156  1.00  0.00     0.173 A 
ATOM     85  F   UNL A   1      39.037  29.792  27.719  1.00  0.00    -0.203 F 
ATOM     86  C   UNL A   1      37.469  29.816  29.475  1.00  0.00     0.198 A 
ATOM     87  C   UNL A   1      38.073  28.950  31.629  1.00  0.00     0.198 A 
ATOM     88  F   UNL A   1      40.242  28.110  31.993  1.00  0.00    -0.203 F 
ATOM     89  F   UNL A   1      36.578  30.410  28.670  1.00  0.00    -0.200 F 
ATOM     90  C   UNL A   1      37.136  29.536  30.792  1.00  0.00     0.200 A 
ATOM     91  F   UNL A   1      37.750  28.665  32.898  1.00  0.00    -0.200 F 
ATOM     92  F   UNL A   1      35.916  29.840  31.256  1.00  0.00    -0.200 F 
ENDBRANCH  58  82
BRANCH  70  93
ATOM     93  C   UNL A   1      45.471  32.748  28.955  1.00  0.00     0.064 A 
ATOM     94  C   UNL A   1      45.314  33.700  27.937  1.00  0.00     0.173 A 
ATOM     95  C   UNL A   1      45.893  33.198  30.216  1.00  0.00     0.173 A 
ATOM     96  F   UNL A   1      44.926  33.320  26.711  1.00  0.00    -0.203 F 
ATOM     97  C   UNL A   1      45.604  35.044  28.163  1.00  0.00     0.198 A 
ATOM     98  C   UNL A   1      46.149  34.546  30.447  1.00  0.00     0.198 A 
ATOM     99  F   UNL A   1      46.051  32.329  31.226  1.00  0.00    -0.203 F 
ATOM    100  F   UNL A   1      45.505  35.926  27.160  1.00  0.00    -0.200 F 
ATOM    101  C   UNL A   1      46.016  35.465  29.419  1.00  0.00     0.200 A 
ATOM    102  F   UNL A   1      46.531  34.954  31.666  1.00  0.00    -0.200 F 
ATOM    103  F   UNL A   1      46.291  36.758  29.635  1.00  0.00    -0.200 F 
ENDBRANCH  70  93
ENDBRANCH  44  45
ENDBRANCH  36  39
ENDBRANCH  34  35
ENDBRANCH  33  34
ENDBRANCH   1  33
TORSDOF 16
ENDMDL
MODEL 2
REMARK VINA RESULT:     -12.8      0.608      7.078
REMARK SMILES COc1cc(/C=C/C(=O)NCCCNC(=O)c2ccc(-c3c4nc(c(-c5c(F)c(F)c(F)c(F)c5F)c5ccc([nH]5)c(-c5c(F)c(F)c(F)c(F)c5F)c5nc(c(-c6c(F)c(F)c(F)c(F)c6F)c6ccc3[nH]6)C=C5)C=C4)cc2)cc(S(=O)(=O)Nc2ccc3c(c2)OCCO3)c1OC
REMARK SMILES IDX 11 1 10 2 8 3 9 4 7 6 6 7 5 8 3 9 4 10 96 11 81 12 80 13
REMARK SMILES IDX 2 14 1 15 97 16 98 17 82 18 83 19 84 20 85 21 86 23 87 24
REMARK SMILES IDX 91 25 88 26 90 27 89 28 92 29 95 30 93 31 94 32 12 33 13 34
REMARK SMILES IDX 14 35 15 36 16 38 17 39 18 40 79 41 19 42 78 43 20 44 21 45
REMARK SMILES IDX 22 46 72 47 23 48 77 49 71 50 73 51 24 52 76 53 70 54 69 55
REMARK SMILES IDX 25 57 57 58 37 59 56 60 38 61 41 62 55 63 74 64 39 65 40 66
REMARK SMILES IDX 54 68 75 69 42 70 26 71 27 72 35 73 28 74 29 75 33 76 36 77
REMARK SMILES IDX 30 78 31 79 34 80 32 81 58 82 59 83 67 84 60 85 61 86 65 87
REMARK SMILES IDX 68 88 62 89 63 90 66 91 64 92 43 93 44 94 52 95 45 96 46 97
REMARK SMILES IDX 50 98 53 99 47 100 48 101 51 102 49 103
REMARK H PARENT 10 5 85 22 14 37 73 56 41 67
REMARK Flexibility Score: inf
ROOT
ATOM      1  C   UNL A   1      37.574  20.974  24.647  1.00  0.00     0.118 C 
ENDROOT
BRANCH   1   2
ATOM      2  N   UNL A   1      38.156  22.131  25.305  1.00  0.00    -0.352 N 
ATOM      3  C   UNL A   1      37.646  23.370  25.535  1.00  0.00     0.244 C 
ATOM      4  O   UNL A   1      38.305  24.189  26.171  1.00  0.00    -0.270 OA
ATOM      5  H   UNL A   1      39.071  21.995  25.640  1.00  0.00     0.163 HD
BRANCH   3   6
ATOM      6  C   UNL A   1      36.255  23.697  25.149  1.00  0.00     0.072 C 
ATOM      7  C   UNL A   1      35.371  24.375  25.901  1.00  0.00     0.014 C 
BRANCH   7   8
ATOM      8  C   UNL A   1      34.025  24.784  25.445  1.00  0.00    -0.020 A 
ATOM      9  C   UNL A   1      31.585  24.745  25.597  1.00  0.00     0.162 A 
ATOM     10  C   UNL A   1      32.855  24.501  26.154  1.00  0.00     0.058 A 
ATOM     11  C   UNL A   1      31.450  25.276  24.298  1.00  0.00     0.181 A 
ATOM     12  C   UNL A   1      32.623  25.652  23.626  1.00  0.00     0.134 A 
ATOM     13  C   UNL A   1      33.893  25.414  24.202  1.00  0.00     0.034 A 
BRANCH   9  14
ATOM     14  O   UNL A   1      30.506  24.250  26.290  1.00  0.00    -0.493 OA
ATOM     15  C   UNL A   1      30.538  22.829  26.429  1.00  0.00     0.278 C 
ENDBRANCH   9  14
BRANCH  11  16
ATOM     16  O   UNL A   1      30.283  25.385  23.595  1.00  0.00    -0.492 OA
ATOM     17  C   UNL A   1      29.313  26.333  24.025  1.00  0.00     0.278 C 
ENDBRANCH  11  16
BRANCH  12  18
ATOM     18  S   UNL A   1      32.629  26.352  21.975  1.00  0.00     0.265 S 
ATOM     19  O   UNL A   1      34.023  26.565  21.627  1.00  0.00    -0.201 OA
ATOM     20  O   UNL A   1      31.802  25.495  21.155  1.00  0.00    -0.201 OA
BRANCH  18  21
ATOM     21  N   UNL A   1      31.883  27.880  21.980  1.00  0.00    -0.279 N 
ATOM     22  H   UNL A   1      31.347  28.167  21.206  1.00  0.00     0.180 HD
BRANCH  21  23
ATOM     23  C   UNL A   1      32.033  28.745  23.102  1.00  0.00     0.053 A 
ATOM     24  C   UNL A   1      30.896  29.420  23.562  1.00  0.00     0.031 A 
ATOM     25  C   UNL A   1      33.224  28.812  23.814  1.00  0.00     0.077 A 
ATOM     26  C   UNL A   1      30.860  29.890  24.872  1.00  0.00     0.052 A 
ATOM     27  C   UNL A   1      33.170  29.204  25.140  1.00  0.00     0.163 A 
ATOM     28  C   UNL A   1      31.961  29.655  25.685  1.00  0.00     0.161 A 
ATOM     29  O   UNL A   1      34.288  28.952  25.889  1.00  0.00    -0.486 OA
ATOM     30  O   UNL A   1      31.772  29.712  27.044  1.00  0.00    -0.486 OA
ATOM     31  C   UNL A   1      34.031  28.917  27.299  1.00  0.00     0.271 C 
ATOM     32  C   UNL A   1      32.567  28.659  27.614  1.00  0.00     0.271 C 
ENDBRANCH  21  23
ENDBRANCH  18  21
ENDBRANCH  12  18
ENDBRANCH   7   8
ENDBRANCH   3   6
ENDBRANCH   1   2
BRANCH   1  33
ATOM     33  C   UNL A   1      38.338  19.701  25.001  1.00  0.00     0.042 C 
BRANCH  33  34
ATOM     34  C   UNL A   1      39.299  19.873  26.174  1.00  0.00     0.118 C 
BRANCH  34  35
ATOM     35  N   UNL A   1      40.427  18.957  26.101  1.00  0.00    -0.352 N 
ATOM     36  C   UNL A   1      41.772  19.213  26.025  1.00  0.00     0.251 C 
ATOM     37  H   UNL A   1      40.187  18.002  26.108  1.00  0.00     0.163 HD
ATOM     38  O   UNL A   1      42.546  18.298  25.756  1.00  0.00    -0.269 OA
BRANCH  36  39
ATOM     39  C   UNL A   1      42.306  20.573  26.265  1.00  0.00     0.039 A 
ATOM     40  C   UNL A   1      42.464  21.005  27.586  1.00  0.00     0.014 A 
ATOM     41  C   UNL A   1      42.576  21.449  25.211  1.00  0.00     0.014 A 
ATOM     42  C   UNL A   1      42.911  22.302  27.847  1.00  0.00     0.010 A 
ATOM     43  C   UNL A   1      43.100  22.714  25.470  1.00  0.00     0.010 A 
ATOM     44  C   UNL A   1      43.243  23.165  26.790  1.00  0.00    -0.014 A 
BRANCH  44  45
ATOM     45  C   UNL A   1      43.689  24.556  27.053  1.00  0.00     0.031 A 
ATOM     46  C   UNL A   1      42.709  25.576  27.568  1.00  0.00     0.074 A 
ATOM     47  C   UNL A   1      44.963  24.909  26.799  1.00  0.00     0.049 A 
ATOM     48  N   UNL A   1      42.895  26.845  27.838  1.00  0.00    -0.248 NA
ATOM     49  C   UNL A   1      41.327  25.118  27.781  1.00  0.00     0.031 C 
ATOM     50  C   UNL A   1      45.991  24.024  26.251  1.00  0.00     0.029 A 
ATOM     51  N   UNL A   1      45.611  26.108  26.966  1.00  0.00    -0.354 N 
ATOM     52  C   UNL A   1      41.656  27.334  28.234  1.00  0.00     0.074 A 
ATOM     53  C   UNL A   1      40.713  26.244  28.109  1.00  0.00     0.031 C 
ATOM     54  C   UNL A   1      47.148  24.699  26.155  1.00  0.00     0.029 A 
ATOM     55  C   UNL A   1      46.935  26.072  26.604  1.00  0.00     0.049 A 
ATOM     56  H   UNL A   1      45.168  26.916  27.312  1.00  0.00     0.167 HD
ATOM     57  C   UNL A   1      41.339  28.569  28.689  1.00  0.00     0.037 A 
ATOM     58  C   UNL A   1      47.871  27.039  26.636  1.00  0.00     0.037 A 
ATOM     59  C   UNL A   1      42.289  29.640  28.837  1.00  0.00     0.049 A 
ATOM     60  C   UNL A   1      47.497  28.400  27.160  1.00  0.00     0.074 A 
ATOM     61  C   UNL A   1      42.086  30.915  29.338  1.00  0.00     0.029 A 
ATOM     62  N   UNL A   1      43.630  29.558  28.486  1.00  0.00    -0.354 N 
ATOM     63  N   UNL A   1      46.338  28.831  27.597  1.00  0.00    -0.248 NA
ATOM     64  C   UNL A   1      48.568  29.404  27.210  1.00  0.00     0.031 C 
ATOM     65  C   UNL A   1      43.291  31.618  29.246  1.00  0.00     0.029 A 
ATOM     66  C   UNL A   1      44.261  30.765  28.744  1.00  0.00     0.049 A 
ATOM     67  H   UNL A   1      44.067  28.760  28.110  1.00  0.00     0.167 HD
ATOM     68  C   UNL A   1      46.548  30.142  28.005  1.00  0.00     0.074 A 
ATOM     69  C   UNL A   1      47.948  30.429  27.778  1.00  0.00     0.031 C 
ATOM     70  C   UNL A   1      45.661  31.028  28.521  1.00  0.00     0.037 A 
BRANCH  57  71
ATOM     71  C   UNL A   1      39.906  28.826  29.061  1.00  0.00     0.064 A 
ATOM     72  C   UNL A   1      39.426  28.587  30.359  1.00  0.00     0.173 A 
ATOM     73  C   UNL A   1      39.005  29.340  28.117  1.00  0.00     0.173 A 
ATOM     74  F   UNL A   1      40.241  28.085  31.298  1.00  0.00    -0.203 F 
ATOM     75  C   UNL A   1      38.092  28.819  30.686  1.00  0.00     0.198 A 
ATOM     76  C   UNL A   1      37.679  29.603  28.457  1.00  0.00     0.198 A 
ATOM     77  F   UNL A   1      39.408  29.595  26.863  1.00  0.00    -0.203 F 
ATOM     78  F   UNL A   1      37.645  28.526  31.915  1.00  0.00    -0.200 F 
ATOM     79  C   UNL A   1      37.222  29.333  29.737  1.00  0.00     0.200 A 
ATOM     80  F   UNL A   1      36.843  30.113  27.542  1.00  0.00    -0.200 F 
ATOM     81  F   UNL A   1      35.940  29.560  30.055  1.00  0.00    -0.200 F 
ENDBRANCH  57  71
BRANCH  58  82
ATOM     82  C   UNL A   1      49.261  26.743  26.197  1.00  0.00     0.064 A 
ATOM     83  C   UNL A   1      50.212  26.250  27.102  1.00  0.00     0.173 A 
ATOM     84  C   UNL A   1      49.669  26.950  24.872  1.00  0.00     0.173 A 
ATOM     85  F   UNL A   1      49.875  26.054  28.386  1.00  0.00    -0.203 F 
ATOM     86  C   UNL A   1      51.523  25.999  26.704  1.00  0.00     0.198 A 
ATOM     87  C   UNL A   1      50.972  26.670  24.468  1.00  0.00     0.198 A 
ATOM     88  F   UNL A   1      48.796  27.415  23.966  1.00  0.00    -0.203 F 
ATOM     89  F   UNL A   1      52.423  25.578  27.602  1.00  0.00    -0.200 F 
ATOM     90  C   UNL A   1      51.901  26.204  25.386  1.00  0.00     0.200 A 
ATOM     91  F   UNL A   1      51.330  26.856  23.190  1.00  0.00    -0.200 F 
ATOM     92  F   UNL A   1      53.161  25.962  25.004  1.00  0.00    -0.200 F 
ENDBRANCH  58  82
BRANCH  70  93
ATOM     93  C   UNL A   1      46.191  32.375  28.920  1.00  0.00     0.064 A 
ATOM     94  C   UNL A   1      46.700  32.620  30.204  1.00  0.00     0.173 A 
ATOM     95  C   UNL A   1      46.209  33.430  27.994  1.00  0.00     0.173 A 
ATOM     96  F   UNL A   1      46.693  31.650  31.130  1.00  0.00    -0.203 F 
ATOM     97  C   UNL A   1      47.173  33.882  30.557  1.00  0.00     0.198 A 
ATOM     98  C   UNL A   1      46.715  34.679  28.340  1.00  0.00     0.198 A 
ATOM     99  F   UNL A   1      45.742  33.246  26.750  1.00  0.00    -0.203 F 
ATOM    100  F   UNL A   1      47.599  34.109  31.807  1.00  0.00    -0.200 F 
ATOM    101  C   UNL A   1      47.186  34.907  29.624  1.00  0.00     0.200 A 
ATOM    102  F   UNL A   1      46.741  35.665  27.432  1.00  0.00    -0.200 F 
ATOM    103  F   UNL A   1      47.645  36.119  29.964  1.00  0.00    -0.200 F 
ENDBRANCH  70  93
ENDBRANCH  44  45
ENDBRANCH  36  39
ENDBRANCH  34  35
ENDBRANCH  33  34
ENDBRANCH   1  33
TORSDOF 16
ENDMDL
MODEL 3
REMARK VINA RESULT:     -12.5      1.092      2.576
REMARK SMILES COc1cc(/C=C/C(=O)NCCCNC(=O)c2ccc(-c3c4nc(c(-c5c(F)c(F)c(F)c(F)c5F)c5ccc([nH]5)c(-c5c(F)c(F)c(F)c(F)c5F)c5nc(c(-c6c(F)c(F)c(F)c(F)c6F)c6ccc3[nH]6)C=C5)C=C4)cc2)cc(S(=O)(=O)Nc2ccc3c(c2)OCCO3)c1OC
REMARK SMILES IDX 11 1 10 2 8 3 9 4 7 6 6 7 5 8 3 9 4 10 96 11 81 12 80 13
REMARK SMILES IDX 2 14 1 15 97 16 98 17 82 18 83 19 84 20 85 21 86 23 87 24
REMARK SMILES IDX 91 25 88 26 90 27 89 28 92 29 95 30 93 31 94 32 12 33 13 34
REMARK SMILES IDX 14 35 15 36 16 38 17 39 18 40 79 41 19 42 78 43 20 44 21 45
REMARK SMILES IDX 22 46 72 47 23 48 77 49 71 50 73 51 24 52 76 53 70 54 69 55
REMARK SMILES IDX 25 57 57 58 37 59 56 60 38 61 41 62 55 63 74 64 39 65 40 66
REMARK SMILES IDX 54 68 75 69 42 70 26 71 27 72 35 73 28 74 29 75 33 76 36 77
REMARK SMILES IDX 30 78 31 79 34 80 32 81 58 82 59 83 67 84 60 85 61 86 65 87
REMARK SMILES IDX 68 88 62 89 63 90 66 91 64 92 43 93 44 94 52 95 45 96 46 97
REMARK SMILES IDX 50 98 53 99 47 100 48 101 51 102 49 103
REMARK H PARENT 10 5 85 22 14 37 73 56 41 67
REMARK Flexibility Score: inf
ROOT
ATOM      1  C   UNL A   1      37.346  21.277  24.659  1.00  0.00     0.118 C 
ENDROOT
BRANCH   1   2
ATOM      2  N   UNL A   1      38.185  22.409  25.012  1.00  0.00    -0.352 N 
ATOM      3  C   UNL A   1      37.871  23.605  25.576  1.00  0.00     0.244 C 
ATOM      4  O   UNL A   1      38.765  24.405  25.842  1.00  0.00    -0.270 OA
ATOM      5  H   UNL A   1      39.141  22.289  24.810  1.00  0.00     0.163 HD
BRANCH   3   6
ATOM      6  C   UNL A   1      36.483  23.898  25.999  1.00  0.00     0.072 C 
ATOM      7  C   UNL A   1      35.574  24.582  25.284  1.00  0.00     0.014 C 
BRANCH   7   8
ATOM      8  C   UNL A   1      34.161  24.763  25.683  1.00  0.00    -0.020 A 
ATOM      9  C   UNL A   1      31.812  24.085  25.690  1.00  0.00     0.162 A 
ATOM     10  C   UNL A   1      33.172  23.801  25.464  1.00  0.00     0.058 A 
ATOM     11  C   UNL A   1      31.398  25.357  26.137  1.00  0.00     0.181 A 
ATOM     12  C   UNL A   1      32.399  26.290  26.451  1.00  0.00     0.134 A 
ATOM     13  C   UNL A   1      33.763  25.988  26.232  1.00  0.00     0.034 A 
BRANCH   9  14
ATOM     14  O   UNL A   1      30.907  23.145  25.257  1.00  0.00    -0.493 OA
ATOM     15  C   UNL A   1      31.450  21.824  25.228  1.00  0.00     0.278 C 
ENDBRANCH   9  14
BRANCH  11  16
ATOM     16  O   UNL A   1      30.107  25.797  26.218  1.00  0.00    -0.492 OA
ATOM     17  C   UNL A   1      29.374  25.986  25.014  1.00  0.00     0.278 C 
ENDBRANCH  11  16
BRANCH  12  18
ATOM     18  S   UNL A   1      32.047  27.946  27.043  1.00  0.00     0.265 S 
ATOM     19  O   UNL A   1      30.939  27.820  27.974  1.00  0.00    -0.201 OA
ATOM     20  O   UNL A   1      33.304  28.506  27.489  1.00  0.00    -0.201 OA
BRANCH  18  21
ATOM     21  N   UNL A   1      31.508  28.928  25.765  1.00  0.00    -0.279 N 
ATOM     22  H   UNL A   1      30.843  29.634  25.934  1.00  0.00     0.180 HD
BRANCH  21  23
ATOM     23  C   UNL A   1      32.017  28.729  24.448  1.00  0.00     0.053 A 
ATOM     24  C   UNL A   1      33.379  28.974  24.232  1.00  0.00     0.031 A 
ATOM     25  C   UNL A   1      31.236  28.173  23.444  1.00  0.00     0.077 A 
ATOM     26  C   UNL A   1      34.018  28.381  23.147  1.00  0.00     0.052 A 
ATOM     27  C   UNL A   1      31.878  27.515  22.409  1.00  0.00     0.163 A 
ATOM     28  C   UNL A   1      33.275  27.549  22.321  1.00  0.00     0.161 A 
ATOM     29  O   UNL A   1      31.090  26.714  21.624  1.00  0.00    -0.486 OA
ATOM     30  O   UNL A   1      33.959  26.644  21.547  1.00  0.00    -0.486 OA
ATOM     31  C   UNL A   1      31.831  25.714  20.911  1.00  0.00     0.271 C 
ATOM     32  C   UNL A   1      33.183  25.434  21.545  1.00  0.00     0.271 C 
ENDBRANCH  21  23
ENDBRANCH  18  21
ENDBRANCH  12  18
ENDBRANCH   7   8
ENDBRANCH   3   6
ENDBRANCH   1   2
BRANCH   1  33
ATOM     33  C   UNL A   1      38.055  19.958  24.949  1.00  0.00     0.042 C 
BRANCH  33  34
ATOM     34  C   UNL A   1      38.960  20.009  26.177  1.00  0.00     0.118 C 
BRANCH  34  35
ATOM     35  N   UNL A   1      40.128  19.151  26.038  1.00  0.00    -0.352 N 
ATOM     36  C   UNL A   1      41.461  19.471  25.991  1.00  0.00     0.251 C 
ATOM     37  H   UNL A   1      39.930  18.189  25.967  1.00  0.00     0.163 HD
ATOM     38  O   UNL A   1      42.274  18.615  25.654  1.00  0.00    -0.269 OA
BRANCH  36  39
ATOM     39  C   UNL A   1      41.933  20.829  26.343  1.00  0.00     0.039 A 
ATOM     40  C   UNL A   1      42.241  21.104  27.679  1.00  0.00     0.014 A 
ATOM     41  C   UNL A   1      42.002  21.848  25.390  1.00  0.00     0.014 A 
ATOM     42  C   UNL A   1      42.635  22.390  28.053  1.00  0.00     0.010 A 
ATOM     43  C   UNL A   1      42.474  23.109  25.748  1.00  0.00     0.010 A 
ATOM     44  C   UNL A   1      42.765  23.402  27.088  1.00  0.00    -0.014 A 
BRANCH  44  45
ATOM     45  C   UNL A   1      43.152  24.782  27.477  1.00  0.00     0.031 A 
ATOM     46  C   UNL A   1      44.573  25.245  27.298  1.00  0.00     0.074 A 
ATOM     47  C   UNL A   1      42.235  25.604  28.021  1.00  0.00     0.049 A 
ATOM     48  N   UNL A   1      45.115  26.400  27.596  1.00  0.00    -0.248 NA
ATOM     49  C   UNL A   1      45.521  24.270  26.734  1.00  0.00     0.031 C 
ATOM     50  C   UNL A   1      40.841  25.253  28.292  1.00  0.00     0.029 A 
ATOM     51  N   UNL A   1      42.339  26.905  28.445  1.00  0.00    -0.354 N 
ATOM     52  C   UNL A   1      46.460  26.283  27.273  1.00  0.00     0.074 A 
ATOM     53  C   UNL A   1      46.668  24.926  26.815  1.00  0.00     0.031 C 
ATOM     54  C   UNL A   1      40.210  26.320  28.807  1.00  0.00     0.029 A 
ATOM     55  C   UNL A   1      41.163  27.419  28.934  1.00  0.00     0.049 A 
ATOM     56  H   UNL A   1      43.177  27.420  28.404  1.00  0.00     0.167 HD
ATOM     57  C   UNL A   1      47.429  27.227  27.324  1.00  0.00     0.037 A 
ATOM     58  C   UNL A   1      40.887  28.642  29.424  1.00  0.00     0.037 A 
ATOM     59  C   UNL A   1      47.209  28.583  27.753  1.00  0.00     0.049 A 
ATOM     60  C   UNL A   1      41.977  29.679  29.456  1.00  0.00     0.074 A 
ATOM     61  C   UNL A   1      48.108  29.635  27.795  1.00  0.00     0.029 A 
ATOM     62  N   UNL A   1      45.996  29.075  28.216  1.00  0.00    -0.354 N 
ATOM     63  N   UNL A   1      43.230  29.578  29.083  1.00  0.00    -0.248 NA
ATOM     64  C   UNL A   1      41.609  31.008  29.964  1.00  0.00     0.031 C 
ATOM     65  C   UNL A   1      47.452  30.751  28.325  1.00  0.00     0.029 A 
ATOM     66  C   UNL A   1      46.128  30.412  28.560  1.00  0.00     0.049 A 
ATOM     67  H   UNL A   1      45.165  28.553  28.289  1.00  0.00     0.167 HD
ATOM     68  C   UNL A   1      43.790  30.834  29.277  1.00  0.00     0.074 A 
ATOM     69  C   UNL A   1      42.735  31.685  29.787  1.00  0.00     0.031 C 
ATOM     70  C   UNL A   1      45.062  31.246  29.055  1.00  0.00     0.037 A 
BRANCH  57  71
ATOM     71  C   UNL A   1      48.815  26.826  26.902  1.00  0.00     0.064 A 
ATOM     72  C   UNL A   1      49.240  26.932  25.568  1.00  0.00     0.173 A 
ATOM     73  C   UNL A   1      49.739  26.350  27.845  1.00  0.00     0.173 A 
ATOM     74  F   UNL A   1      48.394  27.369  24.623  1.00  0.00    -0.203 F 
ATOM     75  C   UNL A   1      50.523  26.545  25.189  1.00  0.00     0.198 A 
ATOM     76  C   UNL A   1      51.033  25.996  27.468  1.00  0.00     0.198 A 
ATOM     77  F   UNL A   1      49.391  26.234  29.135  1.00  0.00    -0.203 F 
ATOM     78  F   UNL A   1      50.885  26.600  23.900  1.00  0.00    -0.200 F 
ATOM     79  C   UNL A   1      51.420  26.084  26.140  1.00  0.00     0.200 A 
ATOM     80  F   UNL A   1      51.903  25.564  28.391  1.00  0.00    -0.200 F 
ATOM     81  F   UNL A   1      52.656  25.716  25.775  1.00  0.00    -0.200 F 
ENDBRANCH  57  71
BRANCH  58  82
ATOM     82  C   UNL A   1      39.510  28.965  29.885  1.00  0.00     0.064 A 
ATOM     83  C   UNL A   1      38.564  29.508  29.003  1.00  0.00     0.173 A 
ATOM     84  C   UNL A   1      39.112  28.743  31.211  1.00  0.00     0.173 A 
ATOM     85  F   UNL A   1      38.903  29.756  27.729  1.00  0.00    -0.203 F 
ATOM     86  C   UNL A   1      37.282  29.839  29.436  1.00  0.00     0.198 A 
ATOM     87  C   UNL A   1      37.821  29.047  31.635  1.00  0.00     0.198 A 
ATOM     88  F   UNL A   1      39.977  28.220  32.093  1.00  0.00    -0.203 F 
ATOM     89  F   UNL A   1      36.417  30.405  28.584  1.00  0.00    -0.200 F 
ATOM     90  C   UNL A   1      36.910  29.603  30.751  1.00  0.00     0.200 A 
ATOM     91  F   UNL A   1      37.459  28.804  32.902  1.00  0.00    -0.200 F 
ATOM     92  F   UNL A   1      35.677  29.922  31.166  1.00  0.00    -0.200 F 
ENDBRANCH  58  82
BRANCH  70  93
ATOM     93  C   UNL A   1      45.369  32.693  29.314  1.00  0.00     0.064 A 
ATOM     94  C   UNL A   1      45.852  33.137  30.554  1.00  0.00     0.173 A 
ATOM     95  C   UNL A   1      45.198  33.645  28.297  1.00  0.00     0.173 A 
ATOM     96  F   UNL A   1      46.021  32.269  31.563  1.00  0.00    -0.203 F 
ATOM     97  C   UNL A   1      46.117  34.486  30.778  1.00  0.00     0.198 A 
ATOM     98  C   UNL A   1      45.496  34.987  28.514  1.00  0.00     0.198 A 
ATOM     99  F   UNL A   1      44.747  33.273  27.090  1.00  0.00    -0.203 F 
ATOM    100  F   UNL A   1      46.520  34.895  31.988  1.00  0.00    -0.200 F 
ATOM    101  C   UNL A   1      45.944  35.408  29.756  1.00  0.00     0.200 A 
ATOM    102  F   UNL A   1      45.344  35.874  27.521  1.00  0.00    -0.200 F 
ATOM    103  F   UNL A   1      46.202  36.704  29.972  1.00  0.00    -0.200 F 
ENDBRANCH  70  93
ENDBRANCH  44  45
ENDBRANCH  36  39
ENDBRANCH  34  35
ENDBRANCH  33  34
ENDBRANCH   1  33
TORSDOF 16
ENDMDL
