MODEL 1
REMARK VINA RESULT:      -9.8      0.000      0.000
REMARK SMILES C=CCN(CC(=O)NCCCNC(=O)c1ccc(-c2c3nc(c(-c4c(F)c(F)c(F)c(F)c4F)c4ccc([nH]4)c(-c4c(F)c(F)c(F)c(F)c4F)c4nc(c(-c5c(F)c(F)c(F)c(F)c5F)c5ccc2[nH]5)C=C4)C=C3)cc1)c1ccc([N+](=O)[O-])cc1Br
REMARK SMILES IDX 9 1 8 2 6 3 7 4 5 6 4 7 3 8 2 9 1 10 78 11 79 12 86 13 80 14
REMARK SMILES IDX 85 15 87 16 81 17 82 18 83 19 84 20 10 21 11 22 12 23 13 24
REMARK SMILES IDX 14 26 15 27 16 28 77 29 17 30 76 31 18 32 19 33 20 34 70 35
REMARK SMILES IDX 21 36 75 37 69 38 71 39 22 40 74 41 68 42 67 43 23 45 55 46
REMARK SMILES IDX 35 47 54 48 36 49 39 50 53 51 72 52 37 53 38 54 52 56 73 57
REMARK SMILES IDX 40 58 24 59 25 60 33 61 26 62 27 63 31 64 34 65 28 66 29 67
REMARK SMILES IDX 32 68 30 69 56 70 57 71 65 72 58 73 59 74 63 75 66 76 60 77
REMARK SMILES IDX 61 78 64 79 62 80 41 81 42 82 50 83 43 84 44 85 48 86 51 87
REMARK SMILES IDX 45 88 46 89 49 90 47 91
REMARK H PARENT 8 5 12 25 71 44 39 55
REMARK Flexibility Score: inf
ROOT
ATOM      1  C   UNL A   1      42.784  20.526  26.192  1.00  0.00     0.117 C 
ENDROOT
BRANCH   1   2
ATOM      2  N   UNL A   1      43.252  21.347  25.094  1.00  0.00    -0.354 N 
ATOM      3  C   UNL A   1      44.188  22.344  25.066  1.00  0.00     0.239 C 
ATOM      4  O   UNL A   1      44.417  22.861  23.968  1.00  0.00    -0.273 OA
ATOM      5  H   UNL A   1      42.829  21.155  24.225  1.00  0.00     0.163 HD
BRANCH   3   6
ATOM      6  C   UNL A   1      44.931  22.799  26.335  1.00  0.00     0.216 C 
BRANCH   6   7
ATOM      7  N   UNL A   1      44.356  23.976  27.013  1.00  0.00    -0.358 N 
BRANCH   7   8
ATOM      8  C   UNL A   1      43.130  23.837  27.794  1.00  0.00     0.144 C 
BRANCH   8   9
ATOM      9  C   UNL A   1      43.328  22.960  28.986  1.00  0.00    -0.014 C 
ATOM     10  C   UNL A   1      44.172  23.238  29.989  1.00  0.00     0.006 C 
ENDBRANCH   8   9
ENDBRANCH   7   8
BRANCH   7  11
ATOM     11  C   UNL A   1      44.791  25.254  26.670  1.00  0.00     0.052 A 
ATOM     12  C   UNL A   1      44.045  26.010  25.746  1.00  0.00     0.034 A 
ATOM     13  C   UNL A   1      45.936  25.868  27.223  1.00  0.00     0.048 A 
ATOM     14  C   UNL A   1      44.390  27.321  25.404  1.00  0.00     0.088 A 
ATOM     15  C   UNL A   1      46.270  27.198  26.926  1.00  0.00     0.103 A 
ATOM     16  Br  UNL A   1      47.171  24.932  28.329  1.00  0.00    -0.048 Br
ATOM     17  C   UNL A   1      45.490  27.917  26.018  1.00  0.00     0.270 A 
BRANCH  17  18
ATOM     18  N   UNL A   1      45.829  29.307  25.706  1.00  0.00     0.062 N 
ATOM     19  O   UNL A   1      46.589  29.510  24.748  1.00  0.00    -0.258 OA
ATOM     20  O   UNL A   1      45.323  30.193  26.408  1.00  0.00    -0.258 OA
ENDBRANCH  17  18
ENDBRANCH   7  11
ENDBRANCH   6   7
ENDBRANCH   3   6
ENDBRANCH   1   2
BRANCH   1  21
ATOM     21  C   UNL A   1      41.260  20.412  26.242  1.00  0.00     0.042 C 
BRANCH  21  22
ATOM     22  C   UNL A   1      40.540  21.587  26.900  1.00  0.00     0.118 C 
BRANCH  22  23
ATOM     23  N   UNL A   1      39.438  22.087  26.097  1.00  0.00    -0.352 N 
ATOM     24  C   UNL A   1      38.816  23.309  26.068  1.00  0.00     0.251 C 
ATOM     25  H   UNL A   1      39.073  21.432  25.459  1.00  0.00     0.163 HD
ATOM     26  O   UNL A   1      37.784  23.420  25.411  1.00  0.00    -0.269 OA
BRANCH  24  27
ATOM     27  C   UNL A   1      39.337  24.491  26.801  1.00  0.00     0.039 A 
ATOM     28  C   UNL A   1      38.945  24.656  28.137  1.00  0.00     0.014 A 
ATOM     29  C   UNL A   1      40.105  25.486  26.190  1.00  0.00     0.014 A 
ATOM     30  C   UNL A   1      39.339  25.786  28.858  1.00  0.00     0.010 A 
ATOM     31  C   UNL A   1      40.549  26.588  26.929  1.00  0.00     0.010 A 
ATOM     32  C   UNL A   1      40.159  26.758  28.266  1.00  0.00    -0.014 A 
BRANCH  32  33
ATOM     33  C   UNL A   1      40.583  27.961  29.031  1.00  0.00     0.031 A 
ATOM     34  C   UNL A   1      41.991  28.080  29.548  1.00  0.00     0.074 A 
ATOM     35  C   UNL A   1      39.696  28.942  29.283  1.00  0.00     0.049 A 
ATOM     36  N   UNL A   1      42.536  29.038  30.257  1.00  0.00    -0.248 NA
ATOM     37  C   UNL A   1      42.904  26.968  29.244  1.00  0.00     0.031 C 
ATOM     38  C   UNL A   1      38.294  28.939  28.866  1.00  0.00     0.029 A 
ATOM     39  N   UNL A   1      39.843  30.132  29.953  1.00  0.00    -0.354 N 
ATOM     40  C   UNL A   1      43.845  28.638  30.495  1.00  0.00     0.074 A 
ATOM     41  C   UNL A   1      44.003  27.333  29.890  1.00  0.00     0.031 C 
ATOM     42  C   UNL A   1      37.714  30.081  29.271  1.00  0.00     0.029 A 
ATOM     43  C   UNL A   1      38.693  30.882  30.000  1.00  0.00     0.049 A 
ATOM     44  H   UNL A   1      40.690  30.419  30.363  1.00  0.00     0.167 HD
ATOM     45  C   UNL A   1      44.831  29.305  31.141  1.00  0.00     0.037 A 
ATOM     46  C   UNL A   1      38.456  32.081  30.566  1.00  0.00     0.037 A 
ATOM     47  C   UNL A   1      44.690  30.618  31.716  1.00  0.00     0.049 A 
ATOM     48  C   UNL A   1      39.569  32.802  31.273  1.00  0.00     0.074 A 
ATOM     49  C   UNL A   1      45.652  31.396  32.341  1.00  0.00     0.029 A 
ATOM     50  N   UNL A   1      43.512  31.348  31.734  1.00  0.00    -0.354 N 
ATOM     51  N   UNL A   1      40.815  32.435  31.444  1.00  0.00    -0.248 NA
ATOM     52  C   UNL A   1      39.243  34.109  31.862  1.00  0.00     0.031 C 
ATOM     53  C   UNL A   1      45.046  32.585  32.764  1.00  0.00     0.029 A 
ATOM     54  C   UNL A   1      43.719  32.562  32.372  1.00  0.00     0.049 A 
ATOM     55  H   UNL A   1      42.656  31.050  31.350  1.00  0.00     0.167 HD
ATOM     56  C   UNL A   1      41.425  33.472  32.138  1.00  0.00     0.074 A 
ATOM     57  C   UNL A   1      40.417  34.489  32.345  1.00  0.00     0.031 C 
ATOM     58  C   UNL A   1      42.708  33.568  32.566  1.00  0.00     0.037 A 
BRANCH  45  59
ATOM     59  C   UNL A   1      46.164  28.627  31.259  1.00  0.00     0.064 A 
ATOM     60  C   UNL A   1      46.471  27.802  32.351  1.00  0.00     0.173 A 
ATOM     61  C   UNL A   1      47.128  28.769  30.250  1.00  0.00     0.173 A 
ATOM     62  F   UNL A   1      45.586  27.643  33.347  1.00  0.00    -0.203 F 
ATOM     63  C   UNL A   1      47.705  27.162  32.441  1.00  0.00     0.198 A 
ATOM     64  C   UNL A   1      48.351  28.108  30.331  1.00  0.00     0.198 A 
ATOM     65  F   UNL A   1      46.880  29.541  29.181  1.00  0.00    -0.203 F 
ATOM     66  F   UNL A   1      47.993  26.411  33.513  1.00  0.00    -0.200 F 
ATOM     67  C   UNL A   1      48.641  27.311  31.429  1.00  0.00     0.200 A 
ATOM     68  F   UNL A   1      49.251  28.244  29.347  1.00  0.00    -0.200 F 
ATOM     69  F   UNL A   1      49.826  26.691  31.513  1.00  0.00    -0.200 F 
ENDBRANCH  45  59
BRANCH  46  70
ATOM     70  C   UNL A   1      37.106  32.691  30.462  1.00  0.00     0.064 A 
ATOM     71  C   UNL A   1      36.152  32.497  31.470  1.00  0.00     0.173 A 
ATOM     72  C   UNL A   1      36.743  33.474  29.357  1.00  0.00     0.173 A 
ATOM     73  F   UNL A   1      36.449  31.736  32.534  1.00  0.00    -0.203 F 
ATOM     74  C   UNL A   1      34.879  33.050  31.370  1.00  0.00     0.198 A 
ATOM     75  C   UNL A   1      35.476  34.047  29.270  1.00  0.00     0.198 A 
ATOM     76  F   UNL A   1      37.623  33.691  28.369  1.00  0.00    -0.203 F 
ATOM     77  F   UNL A   1      33.972  32.818  32.329  1.00  0.00    -0.200 F 
ATOM     78  C   UNL A   1      34.543  33.829  30.274  1.00  0.00     0.200 A 
ATOM     79  F   UNL A   1      35.159  34.808  28.214  1.00  0.00    -0.200 F 
ATOM     80  F   UNL A   1      33.319  34.366  30.178  1.00  0.00    -0.200 F 
ENDBRANCH  46  70
BRANCH  58  81
ATOM     81  C   UNL A   1      43.099  34.827  33.279  1.00  0.00     0.064 A 
ATOM     82  C   UNL A   1      43.081  34.911  34.678  1.00  0.00     0.173 A 
ATOM     83  C   UNL A   1      43.526  35.952  32.556  1.00  0.00     0.173 A 
ATOM     84  F   UNL A   1      42.664  33.868  35.412  1.00  0.00    -0.203 F 
ATOM     85  C   UNL A   1      43.458  36.084  35.329  1.00  0.00     0.198 A 
ATOM     86  C   UNL A   1      43.924  37.114  33.210  1.00  0.00     0.198 A 
ATOM     87  F   UNL A   1      43.562  35.919  31.216  1.00  0.00    -0.203 F 
ATOM     88  F   UNL A   1      43.396  36.155  36.666  1.00  0.00    -0.200 F 
ATOM     89  C   UNL A   1      43.884  37.181  34.595  1.00  0.00     0.200 A 
ATOM     90  F   UNL A   1      44.342  38.171  32.501  1.00  0.00    -0.200 F 
ATOM     91  F   UNL A   1      44.249  38.307  35.222  1.00  0.00    -0.200 F 
ENDBRANCH  58  81
ENDBRANCH  32  33
ENDBRANCH  24  27
ENDBRANCH  22  23
ENDBRANCH  21  22
ENDBRANCH   1  21
TORSDOF 15
ENDMDL
MODEL 2
REMARK VINA RESULT:      -9.5      4.648      8.307
REMARK SMILES C=CCN(CC(=O)NCCCNC(=O)c1ccc(-c2c3nc(c(-c4c(F)c(F)c(F)c(F)c4F)c4ccc([nH]4)c(-c4c(F)c(F)c(F)c(F)c4F)c4nc(c(-c5c(F)c(F)c(F)c(F)c5F)c5ccc2[nH]5)C=C4)C=C3)cc1)c1ccc([N+](=O)[O-])cc1Br
REMARK SMILES IDX 9 1 8 2 6 3 7 4 5 6 4 7 3 8 2 9 1 10 78 11 79 12 86 13 80 14
REMARK SMILES IDX 85 15 87 16 81 17 82 18 83 19 84 20 10 21 11 22 12 23 13 24
REMARK SMILES IDX 14 26 15 27 16 28 77 29 17 30 76 31 18 32 19 33 20 34 70 35
REMARK SMILES IDX 21 36 75 37 69 38 71 39 22 40 74 41 68 42 67 43 23 45 55 46
REMARK SMILES IDX 35 47 54 48 36 49 39 50 53 51 72 52 37 53 38 54 52 56 73 57
REMARK SMILES IDX 40 58 24 59 25 60 33 61 26 62 27 63 31 64 34 65 28 66 29 67
REMARK SMILES IDX 32 68 30 69 56 70 57 71 65 72 58 73 59 74 63 75 66 76 60 77
REMARK SMILES IDX 61 78 64 79 62 80 41 81 42 82 50 83 43 84 44 85 48 86 51 87
REMARK SMILES IDX 45 88 46 89 49 90 47 91
REMARK H PARENT 8 5 12 25 71 44 39 55
REMARK Flexibility Score: inf
ROOT
ATOM      1  C   UNL A   1      32.200  28.125  22.972  1.00  0.00     0.117 C 
ENDROOT
BRANCH   1   2
ATOM      2  N   UNL A   1      32.664  27.293  21.881  1.00  0.00    -0.354 N 
ATOM      3  C   UNL A   1      32.899  25.947  21.828  1.00  0.00     0.239 C 
ATOM      4  O   UNL A   1      33.264  25.489  20.741  1.00  0.00    -0.273 OA
ATOM      5  H   UNL A   1      32.837  27.775  21.039  1.00  0.00     0.163 HD
BRANCH   3   6
ATOM      6  C   UNL A   1      32.710  25.038  23.057  1.00  0.00     0.216 C 
BRANCH   6   7
ATOM      7  N   UNL A   1      33.450  23.762  23.014  1.00  0.00    -0.358 N 
BRANCH   7   8
ATOM      8  C   UNL A   1      32.833  22.586  22.408  1.00  0.00     0.144 C 
BRANCH   8   9
ATOM      9  C   UNL A   1      32.068  21.782  23.408  1.00  0.00    -0.014 C 
ATOM     10  C   UNL A   1      32.493  20.616  23.914  1.00  0.00     0.006 C 
ENDBRANCH   8   9
ENDBRANCH   7   8
BRANCH   7  11
ATOM     11  C   UNL A   1      34.584  23.593  23.804  1.00  0.00     0.052 A 
ATOM     12  C   UNL A   1      35.788  23.182  23.201  1.00  0.00     0.034 A 
ATOM     13  C   UNL A   1      34.617  23.843  25.194  1.00  0.00     0.048 A 
ATOM     14  C   UNL A   1      36.978  23.053  23.923  1.00  0.00     0.088 A 
ATOM     15  C   UNL A   1      35.813  23.763  25.924  1.00  0.00     0.103 A 
ATOM     16  Br  UNL A   1      33.050  24.208  26.209  1.00  0.00    -0.048 Br
ATOM     17  C   UNL A   1      36.988  23.371  25.280  1.00  0.00     0.270 A 
BRANCH  17  18
ATOM     18  N   UNL A   1      38.240  23.289  26.034  1.00  0.00     0.062 N 
ATOM     19  O   UNL A   1      38.648  24.323  26.583  1.00  0.00    -0.258 OA
ATOM     20  O   UNL A   1      38.807  22.189  26.089  1.00  0.00    -0.258 OA
ENDBRANCH  17  18
ENDBRANCH   7  11
ENDBRANCH   6   7
ENDBRANCH   3   6
ENDBRANCH   1   2
BRANCH   1  21
ATOM     21  C   UNL A   1      33.306  28.999  23.566  1.00  0.00     0.042 C 
BRANCH  21  22
ATOM     22  C   UNL A   1      33.368  29.025  25.092  1.00  0.00     0.118 C 
BRANCH  22  23
ATOM     23  N   UNL A   1      32.842  30.257  25.651  1.00  0.00    -0.352 N 
ATOM     24  C   UNL A   1      33.240  31.009  26.726  1.00  0.00     0.251 C 
ATOM     25  H   UNL A   1      32.060  30.616  25.173  1.00  0.00     0.163 HD
ATOM     26  O   UNL A   1      32.510  31.926  27.097  1.00  0.00    -0.269 OA
BRANCH  24  27
ATOM     27  C   UNL A   1      34.508  30.757  27.456  1.00  0.00     0.039 A 
ATOM     28  C   UNL A   1      34.702  29.482  28.006  1.00  0.00     0.014 A 
ATOM     29  C   UNL A   1      35.455  31.755  27.703  1.00  0.00     0.014 A 
ATOM     30  C   UNL A   1      35.840  29.203  28.769  1.00  0.00     0.010 A 
ATOM     31  C   UNL A   1      36.622  31.459  28.416  1.00  0.00     0.010 A 
ATOM     32  C   UNL A   1      36.820  30.185  28.969  1.00  0.00    -0.014 A 
BRANCH  32  33
ATOM     33  C   UNL A   1      38.034  29.891  29.777  1.00  0.00     0.031 A 
ATOM     34  C   UNL A   1      39.106  28.980  29.242  1.00  0.00     0.074 A 
ATOM     35  C   UNL A   1      38.166  30.425  31.005  1.00  0.00     0.049 A 
ATOM     36  N   UNL A   1      40.219  28.586  29.811  1.00  0.00    -0.248 NA
ATOM     37  C   UNL A   1      38.892  28.425  27.897  1.00  0.00     0.031 C 
ATOM     38  C   UNL A   1      37.190  31.300  31.656  1.00  0.00     0.029 A 
ATOM     39  N   UNL A   1      39.177  30.310  31.929  1.00  0.00    -0.354 N 
ATOM     40  C   UNL A   1      40.827  27.728  28.904  1.00  0.00     0.074 A 
ATOM     41  C   UNL A   1      39.942  27.627  27.762  1.00  0.00     0.031 C 
ATOM     42  C   UNL A   1      37.656  31.658  32.863  1.00  0.00     0.029 A 
ATOM     43  C   UNL A   1      38.950  31.018  33.084  1.00  0.00     0.049 A 
ATOM     44  H   UNL A   1      39.985  29.770  31.778  1.00  0.00     0.167 HD
ATOM     45  C   UNL A   1      42.022  27.098  29.002  1.00  0.00     0.037 A 
ATOM     46  C   UNL A   1      39.700  31.137  34.196  1.00  0.00     0.037 A 
ATOM     47  C   UNL A   1      42.922  27.221  30.120  1.00  0.00     0.049 A 
ATOM     48  C   UNL A   1      41.024  30.431  34.278  1.00  0.00     0.074 A 
ATOM     49  C   UNL A   1      44.180  26.664  30.282  1.00  0.00     0.029 A 
ATOM     50  N   UNL A   1      42.659  27.955  31.266  1.00  0.00    -0.354 N 
ATOM     51  N   UNL A   1      41.611  29.666  33.390  1.00  0.00    -0.248 NA
ATOM     52  C   UNL A   1      41.796  30.610  35.517  1.00  0.00     0.031 C 
ATOM     53  C   UNL A   1      44.665  27.036  31.540  1.00  0.00     0.029 A 
ATOM     54  C   UNL A   1      43.726  27.853  32.146  1.00  0.00     0.049 A 
ATOM     55  H   UNL A   1      41.838  28.473  31.430  1.00  0.00     0.167 HD
ATOM     56  C   UNL A   1      42.824  29.292  33.952  1.00  0.00     0.074 A 
ATOM     57  C   UNL A   1      42.898  29.924  35.252  1.00  0.00     0.031 C 
ATOM     58  C   UNL A   1      43.789  28.493  33.434  1.00  0.00     0.037 A 
BRANCH  45  59
ATOM     59  C   UNL A   1      42.435  26.215  27.862  1.00  0.00     0.064 A 
ATOM     60  C   UNL A   1      41.935  24.911  27.728  1.00  0.00     0.173 A 
ATOM     61  C   UNL A   1      43.307  26.691  26.871  1.00  0.00     0.173 A 
ATOM     62  F   UNL A   1      41.108  24.407  28.656  1.00  0.00    -0.203 F 
ATOM     63  C   UNL A   1      42.312  24.107  26.655  1.00  0.00     0.198 A 
ATOM     64  C   UNL A   1      43.661  25.892  25.786  1.00  0.00     0.198 A 
ATOM     65  F   UNL A   1      43.807  27.933  26.949  1.00  0.00    -0.203 F 
ATOM     66  F   UNL A   1      41.854  22.850  26.568  1.00  0.00    -0.200 F 
ATOM     67  C   UNL A   1      43.169  24.599  25.683  1.00  0.00     0.200 A 
ATOM     68  F   UNL A   1      44.482  26.373  24.842  1.00  0.00    -0.200 F 
ATOM     69  F   UNL A   1      43.526  23.826  24.648  1.00  0.00    -0.200 F 
ENDBRANCH  45  59
BRANCH  46  70
ATOM     70  C   UNL A   1      39.226  31.987  35.318  1.00  0.00     0.064 A 
ATOM     71  C   UNL A   1      39.535  33.352  35.362  1.00  0.00     0.173 A 
ATOM     72  C   UNL A   1      38.463  31.452  36.366  1.00  0.00     0.173 A 
ATOM     73  F   UNL A   1      40.283  33.901  34.394  1.00  0.00    -0.203 F 
ATOM     74  C   UNL A   1      39.111  34.151  36.421  1.00  0.00     0.198 A 
ATOM     75  C   UNL A   1      38.018  32.257  37.412  1.00  0.00     0.198 A 
ATOM     76  F   UNL A   1      38.139  30.151  36.365  1.00  0.00    -0.203 F 
ATOM     77  F   UNL A   1      39.451  35.446  36.459  1.00  0.00    -0.200 F 
ATOM     78  C   UNL A   1      38.348  33.604  37.442  1.00  0.00     0.200 A 
ATOM     79  F   UNL A   1      37.273  31.728  38.392  1.00  0.00    -0.200 F 
ATOM     80  F   UNL A   1      37.936  34.373  38.460  1.00  0.00    -0.200 F 
ENDBRANCH  46  70
BRANCH  58  81
ATOM     81  C   UNL A   1      45.019  28.278  34.264  1.00  0.00     0.064 A 
ATOM     82  C   UNL A   1      46.117  29.146  34.182  1.00  0.00     0.173 A 
ATOM     83  C   UNL A   1      45.087  27.212  35.175  1.00  0.00     0.173 A 
ATOM     84  F   UNL A   1      46.105  30.169  33.314  1.00  0.00    -0.203 F 
ATOM     85  C   UNL A   1      47.249  28.943  34.967  1.00  0.00     0.198 A 
ATOM     86  C   UNL A   1      46.210  27.026  35.974  1.00  0.00     0.198 A 
ATOM     87  F   UNL A   1      44.060  26.358  35.291  1.00  0.00    -0.203 F 
ATOM     88  F   UNL A   1      48.304  29.761  34.843  1.00  0.00    -0.200 F 
ATOM     89  C   UNL A   1      47.292  27.887  35.866  1.00  0.00     0.200 A 
ATOM     90  F   UNL A   1      46.248  26.010  36.847  1.00  0.00    -0.200 F 
ATOM     91  F   UNL A   1      48.381  27.694  36.622  1.00  0.00    -0.200 F 
ENDBRANCH  58  81
ENDBRANCH  32  33
ENDBRANCH  24  27
ENDBRANCH  22  23
ENDBRANCH  21  22
ENDBRANCH   1  21
TORSDOF 15
ENDMDL
MODEL 3
REMARK VINA RESULT:      -9.5      5.024     10.491
REMARK SMILES C=CCN(CC(=O)NCCCNC(=O)c1ccc(-c2c3nc(c(-c4c(F)c(F)c(F)c(F)c4F)c4ccc([nH]4)c(-c4c(F)c(F)c(F)c(F)c4F)c4nc(c(-c5c(F)c(F)c(F)c(F)c5F)c5ccc2[nH]5)C=C4)C=C3)cc1)c1ccc([N+](=O)[O-])cc1Br
REMARK SMILES IDX 9 1 8 2 6 3 7 4 5 6 4 7 3 8 2 9 1 10 78 11 79 12 86 13 80 14
REMARK SMILES IDX 85 15 87 16 81 17 82 18 83 19 84 20 10 21 11 22 12 23 13 24
REMARK SMILES IDX 14 26 15 27 16 28 77 29 17 30 76 31 18 32 19 33 20 34 70 35
REMARK SMILES IDX 21 36 75 37 69 38 71 39 22 40 74 41 68 42 67 43 23 45 55 46
REMARK SMILES IDX 35 47 54 48 36 49 39 50 53 51 72 52 37 53 38 54 52 56 73 57
REMARK SMILES IDX 40 58 24 59 25 60 33 61 26 62 27 63 31 64 34 65 28 66 29 67
REMARK SMILES IDX 32 68 30 69 56 70 57 71 65 72 58 73 59 74 63 75 66 76 60 77
REMARK SMILES IDX 61 78 64 79 62 80 41 81 42 82 50 83 43 84 44 85 48 86 51 87
REMARK SMILES IDX 45 88 46 89 49 90 47 91
REMARK H PARENT 8 5 12 25 71 44 39 55
REMARK Flexibility Score: inf
ROOT
ATOM      1  C   UNL A   1      31.292  27.251  25.823  1.00  0.00     0.117 C 
ENDROOT
BRANCH   1   2
ATOM      2  N   UNL A   1      31.100  26.063  26.630  1.00  0.00    -0.354 N 
ATOM      3  C   UNL A   1      31.217  24.740  26.305  1.00  0.00     0.239 C 
ATOM      4  O   UNL A   1      31.025  23.926  27.213  1.00  0.00    -0.273 OA
ATOM      5  H   UNL A   1      30.844  26.236  27.565  1.00  0.00     0.163 HD
BRANCH   3   6
ATOM      6  C   UNL A   1      31.580  24.280  24.881  1.00  0.00     0.216 C 
BRANCH   6   7
ATOM      7  N   UNL A   1      32.808  23.469  24.776  1.00  0.00    -0.358 N 
BRANCH   7   8
ATOM      8  C   UNL A   1      34.106  24.127  24.677  1.00  0.00     0.144 C 
BRANCH   8   9
ATOM      9  C   UNL A   1      34.891  23.637  23.505  1.00  0.00    -0.014 C 
ATOM     10  C   UNL A   1      36.090  23.047  23.601  1.00  0.00     0.006 C 
ENDBRANCH   8   9
ENDBRANCH   7   8
BRANCH   7  11
ATOM     11  C   UNL A   1      32.717  22.113  24.467  1.00  0.00     0.052 A 
ATOM     12  C   UNL A   1      32.213  21.726  23.211  1.00  0.00     0.034 A 
ATOM     13  C   UNL A   1      33.138  21.081  25.334  1.00  0.00     0.048 A 
ATOM     14  C   UNL A   1      32.153  20.388  22.812  1.00  0.00     0.088 A 
ATOM     15  C   UNL A   1      33.128  19.737  24.932  1.00  0.00     0.103 A 
ATOM     16  Br  UNL A   1      33.656  21.401  27.137  1.00  0.00    -0.048 Br
ATOM     17  C   UNL A   1      32.637  19.400  23.669  1.00  0.00     0.270 A 
BRANCH  17  18
ATOM     18  N   UNL A   1      32.626  18.001  23.240  1.00  0.00     0.062 N 
ATOM     19  O   UNL A   1      33.067  17.155  24.031  1.00  0.00    -0.258 OA
ATOM     20  O   UNL A   1      32.164  17.747  22.119  1.00  0.00    -0.258 OA
ENDBRANCH  17  18
ENDBRANCH   7  11
ENDBRANCH   6   7
ENDBRANCH   3   6
ENDBRANCH   1   2
BRANCH   1  21
ATOM     21  C   UNL A   1      31.783  28.449  26.636  1.00  0.00     0.042 C 
BRANCH  21  22
ATOM     22  C   UNL A   1      32.777  29.361  25.918  1.00  0.00     0.118 C 
BRANCH  22  23
ATOM     23  N   UNL A   1      32.586  30.763  26.247  1.00  0.00    -0.352 N 
ATOM     24  C   UNL A   1      33.256  31.593  27.108  1.00  0.00     0.251 C 
ATOM     25  H   UNL A   1      31.843  31.193  25.765  1.00  0.00     0.163 HD
ATOM     26  O   UNL A   1      32.779  32.703  27.335  1.00  0.00    -0.269 OA
BRANCH  24  27
ATOM     27  C   UNL A   1      34.523  31.202  27.777  1.00  0.00     0.039 A 
ATOM     28  C   UNL A   1      34.614  29.901  28.292  1.00  0.00     0.014 A 
ATOM     29  C   UNL A   1      35.572  32.098  28.002  1.00  0.00     0.014 A 
ATOM     30  C   UNL A   1      35.751  29.496  28.998  1.00  0.00     0.010 A 
ATOM     31  C   UNL A   1      36.733  31.674  28.656  1.00  0.00     0.010 A 
ATOM     32  C   UNL A   1      36.830  30.374  29.174  1.00  0.00    -0.014 A 
BRANCH  32  33
ATOM     33  C   UNL A   1      38.042  29.945  29.922  1.00  0.00     0.031 A 
ATOM     34  C   UNL A   1      38.288  30.435  31.324  1.00  0.00     0.074 A 
ATOM     35  C   UNL A   1      38.938  29.130  29.335  1.00  0.00     0.049 A 
ATOM     36  N   UNL A   1      39.299  30.194  32.121  1.00  0.00    -0.248 NA
ATOM     37  C   UNL A   1      37.273  31.330  31.900  1.00  0.00     0.031 C 
ATOM     38  C   UNL A   1      38.837  28.606  27.973  1.00  0.00     0.029 A 
ATOM     39  N   UNL A   1      40.114  28.601  29.809  1.00  0.00    -0.354 N 
ATOM     40  C   UNL A   1      39.050  30.915  33.282  1.00  0.00     0.074 A 
ATOM     41  C   UNL A   1      37.812  31.635  33.072  1.00  0.00     0.031 C 
ATOM     42  C   UNL A   1      39.894  27.815  27.728  1.00  0.00     0.029 A 
ATOM     43  C   UNL A   1      40.761  27.797  28.902  1.00  0.00     0.049 A 
ATOM     44  H   UNL A   1      40.460  28.782  30.713  1.00  0.00     0.167 HD
ATOM     45  C   UNL A   1      39.775  30.958  34.426  1.00  0.00     0.037 A 
ATOM     46  C   UNL A   1      41.922  27.123  29.007  1.00  0.00     0.037 A 
ATOM     47  C   UNL A   1      40.989  30.218  34.653  1.00  0.00     0.049 A 
ATOM     48  C   UNL A   1      42.704  27.184  30.289  1.00  0.00     0.074 A 
ATOM     49  C   UNL A   1      41.761  30.156  35.802  1.00  0.00     0.029 A 
ATOM     50  N   UNL A   1      41.606  29.408  33.713  1.00  0.00    -0.354 N 
ATOM     51  N   UNL A   1      42.428  27.828  31.396  1.00  0.00    -0.248 NA
ATOM     52  C   UNL A   1      43.959  26.419  30.337  1.00  0.00     0.031 C 
ATOM     53  C   UNL A   1      42.863  29.332  35.546  1.00  0.00     0.029 A 
ATOM     54  C   UNL A   1      42.758  28.853  34.251  1.00  0.00     0.049 A 
ATOM     55  H   UNL A   1      41.275  29.249  32.799  1.00  0.00     0.167 HD
ATOM     56  C   UNL A   1      43.459  27.529  32.277  1.00  0.00     0.074 A 
ATOM     57  C   UNL A   1      44.360  26.634  31.581  1.00  0.00     0.031 C 
ATOM     58  C   UNL A   1      43.642  27.960  33.549  1.00  0.00     0.037 A 
BRANCH  45  59
ATOM     59  C   UNL A   1      39.270  31.836  35.532  1.00  0.00     0.064 A 
ATOM     60  C   UNL A   1      38.400  31.344  36.517  1.00  0.00     0.173 A 
ATOM     61  C   UNL A   1      39.692  33.170  35.633  1.00  0.00     0.173 A 
ATOM     62  F   UNL A   1      37.960  30.079  36.457  1.00  0.00    -0.203 F 
ATOM     63  C   UNL A   1      37.953  32.163  37.550  1.00  0.00     0.198 A 
ATOM     64  C   UNL A   1      39.261  33.979  36.682  1.00  0.00     0.198 A 
ATOM     65  F   UNL A   1      40.529  33.686  34.721  1.00  0.00    -0.203 F 
ATOM     66  F   UNL A   1      37.090  31.684  38.458  1.00  0.00    -0.200 F 
ATOM     67  C   UNL A   1      38.387  33.478  37.635  1.00  0.00     0.200 A 
ATOM     68  F   UNL A   1      39.690  35.246  36.769  1.00  0.00    -0.200 F 
ATOM     69  F   UNL A   1      37.960  34.263  38.633  1.00  0.00    -0.200 F 
ENDBRANCH  45  59
BRANCH  46  70
ATOM     70  C   UNL A   1      42.404  26.303  27.866  1.00  0.00     0.064 A 
ATOM     71  C   UNL A   1      43.339  26.818  26.959  1.00  0.00     0.173 A 
ATOM     72  C   UNL A   1      41.938  24.997  27.659  1.00  0.00     0.173 A 
ATOM     73  F   UNL A   1      43.794  28.071  27.106  1.00  0.00    -0.203 F 
ATOM     74  C   UNL A   1      43.781  26.061  25.876  1.00  0.00     0.198 A 
ATOM     75  C   UNL A   1      42.399  24.233  26.589  1.00  0.00     0.198 A 
ATOM     76  F   UNL A   1      41.044  24.461  28.502  1.00  0.00    -0.203 F 
ATOM     77  F   UNL A   1      44.647  26.590  25.002  1.00  0.00    -0.200 F 
ATOM     78  C   UNL A   1      43.315  24.769  25.695  1.00  0.00     0.200 A 
ATOM     79  F   UNL A   1      41.954  22.981  26.422  1.00  0.00    -0.200 F 
ATOM     80  F   UNL A   1      43.742  24.039  24.655  1.00  0.00    -0.200 F 
ENDBRANCH  46  70
BRANCH  58  81
ATOM     81  C   UNL A   1      44.848  27.450  34.279  1.00  0.00     0.064 A 
ATOM     82  C   UNL A   1      44.799  26.272  35.038  1.00  0.00     0.173 A 
ATOM     83  C   UNL A   1      46.073  28.129  34.192  1.00  0.00     0.173 A 
ATOM     84  F   UNL A   1      43.646  25.598  35.164  1.00  0.00    -0.203 F 
ATOM     85  C   UNL A   1      45.929  25.803  35.702  1.00  0.00     0.198 A 
ATOM     86  C   UNL A   1      47.206  27.644  34.838  1.00  0.00     0.198 A 
ATOM     87  F   UNL A   1      46.170  29.258  33.476  1.00  0.00    -0.203 F 
ATOM     88  F   UNL A   1      45.851  24.697  36.455  1.00  0.00    -0.200 F 
ATOM     89  C   UNL A   1      47.132  26.486  35.597  1.00  0.00     0.200 A 
ATOM     90  F   UNL A   1      48.369  28.300  34.730  1.00  0.00    -0.200 F 
ATOM     91  F   UNL A   1      48.220  26.031  36.233  1.00  0.00    -0.200 F 
ENDBRANCH  58  81
ENDBRANCH  32  33
ENDBRANCH  24  27
ENDBRANCH  22  23
ENDBRANCH  21  22
ENDBRANCH   1  21
TORSDOF 15
ENDMDL
