MODEL 1
REMARK VINA RESULT:     -11.7      0.000      0.000
REMARK SMILES CCOc1ccc(-c2nn(-c3ccccc3)cc2/C=C2/SC(=S)N(CC(=O)NCCCNC(=O)c3ccc(-c4c5nc(c(-c6c(F)c(F)c(F)c(F)c6F)c6ccc([nH]6)c(-c6c(F)c(F)c(F)c(F)c6F)c6nc(c(-c7c(F)c(F)c(F)c(F)c7F)c7ccc4[nH]7)C=C6)C=C5)cc3)C2=O)cc1F
REMARK SMILES IDX 26 1 27 2 28 3 25 5 24 6 19 7 20 8 21 9 98 10 22 11 99 12
REMARK SMILES IDX 23 13 18 14 8 15 9 16 10 17 17 18 7 19 4 20 5 21 101 22 6 23
REMARK SMILES IDX 100 24 102 25 3 26 2 27 1 28 11 29 12 30 16 31 13 32 15 33
REMARK SMILES IDX 14 34 29 35 30 36 31 37 32 38 33 39 34 41 35 42 36 43 97 44
REMARK SMILES IDX 37 45 96 46 38 47 39 48 40 49 90 50 41 51 95 52 89 53 91 54
REMARK SMILES IDX 42 55 94 56 88 57 87 58 43 60 75 61 55 62 74 63 56 64 59 65
REMARK SMILES IDX 73 66 92 67 57 68 58 69 72 71 93 72 60 73 44 74 45 75 53 76
REMARK SMILES IDX 46 77 47 78 51 79 54 80 48 81 49 82 52 83 50 84 76 85 77 86
REMARK SMILES IDX 85 87 78 88 79 89 83 90 86 91 80 92 81 93 84 94 82 95 61 96
REMARK SMILES IDX 62 97 70 98 63 99 64 100 68 101 71 102 65 103 66 104 69 105
REMARK SMILES IDX 67 106
REMARK H PARENT 28 4 32 40 91 59 59 70
REMARK Flexibility Score: inf
ROOT
ATOM      1  C   UNL A   1      45.125  31.142  26.415  1.00  0.00     0.240 C 
ATOM      2  O   UNL A   1      45.938  30.301  26.023  1.00  0.00    -0.273 OA
ATOM      3  N   UNL A   1      45.101  32.341  25.760  1.00  0.00    -0.354 N 
ATOM      4  H   UNL A   1      45.911  32.557  25.243  1.00  0.00     0.163 HD
ENDROOT
BRANCH   1   5
ATOM      5  C   UNL A   1      44.095  30.808  27.505  1.00  0.00     0.227 C 
BRANCH   5   6
ATOM      6  N   UNL A   1      44.593  29.801  28.445  1.00  0.00    -0.283 N 
ATOM      7  C   UNL A   1      44.925  26.230  29.106  1.00  0.00     0.033 C 
ATOM      8  C   UNL A   1      44.940  27.571  29.143  1.00  0.00     0.081 C 
ATOM      9  S   UNL A   1      45.686  28.501  30.383  1.00  0.00    -0.054 SA
ATOM     10  C   UNL A   1      44.298  28.482  28.152  1.00  0.00     0.266 C 
ATOM     11  C   UNL A   1      45.198  30.034  29.658  1.00  0.00     0.148 C 
ATOM     12  O   UNL A   1      43.599  28.119  27.220  1.00  0.00    -0.268 OA
ATOM     13  S   UNL A   1      45.468  31.491  30.420  1.00  0.00    -0.052 S 
BRANCH   7  14
ATOM     14  C   UNL A   1      44.228  25.471  28.127  1.00  0.00     0.022 A 
ATOM     15  C   UNL A   1      44.660  25.098  26.829  1.00  0.00     0.100 A 
ATOM     16  N   UNL A   1      43.821  24.202  26.293  1.00  0.00    -0.167 NA
ATOM     17  N   UNL A   1      42.811  24.084  27.185  1.00  0.00    -0.240 N 
ATOM     18  C   UNL A   1      42.983  24.906  28.275  1.00  0.00     0.123 A 
BRANCH  15  19
ATOM     19  C   UNL A   1      45.793  25.593  26.064  1.00  0.00     0.006 A 
ATOM     20  C   UNL A   1      47.930  26.700  24.637  1.00  0.00     0.154 A 
ATOM     21  C   UNL A   1      48.138  25.576  25.437  1.00  0.00     0.050 A 
ATOM     22  C   UNL A   1      46.648  27.230  24.510  1.00  0.00     0.165 A 
ATOM     23  C   UNL A   1      47.069  25.023  26.156  1.00  0.00     0.014 A 
ATOM     24  C   UNL A   1      45.588  26.696  25.227  1.00  0.00     0.053 A 
ATOM     25  F   UNL A   1      46.406  28.257  23.686  1.00  0.00    -0.203 F 
BRANCH  20  26
ATOM     26  O   UNL A   1      48.974  27.182  23.896  1.00  0.00    -0.491 OA
BRANCH  26  27
ATOM     27  C   UNL A   1      49.085  26.549  22.614  1.00  0.00     0.226 C 
ATOM     28  C   UNL A   1      48.877  27.524  21.467  1.00  0.00     0.049 C 
ENDBRANCH  26  27
ENDBRANCH  20  26
ENDBRANCH  15  19
BRANCH  17  29
ATOM     29  C   UNL A   1      41.712  23.244  26.904  1.00  0.00     0.065 A 
ATOM     30  C   UNL A   1      41.948  21.894  26.613  1.00  0.00     0.028 A 
ATOM     31  C   UNL A   1      40.413  23.761  26.879  1.00  0.00     0.028 A 
ATOM     32  C   UNL A   1      40.878  21.060  26.298  1.00  0.00     0.002 A 
ATOM     33  C   UNL A   1      39.354  22.930  26.508  1.00  0.00     0.002 A 
ATOM     34  C   UNL A   1      39.588  21.584  26.221  1.00  0.00     0.000 A 
ENDBRANCH  17  29
ENDBRANCH   7  14
ENDBRANCH   5   6
ENDBRANCH   1   5
BRANCH   3  35
ATOM     35  C   UNL A   1      44.050  33.340  25.719  1.00  0.00     0.117 C 
BRANCH  35  36
ATOM     36  C   UNL A   1      44.569  34.773  25.852  1.00  0.00     0.042 C 
BRANCH  36  37
ATOM     37  C   UNL A   1      45.777  34.874  26.765  1.00  0.00     0.118 C 
BRANCH  37  38
ATOM     38  N   UNL A   1      46.065  36.244  27.192  1.00  0.00    -0.352 N 
ATOM     39  C   UNL A   1      45.282  37.090  27.961  1.00  0.00     0.251 C 
ATOM     40  H   UNL A   1      46.928  36.612  26.895  1.00  0.00     0.163 HD
ATOM     41  O   UNL A   1      45.484  38.290  27.982  1.00  0.00    -0.269 OA
BRANCH  39  42
ATOM     42  C   UNL A   1      44.184  36.501  28.748  1.00  0.00     0.039 A 
ATOM     43  C   UNL A   1      42.856  36.571  28.320  1.00  0.00     0.014 A 
ATOM     44  C   UNL A   1      44.520  35.824  29.913  1.00  0.00     0.014 A 
ATOM     45  C   UNL A   1      41.884  35.873  29.035  1.00  0.00     0.010 A 
ATOM     46  C   UNL A   1      43.610  34.983  30.490  1.00  0.00     0.010 A 
ATOM     47  C   UNL A   1      42.276  35.060  30.108  1.00  0.00    -0.014 A 
BRANCH  47  48
ATOM     48  C   UNL A   1      41.321  34.211  30.810  1.00  0.00     0.031 A 
ATOM     49  C   UNL A   1      41.696  33.841  32.203  1.00  0.00     0.074 A 
ATOM     50  C   UNL A   1      40.079  33.986  30.328  1.00  0.00     0.049 A 
ATOM     51  N   UNL A   1      41.865  32.656  32.692  1.00  0.00    -0.248 NA
ATOM     52  C   UNL A   1      42.012  34.926  33.148  1.00  0.00     0.031 C 
ATOM     53  C   UNL A   1      39.441  34.539  29.126  1.00  0.00     0.029 A 
ATOM     54  N   UNL A   1      39.064  33.286  30.898  1.00  0.00    -0.354 N 
ATOM     55  C   UNL A   1      42.153  32.831  34.042  1.00  0.00     0.074 A 
ATOM     56  C   UNL A   1      42.369  34.242  34.237  1.00  0.00     0.031 C 
ATOM     57  C   UNL A   1      38.106  34.353  29.192  1.00  0.00     0.029 A 
ATOM     58  C   UNL A   1      37.813  33.522  30.341  1.00  0.00     0.049 A 
ATOM     59  H   UNL A   1      39.204  32.661  31.645  1.00  0.00     0.167 HD
ATOM     60  C   UNL A   1      42.002  31.822  34.945  1.00  0.00     0.037 A 
ATOM     61  C   UNL A   1      36.624  33.084  30.826  1.00  0.00     0.037 A 
ATOM     62  C   UNL A   1      41.921  30.539  34.300  1.00  0.00     0.049 A 
ATOM     63  C   UNL A   1      36.930  31.943  31.730  1.00  0.00     0.074 A 
ATOM     64  C   UNL A   1      42.777  29.828  33.481  1.00  0.00     0.029 A 
ATOM     65  N   UNL A   1      40.681  29.978  34.109  1.00  0.00    -0.354 N 
ATOM     66  N   UNL A   1      37.415  30.803  31.318  1.00  0.00    -0.248 NA
ATOM     67  C   UNL A   1      37.138  32.241  33.139  1.00  0.00     0.031 C 
ATOM     68  C   UNL A   1      41.937  29.265  32.477  1.00  0.00     0.029 A 
ATOM     69  C   UNL A   1      40.617  29.597  32.790  1.00  0.00     0.049 A 
ATOM     70  H   UNL A   1      39.974  29.870  34.785  1.00  0.00     0.167 HD
ATOM     71  C   UNL A   1      38.335  30.439  32.289  1.00  0.00     0.074 A 
ATOM     72  C   UNL A   1      38.069  31.324  33.421  1.00  0.00     0.031 C 
ATOM     73  C   UNL A   1      39.416  29.659  31.990  1.00  0.00     0.037 A 
BRANCH  60  74
ATOM     74  C   UNL A   1      41.641  32.033  36.389  1.00  0.00     0.064 A 
ATOM     75  C   UNL A   1      42.581  31.926  37.437  1.00  0.00     0.173 A 
ATOM     76  C   UNL A   1      40.402  32.604  36.735  1.00  0.00     0.173 A 
ATOM     77  F   UNL A   1      43.842  31.535  37.214  1.00  0.00    -0.203 F 
ATOM     78  C   UNL A   1      42.293  32.322  38.740  1.00  0.00     0.198 A 
ATOM     79  C   UNL A   1      40.137  33.054  38.033  1.00  0.00     0.198 A 
ATOM     80  F   UNL A   1      39.457  32.799  35.804  1.00  0.00    -0.203 F 
ATOM     81  F   UNL A   1      43.230  32.196  39.689  1.00  0.00    -0.200 F 
ATOM     82  C   UNL A   1      41.080  32.907  39.035  1.00  0.00     0.200 A 
ATOM     83  F   UNL A   1      38.982  33.680  38.298  1.00  0.00    -0.200 F 
ATOM     84  F   UNL A   1      40.841  33.372  40.268  1.00  0.00    -0.200 F 
ENDBRANCH  60  74
BRANCH  61  85
ATOM     85  C   UNL A   1      35.302  33.760  30.797  1.00  0.00     0.064 A 
ATOM     86  C   UNL A   1      34.479  33.748  29.653  1.00  0.00     0.173 A 
ATOM     87  C   UNL A   1      34.945  34.670  31.806  1.00  0.00     0.173 A 
ATOM     88  F   UNL A   1      34.770  32.976  28.598  1.00  0.00    -0.203 F 
ATOM     89  C   UNL A   1      33.387  34.608  29.520  1.00  0.00     0.198 A 
ATOM     90  C   UNL A   1      33.865  35.549  31.660  1.00  0.00     0.198 A 
ATOM     91  F   UNL A   1      35.688  34.771  32.918  1.00  0.00    -0.203 F 
ATOM     92  F   UNL A   1      32.664  34.594  28.391  1.00  0.00    -0.200 F 
ATOM     93  C   UNL A   1      33.096  35.526  30.509  1.00  0.00     0.200 A 
ATOM     94  F   UNL A   1      33.611  36.458  32.610  1.00  0.00    -0.200 F 
ATOM     95  F   UNL A   1      32.110  36.417  30.333  1.00  0.00    -0.200 F 
ENDBRANCH  61  85
BRANCH  73  96
ATOM     96  C   UNL A   1      39.484  29.020  30.626  1.00  0.00     0.064 A 
ATOM     97  C   UNL A   1      39.072  27.686  30.496  1.00  0.00     0.173 A 
ATOM     98  C   UNL A   1      40.110  29.607  29.512  1.00  0.00     0.173 A 
ATOM     99  F   UNL A   1      38.517  27.052  31.540  1.00  0.00    -0.203 F 
ATOM    100  C   UNL A   1      39.284  26.973  29.319  1.00  0.00     0.198 A 
ATOM    101  C   UNL A   1      40.289  28.903  28.321  1.00  0.00     0.198 A 
ATOM    102  F   UNL A   1      40.621  30.841  29.576  1.00  0.00    -0.203 F 
ATOM    103  F   UNL A   1      38.938  25.680  29.253  1.00  0.00    -0.200 F 
ATOM    104  C   UNL A   1      39.886  27.582  28.230  1.00  0.00     0.200 A 
ATOM    105  F   UNL A   1      40.892  29.490  27.276  1.00  0.00    -0.200 F 
ATOM    106  F   UNL A   1      40.106  26.887  27.105  1.00  0.00    -0.200 F 
ENDBRANCH  73  96
ENDBRANCH  47  48
ENDBRANCH  39  42
ENDBRANCH  37  38
ENDBRANCH  36  37
ENDBRANCH  35  36
ENDBRANCH   3  35
TORSDOF 16
ENDMDL
MODEL 2
REMARK VINA RESULT:     -11.5      4.446     10.839
REMARK SMILES CCOc1ccc(-c2nn(-c3ccccc3)cc2/C=C2/SC(=S)N(CC(=O)NCCCNC(=O)c3ccc(-c4c5nc(c(-c6c(F)c(F)c(F)c(F)c6F)c6ccc([nH]6)c(-c6c(F)c(F)c(F)c(F)c6F)c6nc(c(-c7c(F)c(F)c(F)c(F)c7F)c7ccc4[nH]7)C=C6)C=C5)cc3)C2=O)cc1F
REMARK SMILES IDX 26 1 27 2 28 3 25 5 24 6 19 7 20 8 21 9 98 10 22 11 99 12
REMARK SMILES IDX 23 13 18 14 8 15 9 16 10 17 17 18 7 19 4 20 5 21 101 22 6 23
REMARK SMILES IDX 100 24 102 25 3 26 2 27 1 28 11 29 12 30 16 31 13 32 15 33
REMARK SMILES IDX 14 34 29 35 30 36 31 37 32 38 33 39 34 41 35 42 36 43 97 44
REMARK SMILES IDX 37 45 96 46 38 47 39 48 40 49 90 50 41 51 95 52 89 53 91 54
REMARK SMILES IDX 42 55 94 56 88 57 87 58 43 60 75 61 55 62 74 63 56 64 59 65
REMARK SMILES IDX 73 66 92 67 57 68 58 69 72 71 93 72 60 73 44 74 45 75 53 76
REMARK SMILES IDX 46 77 47 78 51 79 54 80 48 81 49 82 52 83 50 84 76 85 77 86
REMARK SMILES IDX 85 87 78 88 79 89 83 90 86 91 80 92 81 93 84 94 82 95 61 96
REMARK SMILES IDX 62 97 70 98 63 99 64 100 68 101 71 102 65 103 66 104 69 105
REMARK SMILES IDX 67 106
REMARK H PARENT 28 4 32 40 91 59 59 70
REMARK Flexibility Score: inf
ROOT
ATOM      1  C   UNL A   1      38.393  29.730  33.074  1.00  0.00     0.240 C 
ATOM      2  O   UNL A   1      39.492  29.203  33.260  1.00  0.00    -0.273 OA
ATOM      3  N   UNL A   1      38.224  31.005  33.538  1.00  0.00    -0.354 N 
ATOM      4  H   UNL A   1      38.862  31.290  34.232  1.00  0.00     0.163 HD
ENDROOT
BRANCH   1   5
ATOM      5  C   UNL A   1      37.304  29.034  32.242  1.00  0.00     0.227 C 
BRANCH   5   6
ATOM      6  N   UNL A   1      37.574  29.113  30.805  1.00  0.00    -0.283 N 
ATOM      7  C   UNL A   1      36.724  30.808  27.690  1.00  0.00     0.033 C 
ATOM      8  C   UNL A   1      37.224  30.015  28.651  1.00  0.00     0.081 C 
ATOM      9  S   UNL A   1      38.468  28.854  28.403  1.00  0.00    -0.054 SA
ATOM     10  C   UNL A   1      36.779  29.975  30.073  1.00  0.00     0.266 C 
ATOM     11  C   UNL A   1      38.434  28.319  30.084  1.00  0.00     0.148 C 
ATOM     12  O   UNL A   1      35.837  30.603  30.528  1.00  0.00    -0.268 OA
ATOM     13  S   UNL A   1      39.344  27.026  30.612  1.00  0.00    -0.052 S 
BRANCH   7  14
ATOM     14  C   UNL A   1      35.634  31.700  27.884  1.00  0.00     0.022 A 
ATOM     15  C   UNL A   1      34.248  31.442  27.740  1.00  0.00     0.100 A 
ATOM     16  N   UNL A   1      33.526  32.462  28.222  1.00  0.00    -0.167 NA
ATOM     17  N   UNL A   1      34.432  33.404  28.570  1.00  0.00    -0.240 N 
ATOM     18  C   UNL A   1      35.722  33.008  28.299  1.00  0.00     0.123 A 
BRANCH  15  19
ATOM     19  C   UNL A   1      33.588  30.305  27.119  1.00  0.00     0.006 A 
ATOM     20  C   UNL A   1      32.319  28.201  25.780  1.00  0.00     0.154 A 
ATOM     21  C   UNL A   1      33.382  27.933  26.644  1.00  0.00     0.050 A 
ATOM     22  C   UNL A   1      31.862  29.508  25.632  1.00  0.00     0.165 A 
ATOM     23  C   UNL A   1      34.021  28.986  27.313  1.00  0.00     0.014 A 
ATOM     24  C   UNL A   1      32.496  30.557  26.280  1.00  0.00     0.053 A 
ATOM     25  F   UNL A   1      30.793  29.782  24.873  1.00  0.00    -0.203 F 
BRANCH  20  26
ATOM     26  O   UNL A   1      31.672  27.151  25.189  1.00  0.00    -0.491 OA
BRANCH  26  27
ATOM     27  C   UNL A   1      30.810  26.448  26.096  1.00  0.00     0.226 C 
ATOM     28  C   UNL A   1      31.109  24.958  26.141  1.00  0.00     0.049 C 
ENDBRANCH  26  27
ENDBRANCH  20  26
ENDBRANCH  15  19
BRANCH  17  29
ATOM     29  C   UNL A   1      34.002  34.649  29.076  1.00  0.00     0.065 A 
ATOM     30  C   UNL A   1      34.047  35.772  28.240  1.00  0.00     0.028 A 
ATOM     31  C   UNL A   1      33.574  34.767  30.403  1.00  0.00     0.028 A 
ATOM     32  C   UNL A   1      33.661  37.016  28.734  1.00  0.00     0.002 A 
ATOM     33  C   UNL A   1      33.242  36.026  30.904  1.00  0.00     0.002 A 
ATOM     34  C   UNL A   1      33.285  37.145  30.071  1.00  0.00     0.000 A 
ENDBRANCH  17  29
ENDBRANCH   7  14
ENDBRANCH   5   6
ENDBRANCH   1   5
BRANCH   3  35
ATOM     35  C   UNL A   1      37.239  31.997  33.151  1.00  0.00     0.117 C 
BRANCH  35  36
ATOM     36  C   UNL A   1      37.819  33.131  32.304  1.00  0.00     0.042 C 
BRANCH  36  37
ATOM     37  C   UNL A   1      39.337  33.113  32.267  1.00  0.00     0.118 C 
BRANCH  37  38
ATOM     38  N   UNL A   1      39.906  34.184  31.448  1.00  0.00    -0.352 N 
ATOM     39  C   UNL A   1      41.052  34.157  30.669  1.00  0.00     0.251 C 
ATOM     40  H   UNL A   1      39.411  35.034  31.450  1.00  0.00     0.163 HD
ATOM     41  O   UNL A   1      41.585  35.185  30.295  1.00  0.00    -0.269 OA
BRANCH  39  42
ATOM     42  C   UNL A   1      41.622  32.845  30.312  1.00  0.00     0.039 A 
ATOM     43  C   UNL A   1      42.997  32.668  30.132  1.00  0.00     0.014 A 
ATOM     44  C   UNL A   1      40.748  31.771  30.211  1.00  0.00     0.014 A 
ATOM     45  C   UNL A   1      43.486  31.377  29.937  1.00  0.00     0.010 A 
ATOM     46  C   UNL A   1      41.243  30.496  30.223  1.00  0.00     0.010 A 
ATOM     47  C   UNL A   1      42.601  30.292  30.008  1.00  0.00    -0.014 A 
BRANCH  47  48
ATOM     48  C   UNL A   1      43.075  28.916  29.937  1.00  0.00     0.031 A 
ATOM     49  C   UNL A   1      43.586  28.347  31.216  1.00  0.00     0.074 A 
ATOM     50  C   UNL A   1      42.837  28.134  28.861  1.00  0.00     0.049 A 
ATOM     51  N   UNL A   1      44.765  27.878  31.462  1.00  0.00    -0.248 NA
ATOM     52  C   UNL A   1      42.703  28.389  32.395  1.00  0.00     0.031 C 
ATOM     53  C   UNL A   1      42.067  28.444  27.649  1.00  0.00     0.029 A 
ATOM     54  N   UNL A   1      43.147  26.824  28.681  1.00  0.00    -0.354 N 
ATOM     55  C   UNL A   1      44.734  27.419  32.776  1.00  0.00     0.074 A 
ATOM     56  C   UNL A   1      43.494  27.883  33.343  1.00  0.00     0.031 C 
ATOM     57  C   UNL A   1      41.773  27.301  26.993  1.00  0.00     0.029 A 
ATOM     58  C   UNL A   1      42.474  26.208  27.634  1.00  0.00     0.049 A 
ATOM     59  H   UNL A   1      43.799  26.350  29.246  1.00  0.00     0.167 HD
ATOM     60  C   UNL A   1      45.645  26.521  33.244  1.00  0.00     0.037 A 
ATOM     61  C   UNL A   1      42.475  24.881  27.350  1.00  0.00     0.037 A 
ATOM     62  C   UNL A   1      46.802  26.445  32.393  1.00  0.00     0.049 A 
ATOM     63  C   UNL A   1      43.671  24.306  28.022  1.00  0.00     0.074 A 
ATOM     64  C   UNL A   1      47.750  27.364  31.988  1.00  0.00     0.029 A 
ATOM     65  N   UNL A   1      46.886  25.412  31.491  1.00  0.00    -0.354 N 
ATOM     66  N   UNL A   1      44.899  24.590  27.681  1.00  0.00    -0.248 NA
ATOM     67  C   UNL A   1      43.498  23.787  29.370  1.00  0.00     0.031 C 
ATOM     68  C   UNL A   1      47.958  27.089  30.606  1.00  0.00     0.029 A 
ATOM     69  C   UNL A   1      47.190  25.972  30.273  1.00  0.00     0.049 A 
ATOM     70  H   UNL A   1      46.753  24.455  31.679  1.00  0.00     0.167 HD
ATOM     71  C   UNL A   1      45.587  24.683  28.882  1.00  0.00     0.074 A 
ATOM     72  C   UNL A   1      44.690  24.108  29.882  1.00  0.00     0.031 C 
ATOM     73  C   UNL A   1      46.690  25.478  29.011  1.00  0.00     0.037 A 
BRANCH  60  74
ATOM     74  C   UNL A   1      45.353  25.510  34.317  1.00  0.00     0.064 A 
ATOM     75  C   UNL A   1      44.571  24.357  34.091  1.00  0.00     0.173 A 
ATOM     76  C   UNL A   1      46.066  25.536  35.531  1.00  0.00     0.173 A 
ATOM     77  F   UNL A   1      43.959  24.141  32.919  1.00  0.00    -0.203 F 
ATOM     78  C   UNL A   1      44.475  23.326  35.022  1.00  0.00     0.198 A 
ATOM     79  C   UNL A   1      46.013  24.473  36.439  1.00  0.00     0.198 A 
ATOM     80  F   UNL A   1      46.879  26.562  35.822  1.00  0.00    -0.203 F 
ATOM     81  F   UNL A   1      43.717  22.257  34.745  1.00  0.00    -0.200 F 
ATOM     82  C   UNL A   1      45.213  23.372  36.186  1.00  0.00     0.200 A 
ATOM     83  F   UNL A   1      46.782  24.494  37.536  1.00  0.00    -0.200 F 
ATOM     84  F   UNL A   1      45.191  22.337  37.035  1.00  0.00    -0.200 F 
ENDBRANCH  60  74
BRANCH  61  85
ATOM     85  C   UNL A   1      41.377  24.046  26.802  1.00  0.00     0.064 A 
ATOM     86  C   UNL A   1      40.020  24.398  26.952  1.00  0.00     0.173 A 
ATOM     87  C   UNL A   1      41.629  22.736  26.361  1.00  0.00     0.173 A 
ATOM     88  F   UNL A   1      39.665  25.594  27.439  1.00  0.00    -0.203 F 
ATOM     89  C   UNL A   1      38.989  23.491  26.701  1.00  0.00     0.198 A 
ATOM     90  C   UNL A   1      40.596  21.820  26.135  1.00  0.00     0.198 A 
ATOM     91  F   UNL A   1      42.891  22.304  26.219  1.00  0.00    -0.203 F 
ATOM     92  F   UNL A   1      37.716  23.858  26.906  1.00  0.00    -0.200 F 
ATOM     93  C   UNL A   1      39.277  22.195  26.319  1.00  0.00     0.200 A 
ATOM     94  F   UNL A   1      40.885  20.557  25.797  1.00  0.00    -0.200 F 
ATOM     95  F   UNL A   1      38.289  21.300  26.178  1.00  0.00    -0.200 F 
ENDBRANCH  61  85
BRANCH  73  96
ATOM     96  C   UNL A   1      47.281  26.093  27.768  1.00  0.00     0.064 A 
ATOM     97  C   UNL A   1      48.441  25.519  27.229  1.00  0.00     0.173 A 
ATOM     98  C   UNL A   1      46.859  27.318  27.219  1.00  0.00     0.173 A 
ATOM     99  F   UNL A   1      48.925  24.379  27.745  1.00  0.00    -0.203 F 
ATOM    100  C   UNL A   1      49.148  26.141  26.203  1.00  0.00     0.198 A 
ATOM    101  C   UNL A   1      47.549  27.921  26.167  1.00  0.00     0.198 A 
ATOM    102  F   UNL A   1      45.821  27.985  27.734  1.00  0.00    -0.203 F 
ATOM    103  F   UNL A   1      50.290  25.598  25.759  1.00  0.00    -0.200 F 
ATOM    104  C   UNL A   1      48.700  27.337  25.669  1.00  0.00     0.200 A 
ATOM    105  F   UNL A   1      47.123  29.091  25.666  1.00  0.00    -0.200 F 
ATOM    106  F   UNL A   1      49.395  27.943  24.695  1.00  0.00    -0.200 F 
ENDBRANCH  73  96
ENDBRANCH  47  48
ENDBRANCH  39  42
ENDBRANCH  37  38
ENDBRANCH  36  37
ENDBRANCH  35  36
ENDBRANCH   3  35
TORSDOF 16
ENDMDL
MODEL 3
REMARK VINA RESULT:     -11.4      4.255     13.017
REMARK SMILES CCOc1ccc(-c2nn(-c3ccccc3)cc2/C=C2/SC(=S)N(CC(=O)NCCCNC(=O)c3ccc(-c4c5nc(c(-c6c(F)c(F)c(F)c(F)c6F)c6ccc([nH]6)c(-c6c(F)c(F)c(F)c(F)c6F)c6nc(c(-c7c(F)c(F)c(F)c(F)c7F)c7ccc4[nH]7)C=C6)C=C5)cc3)C2=O)cc1F
REMARK SMILES IDX 26 1 27 2 28 3 25 5 24 6 19 7 20 8 21 9 98 10 22 11 99 12
REMARK SMILES IDX 23 13 18 14 8 15 9 16 10 17 17 18 7 19 4 20 5 21 101 22 6 23
REMARK SMILES IDX 100 24 102 25 3 26 2 27 1 28 11 29 12 30 16 31 13 32 15 33
REMARK SMILES IDX 14 34 29 35 30 36 31 37 32 38 33 39 34 41 35 42 36 43 97 44
REMARK SMILES IDX 37 45 96 46 38 47 39 48 40 49 90 50 41 51 95 52 89 53 91 54
REMARK SMILES IDX 42 55 94 56 88 57 87 58 43 60 75 61 55 62 74 63 56 64 59 65
REMARK SMILES IDX 73 66 92 67 57 68 58 69 72 71 93 72 60 73 44 74 45 75 53 76
REMARK SMILES IDX 46 77 47 78 51 79 54 80 48 81 49 82 52 83 50 84 76 85 77 86
REMARK SMILES IDX 85 87 78 88 79 89 83 90 86 91 80 92 81 93 84 94 82 95 61 96
REMARK SMILES IDX 62 97 70 98 63 99 64 100 68 101 71 102 65 103 66 104 69 105
REMARK SMILES IDX 67 106
REMARK H PARENT 28 4 32 40 91 59 59 70
REMARK Flexibility Score: inf
ROOT
ATOM      1  C   UNL A   1      40.895  28.635  34.160  1.00  0.00     0.240 C 
ATOM      2  O   UNL A   1      40.150  28.980  33.240  1.00  0.00    -0.273 OA
ATOM      3  N   UNL A   1      41.016  27.295  34.398  1.00  0.00    -0.354 N 
ATOM      4  H   UNL A   1      40.293  26.734  34.036  1.00  0.00     0.163 HD
ENDROOT
BRANCH   1   5
ATOM      5  C   UNL A   1      41.751  29.661  34.920  1.00  0.00     0.227 C 
BRANCH   5   6
ATOM      6  N   UNL A   1      41.486  31.033  34.482  1.00  0.00    -0.283 N 
ATOM      7  C   UNL A   1      39.489  34.028  35.070  1.00  0.00     0.033 C 
ATOM      8  C   UNL A   1      40.341  33.095  34.618  1.00  0.00     0.081 C 
ATOM      9  S   UNL A   1      41.475  33.347  33.349  1.00  0.00    -0.054 SA
ATOM     10  C   UNL A   1      40.437  31.687  35.100  1.00  0.00     0.266 C 
ATOM     11  C   UNL A   1      42.074  31.689  33.426  1.00  0.00     0.148 C 
ATOM     12  O   UNL A   1      39.687  31.177  35.917  1.00  0.00    -0.268 OA
ATOM     13  S   UNL A   1      43.180  31.103  32.326  1.00  0.00    -0.052 S 
BRANCH   7  14
ATOM     14  C   UNL A   1      38.494  33.783  36.055  1.00  0.00     0.022 A 
ATOM     15  C   UNL A   1      37.134  33.435  35.867  1.00  0.00     0.100 A 
ATOM     16  N   UNL A   1      36.574  33.072  37.028  1.00  0.00    -0.167 NA
ATOM     17  N   UNL A   1      37.528  33.286  37.963  1.00  0.00    -0.240 N 
ATOM     18  C   UNL A   1      38.683  33.800  37.417  1.00  0.00     0.123 A 
BRANCH  15  19
ATOM     19  C   UNL A   1      36.336  33.487  34.652  1.00  0.00     0.006 A 
ATOM     20  C   UNL A   1      34.761  33.426  32.340  1.00  0.00     0.154 A 
ATOM     21  C   UNL A   1      34.647  34.495  33.229  1.00  0.00     0.050 A 
ATOM     22  C   UNL A   1      35.698  32.424  32.582  1.00  0.00     0.165 A 
ATOM     23  C   UNL A   1      35.432  34.525  34.390  1.00  0.00     0.014 A 
ATOM     24  C   UNL A   1      36.469  32.439  33.733  1.00  0.00     0.053 A 
ATOM     25  F   UNL A   1      35.884  31.429  31.704  1.00  0.00    -0.203 F 
BRANCH  20  26
ATOM     26  O   UNL A   1      34.031  33.451  31.184  1.00  0.00    -0.491 OA
BRANCH  26  27
ATOM     27  C   UNL A   1      34.830  33.743  30.028  1.00  0.00     0.226 C 
ATOM     28  C   UNL A   1      34.035  33.648  28.736  1.00  0.00     0.049 C 
ENDBRANCH  26  27
ENDBRANCH  20  26
ENDBRANCH  15  19
BRANCH  17  29
ATOM     29  C   UNL A   1      37.250  33.051  39.326  1.00  0.00     0.065 A 
ATOM     30  C   UNL A   1      36.318  32.062  39.667  1.00  0.00     0.028 A 
ATOM     31  C   UNL A   1      37.865  33.821  40.319  1.00  0.00     0.028 A 
ATOM     32  C   UNL A   1      36.005  31.842  41.007  1.00  0.00     0.002 A 
ATOM     33  C   UNL A   1      37.503  33.632  41.653  1.00  0.00     0.002 A 
ATOM     34  C   UNL A   1      36.577  32.644  41.994  1.00  0.00     0.000 A 
ENDBRANCH  17  29
ENDBRANCH   7  14
ENDBRANCH   5   6
ENDBRANCH   1   5
BRANCH   3  35
ATOM     35  C   UNL A   1      42.062  26.582  35.108  1.00  0.00     0.117 C 
BRANCH  35  36
ATOM     36  C   UNL A   1      41.532  25.682  36.226  1.00  0.00     0.042 C 
BRANCH  36  37
ATOM     37  C   UNL A   1      42.311  24.384  36.345  1.00  0.00     0.118 C 
BRANCH  37  38
ATOM     38  N   UNL A   1      43.578  24.535  37.061  1.00  0.00    -0.352 N 
ATOM     39  C   UNL A   1      44.868  24.465  36.557  1.00  0.00     0.251 C 
ATOM     40  H   UNL A   1      43.506  24.710  38.027  1.00  0.00     0.163 HD
ATOM     41  O   UNL A   1      45.823  24.295  37.291  1.00  0.00    -0.269 OA
BRANCH  39  42
ATOM     42  C   UNL A   1      45.054  24.591  35.101  1.00  0.00     0.039 A 
ATOM     43  C   UNL A   1      45.040  23.474  34.261  1.00  0.00     0.014 A 
ATOM     44  C   UNL A   1      45.194  25.870  34.578  1.00  0.00     0.014 A 
ATOM     45  C   UNL A   1      45.080  23.671  32.882  1.00  0.00     0.010 A 
ATOM     46  C   UNL A   1      45.029  26.071  33.236  1.00  0.00     0.010 A 
ATOM     47  C   UNL A   1      45.050  24.979  32.377  1.00  0.00    -0.014 A 
BRANCH  47  48
ATOM     48  C   UNL A   1      44.962  25.242  30.946  1.00  0.00     0.031 A 
ATOM     49  C   UNL A   1      45.983  26.181  30.403  1.00  0.00     0.074 A 
ATOM     50  C   UNL A   1      44.178  24.502  30.132  1.00  0.00     0.049 A 
ATOM     51  N   UNL A   1      45.786  27.302  29.791  1.00  0.00    -0.248 NA
ATOM     52  C   UNL A   1      47.404  25.879  30.650  1.00  0.00     0.031 C 
ATOM     53  C   UNL A   1      43.353  23.331  30.460  1.00  0.00     0.029 A 
ATOM     54  N   UNL A   1      44.048  24.578  28.782  1.00  0.00    -0.354 N 
ATOM     55  C   UNL A   1      47.045  27.777  29.434  1.00  0.00     0.074 A 
ATOM     56  C   UNL A   1      48.005  26.938  30.107  1.00  0.00     0.031 C 
ATOM     57  C   UNL A   1      43.017  22.679  29.327  1.00  0.00     0.029 A 
ATOM     58  C   UNL A   1      43.447  23.472  28.194  1.00  0.00     0.049 A 
ATOM     59  H   UNL A   1      44.355  25.356  28.262  1.00  0.00     0.167 HD
ATOM     60  C   UNL A   1      47.210  28.708  28.453  1.00  0.00     0.037 A 
ATOM     61  C   UNL A   1      43.351  23.225  26.864  1.00  0.00     0.037 A 
ATOM     62  C   UNL A   1      45.980  29.390  28.156  1.00  0.00     0.049 A 
ATOM     63  C   UNL A   1      43.545  24.529  26.176  1.00  0.00     0.074 A 
ATOM     64  C   UNL A   1      45.117  30.169  28.903  1.00  0.00     0.029 A 
ATOM     65  N   UNL A   1      45.254  28.988  27.061  1.00  0.00    -0.354 N 
ATOM     66  N   UNL A   1      42.705  25.525  26.260  1.00  0.00    -0.248 NA
ATOM     67  C   UNL A   1      44.900  24.883  25.782  1.00  0.00     0.031 C 
ATOM     68  C   UNL A   1      43.813  29.754  28.506  1.00  0.00     0.029 A 
ATOM     69  C   UNL A   1      43.959  28.811  27.487  1.00  0.00     0.049 A 
ATOM     70  H   UNL A   1      45.594  28.853  26.147  1.00  0.00     0.167 HD
ATOM     71  C   UNL A   1      43.504  26.655  26.340  1.00  0.00     0.074 A 
ATOM     72  C   UNL A   1      44.843  26.205  25.967  1.00  0.00     0.031 C 
ATOM     73  C   UNL A   1      43.078  27.785  26.980  1.00  0.00     0.037 A 
BRANCH  60  74
ATOM     74  C   UNL A   1      48.424  28.791  27.570  1.00  0.00     0.064 A 
ATOM     75  C   UNL A   1      49.429  29.767  27.741  1.00  0.00     0.173 A 
ATOM     76  C   UNL A   1      48.739  27.736  26.694  1.00  0.00     0.173 A 
ATOM     77  F   UNL A   1      49.315  30.743  28.651  1.00  0.00    -0.203 F 
ATOM     78  C   UNL A   1      50.643  29.715  27.061  1.00  0.00     0.198 A 
ATOM     79  C   UNL A   1      49.981  27.656  26.056  1.00  0.00     0.198 A 
ATOM     80  F   UNL A   1      47.874  26.730  26.500  1.00  0.00    -0.203 F 
ATOM     81  F   UNL A   1      51.557  30.672  27.269  1.00  0.00    -0.200 F 
ATOM     82  C   UNL A   1      50.929  28.648  26.235  1.00  0.00     0.200 A 
ATOM     83  F   UNL A   1      50.277  26.585  25.306  1.00  0.00    -0.200 F 
ATOM     84  F   UNL A   1      52.132  28.554  25.654  1.00  0.00    -0.200 F 
ENDBRANCH  60  74
BRANCH  61  85
ATOM     85  C   UNL A   1      43.400  21.922  26.154  1.00  0.00     0.064 A 
ATOM     86  C   UNL A   1      42.299  21.043  26.121  1.00  0.00     0.173 A 
ATOM     87  C   UNL A   1      44.629  21.388  25.728  1.00  0.00     0.173 A 
ATOM     88  F   UNL A   1      41.097  21.421  26.576  1.00  0.00    -0.203 F 
ATOM     89  C   UNL A   1      42.425  19.713  25.713  1.00  0.00     0.198 A 
ATOM     90  C   UNL A   1      44.759  20.049  25.344  1.00  0.00     0.198 A 
ATOM     91  F   UNL A   1      45.737  22.143  25.754  1.00  0.00    -0.203 F 
ATOM     92  F   UNL A   1      41.358  18.903  25.747  1.00  0.00    -0.200 F 
ATOM     93  C   UNL A   1      43.659  19.209  25.351  1.00  0.00     0.200 A 
ATOM     94  F   UNL A   1      45.965  19.560  25.026  1.00  0.00    -0.200 F 
ATOM     95  F   UNL A   1      43.795  17.908  25.057  1.00  0.00    -0.200 F 
ENDBRANCH  61  85
BRANCH  73  96
ATOM     96  C   UNL A   1      41.637  27.861  27.418  1.00  0.00     0.064 A 
ATOM     97  C   UNL A   1      40.751  28.638  26.658  1.00  0.00     0.173 A 
ATOM     98  C   UNL A   1      41.159  27.362  28.643  1.00  0.00     0.173 A 
ATOM     99  F   UNL A   1      41.163  29.187  25.505  1.00  0.00    -0.203 F 
ATOM    100  C   UNL A   1      39.460  28.910  27.102  1.00  0.00     0.198 A 
ATOM    101  C   UNL A   1      39.854  27.606  29.070  1.00  0.00     0.198 A 
ATOM    102  F   UNL A   1      41.962  26.694  29.477  1.00  0.00    -0.203 F 
ATOM    103  F   UNL A   1      38.664  29.712  26.382  1.00  0.00    -0.200 F 
ATOM    104  C   UNL A   1      39.009  28.390  28.304  1.00  0.00     0.200 A 
ATOM    105  F   UNL A   1      39.428  27.118  30.246  1.00  0.00    -0.200 F 
ATOM    106  F   UNL A   1      37.773  28.671  28.739  1.00  0.00    -0.200 F 
ENDBRANCH  73  96
ENDBRANCH  47  48
ENDBRANCH  39  42
ENDBRANCH  37  38
ENDBRANCH  36  37
ENDBRANCH  35  36
ENDBRANCH   3  35
TORSDOF 16
ENDMDL
