MODEL 1
REMARK VINA RESULT:     -11.4      0.000      0.000
REMARK SMILES CCCCCCNC(=O)Oc1cccc(-c2ccc(CC(=O)NCCCNC(=O)c3ccc(-c4c5nc(c(-c6c(F)c(F)c(F)c(F)c6F)c6ccc([nH]6)c(-c6c(F)c(F)c(F)c(F)c6F)c6nc(c(-c7c(F)c(F)c(F)c(F)c7F)c7ccc4[nH]7)C=C6)C=C5)cc3)cc2F)c1
REMARK SMILES IDX 16 1 17 2 18 3 19 4 93 5 94 6 95 7 15 8 11 9 12 10 96 11
REMARK SMILES IDX 13 12 14 13 10 14 8 15 7 16 9 18 6 19 5 20 4 21 3 22 2 23
REMARK SMILES IDX 1 24 20 25 21 26 22 27 23 28 24 30 25 31 26 32 27 33 28 34
REMARK SMILES IDX 29 36 30 37 31 38 92 39 32 40 91 41 33 42 34 43 35 44 85 45
REMARK SMILES IDX 36 46 90 47 84 48 86 49 37 50 89 51 83 52 82 53 38 55 70 56
REMARK SMILES IDX 50 57 69 58 51 59 54 60 68 61 87 62 52 63 53 64 67 66 88 67
REMARK SMILES IDX 55 68 39 69 40 70 48 71 41 72 42 73 46 74 49 75 43 76 44 77
REMARK SMILES IDX 47 78 45 79 71 80 72 81 80 82 73 83 74 84 78 85 81 86 75 87
REMARK SMILES IDX 76 88 79 89 77 90 56 91 57 92 65 93 58 94 59 95 63 96 66 97
REMARK SMILES IDX 60 98 61 99 64 100 62 101
REMARK H PARENT 7 17 23 29 27 35 86 54 54 65
REMARK Flexibility Score: inf
ROOT
ATOM      1  C   UNL A   1      31.372  24.123  23.417  1.00  0.00     0.018 A 
ATOM      2  C   UNL A   1      30.998  23.293  24.487  1.00  0.00     0.012 A 
ATOM      3  C   UNL A   1      31.503  21.993  24.608  1.00  0.00     0.005 A 
ATOM      4  C   UNL A   1      32.401  21.488  23.660  1.00  0.00    -0.036 A 
ATOM      5  C   UNL A   1      32.734  22.283  22.560  1.00  0.00     0.044 A 
ATOM      6  C   UNL A   1      32.236  23.580  22.454  1.00  0.00     0.131 A 
ATOM      7  F   UNL A   1      32.644  24.319  21.410  1.00  0.00    -0.206 F 
ENDROOT
BRANCH   1   8
ATOM      8  C   UNL A   1      30.888  25.511  23.321  1.00  0.00    -0.012 A 
ATOM      9  C   UNL A   1      31.277  27.863  22.852  1.00  0.00     0.133 A 
ATOM     10  C   UNL A   1      29.968  28.180  23.204  1.00  0.00     0.047 A 
ATOM     11  C   UNL A   1      31.743  26.549  22.922  1.00  0.00     0.056 A 
ATOM     12  C   UNL A   1      29.105  27.164  23.600  1.00  0.00     0.004 A 
ATOM     13  C   UNL A   1      29.559  25.842  23.655  1.00  0.00     0.009 A 
BRANCH   9  14
ATOM     14  O   UNL A   1      32.135  28.930  22.544  1.00  0.00    -0.410 OA
BRANCH  14  15
ATOM     15  C   UNL A   1      33.498  28.740  22.704  1.00  0.00     0.412 C 
ATOM     16  N   UNL A   1      33.949  29.077  23.949  1.00  0.00    -0.321 N 
ATOM     17  H   UNL A   1      34.913  28.965  24.113  1.00  0.00     0.167 HD
ATOM     18  O   UNL A   1      34.277  28.322  21.849  1.00  0.00    -0.224 OA
BRANCH  16  19
ATOM     19  C   UNL A   1      33.159  29.584  25.052  1.00  0.00     0.119 C 
BRANCH  19  20
ATOM     20  C   UNL A   1      33.820  29.314  26.403  1.00  0.00     0.021 C 
BRANCH  20  21
ATOM     21  C   UNL A   1      32.966  28.508  27.390  1.00  0.00     0.002 C 
BRANCH  21  22
ATOM     22  C   UNL A   1      31.703  27.867  26.803  1.00  0.00    -0.000 C 
BRANCH  22  23
ATOM     23  C   UNL A   1      31.767  26.351  26.601  1.00  0.00    -0.003 C 
ATOM     24  C   UNL A   1      33.148  25.855  26.203  1.00  0.00     0.004 C 
ENDBRANCH  22  23
ENDBRANCH  21  22
ENDBRANCH  20  21
ENDBRANCH  19  20
ENDBRANCH  16  19
ENDBRANCH  14  15
ENDBRANCH   9  14
ENDBRANCH   1   8
BRANCH   4  25
ATOM     25  C   UNL A   1      33.015  20.119  23.827  1.00  0.00     0.135 C 
BRANCH  25  26
ATOM     26  C   UNL A   1      33.560  19.866  25.223  1.00  0.00     0.224 C 
ATOM     27  O   UNL A   1      33.007  19.083  25.998  1.00  0.00    -0.275 OA
ATOM     28  N   UNL A   1      34.697  20.497  25.642  1.00  0.00    -0.356 N 
ATOM     29  H   UNL A   1      35.024  20.230  26.532  1.00  0.00     0.163 HD
BRANCH  28  30
ATOM     30  C   UNL A   1      35.494  21.503  24.964  1.00  0.00     0.117 C 
BRANCH  30  31
ATOM     31  C   UNL A   1      35.311  22.894  25.569  1.00  0.00     0.042 C 
BRANCH  31  32
ATOM     32  C   UNL A   1      36.604  23.542  26.055  1.00  0.00     0.118 C 
BRANCH  32  33
ATOM     33  N   UNL A   1      37.729  22.618  26.064  1.00  0.00    -0.352 N 
ATOM     34  C   UNL A   1      39.052  22.830  26.359  1.00  0.00     0.251 C 
ATOM     35  H   UNL A   1      37.504  21.691  25.817  1.00  0.00     0.163 HD
ATOM     36  O   UNL A   1      39.870  21.940  26.140  1.00  0.00    -0.269 OA
BRANCH  34  37
ATOM     37  C   UNL A   1      39.511  24.118  26.924  1.00  0.00     0.039 A 
ATOM     38  C   UNL A   1      40.140  25.036  26.076  1.00  0.00     0.014 A 
ATOM     39  C   UNL A   1      39.379  24.407  28.284  1.00  0.00     0.014 A 
ATOM     40  C   UNL A   1      40.582  26.263  26.577  1.00  0.00     0.010 A 
ATOM     41  C   UNL A   1      39.762  25.656  28.771  1.00  0.00     0.010 A 
ATOM     42  C   UNL A   1      40.371  26.595  27.923  1.00  0.00    -0.014 A 
BRANCH  42  43
ATOM     43  C   UNL A   1      40.784  27.911  28.470  1.00  0.00     0.031 A 
ATOM     44  C   UNL A   1      42.217  28.155  28.853  1.00  0.00     0.074 A 
ATOM     45  C   UNL A   1      39.858  28.865  28.690  1.00  0.00     0.049 A 
ATOM     46  N   UNL A   1      42.754  29.192  29.445  1.00  0.00    -0.248 NA
ATOM     47  C   UNL A   1      43.170  27.074  28.554  1.00  0.00     0.031 C 
ATOM     48  C   UNL A   1      38.431  28.739  28.394  1.00  0.00     0.029 A 
ATOM     49  N   UNL A   1      39.977  30.120  29.232  1.00  0.00    -0.354 N 
ATOM     50  C   UNL A   1      44.097  28.880  29.609  1.00  0.00     0.074 A 
ATOM     51  C   UNL A   1      44.287  27.541  29.093  1.00  0.00     0.031 C 
ATOM     52  C   UNL A   1      37.808  29.876  28.743  1.00  0.00     0.029 A 
ATOM     53  C   UNL A   1      38.784  30.794  29.324  1.00  0.00     0.049 A 
ATOM     54  H   UNL A   1      40.836  30.502  29.525  1.00  0.00     0.167 HD
ATOM     55  C   UNL A   1      45.087  29.649  30.126  1.00  0.00     0.037 A 
ATOM     56  C   UNL A   1      38.507  32.010  29.833  1.00  0.00     0.037 A 
ATOM     57  C   UNL A   1      44.902  30.991  30.611  1.00  0.00     0.049 A 
ATOM     58  C   UNL A   1      39.623  32.843  30.401  1.00  0.00     0.074 A 
ATOM     59  C   UNL A   1      45.851  31.870  31.102  1.00  0.00     0.029 A 
ATOM     60  N   UNL A   1      43.682  31.649  30.664  1.00  0.00    -0.354 N 
ATOM     61  N   UNL A   1      40.898  32.560  30.504  1.00  0.00    -0.248 NA
ATOM     62  C   UNL A   1      39.260  34.170  30.921  1.00  0.00     0.031 C 
ATOM     63  C   UNL A   1      45.200  33.047  31.489  1.00  0.00     0.029 A 
ATOM     64  C   UNL A   1      43.852  32.918  31.196  1.00  0.00     0.049 A 
ATOM     65  H   UNL A   1      42.822  31.271  30.369  1.00  0.00     0.167 HD
ATOM     66  C   UNL A   1      41.494  33.677  31.071  1.00  0.00     0.074 A 
ATOM     67  C   UNL A   1      40.442  34.650  31.281  1.00  0.00     0.031 C 
ATOM     68  C   UNL A   1      42.797  33.879  31.388  1.00  0.00     0.037 A 
BRANCH  55  69
ATOM     69  C   UNL A   1      46.462  29.051  30.196  1.00  0.00     0.064 A 
ATOM     70  C   UNL A   1      47.414  29.277  29.190  1.00  0.00     0.173 A 
ATOM     71  C   UNL A   1      46.844  28.269  31.296  1.00  0.00     0.173 A 
ATOM     72  F   UNL A   1      47.096  30.008  28.111  1.00  0.00    -0.203 F 
ATOM     73  C   UNL A   1      48.685  28.715  29.267  1.00  0.00     0.198 A 
ATOM     74  C   UNL A   1      48.126  27.733  31.384  1.00  0.00     0.198 A 
ATOM     75  F   UNL A   1      45.975  28.028  32.290  1.00  0.00    -0.203 F 
ATOM     76  F   UNL A   1      49.560  28.901  28.269  1.00  0.00    -0.200 F 
ATOM     77  C   UNL A   1      49.042  27.949  30.366  1.00  0.00     0.200 A 
ATOM     78  F   UNL A   1      48.473  27.004  32.454  1.00  0.00    -0.200 F 
ATOM     79  F   UNL A   1      50.269  27.412  30.441  1.00  0.00    -0.200 F 
ENDBRANCH  55  69
BRANCH  56  80
ATOM     80  C   UNL A   1      37.113  32.523  29.804  1.00  0.00     0.064 A 
ATOM     81  C   UNL A   1      36.638  33.244  28.699  1.00  0.00     0.173 A 
ATOM     82  C   UNL A   1      36.229  32.300  30.869  1.00  0.00     0.173 A 
ATOM     83  F   UNL A   1      37.454  33.499  27.665  1.00  0.00    -0.203 F 
ATOM     84  C   UNL A   1      35.337  33.740  28.669  1.00  0.00     0.198 A 
ATOM     85  C   UNL A   1      34.919  32.775  30.826  1.00  0.00     0.198 A 
ATOM     86  F   UNL A   1      36.633  31.612  31.946  1.00  0.00    -0.203 F 
ATOM     87  F   UNL A   1      34.922  34.462  27.620  1.00  0.00    -0.200 F 
ATOM     88  C   UNL A   1      34.476  33.500  29.730  1.00  0.00     0.200 A 
ATOM     89  F   UNL A   1      34.087  32.529  31.847  1.00  0.00    -0.200 F 
ATOM     90  F   UNL A   1      33.223  33.973  29.699  1.00  0.00    -0.200 F 
ENDBRANCH  56  80
BRANCH  68  91
ATOM     91  C   UNL A   1      43.167  35.216  31.958  1.00  0.00     0.064 A 
ATOM     92  C   UNL A   1      43.631  36.261  31.146  1.00  0.00     0.173 A 
ATOM     93  C   UNL A   1      43.013  35.468  33.330  1.00  0.00     0.173 A 
ATOM     94  F   UNL A   1      43.810  36.065  29.830  1.00  0.00    -0.203 F 
ATOM     95  C   UNL A   1      43.948  37.502  31.690  1.00  0.00     0.198 A 
ATOM     96  C   UNL A   1      43.305  36.719  33.866  1.00  0.00     0.198 A 
ATOM     97  F   UNL A   1      42.567  34.503  34.148  1.00  0.00    -0.203 F 
ATOM     98  F   UNL A   1      44.430  38.474  30.903  1.00  0.00    -0.200 F 
ATOM     99  C   UNL A   1      43.778  37.733  33.048  1.00  0.00     0.200 A 
ATOM    100  F   UNL A   1      43.129  36.943  35.176  1.00  0.00    -0.200 F 
ATOM    101  F   UNL A   1      44.076  38.932  33.568  1.00  0.00    -0.200 F 
ENDBRANCH  68  91
ENDBRANCH  42  43
ENDBRANCH  34  37
ENDBRANCH  32  33
ENDBRANCH  31  32
ENDBRANCH  30  31
ENDBRANCH  28  30
ENDBRANCH  25  26
ENDBRANCH   4  25
TORSDOF 19
ENDMDL
MODEL 2
REMARK VINA RESULT:     -11.4      4.462      9.555
REMARK SMILES CCCCCCNC(=O)Oc1cccc(-c2ccc(CC(=O)NCCCNC(=O)c3ccc(-c4c5nc(c(-c6c(F)c(F)c(F)c(F)c6F)c6ccc([nH]6)c(-c6c(F)c(F)c(F)c(F)c6F)c6nc(c(-c7c(F)c(F)c(F)c(F)c7F)c7ccc4[nH]7)C=C6)C=C5)cc3)cc2F)c1
REMARK SMILES IDX 16 1 17 2 18 3 19 4 93 5 94 6 95 7 15 8 11 9 12 10 96 11
REMARK SMILES IDX 13 12 14 13 10 14 8 15 7 16 9 18 6 19 5 20 4 21 3 22 2 23
REMARK SMILES IDX 1 24 20 25 21 26 22 27 23 28 24 30 25 31 26 32 27 33 28 34
REMARK SMILES IDX 29 36 30 37 31 38 92 39 32 40 91 41 33 42 34 43 35 44 85 45
REMARK SMILES IDX 36 46 90 47 84 48 86 49 37 50 89 51 83 52 82 53 38 55 70 56
REMARK SMILES IDX 50 57 69 58 51 59 54 60 68 61 87 62 52 63 53 64 67 66 88 67
REMARK SMILES IDX 55 68 39 69 40 70 48 71 41 72 42 73 46 74 49 75 43 76 44 77
REMARK SMILES IDX 47 78 45 79 71 80 72 81 80 82 73 83 74 84 78 85 81 86 75 87
REMARK SMILES IDX 76 88 79 89 77 90 56 91 57 92 65 93 58 94 59 95 63 96 66 97
REMARK SMILES IDX 60 98 61 99 64 100 62 101
REMARK H PARENT 7 17 23 29 27 35 86 54 54 65
REMARK Flexibility Score: inf
ROOT
ATOM      1  C   UNL A   1      32.144  27.116  26.116  1.00  0.00     0.018 A 
ATOM      2  C   UNL A   1      31.477  27.749  27.178  1.00  0.00     0.012 A 
ATOM      3  C   UNL A   1      31.801  29.055  27.564  1.00  0.00     0.005 A 
ATOM      4  C   UNL A   1      32.803  29.767  26.894  1.00  0.00    -0.036 A 
ATOM      5  C   UNL A   1      33.515  29.126  25.875  1.00  0.00     0.044 A 
ATOM      6  C   UNL A   1      33.177  27.831  25.490  1.00  0.00     0.131 A 
ATOM      7  F   UNL A   1      33.851  27.292  24.461  1.00  0.00    -0.206 F 
ENDROOT
BRANCH   1   8
ATOM      8  C   UNL A   1      31.763  25.765  25.671  1.00  0.00    -0.012 A 
ATOM      9  C   UNL A   1      31.959  23.348  25.831  1.00  0.00     0.133 A 
ATOM     10  C   UNL A   1      31.076  23.177  24.768  1.00  0.00     0.047 A 
ATOM     11  C   UNL A   1      32.315  24.624  26.273  1.00  0.00     0.056 A 
ATOM     12  C   UNL A   1      30.517  24.297  24.161  1.00  0.00     0.004 A 
ATOM     13  C   UNL A   1      30.855  25.578  24.611  1.00  0.00     0.009 A 
BRANCH   9  14
ATOM     14  O   UNL A   1      32.565  22.195  26.353  1.00  0.00    -0.410 OA
BRANCH  14  15
ATOM     15  C   UNL A   1      33.404  22.336  27.447  1.00  0.00     0.412 C 
ATOM     16  N   UNL A   1      34.725  22.173  27.141  1.00  0.00    -0.321 N 
ATOM     17  H   UNL A   1      35.363  22.258  27.885  1.00  0.00     0.167 HD
ATOM     18  O   UNL A   1      33.055  22.575  28.602  1.00  0.00    -0.224 OA
BRANCH  16  19
ATOM     19  C   UNL A   1      35.286  21.884  25.836  1.00  0.00     0.119 C 
BRANCH  19  20
ATOM     20  C   UNL A   1      35.580  23.158  25.044  1.00  0.00     0.021 C 
BRANCH  20  21
ATOM     21  C   UNL A   1      35.054  23.159  23.604  1.00  0.00     0.002 C 
BRANCH  21  22
ATOM     22  C   UNL A   1      34.291  24.418  23.178  1.00  0.00    -0.000 C 
BRANCH  22  23
ATOM     23  C   UNL A   1      33.273  24.223  22.050  1.00  0.00    -0.003 C 
ATOM     24  C   UNL A   1      32.907  25.516  21.341  1.00  0.00     0.004 C 
ENDBRANCH  22  23
ENDBRANCH  21  22
ENDBRANCH  20  21
ENDBRANCH  19  20
ENDBRANCH  16  19
ENDBRANCH  14  15
ENDBRANCH   9  14
ENDBRANCH   1   8
BRANCH   4  25
ATOM     25  C   UNL A   1      33.102  31.203  27.248  1.00  0.00     0.135 C 
BRANCH  25  26
ATOM     26  C   UNL A   1      34.392  31.377  28.032  1.00  0.00     0.224 C 
ATOM     27  O   UNL A   1      35.029  30.406  28.446  1.00  0.00    -0.275 OA
ATOM     28  N   UNL A   1      34.884  32.627  28.280  1.00  0.00    -0.356 N 
ATOM     29  H   UNL A   1      35.758  32.655  28.734  1.00  0.00     0.163 HD
BRANCH  28  30
ATOM     30  C   UNL A   1      34.305  33.921  27.969  1.00  0.00     0.117 C 
BRANCH  30  31
ATOM     31  C   UNL A   1      33.289  34.370  29.018  1.00  0.00     0.042 C 
BRANCH  31  32
ATOM     32  C   UNL A   1      33.277  35.874  29.277  1.00  0.00     0.118 C 
BRANCH  32  33
ATOM     33  N   UNL A   1      32.509  36.236  30.460  1.00  0.00    -0.352 N 
ATOM     34  C   UNL A   1      32.668  35.864  31.772  1.00  0.00     0.251 C 
ATOM     35  H   UNL A   1      31.753  36.844  30.293  1.00  0.00     0.163 HD
ATOM     36  O   UNL A   1      31.800  36.154  32.591  1.00  0.00    -0.269 OA
BRANCH  34  37
ATOM     37  C   UNL A   1      33.862  35.108  32.212  1.00  0.00     0.039 A 
ATOM     38  C   UNL A   1      33.684  33.828  32.748  1.00  0.00     0.014 A 
ATOM     39  C   UNL A   1      35.141  35.666  32.152  1.00  0.00     0.014 A 
ATOM     40  C   UNL A   1      34.791  33.087  33.169  1.00  0.00     0.010 A 
ATOM     41  C   UNL A   1      36.250  34.902  32.513  1.00  0.00     0.010 A 
ATOM     42  C   UNL A   1      36.086  33.607  33.029  1.00  0.00    -0.014 A 
BRANCH  42  43
ATOM     43  C   UNL A   1      37.283  32.821  33.421  1.00  0.00     0.031 A 
ATOM     44  C   UNL A   1      37.984  33.107  34.719  1.00  0.00     0.074 A 
ATOM     45  C   UNL A   1      37.782  31.897  32.576  1.00  0.00     0.049 A 
ATOM     46  N   UNL A   1      39.101  32.609  35.188  1.00  0.00    -0.248 NA
ATOM     47  C   UNL A   1      37.358  34.109  35.596  1.00  0.00     0.031 C 
ATOM     48  C   UNL A   1      37.215  31.551  31.273  1.00  0.00     0.029 A 
ATOM     49  N   UNL A   1      38.892  31.096  32.681  1.00  0.00    -0.354 N 
ATOM     50  C   UNL A   1      39.322  33.251  36.399  1.00  0.00     0.074 A 
ATOM     51  C   UNL A   1      38.247  34.206  36.574  1.00  0.00     0.031 C 
ATOM     52  C   UNL A   1      37.970  30.597  30.705  1.00  0.00     0.029 A 
ATOM     53  C   UNL A   1      39.096  30.295  31.585  1.00  0.00     0.049 A 
ATOM     54  H   UNL A   1      39.484  31.095  33.467  1.00  0.00     0.167 HD
ATOM     55  C   UNL A   1      40.321  33.051  37.293  1.00  0.00     0.037 A 
ATOM     56  C   UNL A   1      40.087  29.424  31.313  1.00  0.00     0.037 A 
ATOM     57  C   UNL A   1      41.372  32.080  37.130  1.00  0.00     0.049 A 
ATOM     58  C   UNL A   1      41.184  29.219  32.322  1.00  0.00     0.074 A 
ATOM     59  C   UNL A   1      42.397  31.764  38.004  1.00  0.00     0.029 A 
ATOM     60  N   UNL A   1      41.530  31.269  36.016  1.00  0.00    -0.354 N 
ATOM     61  N   UNL A   1      41.356  29.794  33.487  1.00  0.00    -0.248 NA
ATOM     62  C   UNL A   1      42.225  28.239  31.978  1.00  0.00     0.031 C 
ATOM     63  C   UNL A   1      43.199  30.787  37.402  1.00  0.00     0.029 A 
ATOM     64  C   UNL A   1      42.647  30.463  36.174  1.00  0.00     0.049 A 
ATOM     65  H   UNL A   1      40.937  31.266  35.230  1.00  0.00     0.167 HD
ATOM     66  C   UNL A   1      42.502  29.229  34.027  1.00  0.00     0.074 A 
ATOM     67  C   UNL A   1      42.981  28.255  33.067  1.00  0.00     0.031 C 
ATOM     68  C   UNL A   1      43.103  29.491  35.214  1.00  0.00     0.037 A 
BRANCH  55  69
ATOM     69  C   UNL A   1      40.325  33.903  38.529  1.00  0.00     0.064 A 
ATOM     70  C   UNL A   1      41.071  35.089  38.602  1.00  0.00     0.173 A 
ATOM     71  C   UNL A   1      39.550  33.546  39.642  1.00  0.00     0.173 A 
ATOM     72  F   UNL A   1      41.838  35.469  37.569  1.00  0.00    -0.203 F 
ATOM     73  C   UNL A   1      41.066  35.869  39.755  1.00  0.00     0.198 A 
ATOM     74  C   UNL A   1      39.524  34.344  40.783  1.00  0.00     0.198 A 
ATOM     75  F   UNL A   1      38.811  32.426  39.621  1.00  0.00    -0.203 F 
ATOM     76  F   UNL A   1      41.827  36.970  39.821  1.00  0.00    -0.200 F 
ATOM     77  C   UNL A   1      40.288  35.499  40.842  1.00  0.00     0.200 A 
ATOM     78  F   UNL A   1      38.760  33.992  41.827  1.00  0.00    -0.200 F 
ATOM     79  F   UNL A   1      40.280  36.253  41.950  1.00  0.00    -0.200 F 
ENDBRANCH  55  69
BRANCH  56  80
ATOM     80  C   UNL A   1      40.071  28.660  30.039  1.00  0.00     0.064 A 
ATOM     81  C   UNL A   1      39.462  27.399  29.968  1.00  0.00     0.173 A 
ATOM     82  C   UNL A   1      40.656  29.171  28.872  1.00  0.00     0.173 A 
ATOM     83  F   UNL A   1      38.908  26.860  31.064  1.00  0.00    -0.203 F 
ATOM     84  C   UNL A   1      39.455  26.670  28.781  1.00  0.00     0.198 A 
ATOM     85  C   UNL A   1      40.625  28.452  27.679  1.00  0.00     0.198 A 
ATOM     86  F   UNL A   1      41.247  30.375  28.888  1.00  0.00    -0.203 F 
ATOM     87  F   UNL A   1      38.903  25.450  28.750  1.00  0.00    -0.200 F 
ATOM     88  C   UNL A   1      40.031  27.199  27.635  1.00  0.00     0.200 A 
ATOM     89  F   UNL A   1      41.171  28.972  26.572  1.00  0.00    -0.200 F 
ATOM     90  F   UNL A   1      40.020  26.500  26.493  1.00  0.00    -0.200 F 
ENDBRANCH  56  80
BRANCH  68  91
ATOM     91  C   UNL A   1      44.322  28.688  35.560  1.00  0.00     0.064 A 
ATOM     92  C   UNL A   1      44.231  27.473  36.253  1.00  0.00     0.173 A 
ATOM     93  C   UNL A   1      45.594  29.121  35.154  1.00  0.00     0.173 A 
ATOM     94  F   UNL A   1      43.040  27.024  36.677  1.00  0.00    -0.203 F 
ATOM     95  C   UNL A   1      45.372  26.730  36.546  1.00  0.00     0.198 A 
ATOM     96  C   UNL A   1      46.729  28.362  35.425  1.00  0.00     0.198 A 
ATOM     97  F   UNL A   1      45.733  30.275  34.483  1.00  0.00    -0.203 F 
ATOM     98  F   UNL A   1      45.268  25.592  37.246  1.00  0.00    -0.200 F 
ATOM     99  C   UNL A   1      46.619  27.171  36.125  1.00  0.00     0.200 A 
ATOM    100  F   UNL A   1      47.931  28.785  35.007  1.00  0.00    -0.200 F 
ATOM    101  F   UNL A   1      47.715  26.451  36.401  1.00  0.00    -0.200 F 
ENDBRANCH  68  91
ENDBRANCH  42  43
ENDBRANCH  34  37
ENDBRANCH  32  33
ENDBRANCH  31  32
ENDBRANCH  30  31
ENDBRANCH  28  30
ENDBRANCH  25  26
ENDBRANCH   4  25
TORSDOF 19
ENDMDL
MODEL 3
REMARK VINA RESULT:     -11.1      5.372      8.840
REMARK SMILES CCCCCCNC(=O)Oc1cccc(-c2ccc(CC(=O)NCCCNC(=O)c3ccc(-c4c5nc(c(-c6c(F)c(F)c(F)c(F)c6F)c6ccc([nH]6)c(-c6c(F)c(F)c(F)c(F)c6F)c6nc(c(-c7c(F)c(F)c(F)c(F)c7F)c7ccc4[nH]7)C=C6)C=C5)cc3)cc2F)c1
REMARK SMILES IDX 16 1 17 2 18 3 19 4 93 5 94 6 95 7 15 8 11 9 12 10 96 11
REMARK SMILES IDX 13 12 14 13 10 14 8 15 7 16 9 18 6 19 5 20 4 21 3 22 2 23
REMARK SMILES IDX 1 24 20 25 21 26 22 27 23 28 24 30 25 31 26 32 27 33 28 34
REMARK SMILES IDX 29 36 30 37 31 38 92 39 32 40 91 41 33 42 34 43 35 44 85 45
REMARK SMILES IDX 36 46 90 47 84 48 86 49 37 50 89 51 83 52 82 53 38 55 70 56
REMARK SMILES IDX 50 57 69 58 51 59 54 60 68 61 87 62 52 63 53 64 67 66 88 67
REMARK SMILES IDX 55 68 39 69 40 70 48 71 41 72 42 73 46 74 49 75 43 76 44 77
REMARK SMILES IDX 47 78 45 79 71 80 72 81 80 82 73 83 74 84 78 85 81 86 75 87
REMARK SMILES IDX 76 88 79 89 77 90 56 91 57 92 65 93 58 94 59 95 63 96 66 97
REMARK SMILES IDX 60 98 61 99 64 100 62 101
REMARK H PARENT 7 17 23 29 27 35 86 54 54 65
REMARK Flexibility Score: inf
ROOT
ATOM      1  C   UNL A   1      39.763  26.815  28.427  1.00  0.00     0.018 A 
ATOM      2  C   UNL A   1      39.243  25.623  27.894  1.00  0.00     0.012 A 
ATOM      3  C   UNL A   1      40.071  24.527  27.625  1.00  0.00     0.005 A 
ATOM      4  C   UNL A   1      41.445  24.592  27.885  1.00  0.00    -0.036 A 
ATOM      5  C   UNL A   1      41.983  25.792  28.359  1.00  0.00     0.044 A 
ATOM      6  C   UNL A   1      41.149  26.874  28.635  1.00  0.00     0.131 A 
ATOM      7  F   UNL A   1      41.714  27.977  29.152  1.00  0.00    -0.206 F 
ENDROOT
BRANCH   1   8
ATOM      8  C   UNL A   1      38.884  27.947  28.766  1.00  0.00    -0.012 A 
ATOM      9  C   UNL A   1      37.389  29.080  30.310  1.00  0.00     0.133 A 
ATOM     10  C   UNL A   1      37.149  30.090  29.382  1.00  0.00     0.047 A 
ATOM     11  C   UNL A   1      38.234  28.011  30.007  1.00  0.00     0.056 A 
ATOM     12  C   UNL A   1      37.788  30.046  28.147  1.00  0.00     0.004 A 
ATOM     13  C   UNL A   1      38.650  28.987  27.843  1.00  0.00     0.009 A 
BRANCH   9  14
ATOM     14  O   UNL A   1      36.656  29.121  31.506  1.00  0.00    -0.410 OA
BRANCH  14  15
ATOM     15  C   UNL A   1      37.352  29.276  32.694  1.00  0.00     0.412 C 
ATOM     16  N   UNL A   1      37.194  30.511  33.257  1.00  0.00    -0.321 N 
ATOM     17  H   UNL A   1      37.672  30.674  34.101  1.00  0.00     0.167 HD
ATOM     18  O   UNL A   1      38.064  28.430  33.233  1.00  0.00    -0.224 OA
BRANCH  16  19
ATOM     19  C   UNL A   1      36.398  31.606  32.740  1.00  0.00     0.119 C 
BRANCH  19  20
ATOM     20  C   UNL A   1      37.244  32.614  31.963  1.00  0.00     0.021 C 
BRANCH  20  21
ATOM     21  C   UNL A   1      38.760  32.426  32.099  1.00  0.00     0.002 C 
BRANCH  21  22
ATOM     22  C   UNL A   1      39.581  32.740  30.843  1.00  0.00    -0.000 C 
BRANCH  22  23
ATOM     23  C   UNL A   1      40.341  31.555  30.240  1.00  0.00    -0.003 C 
ATOM     24  C   UNL A   1      40.658  30.466  31.252  1.00  0.00     0.004 C 
ENDBRANCH  22  23
ENDBRANCH  21  22
ENDBRANCH  20  21
ENDBRANCH  19  20
ENDBRANCH  16  19
ENDBRANCH  14  15
ENDBRANCH   9  14
ENDBRANCH   1   8
BRANCH   4  25
ATOM     25  C   UNL A   1      42.331  23.388  27.676  1.00  0.00     0.135 C 
BRANCH  25  26
ATOM     26  C   UNL A   1      42.043  22.641  26.385  1.00  0.00     0.224 C 
ATOM     27  O   UNL A   1      41.251  21.697  26.351  1.00  0.00    -0.275 OA
ATOM     28  N   UNL A   1      42.651  23.018  25.221  1.00  0.00    -0.356 N 
ATOM     29  H   UNL A   1      42.362  22.530  24.416  1.00  0.00     0.163 HD
BRANCH  28  30
ATOM     30  C   UNL A   1      43.661  24.037  25.000  1.00  0.00     0.117 C 
BRANCH  30  31
ATOM     31  C   UNL A   1      45.040  23.438  24.727  1.00  0.00     0.042 C 
BRANCH  31  32
ATOM     32  C   UNL A   1      46.184  24.141  25.453  1.00  0.00     0.118 C 
BRANCH  32  33
ATOM     33  N   UNL A   1      46.904  25.074  24.598  1.00  0.00    -0.352 N 
ATOM     34  C   UNL A   1      46.970  26.444  24.635  1.00  0.00     0.251 C 
ATOM     35  H   UNL A   1      47.427  24.655  23.876  1.00  0.00     0.163 HD
ATOM     36  O   UNL A   1      47.506  27.048  23.709  1.00  0.00    -0.269 OA
BRANCH  34  37
ATOM     37  C   UNL A   1      46.395  27.207  25.765  1.00  0.00     0.039 A 
ATOM     38  C   UNL A   1      45.008  27.379  25.820  1.00  0.00     0.014 A 
ATOM     39  C   UNL A   1      47.207  27.796  26.737  1.00  0.00     0.014 A 
ATOM     40  C   UNL A   1      44.433  28.091  26.876  1.00  0.00     0.010 A 
ATOM     41  C   UNL A   1      46.629  28.450  27.824  1.00  0.00     0.010 A 
ATOM     42  C   UNL A   1      45.237  28.608  27.902  1.00  0.00    -0.014 A 
BRANCH  42  43
ATOM     43  C   UNL A   1      44.648  29.323  29.062  1.00  0.00     0.031 A 
ATOM     44  C   UNL A   1      44.334  30.790  28.965  1.00  0.00     0.074 A 
ATOM     45  C   UNL A   1      44.462  28.670  30.226  1.00  0.00     0.049 A 
ATOM     46  N   UNL A   1      43.920  31.614  29.896  1.00  0.00    -0.248 NA
ATOM     47  C   UNL A   1      44.539  31.421  27.652  1.00  0.00     0.031 C 
ATOM     48  C   UNL A   1      44.759  27.256  30.457  1.00  0.00     0.029 A 
ATOM     49  N   UNL A   1      43.996  29.116  31.437  1.00  0.00    -0.354 N 
ATOM     50  C   UNL A   1      43.838  32.859  29.287  1.00  0.00     0.074 A 
ATOM     51  C   UNL A   1      44.284  32.693  27.920  1.00  0.00     0.031 C 
ATOM     52  C   UNL A   1      44.455  26.946  31.728  1.00  0.00     0.029 A 
ATOM     53  C   UNL A   1      43.980  28.148  32.410  1.00  0.00     0.049 A 
ATOM     54  H   UNL A   1      43.700  30.042  31.593  1.00  0.00     0.167 HD
ATOM     55  C   UNL A   1      43.411  34.032  29.816  1.00  0.00     0.037 A 
ATOM     56  C   UNL A   1      43.635  28.223  33.710  1.00  0.00     0.037 A 
ATOM     57  C   UNL A   1      42.939  34.189  31.167  1.00  0.00     0.049 A 
ATOM     58  C   UNL A   1      43.164  29.536  34.272  1.00  0.00     0.074 A 
ATOM     59  C   UNL A   1      42.435  35.323  31.779  1.00  0.00     0.029 A 
ATOM     60  N   UNL A   1      42.914  33.177  32.115  1.00  0.00    -0.354 N 
ATOM     61  N   UNL A   1      43.041  30.696  33.676  1.00  0.00    -0.248 NA
ATOM     62  C   UNL A   1      42.780  29.549  35.692  1.00  0.00     0.031 C 
ATOM     63  C   UNL A   1      42.140  35.007  33.111  1.00  0.00     0.029 A 
ATOM     64  C   UNL A   1      42.418  33.665  33.314  1.00  0.00     0.049 A 
ATOM     65  H   UNL A   1      43.206  32.250  31.961  1.00  0.00     0.167 HD
ATOM     66  C   UNL A   1      42.540  31.567  34.632  1.00  0.00     0.074 A 
ATOM     67  C   UNL A   1      42.371  30.800  35.849  1.00  0.00     0.031 C 
ATOM     68  C   UNL A   1      42.245  32.885  34.513  1.00  0.00     0.037 A 
BRANCH  55  69
ATOM     69  C   UNL A   1      43.438  35.242  28.928  1.00  0.00     0.064 A 
ATOM     70  C   UNL A   1      42.273  35.730  28.316  1.00  0.00     0.173 A 
ATOM     71  C   UNL A   1      44.635  35.940  28.710  1.00  0.00     0.173 A 
ATOM     72  F   UNL A   1      41.105  35.093  28.482  1.00  0.00    -0.203 F 
ATOM     73  C   UNL A   1      42.313  36.853  27.493  1.00  0.00     0.198 A 
ATOM     74  C   UNL A   1      44.665  37.079  27.911  1.00  0.00     0.198 A 
ATOM     75  F   UNL A   1      45.776  35.520  29.278  1.00  0.00    -0.203 F 
ATOM     76  F   UNL A   1      41.198  37.270  26.877  1.00  0.00    -0.200 F 
ATOM     77  C   UNL A   1      43.507  37.530  27.297  1.00  0.00     0.200 A 
ATOM     78  F   UNL A   1      45.818  37.740  27.733  1.00  0.00    -0.200 F 
ATOM     79  F   UNL A   1      43.543  38.614  26.508  1.00  0.00    -0.200 F 
ENDBRANCH  55  69
BRANCH  56  80
ATOM     80  C   UNL A   1      43.697  27.007  34.562  1.00  0.00     0.064 A 
ATOM     81  C   UNL A   1      44.909  26.595  35.134  1.00  0.00     0.173 A 
ATOM     82  C   UNL A   1      42.554  26.240  34.826  1.00  0.00     0.173 A 
ATOM     83  F   UNL A   1      46.033  27.287  34.892  1.00  0.00    -0.203 F 
ATOM     84  C   UNL A   1      44.978  25.450  35.923  1.00  0.00     0.198 A 
ATOM     85  C   UNL A   1      42.621  25.108  35.637  1.00  0.00     0.198 A 
ATOM     86  F   UNL A   1      41.370  26.595  34.306  1.00  0.00    -0.203 F 
ATOM     87  F   UNL A   1      46.157  25.054  36.423  1.00  0.00    -0.200 F 
ATOM     88  C   UNL A   1      43.834  24.709  36.179  1.00  0.00     0.200 A 
ATOM     89  F   UNL A   1      41.510  24.404  35.893  1.00  0.00    -0.200 F 
ATOM     90  F   UNL A   1      43.900  23.610  36.942  1.00  0.00    -0.200 F 
ENDBRANCH  56  80
BRANCH  68  91
ATOM     91  C   UNL A   1      41.672  33.574  35.716  1.00  0.00     0.064 A 
ATOM     92  C   UNL A   1      42.483  34.282  36.615  1.00  0.00     0.173 A 
ATOM     93  C   UNL A   1      40.288  33.560  35.948  1.00  0.00     0.173 A 
ATOM     94  F   UNL A   1      43.813  34.312  36.446  1.00  0.00    -0.203 F 
ATOM     95  C   UNL A   1      41.930  34.934  37.714  1.00  0.00     0.198 A 
ATOM     96  C   UNL A   1      39.737  34.236  37.033  1.00  0.00     0.198 A 
ATOM     97  F   UNL A   1      39.470  32.901  35.114  1.00  0.00    -0.203 F 
ATOM     98  F   UNL A   1      42.727  35.570  38.584  1.00  0.00    -0.200 F 
ATOM     99  C   UNL A   1      40.558  34.917  37.918  1.00  0.00     0.200 A 
ATOM    100  F   UNL A   1      38.409  34.228  37.221  1.00  0.00    -0.200 F 
ATOM    101  F   UNL A   1      40.027  35.552  38.973  1.00  0.00    -0.200 F 
ENDBRANCH  68  91
ENDBRANCH  42  43
ENDBRANCH  34  37
ENDBRANCH  32  33
ENDBRANCH  31  32
ENDBRANCH  30  31
ENDBRANCH  28  30
ENDBRANCH  25  26
ENDBRANCH   4  25
TORSDOF 19
ENDMDL
