MODEL 1
REMARK VINA RESULT:     -12.0      0.000      0.000
REMARK SMILES CC[C@@](C)(NC(=O)NCCc1ncn[nH]1)C(=O)NCCCNC(=O)c1ccc(-c2c3nc(c(-c4c(F)c(F)c(F)c(F)c4F)c4ccc([nH]4)c(-c4c(F)c(F)c(F)c(F)c4F)c4nc(c(-c5c(F)c(F)c(F)c(F)c5F)c5ccc2[nH]5)C=C4)C=C3)cc1
REMARK SMILES IDX 19 1 18 2 16 3 17 4 3 6 4 7 2 8 1 9 5 10 6 11 7 13 8 14 9 16
REMARK SMILES IDX 10 17 11 18 12 19 15 20 13 21 14 22 20 24 21 25 22 26 23 27
REMARK SMILES IDX 24 29 25 30 26 31 87 32 27 33 86 34 28 35 29 36 30 37 80 38
REMARK SMILES IDX 31 39 85 40 79 41 81 42 32 43 84 44 78 45 77 46 33 48 65 49
REMARK SMILES IDX 45 50 64 51 46 52 49 53 63 54 82 55 47 56 48 57 62 59 83 60
REMARK SMILES IDX 50 61 34 62 35 63 43 64 36 65 37 66 41 67 44 68 38 69 39 70
REMARK SMILES IDX 42 71 40 72 66 73 67 74 75 75 68 76 69 77 73 78 76 79 70 80
REMARK SMILES IDX 71 81 74 82 72 83 51 84 52 85 60 86 53 87 54 88 58 89 61 90
REMARK SMILES IDX 55 91 56 92 59 93 57 94
REMARK H PARENT 18 5 5 12 8 15 15 23 22 28 81 47 49 58
REMARK Flexibility Score: inf
ROOT
ATOM      1  C   UNL A   1      31.777  30.301  26.190  1.00  0.00     0.117 C 
ENDROOT
BRANCH   1   2
ATOM      2  N   UNL A   1      32.665  30.078  25.057  1.00  0.00    -0.354 N 
ATOM      3  C   UNL A   1      33.027  28.973  24.327  1.00  0.00     0.245 C 
ATOM      4  O   UNL A   1      33.637  29.200  23.277  1.00  0.00    -0.272 OA
ATOM      5  H   UNL A   1      33.104  30.902  24.746  1.00  0.00     0.163 HD
BRANCH   3   6
ATOM      6  C   UNL A   1      32.627  27.526  24.723  1.00  0.00     0.117 C 
ATOM      7  C   UNL A   1      33.695  27.038  25.739  1.00  0.00     0.045 C 
BRANCH   6   8
ATOM      8  C   UNL A   1      31.245  27.330  25.417  1.00  0.00     0.035 C 
ATOM      9  C   UNL A   1      30.942  25.964  26.026  1.00  0.00     0.007 C 
ENDBRANCH   6   8
BRANCH   6  10
ATOM     10  N   UNL A   1      32.660  26.670  23.520  1.00  0.00    -0.324 N 
ATOM     11  C   UNL A   1      31.902  26.497  22.437  1.00  0.00     0.315 C 
ATOM     12  H   UNL A   1      33.442  26.073  23.519  1.00  0.00     0.166 HD
ATOM     13  O   UNL A   1      32.188  25.539  21.712  1.00  0.00    -0.249 OA
ATOM     14  N   UNL A   1      30.915  27.287  22.000  1.00  0.00    -0.338 N 
ATOM     15  H   UNL A   1      30.705  27.105  21.055  1.00  0.00     0.165 HD
BRANCH  14  16
ATOM     16  C   UNL A   1      30.064  28.348  22.537  1.00  0.00     0.125 C 
BRANCH  16  17
ATOM     17  C   UNL A   1      30.127  29.707  21.837  1.00  0.00     0.098 C 
BRANCH  17  18
ATOM     18  C   UNL A   1      29.199  30.793  22.259  1.00  0.00     0.125 A 
ATOM     19  N   UNL A   1      28.144  30.615  23.032  1.00  0.00    -0.220 NA
ATOM     20  N   UNL A   1      29.322  32.126  21.999  1.00  0.00    -0.263 N 
ATOM     21  C   UNL A   1      27.653  31.872  23.209  1.00  0.00     0.246 A 
ATOM     22  N   UNL A   1      28.359  32.836  22.615  1.00  0.00    -0.162 NA
ATOM     23  H   UNL A   1      30.025  32.520  21.432  1.00  0.00     0.192 HD
ENDBRANCH  17  18
ENDBRANCH  16  17
ENDBRANCH  14  16
ENDBRANCH   6  10
ENDBRANCH   3   6
ENDBRANCH   1   2
BRANCH   1  24
ATOM     24  C   UNL A   1      31.553  31.733  26.678  1.00  0.00     0.042 C 
BRANCH  24  25
ATOM     25  C   UNL A   1      32.735  32.521  27.222  1.00  0.00     0.118 C 
BRANCH  25  26
ATOM     26  N   UNL A   1      32.430  33.888  27.596  1.00  0.00    -0.352 N 
ATOM     27  C   UNL A   1      33.048  34.688  28.532  1.00  0.00     0.251 C 
ATOM     28  H   UNL A   1      31.678  34.301  27.115  1.00  0.00     0.163 HD
ATOM     29  O   UNL A   1      32.607  35.803  28.774  1.00  0.00    -0.269 OA
BRANCH  27  30
ATOM     30  C   UNL A   1      34.226  34.188  29.277  1.00  0.00     0.039 A 
ATOM     31  C   UNL A   1      34.026  33.513  30.484  1.00  0.00     0.014 A 
ATOM     32  C   UNL A   1      35.523  34.395  28.802  1.00  0.00     0.014 A 
ATOM     33  C   UNL A   1      35.122  32.986  31.178  1.00  0.00     0.010 A 
ATOM     34  C   UNL A   1      36.611  33.831  29.469  1.00  0.00     0.010 A 
ATOM     35  C   UNL A   1      36.422  33.112  30.660  1.00  0.00    -0.014 A 
BRANCH  35  36
ATOM     36  C   UNL A   1      37.588  32.482  31.334  1.00  0.00     0.031 A 
ATOM     37  C   UNL A   1      38.301  31.319  30.700  1.00  0.00     0.074 A 
ATOM     38  C   UNL A   1      37.962  32.909  32.557  1.00  0.00     0.049 A 
ATOM     39  N   UNL A   1      39.282  30.589  31.172  1.00  0.00    -0.248 NA
ATOM     40  C   UNL A   1      37.839  30.914  29.365  1.00  0.00     0.031 C 
ATOM     41  C   UNL A   1      37.335  34.004  33.296  1.00  0.00     0.029 A 
ATOM     42  N   UNL A   1      38.948  32.459  33.402  1.00  0.00    -0.354 N 
ATOM     43  C   UNL A   1      39.545  29.635  30.199  1.00  0.00     0.074 A 
ATOM     44  C   UNL A   1      38.592  29.849  29.130  1.00  0.00     0.031 C 
ATOM     45  C   UNL A   1      37.953  34.147  34.479  1.00  0.00     0.029 A 
ATOM     46  C   UNL A   1      38.993  33.129  34.602  1.00  0.00     0.049 A 
ATOM     47  H   UNL A   1      39.565  31.728  33.171  1.00  0.00     0.167 HD
ATOM     48  C   UNL A   1      40.504  28.676  30.191  1.00  0.00     0.037 A 
ATOM     49  C   UNL A   1      39.770  32.933  35.685  1.00  0.00     0.037 A 
ATOM     50  C   UNL A   1      41.452  28.465  31.254  1.00  0.00     0.049 A 
ATOM     51  C   UNL A   1      40.804  31.839  35.665  1.00  0.00     0.074 A 
ATOM     52  C   UNL A   1      42.489  27.550  31.317  1.00  0.00     0.029 A 
ATOM     53  N   UNL A   1      41.473  29.173  32.447  1.00  0.00    -0.354 N 
ATOM     54  N   UNL A   1      41.089  30.985  34.712  1.00  0.00    -0.248 NA
ATOM     55  C   UNL A   1      41.632  31.686  36.870  1.00  0.00     0.031 C 
ATOM     56  C   UNL A   1      43.100  27.664  32.569  1.00  0.00     0.029 A 
ATOM     57  C   UNL A   1      42.489  28.696  33.262  1.00  0.00     0.049 A 
ATOM     58  H   UNL A   1      40.858  29.905  32.682  1.00  0.00     0.167 HD
ATOM     59  C   UNL A   1      42.150  30.225  35.184  1.00  0.00     0.074 A 
ATOM     60  C   UNL A   1      42.464  30.719  36.507  1.00  0.00     0.031 C 
ATOM     61  C   UNL A   1      42.808  29.211  34.570  1.00  0.00     0.037 A 
BRANCH  48  62
ATOM     62  C   UNL A   1      40.573  27.770  28.993  1.00  0.00     0.064 A 
ATOM     63  C   UNL A   1      41.465  28.012  27.937  1.00  0.00     0.173 A 
ATOM     64  C   UNL A   1      39.773  26.619  28.922  1.00  0.00     0.173 A 
ATOM     65  F   UNL A   1      42.250  29.099  27.952  1.00  0.00    -0.203 F 
ATOM     66  C   UNL A   1      41.530  27.154  26.841  1.00  0.00     0.198 A 
ATOM     67  C   UNL A   1      39.863  25.746  27.841  1.00  0.00     0.198 A 
ATOM     68  F   UNL A   1      38.911  26.332  29.910  1.00  0.00    -0.203 F 
ATOM     69  F   UNL A   1      42.354  27.433  25.822  1.00  0.00    -0.200 F 
ATOM     70  C   UNL A   1      40.735  26.019  26.797  1.00  0.00     0.200 A 
ATOM     71  F   UNL A   1      39.109  24.639  27.810  1.00  0.00    -0.200 F 
ATOM     72  F   UNL A   1      40.806  25.189  25.748  1.00  0.00    -0.200 F 
ENDBRANCH  48  62
BRANCH  49  73
ATOM     73  C   UNL A   1      39.612  33.805  36.880  1.00  0.00     0.064 A 
ATOM     74  C   UNL A   1      38.799  33.414  37.954  1.00  0.00     0.173 A 
ATOM     75  C   UNL A   1      40.258  35.046  36.970  1.00  0.00     0.173 A 
ATOM     76  F   UNL A   1      38.142  32.246  37.906  1.00  0.00    -0.203 F 
ATOM     77  C   UNL A   1      38.620  34.243  39.060  1.00  0.00     0.198 A 
ATOM     78  C   UNL A   1      40.104  35.859  38.091  1.00  0.00     0.198 A 
ATOM     79  F   UNL A   1      41.050  35.466  35.972  1.00  0.00    -0.203 F 
ATOM     80  F   UNL A   1      37.796  33.868  40.048  1.00  0.00    -0.200 F 
ATOM     81  C   UNL A   1      39.277  35.462  39.130  1.00  0.00     0.200 A 
ATOM     82  F   UNL A   1      40.752  37.030  38.161  1.00  0.00    -0.200 F 
ATOM     83  F   UNL A   1      39.106  36.257  40.196  1.00  0.00    -0.200 F 
ENDBRANCH  49  73
BRANCH  61  84
ATOM     84  C   UNL A   1      43.979  28.602  35.291  1.00  0.00     0.064 A 
ATOM     85  C   UNL A   1      43.835  27.503  36.148  1.00  0.00     0.173 A 
ATOM     86  C   UNL A   1      45.274  29.099  35.073  1.00  0.00     0.173 A 
ATOM     87  F   UNL A   1      42.618  26.998  36.402  1.00  0.00    -0.203 F 
ATOM     88  C   UNL A   1      44.941  26.936  36.778  1.00  0.00     0.198 A 
ATOM     89  C   UNL A   1      46.381  28.509  35.677  1.00  0.00     0.198 A 
ATOM     90  F   UNL A   1      45.470  30.146  34.257  1.00  0.00    -0.203 F 
ATOM     91  F   UNL A   1      44.775  25.913  37.628  1.00  0.00    -0.200 F 
ATOM     92  C   UNL A   1      46.213  27.432  36.534  1.00  0.00     0.200 A 
ATOM     93  F   UNL A   1      47.610  28.980  35.426  1.00  0.00    -0.200 F 
ATOM     94  F   UNL A   1      47.277  26.876  37.129  1.00  0.00    -0.200 F 
ENDBRANCH  61  84
ENDBRANCH  35  36
ENDBRANCH  27  30
ENDBRANCH  25  26
ENDBRANCH  24  25
ENDBRANCH   1  24
TORSDOF 15
ENDMDL
MODEL 2
REMARK VINA RESULT:     -11.9      0.494      1.244
REMARK SMILES CC[C@@](C)(NC(=O)NCCc1ncn[nH]1)C(=O)NCCCNC(=O)c1ccc(-c2c3nc(c(-c4c(F)c(F)c(F)c(F)c4F)c4ccc([nH]4)c(-c4c(F)c(F)c(F)c(F)c4F)c4nc(c(-c5c(F)c(F)c(F)c(F)c5F)c5ccc2[nH]5)C=C4)C=C3)cc1
REMARK SMILES IDX 19 1 18 2 16 3 17 4 3 6 4 7 2 8 1 9 5 10 6 11 7 13 8 14 9 16
REMARK SMILES IDX 10 17 11 18 12 19 15 20 13 21 14 22 20 24 21 25 22 26 23 27
REMARK SMILES IDX 24 29 25 30 26 31 87 32 27 33 86 34 28 35 29 36 30 37 80 38
REMARK SMILES IDX 31 39 85 40 79 41 81 42 32 43 84 44 78 45 77 46 33 48 65 49
REMARK SMILES IDX 45 50 64 51 46 52 49 53 63 54 82 55 47 56 48 57 62 59 83 60
REMARK SMILES IDX 50 61 34 62 35 63 43 64 36 65 37 66 41 67 44 68 38 69 39 70
REMARK SMILES IDX 42 71 40 72 66 73 67 74 75 75 68 76 69 77 73 78 76 79 70 80
REMARK SMILES IDX 71 81 74 82 72 83 51 84 52 85 60 86 53 87 54 88 58 89 61 90
REMARK SMILES IDX 55 91 56 92 59 93 57 94
REMARK H PARENT 18 5 5 12 8 15 15 23 22 28 81 47 49 58
REMARK Flexibility Score: inf
ROOT
ATOM      1  C   UNL A   1      31.736  30.363  26.233  1.00  0.00     0.117 C 
ENDROOT
BRANCH   1   2
ATOM      2  N   UNL A   1      32.680  30.074  25.161  1.00  0.00    -0.354 N 
ATOM      3  C   UNL A   1      33.022  28.939  24.469  1.00  0.00     0.245 C 
ATOM      4  O   UNL A   1      33.710  29.115  23.457  1.00  0.00    -0.272 OA
ATOM      5  H   UNL A   1      33.184  30.867  24.870  1.00  0.00     0.163 HD
BRANCH   3   6
ATOM      6  C   UNL A   1      32.517  27.523  24.854  1.00  0.00     0.117 C 
ATOM      7  C   UNL A   1      33.619  26.891  25.746  1.00  0.00     0.045 C 
BRANCH   6   8
ATOM      8  C   UNL A   1      31.192  27.435  25.672  1.00  0.00     0.035 C 
ATOM      9  C   UNL A   1      30.491  26.082  25.746  1.00  0.00     0.007 C 
ENDBRANCH   6   8
BRANCH   6  10
ATOM     10  N   UNL A   1      32.350  26.719  23.627  1.00  0.00    -0.324 N 
ATOM     11  C   UNL A   1      31.610  26.789  22.520  1.00  0.00     0.315 C 
ATOM     12  H   UNL A   1      32.936  25.928  23.627  1.00  0.00     0.166 HD
ATOM     13  O   UNL A   1      31.643  25.804  21.774  1.00  0.00    -0.249 OA
ATOM     14  N   UNL A   1      30.896  27.831  22.082  1.00  0.00    -0.338 N 
ATOM     15  H   UNL A   1      30.674  27.736  21.128  1.00  0.00     0.165 HD
BRANCH  14  16
ATOM     16  C   UNL A   1      30.355  29.075  22.630  1.00  0.00     0.125 C 
BRANCH  16  17
ATOM     17  C   UNL A   1      28.949  29.476  22.180  1.00  0.00     0.098 C 
BRANCH  17  18
ATOM     18  C   UNL A   1      28.659  30.903  21.866  1.00  0.00     0.125 A 
ATOM     19  N   UNL A   1      27.951  31.310  20.829  1.00  0.00    -0.220 NA
ATOM     20  N   UNL A   1      28.990  31.993  22.616  1.00  0.00    -0.263 N 
ATOM     21  C   UNL A   1      27.885  32.660  20.989  1.00  0.00     0.246 A 
ATOM     22  N   UNL A   1      28.487  33.123  22.086  1.00  0.00    -0.162 NA
ATOM     23  H   UNL A   1      29.530  31.959  23.440  1.00  0.00     0.192 HD
ENDBRANCH  17  18
ENDBRANCH  16  17
ENDBRANCH  14  16
ENDBRANCH   6  10
ENDBRANCH   3   6
ENDBRANCH   1   2
BRANCH   1  24
ATOM     24  C   UNL A   1      31.519  31.819  26.647  1.00  0.00     0.042 C 
BRANCH  24  25
ATOM     25  C   UNL A   1      32.700  32.621  27.173  1.00  0.00     0.118 C 
BRANCH  25  26
ATOM     26  N   UNL A   1      32.379  33.977  27.573  1.00  0.00    -0.352 N 
ATOM     27  C   UNL A   1      32.999  34.774  28.512  1.00  0.00     0.251 C 
ATOM     28  H   UNL A   1      31.612  34.386  27.111  1.00  0.00     0.163 HD
ATOM     29  O   UNL A   1      32.544  35.877  28.778  1.00  0.00    -0.269 OA
BRANCH  27  30
ATOM     30  C   UNL A   1      34.197  34.281  29.230  1.00  0.00     0.039 A 
ATOM     31  C   UNL A   1      34.028  33.587  30.431  1.00  0.00     0.014 A 
ATOM     32  C   UNL A   1      35.483  34.513  28.735  1.00  0.00     0.014 A 
ATOM     33  C   UNL A   1      35.143  33.068  31.099  1.00  0.00     0.010 A 
ATOM     34  C   UNL A   1      36.590  33.957  29.375  1.00  0.00     0.010 A 
ATOM     35  C   UNL A   1      36.432  33.219  30.560  1.00  0.00    -0.014 A 
BRANCH  35  36
ATOM     36  C   UNL A   1      37.619  32.598  31.205  1.00  0.00     0.031 A 
ATOM     37  C   UNL A   1      38.340  31.457  30.541  1.00  0.00     0.074 A 
ATOM     38  C   UNL A   1      38.005  33.011  32.429  1.00  0.00     0.049 A 
ATOM     39  N   UNL A   1      39.340  30.736  30.986  1.00  0.00    -0.248 NA
ATOM     40  C   UNL A   1      37.863  31.066  29.207  1.00  0.00     0.031 C 
ATOM     41  C   UNL A   1      37.372  34.085  33.195  1.00  0.00     0.029 A 
ATOM     42  N   UNL A   1      39.012  32.564  33.251  1.00  0.00    -0.354 N 
ATOM     43  C   UNL A   1      39.603  29.802  29.994  1.00  0.00     0.074 A 
ATOM     44  C   UNL A   1      38.630  30.017  28.943  1.00  0.00     0.031 C 
ATOM     45  C   UNL A   1      38.007  34.218  34.370  1.00  0.00     0.029 A 
ATOM     46  C   UNL A   1      39.064  33.216  34.461  1.00  0.00     0.049 A 
ATOM     47  H   UNL A   1      39.636  31.847  32.998  1.00  0.00     0.167 HD
ATOM     48  C   UNL A   1      40.577  28.858  29.955  1.00  0.00     0.037 A 
ATOM     49  C   UNL A   1      39.862  33.015  35.528  1.00  0.00     0.037 A 
ATOM     50  C   UNL A   1      41.545  28.647  31.000  1.00  0.00     0.049 A 
ATOM     51  C   UNL A   1      40.913  31.938  35.474  1.00  0.00     0.074 A 
ATOM     52  C   UNL A   1      42.598  27.748  31.031  1.00  0.00     0.029 A 
ATOM     53  N   UNL A   1      41.573  29.336  32.204  1.00  0.00    -0.354 N 
ATOM     54  N   UNL A   1      41.196  31.105  34.504  1.00  0.00    -0.248 NA
ATOM     55  C   UNL A   1      41.763  31.780  36.664  1.00  0.00     0.031 C 
ATOM     56  C   UNL A   1      43.226  27.852  32.276  1.00  0.00     0.029 A 
ATOM     57  C   UNL A   1      42.610  28.862  32.995  1.00  0.00     0.049 A 
ATOM     58  H   UNL A   1      40.951  30.054  32.460  1.00  0.00     0.167 HD
ATOM     59  C   UNL A   1      42.277  30.354  34.946  1.00  0.00     0.074 A 
ATOM     60  C   UNL A   1      42.604  30.833  36.273  1.00  0.00     0.031 C 
ATOM     61  C   UNL A   1      42.942  29.361  34.306  1.00  0.00     0.037 A 
BRANCH  48  62
ATOM     62  C   UNL A   1      40.641  27.973  28.742  1.00  0.00     0.064 A 
ATOM     63  C   UNL A   1      39.927  26.767  28.671  1.00  0.00     0.173 A 
ATOM     64  C   UNL A   1      41.386  28.359  27.617  1.00  0.00     0.173 A 
ATOM     65  F   UNL A   1      39.202  26.349  29.719  1.00  0.00    -0.203 F 
ATOM     66  C   UNL A   1      39.983  25.965  27.534  1.00  0.00     0.198 A 
ATOM     67  C   UNL A   1      41.414  27.571  26.468  1.00  0.00     0.198 A 
ATOM     68  F   UNL A   1      42.078  29.509  27.624  1.00  0.00    -0.203 F 
ATOM     69  F   UNL A   1      39.333  24.794  27.509  1.00  0.00    -0.200 F 
ATOM     70  C   UNL A   1      40.720  26.371  26.431  1.00  0.00     0.200 A 
ATOM     71  F   UNL A   1      42.110  27.975  25.397  1.00  0.00    -0.200 F 
ATOM     72  F   UNL A   1      40.764  25.604  25.334  1.00  0.00    -0.200 F 
ENDBRANCH  48  62
BRANCH  49  73
ATOM     73  C   UNL A   1      39.709  33.865  36.740  1.00  0.00     0.064 A 
ATOM     74  C   UNL A   1      38.893  33.460  37.806  1.00  0.00     0.173 A 
ATOM     75  C   UNL A   1      40.363  35.100  36.853  1.00  0.00     0.173 A 
ATOM     76  F   UNL A   1      38.229  32.297  37.735  1.00  0.00    -0.203 F 
ATOM     77  C   UNL A   1      38.719  34.268  38.927  1.00  0.00     0.198 A 
ATOM     78  C   UNL A   1      40.213  35.893  37.989  1.00  0.00     0.198 A 
ATOM     79  F   UNL A   1      41.158  35.534  35.863  1.00  0.00    -0.203 F 
ATOM     80  F   UNL A   1      37.892  33.880  39.908  1.00  0.00    -0.200 F 
ATOM     81  C   UNL A   1      39.383  35.481  39.020  1.00  0.00     0.200 A 
ATOM     82  F   UNL A   1      40.869  37.059  38.082  1.00  0.00    -0.200 F 
ATOM     83  F   UNL A   1      39.217  36.257  40.101  1.00  0.00    -0.200 F 
ENDBRANCH  49  73
BRANCH  61  84
ATOM     84  C   UNL A   1      44.133  28.760  34.999  1.00  0.00     0.064 A 
ATOM     85  C   UNL A   1      44.026  27.626  35.814  1.00  0.00     0.173 A 
ATOM     86  C   UNL A   1      45.413  29.303  34.794  1.00  0.00     0.173 A 
ATOM     87  F   UNL A   1      42.825  27.077  36.054  1.00  0.00    -0.203 F 
ATOM     88  C   UNL A   1      45.151  27.068  36.417  1.00  0.00     0.198 A 
ATOM     89  C   UNL A   1      46.539  28.723  35.371  1.00  0.00     0.198 A 
ATOM     90  F   UNL A   1      45.573  30.385  34.017  1.00  0.00    -0.203 F 
ATOM     91  F   UNL A   1      45.020  26.010  37.229  1.00  0.00    -0.200 F 
ATOM     92  C   UNL A   1      46.407  27.611  36.187  1.00  0.00     0.200 A 
ATOM     93  F   UNL A   1      47.753  29.240  35.133  1.00  0.00    -0.200 F 
ATOM     94  F   UNL A   1      47.490  27.064  36.756  1.00  0.00    -0.200 F 
ENDBRANCH  61  84
ENDBRANCH  35  36
ENDBRANCH  27  30
ENDBRANCH  25  26
ENDBRANCH  24  25
ENDBRANCH   1  24
TORSDOF 15
ENDMDL
MODEL 3
REMARK VINA RESULT:     -11.8      6.409     11.706
REMARK SMILES CC[C@@](C)(NC(=O)NCCc1ncn[nH]1)C(=O)NCCCNC(=O)c1ccc(-c2c3nc(c(-c4c(F)c(F)c(F)c(F)c4F)c4ccc([nH]4)c(-c4c(F)c(F)c(F)c(F)c4F)c4nc(c(-c5c(F)c(F)c(F)c(F)c5F)c5ccc2[nH]5)C=C4)C=C3)cc1
REMARK SMILES IDX 19 1 18 2 16 3 17 4 3 6 4 7 2 8 1 9 5 10 6 11 7 13 8 14 9 16
REMARK SMILES IDX 10 17 11 18 12 19 15 20 13 21 14 22 20 24 21 25 22 26 23 27
REMARK SMILES IDX 24 29 25 30 26 31 87 32 27 33 86 34 28 35 29 36 30 37 80 38
REMARK SMILES IDX 31 39 85 40 79 41 81 42 32 43 84 44 78 45 77 46 33 48 65 49
REMARK SMILES IDX 45 50 64 51 46 52 49 53 63 54 82 55 47 56 48 57 62 59 83 60
REMARK SMILES IDX 50 61 34 62 35 63 43 64 36 65 37 66 41 67 44 68 38 69 39 70
REMARK SMILES IDX 42 71 40 72 66 73 67 74 75 75 68 76 69 77 73 78 76 79 70 80
REMARK SMILES IDX 71 81 74 82 72 83 51 84 52 85 60 86 53 87 54 88 58 89 61 90
REMARK SMILES IDX 55 91 56 92 59 93 57 94
REMARK H PARENT 18 5 5 12 8 15 15 23 22 28 81 47 49 58
REMARK Flexibility Score: inf
ROOT
ATOM      1  C   UNL A   1      36.768  20.880  24.903  1.00  0.00     0.117 C 
ENDROOT
BRANCH   1   2
ATOM      2  N   UNL A   1      36.019  21.179  26.117  1.00  0.00    -0.354 N 
ATOM      3  C   UNL A   1      34.943  21.979  26.404  1.00  0.00     0.245 C 
ATOM      4  O   UNL A   1      34.428  21.808  27.515  1.00  0.00    -0.272 OA
ATOM      5  H   UNL A   1      36.363  20.701  26.906  1.00  0.00     0.163 HD
BRANCH   3   6
ATOM      6  C   UNL A   1      34.331  22.979  25.386  1.00  0.00     0.117 C 
ATOM      7  C   UNL A   1      35.175  24.278  25.484  1.00  0.00     0.045 C 
BRANCH   6   8
ATOM      8  C   UNL A   1      34.343  22.565  23.883  1.00  0.00     0.035 C 
ATOM      9  C   UNL A   1      33.966  23.624  22.850  1.00  0.00     0.007 C 
ENDBRANCH   6   8
BRANCH   6  10
ATOM     10  N   UNL A   1      32.934  23.265  25.769  1.00  0.00    -0.324 N 
ATOM     11  C   UNL A   1      31.762  22.632  25.691  1.00  0.00     0.315 C 
ATOM     12  H   UNL A   1      32.845  24.150  26.190  1.00  0.00     0.166 HD
ATOM     13  O   UNL A   1      30.761  23.292  25.988  1.00  0.00    -0.249 OA
ATOM     14  N   UNL A   1      31.550  21.344  25.405  1.00  0.00    -0.338 N 
ATOM     15  H   UNL A   1      30.648  21.061  25.681  1.00  0.00     0.165 HD
BRANCH  14  16
ATOM     16  C   UNL A   1      32.290  20.237  24.799  1.00  0.00     0.125 C 
BRANCH  16  17
ATOM     17  C   UNL A   1      32.830  19.164  25.746  1.00  0.00     0.098 C 
BRANCH  17  18
ATOM     18  C   UNL A   1      33.216  17.832  25.201  1.00  0.00     0.125 A 
ATOM     19  N   UNL A   1      33.459  17.588  23.927  1.00  0.00    -0.220 NA
ATOM     20  N   UNL A   1      33.458  16.693  25.911  1.00  0.00    -0.263 N 
ATOM     21  C   UNL A   1      33.841  16.283  23.912  1.00  0.00     0.246 A 
ATOM     22  N   UNL A   1      33.880  15.698  25.111  1.00  0.00    -0.162 NA
ATOM     23  H   UNL A   1      33.338  16.609  26.886  1.00  0.00     0.192 HD
ENDBRANCH  17  18
ENDBRANCH  16  17
ENDBRANCH  14  16
ENDBRANCH   6  10
ENDBRANCH   3   6
ENDBRANCH   1   2
BRANCH   1  24
ATOM     24  C   UNL A   1      37.913  19.869  24.976  1.00  0.00     0.042 C 
BRANCH  24  25
ATOM     25  C   UNL A   1      39.153  20.215  25.787  1.00  0.00     0.118 C 
BRANCH  25  26
ATOM     26  N   UNL A   1      40.153  19.167  25.838  1.00  0.00    -0.352 N 
ATOM     27  C   UNL A   1      41.501  19.268  26.106  1.00  0.00     0.251 C 
ATOM     28  H   UNL A   1      39.824  18.258  25.657  1.00  0.00     0.163 HD
ATOM     29  O   UNL A   1      42.218  18.280  26.034  1.00  0.00    -0.269 OA
BRANCH  27  30
ATOM     30  C   UNL A   1      42.095  20.582  26.447  1.00  0.00     0.039 A 
ATOM     31  C   UNL A   1      42.527  21.417  25.413  1.00  0.00     0.014 A 
ATOM     32  C   UNL A   1      42.242  20.986  27.776  1.00  0.00     0.014 A 
ATOM     33  C   UNL A   1      43.044  22.684  25.710  1.00  0.00     0.010 A 
ATOM     34  C   UNL A   1      42.713  22.266  28.070  1.00  0.00     0.010 A 
ATOM     35  C   UNL A   1      43.110  23.133  27.039  1.00  0.00    -0.014 A 
BRANCH  35  36
ATOM     36  C   UNL A   1      43.570  24.509  27.369  1.00  0.00     0.031 A 
ATOM     37  C   UNL A   1      42.596  25.541  27.866  1.00  0.00     0.074 A 
ATOM     38  C   UNL A   1      44.855  24.853  27.150  1.00  0.00     0.049 A 
ATOM     39  N   UNL A   1      42.792  26.810  28.126  1.00  0.00    -0.248 NA
ATOM     40  C   UNL A   1      41.214  25.090  28.083  1.00  0.00     0.031 C 
ATOM     41  C   UNL A   1      45.893  23.957  26.641  1.00  0.00     0.029 A 
ATOM     42  N   UNL A   1      45.503  26.055  27.311  1.00  0.00    -0.354 N 
ATOM     43  C   UNL A   1      41.560  27.310  28.526  1.00  0.00     0.074 A 
ATOM     44  C   UNL A   1      40.613  26.219  28.432  1.00  0.00     0.031 C 
ATOM     45  C   UNL A   1      47.046  24.635  26.537  1.00  0.00     0.029 A 
ATOM     46  C   UNL A   1      46.823  26.023  26.931  1.00  0.00     0.049 A 
ATOM     47  H   UNL A   1      45.063  26.861  27.664  1.00  0.00     0.167 HD
ATOM     48  C   UNL A   1      41.250  28.561  28.948  1.00  0.00     0.037 A 
ATOM     49  C   UNL A   1      47.745  27.005  26.889  1.00  0.00     0.037 A 
ATOM     50  C   UNL A   1      42.194  29.644  29.043  1.00  0.00     0.049 A 
ATOM     51  C   UNL A   1      47.366  28.394  27.330  1.00  0.00     0.074 A 
ATOM     52  C   UNL A   1      41.984  30.933  29.503  1.00  0.00     0.029 A 
ATOM     53  N   UNL A   1      43.526  29.569  28.662  1.00  0.00    -0.354 N 
ATOM     54  N   UNL A   1      46.215  28.839  27.769  1.00  0.00    -0.248 NA
ATOM     55  C   UNL A   1      48.421  29.418  27.276  1.00  0.00     0.031 C 
ATOM     56  C   UNL A   1      43.172  31.654  29.345  1.00  0.00     0.029 A 
ATOM     57  C   UNL A   1      44.142  30.797  28.852  1.00  0.00     0.049 A 
ATOM     58  H   UNL A   1      43.968  28.764  28.309  1.00  0.00     0.167 HD
ATOM     59  C   UNL A   1      46.415  30.177  28.082  1.00  0.00     0.074 A 
ATOM     60  C   UNL A   1      47.800  30.473  27.785  1.00  0.00     0.031 C 
ATOM     61  C   UNL A   1      45.529  31.076  28.576  1.00  0.00     0.037 A 
BRANCH  48  62
ATOM     62  C   UNL A   1      39.822  28.831  29.334  1.00  0.00     0.064 A 
ATOM     63  C   UNL A   1      38.880  29.286  28.398  1.00  0.00     0.173 A 
ATOM     64  C   UNL A   1      39.379  28.586  30.642  1.00  0.00     0.173 A 
ATOM     65  F   UNL A   1      39.250  29.540  27.135  1.00  0.00    -0.203 F 
ATOM     66  C   UNL A   1      37.556  29.516  28.767  1.00  0.00     0.198 A 
ATOM     67  C   UNL A   1      38.048  28.786  30.999  1.00  0.00     0.198 A 
ATOM     68  F   UNL A   1      40.235  28.138  31.574  1.00  0.00    -0.203 F 
ATOM     69  F   UNL A   1      36.687  29.998  27.868  1.00  0.00    -0.200 F 
ATOM     70  C   UNL A   1      37.140  29.259  30.065  1.00  0.00     0.200 A 
ATOM     71  F   UNL A   1      37.643  28.517  32.249  1.00  0.00    -0.200 F 
ATOM     72  F   UNL A   1      35.865  29.470  30.415  1.00  0.00    -0.200 F 
ENDBRANCH  48  62
BRANCH  49  73
ATOM     73  C   UNL A   1      49.127  26.708  26.423  1.00  0.00     0.064 A 
ATOM     74  C   UNL A   1      50.105  26.250  27.318  1.00  0.00     0.173 A 
ATOM     75  C   UNL A   1      49.501  26.885  25.084  1.00  0.00     0.173 A 
ATOM     76  F   UNL A   1      49.803  26.086  28.613  1.00  0.00    -0.203 F 
ATOM     77  C   UNL A   1      51.409  26.005  26.894  1.00  0.00     0.198 A 
ATOM     78  C   UNL A   1      50.797  26.609  24.655  1.00  0.00     0.198 A 
ATOM     79  F   UNL A   1      48.602  27.319  24.186  1.00  0.00    -0.203 F 
ATOM     80  F   UNL A   1      52.337  25.618  27.780  1.00  0.00    -0.200 F 
ATOM     81  C   UNL A   1      51.753  26.179  25.562  1.00  0.00     0.200 A 
ATOM     82  F   UNL A   1      51.122  26.765  23.364  1.00  0.00    -0.200 F 
ATOM     83  F   UNL A   1      53.008  25.940  25.155  1.00  0.00    -0.200 F 
ENDBRANCH  49  73
BRANCH  61  84
ATOM     84  C   UNL A   1      46.038  32.455  28.890  1.00  0.00     0.064 A 
ATOM     85  C   UNL A   1      45.973  33.503  27.962  1.00  0.00     0.173 A 
ATOM     86  C   UNL A   1      46.549  32.741  30.168  1.00  0.00     0.173 A 
ATOM     87  F   UNL A   1      45.508  33.280  26.723  1.00  0.00    -0.203 F 
ATOM     88  C   UNL A   1      46.420  34.780  28.291  1.00  0.00     0.198 A 
ATOM     89  C   UNL A   1      46.963  34.026  30.504  1.00  0.00     0.198 A 
ATOM     90  F   UNL A   1      46.627  31.777  31.097  1.00  0.00    -0.203 F 
ATOM     91  F   UNL A   1      46.391  35.757  27.373  1.00  0.00    -0.200 F 
ATOM     92  C   UNL A   1      46.905  35.043  29.564  1.00  0.00     0.200 A 
ATOM     93  F   UNL A   1      47.415  34.281  31.740  1.00  0.00    -0.200 F 
ATOM     94  F   UNL A   1      47.321  36.276  29.884  1.00  0.00    -0.200 F 
ENDBRANCH  61  84
ENDBRANCH  35  36
ENDBRANCH  27  30
ENDBRANCH  25  26
ENDBRANCH  24  25
ENDBRANCH   1  24
TORSDOF 15
ENDMDL
