MODEL 1
REMARK VINA RESULT:     -14.4      0.000      0.000
REMARK SMILES CC(C)[C@H](NC(=O)c1cc2cc(Cl)ccc2n1C)C(=O)N[C@@H](C(=O)NCCCNC(=O)c1ccc(-c2c3nc(c(-c4c(F)c(F)c(F)c(F)c4F)c4ccc([nH]4)c(-c4c(F)c(F)c(F)c(F)c4F)c4nc(c(-c5c(F)c(F)c(F)c(F)c5F)c5ccc2[nH]5)C=C4)C=C3)cc1)c1ccccc1
REMARK SMILES IDX 26 1 25 2 23 3 24 4 22 6 21 7 19 8 20 9 4 11 2 12 1 13 3 14
REMARK SMILES IDX 5 15 6 16 7 18 8 19 9 20 17 21 10 22 16 23 18 24 11 25 15 26
REMARK SMILES IDX 12 27 14 28 13 29 95 30 96 31 100 32 97 33 99 34 98 35 27 36
REMARK SMILES IDX 28 37 29 38 30 39 31 41 32 42 33 43 94 44 34 45 93 46 35 47
REMARK SMILES IDX 36 48 37 49 87 50 38 51 92 52 86 53 88 54 39 55 91 56 85 57
REMARK SMILES IDX 84 58 40 60 72 61 52 62 71 63 53 64 56 65 70 66 89 67 54 68
REMARK SMILES IDX 55 69 69 71 90 72 57 73 41 74 42 75 50 76 43 77 44 78 48 79
REMARK SMILES IDX 51 80 45 81 46 82 49 83 47 84 73 85 74 86 82 87 75 88 76 89
REMARK SMILES IDX 80 90 83 91 77 92 78 93 81 94 79 95 58 96 59 97 67 98 60 99
REMARK SMILES IDX 61 100 65 101 68 102 62 103 63 104 66 105 64 106
REMARK H PARENT 25 5 21 10 5 17 29 40 88 59 56 70
REMARK Flexibility Score: inf
ROOT
ATOM      1  C   UNL A   1      32.163  30.587  25.895  1.00  0.00     0.117 C 
ENDROOT
BRANCH   1   2
ATOM      2  N   UNL A   1      32.531  29.709  24.815  1.00  0.00    -0.354 N 
ATOM      3  C   UNL A   1      31.729  29.285  23.789  1.00  0.00     0.247 C 
ATOM      4  O   UNL A   1      32.312  29.154  22.705  1.00  0.00    -0.272 OA
ATOM      5  H   UNL A   1      33.459  29.379  24.814  1.00  0.00     0.163 HD
BRANCH   3   6
ATOM      6  C   UNL A   1      30.154  29.110  23.931  1.00  0.00     0.202 C 
BRANCH   6   7
ATOM      7  N   UNL A   1      29.617  27.858  23.376  1.00  0.00    -0.339 N 
ATOM      8  C   UNL A   1      29.739  26.580  23.848  1.00  0.00     0.243 C 
ATOM      9  O   UNL A   1      28.681  25.951  23.976  1.00  0.00    -0.273 OA
ATOM     10  H   UNL A   1      29.096  27.954  22.546  1.00  0.00     0.164 HD
BRANCH   8  11
ATOM     11  C   UNL A   1      31.095  25.865  24.140  1.00  0.00     0.174 C 
BRANCH  11  12
ATOM     12  C   UNL A   1      31.644  25.893  25.589  1.00  0.00     0.015 C 
ATOM     13  C   UNL A   1      31.093  27.012  26.475  1.00  0.00     0.010 C 
ATOM     14  C   UNL A   1      31.549  24.536  26.287  1.00  0.00     0.010 C 
ENDBRANCH  11  12
BRANCH  11  15
ATOM     15  N   UNL A   1      32.136  26.149  23.158  1.00  0.00    -0.339 N 
ATOM     16  C   UNL A   1      33.140  25.346  22.676  1.00  0.00     0.268 C 
ATOM     17  H   UNL A   1      32.114  27.058  22.782  1.00  0.00     0.164 HD
ATOM     18  O   UNL A   1      33.921  25.860  21.877  1.00  0.00    -0.268 OA
BRANCH  16  19
ATOM     19  C   UNL A   1      33.271  23.973  23.107  1.00  0.00     0.107 A 
ATOM     20  C   UNL A   1      32.389  22.948  22.788  1.00  0.00     0.042 A 
ATOM     21  N   UNL A   1      34.160  23.432  24.015  1.00  0.00    -0.340 N 
ATOM     22  C   UNL A   1      32.820  21.754  23.419  1.00  0.00     0.002 A 
ATOM     23  C   UNL A   1      33.964  22.070  24.145  1.00  0.00     0.048 A 
ATOM     24  C   UNL A   1      35.084  24.144  24.868  1.00  0.00     0.150 C 
ATOM     25  C   UNL A   1      32.339  20.433  23.449  1.00  0.00     0.030 A 
ATOM     26  C   UNL A   1      34.678  21.109  24.878  1.00  0.00     0.028 A 
ATOM     27  C   UNL A   1      33.046  19.467  24.174  1.00  0.00     0.041 A 
ATOM     28  C   UNL A   1      34.202  19.798  24.872  1.00  0.00     0.023 A 
ATOM     29  Cl  UNL A   1      32.493  17.838  24.208  1.00  0.00    -0.084 Cl
ENDBRANCH  16  19
ENDBRANCH  11  15
ENDBRANCH   8  11
ENDBRANCH   6   7
BRANCH   6  30
ATOM     30  C   UNL A   1      29.422  30.252  23.190  1.00  0.00    -0.016 A 
ATOM     31  C   UNL A   1      29.184  31.494  23.814  1.00  0.00     0.006 A 
ATOM     32  C   UNL A   1      29.058  30.128  21.841  1.00  0.00     0.006 A 
ATOM     33  C   UNL A   1      28.560  32.543  23.133  1.00  0.00     0.000 A 
ATOM     34  C   UNL A   1      28.454  31.185  21.153  1.00  0.00     0.000 A 
ATOM     35  C   UNL A   1      28.197  32.389  21.801  1.00  0.00     0.000 A 
ENDBRANCH   6  30
ENDBRANCH   3   6
ENDBRANCH   1   2
BRANCH   1  36
ATOM     36  C   UNL A   1      32.872  30.302  27.214  1.00  0.00     0.042 C 
BRANCH  36  37
ATOM     37  C   UNL A   1      34.213  31.002  27.424  1.00  0.00     0.118 C 
BRANCH  37  38
ATOM     38  N   UNL A   1      34.375  31.597  28.734  1.00  0.00    -0.352 N 
ATOM     39  C   UNL A   1      35.337  31.562  29.707  1.00  0.00     0.251 C 
ATOM     40  H   UNL A   1      33.609  32.163  28.986  1.00  0.00     0.163 HD
ATOM     41  O   UNL A   1      35.171  32.354  30.641  1.00  0.00    -0.269 OA
BRANCH  39  42
ATOM     42  C   UNL A   1      36.536  30.666  29.741  1.00  0.00     0.039 A 
ATOM     43  C   UNL A   1      36.574  29.356  30.216  1.00  0.00     0.014 A 
ATOM     44  C   UNL A   1      37.752  31.240  29.321  1.00  0.00     0.014 A 
ATOM     45  C   UNL A   1      37.792  28.665  30.338  1.00  0.00     0.010 A 
ATOM     46  C   UNL A   1      38.964  30.546  29.416  1.00  0.00     0.010 A 
ATOM     47  C   UNL A   1      39.003  29.264  29.968  1.00  0.00    -0.014 A 
BRANCH  47  48
ATOM     48  C   UNL A   1      40.268  28.528  30.177  1.00  0.00     0.031 A 
ATOM     49  C   UNL A   1      40.843  28.441  31.556  1.00  0.00     0.074 A 
ATOM     50  C   UNL A   1      40.869  27.774  29.226  1.00  0.00     0.049 A 
ATOM     51  N   UNL A   1      42.082  28.599  31.919  1.00  0.00    -0.248 NA
ATOM     52  C   UNL A   1      39.944  28.059  32.655  1.00  0.00     0.031 C 
ATOM     53  C   UNL A   1      40.336  27.436  27.908  1.00  0.00     0.029 A 
ATOM     54  N   UNL A   1      42.045  27.059  29.287  1.00  0.00    -0.354 N 
ATOM     55  C   UNL A   1      42.143  28.248  33.265  1.00  0.00     0.074 A 
ATOM     56  C   UNL A   1      40.794  27.939  33.676  1.00  0.00     0.031 C 
ATOM     57  C   UNL A   1      41.067  26.431  27.382  1.00  0.00     0.029 A 
ATOM     58  C   UNL A   1      42.192  26.142  28.262  1.00  0.00     0.049 A 
ATOM     59  H   UNL A   1      42.718  27.188  29.993  1.00  0.00     0.167 HD
ATOM     60  C   UNL A   1      43.305  28.096  33.957  1.00  0.00     0.037 A 
ATOM     61  C   UNL A   1      43.130  25.177  28.107  1.00  0.00     0.037 A 
ATOM     62  C   UNL A   1      44.511  28.507  33.297  1.00  0.00     0.049 A 
ATOM     63  C   UNL A   1      44.339  25.446  28.917  1.00  0.00     0.074 A 
ATOM     64  C   UNL A   1      45.535  29.408  33.500  1.00  0.00     0.029 A 
ATOM     65  N   UNL A   1      44.771  27.891  32.110  1.00  0.00    -0.354 N 
ATOM     66  N   UNL A   1      45.218  26.368  28.645  1.00  0.00    -0.248 NA
ATOM     67  C   UNL A   1      44.540  24.743  30.183  1.00  0.00     0.031 C 
ATOM     68  C   UNL A   1      46.426  29.307  32.386  1.00  0.00     0.029 A 
ATOM     69  C   UNL A   1      45.940  28.327  31.541  1.00  0.00     0.049 A 
ATOM     70  H   UNL A   1      44.186  27.209  31.707  1.00  0.00     0.167 HD
ATOM     71  C   UNL A   1      45.840  26.608  29.849  1.00  0.00     0.074 A 
ATOM     72  C   UNL A   1      45.514  25.487  30.713  1.00  0.00     0.031 C 
ATOM     73  C   UNL A   1      46.212  27.866  30.209  1.00  0.00     0.037 A 
BRANCH  60  74
ATOM     74  C   UNL A   1      43.401  27.253  35.190  1.00  0.00     0.064 A 
ATOM     75  C   UNL A   1      43.753  27.799  36.433  1.00  0.00     0.173 A 
ATOM     76  C   UNL A   1      43.405  25.848  35.085  1.00  0.00     0.173 A 
ATOM     77  F   UNL A   1      43.796  29.128  36.606  1.00  0.00    -0.203 F 
ATOM     78  C   UNL A   1      44.100  26.980  37.511  1.00  0.00     0.198 A 
ATOM     79  C   UNL A   1      43.726  25.034  36.169  1.00  0.00     0.198 A 
ATOM     80  F   UNL A   1      43.164  25.253  33.907  1.00  0.00    -0.203 F 
ATOM     81  F   UNL A   1      44.481  27.531  38.672  1.00  0.00    -0.200 F 
ATOM     82  C   UNL A   1      44.086  25.600  37.378  1.00  0.00     0.200 A 
ATOM     83  F   UNL A   1      43.724  23.702  36.024  1.00  0.00    -0.200 F 
ATOM     84  F   UNL A   1      44.441  24.818  38.407  1.00  0.00    -0.200 F 
ENDBRANCH  60  74
BRANCH  61  85
ATOM     85  C   UNL A   1      43.032  23.952  27.284  1.00  0.00     0.064 A 
ATOM     86  C   UNL A   1      43.608  23.875  26.007  1.00  0.00     0.173 A 
ATOM     87  C   UNL A   1      42.529  22.755  27.825  1.00  0.00     0.173 A 
ATOM     88  F   UNL A   1      44.163  24.958  25.446  1.00  0.00    -0.203 F 
ATOM     89  C   UNL A   1      43.660  22.671  25.304  1.00  0.00     0.198 A 
ATOM     90  C   UNL A   1      42.563  21.557  27.115  1.00  0.00     0.198 A 
ATOM     91  F   UNL A   1      42.059  22.717  29.082  1.00  0.00    -0.203 F 
ATOM     92  F   UNL A   1      44.253  22.625  24.103  1.00  0.00    -0.200 F 
ATOM     93  C   UNL A   1      43.134  21.514  25.855  1.00  0.00     0.200 A 
ATOM     94  F   UNL A   1      42.079  20.439  27.673  1.00  0.00    -0.200 F 
ATOM     95  F   UNL A   1      43.206  20.354  25.191  1.00  0.00    -0.200 F 
ENDBRANCH  61  85
BRANCH  73  96
ATOM     96  C   UNL A   1      46.567  28.820  29.127  1.00  0.00     0.064 A 
ATOM     97  C   UNL A   1      47.851  28.893  28.570  1.00  0.00     0.173 A 
ATOM     98  C   UNL A   1      45.590  29.697  28.640  1.00  0.00     0.173 A 
ATOM     99  F   UNL A   1      48.804  28.019  28.930  1.00  0.00    -0.203 F 
ATOM    100  C   UNL A   1      48.159  29.850  27.606  1.00  0.00     0.198 A 
ATOM    101  C   UNL A   1      45.892  30.628  27.650  1.00  0.00     0.198 A 
ATOM    102  F   UNL A   1      44.337  29.647  29.121  1.00  0.00    -0.203 F 
ATOM    103  F   UNL A   1      49.401  29.918  27.104  1.00  0.00    -0.200 F 
ATOM    104  C   UNL A   1      47.179  30.714  27.144  1.00  0.00     0.200 A 
ATOM    105  F   UNL A   1      44.936  31.448  27.188  1.00  0.00    -0.200 F 
ATOM    106  F   UNL A   1      47.473  31.617  26.199  1.00  0.00    -0.200 F 
ENDBRANCH  73  96
ENDBRANCH  47  48
ENDBRANCH  39  42
ENDBRANCH  37  38
ENDBRANCH  36  37
ENDBRANCH   1  36
TORSDOF 16
ENDMDL
MODEL 2
REMARK VINA RESULT:     -14.1      1.614      6.565
REMARK SMILES CC(C)[C@H](NC(=O)c1cc2cc(Cl)ccc2n1C)C(=O)N[C@@H](C(=O)NCCCNC(=O)c1ccc(-c2c3nc(c(-c4c(F)c(F)c(F)c(F)c4F)c4ccc([nH]4)c(-c4c(F)c(F)c(F)c(F)c4F)c4nc(c(-c5c(F)c(F)c(F)c(F)c5F)c5ccc2[nH]5)C=C4)C=C3)cc1)c1ccccc1
REMARK SMILES IDX 26 1 25 2 23 3 24 4 22 6 21 7 19 8 20 9 4 11 2 12 1 13 3 14
REMARK SMILES IDX 5 15 6 16 7 18 8 19 9 20 17 21 10 22 16 23 18 24 11 25 15 26
REMARK SMILES IDX 12 27 14 28 13 29 95 30 96 31 100 32 97 33 99 34 98 35 27 36
REMARK SMILES IDX 28 37 29 38 30 39 31 41 32 42 33 43 94 44 34 45 93 46 35 47
REMARK SMILES IDX 36 48 37 49 87 50 38 51 92 52 86 53 88 54 39 55 91 56 85 57
REMARK SMILES IDX 84 58 40 60 72 61 52 62 71 63 53 64 56 65 70 66 89 67 54 68
REMARK SMILES IDX 55 69 69 71 90 72 57 73 41 74 42 75 50 76 43 77 44 78 48 79
REMARK SMILES IDX 51 80 45 81 46 82 49 83 47 84 73 85 74 86 82 87 75 88 76 89
REMARK SMILES IDX 80 90 83 91 77 92 78 93 81 94 79 95 58 96 59 97 67 98 60 99
REMARK SMILES IDX 61 100 65 101 68 102 62 103 63 104 66 105 64 106
REMARK H PARENT 25 5 21 10 5 17 29 40 88 59 56 70
REMARK Flexibility Score: inf
ROOT
ATOM      1  C   UNL A   1      32.926  29.656  25.176  1.00  0.00     0.117 C 
ENDROOT
BRANCH   1   2
ATOM      2  N   UNL A   1      32.860  29.070  23.862  1.00  0.00    -0.354 N 
ATOM      3  C   UNL A   1      31.776  29.048  23.025  1.00  0.00     0.247 C 
ATOM      4  O   UNL A   1      32.056  29.148  21.824  1.00  0.00    -0.272 OA
ATOM      5  H   UNL A   1      33.681  28.639  23.531  1.00  0.00     0.163 HD
BRANCH   3   6
ATOM      6  C   UNL A   1      30.273  29.040  23.547  1.00  0.00     0.202 C 
BRANCH   6   7
ATOM      7  N   UNL A   1      29.495  27.848  23.175  1.00  0.00    -0.339 N 
ATOM      8  C   UNL A   1      29.520  26.594  23.721  1.00  0.00     0.243 C 
ATOM      9  O   UNL A   1      28.421  26.130  24.052  1.00  0.00    -0.273 OA
ATOM     10  H   UNL A   1      28.867  27.970  22.427  1.00  0.00     0.164 HD
BRANCH   8  11
ATOM     11  C   UNL A   1      30.798  25.710  23.863  1.00  0.00     0.174 C 
BRANCH  11  12
ATOM     12  C   UNL A   1      31.406  25.519  25.276  1.00  0.00     0.015 C 
ATOM     13  C   UNL A   1      31.162  26.670  26.253  1.00  0.00     0.010 C 
ATOM     14  C   UNL A   1      31.041  24.173  25.902  1.00  0.00     0.010 C 
ENDBRANCH  11  12
BRANCH  11  15
ATOM     15  N   UNL A   1      31.823  25.989  22.863  1.00  0.00    -0.339 N 
ATOM     16  C   UNL A   1      32.862  25.208  22.419  1.00  0.00     0.268 C 
ATOM     17  H   UNL A   1      31.759  26.875  22.439  1.00  0.00     0.164 HD
ATOM     18  O   UNL A   1      33.617  25.715  21.591  1.00  0.00    -0.268 OA
BRANCH  16  19
ATOM     19  C   UNL A   1      33.056  23.867  22.922  1.00  0.00     0.107 A 
ATOM     20  C   UNL A   1      32.221  22.789  22.663  1.00  0.00     0.042 A 
ATOM     21  N   UNL A   1      33.972  23.417  23.852  1.00  0.00    -0.340 N 
ATOM     22  C   UNL A   1      32.708  21.651  23.354  1.00  0.00     0.002 A 
ATOM     23  C   UNL A   1      33.839  22.056  24.055  1.00  0.00     0.048 A 
ATOM     24  C   UNL A   1      34.866  24.213  24.660  1.00  0.00     0.150 C 
ATOM     25  C   UNL A   1      32.287  20.312  23.456  1.00  0.00     0.030 A 
ATOM     26  C   UNL A   1      34.598  21.168  24.834  1.00  0.00     0.028 A 
ATOM     27  C   UNL A   1      33.039  19.420  24.227  1.00  0.00     0.041 A 
ATOM     28  C   UNL A   1      34.182  19.838  24.900  1.00  0.00     0.023 A 
ATOM     29  Cl  UNL A   1      32.561  17.771  24.350  1.00  0.00    -0.084 Cl
ENDBRANCH  16  19
ENDBRANCH  11  15
ENDBRANCH   8  11
ENDBRANCH   6   7
BRANCH   6  30
ATOM     30  C   UNL A   1      29.501  30.248  22.969  1.00  0.00    -0.016 A 
ATOM     31  C   UNL A   1      28.949  30.209  21.672  1.00  0.00     0.006 A 
ATOM     32  C   UNL A   1      29.236  31.383  23.749  1.00  0.00     0.006 A 
ATOM     33  C   UNL A   1      28.214  31.283  21.162  1.00  0.00     0.000 A 
ATOM     34  C   UNL A   1      28.481  32.448  23.247  1.00  0.00     0.000 A 
ATOM     35  C   UNL A   1      27.978  32.402  21.951  1.00  0.00     0.000 A 
ENDBRANCH   6  30
ENDBRANCH   3   6
ENDBRANCH   1   2
BRANCH   1  36
ATOM     36  C   UNL A   1      33.983  29.046  26.090  1.00  0.00     0.042 C 
BRANCH  36  37
ATOM     37  C   UNL A   1      33.694  29.105  27.588  1.00  0.00     0.118 C 
BRANCH  37  38
ATOM     38  N   UNL A   1      34.131  30.327  28.231  1.00  0.00    -0.352 N 
ATOM     39  C   UNL A   1      35.330  30.822  28.666  1.00  0.00     0.251 C 
ATOM     40  H   UNL A   1      33.387  30.951  28.395  1.00  0.00     0.163 HD
ATOM     41  O   UNL A   1      35.312  32.003  29.029  1.00  0.00    -0.269 OA
BRANCH  39  42
ATOM     42  C   UNL A   1      36.625  30.075  28.747  1.00  0.00     0.039 A 
ATOM     43  C   UNL A   1      37.116  29.392  29.859  1.00  0.00     0.014 A 
ATOM     44  C   UNL A   1      37.452  30.141  27.609  1.00  0.00     0.014 A 
ATOM     45  C   UNL A   1      38.416  28.856  29.864  1.00  0.00     0.010 A 
ATOM     46  C   UNL A   1      38.738  29.585  27.601  1.00  0.00     0.010 A 
ATOM     47  C   UNL A   1      39.250  28.974  28.746  1.00  0.00    -0.014 A 
BRANCH  47  48
ATOM     48  C   UNL A   1      40.633  28.455  28.817  1.00  0.00     0.031 A 
ATOM     49  C   UNL A   1      40.934  27.101  28.255  1.00  0.00     0.074 A 
ATOM     50  C   UNL A   1      41.698  29.193  29.210  1.00  0.00     0.049 A 
ATOM     51  N   UNL A   1      41.658  26.157  28.782  1.00  0.00    -0.248 NA
ATOM     52  C   UNL A   1      40.432  26.785  26.910  1.00  0.00     0.031 C 
ATOM     53  C   UNL A   1      41.714  30.628  29.492  1.00  0.00     0.029 A 
ATOM     54  N   UNL A   1      43.020  28.830  29.334  1.00  0.00    -0.354 N 
ATOM     55  C   UNL A   1      41.784  25.170  27.809  1.00  0.00     0.074 A 
ATOM     56  C   UNL A   1      40.994  25.597  26.678  1.00  0.00     0.031 C 
ATOM     57  C   UNL A   1      42.995  31.051  29.547  1.00  0.00     0.029 A 
ATOM     58  C   UNL A   1      43.887  29.903  29.433  1.00  0.00     0.049 A 
ATOM     59  H   UNL A   1      43.322  27.893  29.350  1.00  0.00     0.167 HD
ATOM     60  C   UNL A   1      42.628  24.108  27.911  1.00  0.00     0.037 A 
ATOM     61  C   UNL A   1      45.241  29.914  29.404  1.00  0.00     0.037 A 
ATOM     62  C   UNL A   1      43.275  23.914  29.177  1.00  0.00     0.049 A 
ATOM     63  C   UNL A   1      45.812  28.588  29.725  1.00  0.00     0.074 A 
ATOM     64  C   UNL A   1      43.349  22.941  30.152  1.00  0.00     0.029 A 
ATOM     65  N   UNL A   1      44.032  24.958  29.618  1.00  0.00    -0.354 N 
ATOM     66  N   UNL A   1      45.825  28.060  30.916  1.00  0.00    -0.248 NA
ATOM     67  C   UNL A   1      46.291  27.720  28.650  1.00  0.00     0.031 C 
ATOM     68  C   UNL A   1      44.184  23.442  31.199  1.00  0.00     0.029 A 
ATOM     69  C   UNL A   1      44.624  24.699  30.827  1.00  0.00     0.049 A 
ATOM     70  H   UNL A   1      44.140  25.801  29.123  1.00  0.00     0.167 HD
ATOM     71  C   UNL A   1      45.953  26.708  30.685  1.00  0.00     0.074 A 
ATOM     72  C   UNL A   1      46.398  26.565  29.310  1.00  0.00     0.031 C 
ATOM     73  C   UNL A   1      45.297  25.799  31.456  1.00  0.00     0.037 A 
BRANCH  60  74
ATOM     74  C   UNL A   1      43.134  23.367  26.713  1.00  0.00     0.064 A 
ATOM     75  C   UNL A   1      42.792  22.029  26.473  1.00  0.00     0.173 A 
ATOM     76  C   UNL A   1      44.181  23.907  25.941  1.00  0.00     0.173 A 
ATOM     77  F   UNL A   1      41.823  21.435  27.184  1.00  0.00    -0.203 F 
ATOM     78  C   UNL A   1      43.470  21.268  25.516  1.00  0.00     0.198 A 
ATOM     79  C   UNL A   1      44.837  23.155  24.968  1.00  0.00     0.198 A 
ATOM     80  F   UNL A   1      44.624  25.153  26.170  1.00  0.00    -0.203 F 
ATOM     81  F   UNL A   1      43.155  19.977  25.344  1.00  0.00    -0.200 F 
ATOM     82  C   UNL A   1      44.490  21.832  24.765  1.00  0.00     0.200 A 
ATOM     83  F   UNL A   1      45.833  23.706  24.260  1.00  0.00    -0.200 F 
ATOM     84  F   UNL A   1      45.153  21.095  23.864  1.00  0.00    -0.200 F 
ENDBRANCH  60  74
BRANCH  61  85
ATOM     85  C   UNL A   1      46.123  31.052  29.066  1.00  0.00     0.064 A 
ATOM     86  C   UNL A   1      46.233  31.534  27.754  1.00  0.00     0.173 A 
ATOM     87  C   UNL A   1      46.734  31.818  30.075  1.00  0.00     0.173 A 
ATOM     88  F   UNL A   1      45.629  30.895  26.742  1.00  0.00    -0.203 F 
ATOM     89  C   UNL A   1      46.932  32.707  27.465  1.00  0.00     0.198 A 
ATOM     90  C   UNL A   1      47.448  32.979  29.785  1.00  0.00     0.198 A 
ATOM     91  F   UNL A   1      46.588  31.489  31.368  1.00  0.00    -0.203 F 
ATOM     92  F   UNL A   1      46.982  33.160  26.204  1.00  0.00    -0.200 F 
ATOM     93  C   UNL A   1      47.543  33.426  28.479  1.00  0.00     0.200 A 
ATOM     94  F   UNL A   1      48.009  33.682  30.779  1.00  0.00    -0.200 F 
ATOM     95  F   UNL A   1      48.192  34.565  28.205  1.00  0.00    -0.200 F 
ENDBRANCH  61  85
BRANCH  73  96
ATOM     96  C   UNL A   1      45.014  26.163  32.868  1.00  0.00     0.064 A 
ATOM     97  C   UNL A   1      45.895  25.868  33.918  1.00  0.00     0.173 A 
ATOM     98  C   UNL A   1      43.818  26.819  33.179  1.00  0.00     0.173 A 
ATOM     99  F   UNL A   1      47.096  25.323  33.673  1.00  0.00    -0.203 F 
ATOM    100  C   UNL A   1      45.558  26.164  35.237  1.00  0.00     0.198 A 
ATOM    101  C   UNL A   1      43.502  27.147  34.496  1.00  0.00     0.198 A 
ATOM    102  F   UNL A   1      42.955  27.149  32.205  1.00  0.00    -0.203 F 
ATOM    103  F   UNL A   1      46.405  25.852  36.230  1.00  0.00    -0.200 F 
ATOM    104  C   UNL A   1      44.365  26.807  35.525  1.00  0.00     0.200 A 
ATOM    105  F   UNL A   1      42.356  27.789  34.768  1.00  0.00    -0.200 F 
ATOM    106  F   UNL A   1      44.056  27.112  36.792  1.00  0.00    -0.200 F 
ENDBRANCH  73  96
ENDBRANCH  47  48
ENDBRANCH  39  42
ENDBRANCH  37  38
ENDBRANCH  36  37
ENDBRANCH   1  36
TORSDOF 16
ENDMDL
MODEL 3
REMARK VINA RESULT:     -13.2      1.332      2.052
REMARK SMILES CC(C)[C@H](NC(=O)c1cc2cc(Cl)ccc2n1C)C(=O)N[C@@H](C(=O)NCCCNC(=O)c1ccc(-c2c3nc(c(-c4c(F)c(F)c(F)c(F)c4F)c4ccc([nH]4)c(-c4c(F)c(F)c(F)c(F)c4F)c4nc(c(-c5c(F)c(F)c(F)c(F)c5F)c5ccc2[nH]5)C=C4)C=C3)cc1)c1ccccc1
REMARK SMILES IDX 26 1 25 2 23 3 24 4 22 6 21 7 19 8 20 9 4 11 2 12 1 13 3 14
REMARK SMILES IDX 5 15 6 16 7 18 8 19 9 20 17 21 10 22 16 23 18 24 11 25 15 26
REMARK SMILES IDX 12 27 14 28 13 29 95 30 96 31 100 32 97 33 99 34 98 35 27 36
REMARK SMILES IDX 28 37 29 38 30 39 31 41 32 42 33 43 94 44 34 45 93 46 35 47
REMARK SMILES IDX 36 48 37 49 87 50 38 51 92 52 86 53 88 54 39 55 91 56 85 57
REMARK SMILES IDX 84 58 40 60 72 61 52 62 71 63 53 64 56 65 70 66 89 67 54 68
REMARK SMILES IDX 55 69 69 71 90 72 57 73 41 74 42 75 50 76 43 77 44 78 48 79
REMARK SMILES IDX 51 80 45 81 46 82 49 83 47 84 73 85 74 86 82 87 75 88 76 89
REMARK SMILES IDX 80 90 83 91 77 92 78 93 81 94 79 95 58 96 59 97 67 98 60 99
REMARK SMILES IDX 61 100 65 101 68 102 62 103 63 104 66 105 64 106
REMARK H PARENT 25 5 21 10 5 17 29 40 88 59 56 70
REMARK Flexibility Score: inf
ROOT
ATOM      1  C   UNL A   1      33.362  29.212  26.356  1.00  0.00     0.117 C 
ENDROOT
BRANCH   1   2
ATOM      2  N   UNL A   1      34.253  29.084  25.232  1.00  0.00    -0.354 N 
ATOM      3  C   UNL A   1      34.027  28.378  24.080  1.00  0.00     0.247 C 
ATOM      4  O   UNL A   1      34.502  28.897  23.062  1.00  0.00    -0.272 OA
ATOM      5  H   UNL A   1      35.116  29.553  25.299  1.00  0.00     0.163 HD
BRANCH   3   6
ATOM      6  C   UNL A   1      33.113  27.077  24.022  1.00  0.00     0.202 C 
BRANCH   6   7
ATOM      7  N   UNL A   1      33.512  26.085  23.011  1.00  0.00    -0.339 N 
ATOM      8  C   UNL A   1      33.039  24.817  22.810  1.00  0.00     0.243 C 
ATOM      9  O   UNL A   1      32.679  24.554  21.656  1.00  0.00    -0.273 OA
ATOM     10  H   UNL A   1      34.219  26.375  22.391  1.00  0.00     0.164 HD
BRANCH   8  11
ATOM     11  C   UNL A   1      33.012  23.695  23.895  1.00  0.00     0.174 C 
BRANCH  11  12
ATOM     12  C   UNL A   1      31.641  23.278  24.486  1.00  0.00     0.015 C 
ATOM     13  C   UNL A   1      31.307  23.879  25.852  1.00  0.00     0.010 C 
ATOM     14  C   UNL A   1      30.488  23.467  23.500  1.00  0.00     0.010 C 
ENDBRANCH  11  12
BRANCH  11  15
ATOM     15  N   UNL A   1      34.026  23.852  24.932  1.00  0.00    -0.339 N 
ATOM     16  C   UNL A   1      34.688  22.904  25.672  1.00  0.00     0.268 C 
ATOM     17  H   UNL A   1      34.276  24.783  25.130  1.00  0.00     0.164 HD
ATOM     18  O   UNL A   1      35.471  23.319  26.525  1.00  0.00    -0.268 OA
BRANCH  16  19
ATOM     19  C   UNL A   1      34.455  21.493  25.460  1.00  0.00     0.107 A 
ATOM     20  C   UNL A   1      33.340  20.793  25.901  1.00  0.00     0.042 A 
ATOM     21  N   UNL A   1      35.314  20.543  24.944  1.00  0.00    -0.340 N 
ATOM     22  C   UNL A   1      33.480  19.429  25.544  1.00  0.00     0.002 A 
ATOM     23  C   UNL A   1      34.705  19.302  24.898  1.00  0.00     0.048 A 
ATOM     24  C   UNL A   1      36.714  20.706  24.626  1.00  0.00     0.150 C 
ATOM     25  C   UNL A   1      32.681  18.283  25.717  1.00  0.00     0.030 A 
ATOM     26  C   UNL A   1      35.159  18.079  24.379  1.00  0.00     0.028 A 
ATOM     27  C   UNL A   1      33.123  17.061  25.200  1.00  0.00     0.041 A 
ATOM     28  C   UNL A   1      34.340  16.961  24.535  1.00  0.00     0.023 A 
ATOM     29  Cl  UNL A   1      32.155  15.649  25.376  1.00  0.00    -0.084 Cl
ENDBRANCH  16  19
ENDBRANCH  11  15
ENDBRANCH   8  11
ENDBRANCH   6   7
BRANCH   6  30
ATOM     30  C   UNL A   1      31.655  27.464  23.684  1.00  0.00    -0.016 A 
ATOM     31  C   UNL A   1      31.366  28.442  22.710  1.00  0.00     0.006 A 
ATOM     32  C   UNL A   1      30.570  26.788  24.261  1.00  0.00     0.006 A 
ATOM     33  C   UNL A   1      30.048  28.765  22.371  1.00  0.00     0.000 A 
ATOM     34  C   UNL A   1      29.253  27.095  23.906  1.00  0.00     0.000 A 
ATOM     35  C   UNL A   1      28.991  28.089  22.969  1.00  0.00     0.000 A 
ENDBRANCH   6  30
ENDBRANCH   3   6
ENDBRANCH   1   2
BRANCH   1  36
ATOM     36  C   UNL A   1      34.023  29.716  27.635  1.00  0.00     0.042 C 
BRANCH  36  37
ATOM     37  C   UNL A   1      34.357  31.205  27.679  1.00  0.00     0.118 C 
BRANCH  37  38
ATOM     38  N   UNL A   1      34.545  31.733  29.014  1.00  0.00    -0.352 N 
ATOM     39  C   UNL A   1      35.510  31.621  29.979  1.00  0.00     0.251 C 
ATOM     40  H   UNL A   1      33.799  32.311  29.297  1.00  0.00     0.163 HD
ATOM     41  O   UNL A   1      35.374  32.373  30.950  1.00  0.00    -0.269 OA
BRANCH  39  42
ATOM     42  C   UNL A   1      36.678  30.686  29.963  1.00  0.00     0.039 A 
ATOM     43  C   UNL A   1      36.654  29.329  30.283  1.00  0.00     0.014 A 
ATOM     44  C   UNL A   1      37.930  31.260  29.671  1.00  0.00     0.014 A 
ATOM     45  C   UNL A   1      37.843  28.586  30.381  1.00  0.00     0.010 A 
ATOM     46  C   UNL A   1      39.116  30.517  29.741  1.00  0.00     0.010 A 
ATOM     47  C   UNL A   1      39.088  29.180  30.140  1.00  0.00    -0.014 A 
BRANCH  47  48
ATOM     48  C   UNL A   1      40.319  28.380  30.320  1.00  0.00     0.031 A 
ATOM     49  C   UNL A   1      40.926  28.272  31.684  1.00  0.00     0.074 A 
ATOM     50  C   UNL A   1      40.855  27.592  29.359  1.00  0.00     0.049 A 
ATOM     51  N   UNL A   1      42.181  28.367  32.013  1.00  0.00    -0.248 NA
ATOM     52  C   UNL A   1      40.038  27.943  32.810  1.00  0.00     0.031 C 
ATOM     53  C   UNL A   1      40.269  27.274  28.058  1.00  0.00     0.029 A 
ATOM     54  N   UNL A   1      41.993  26.817  29.393  1.00  0.00    -0.354 N 
ATOM     55  C   UNL A   1      42.260  28.021  33.359  1.00  0.00     0.074 A 
ATOM     56  C   UNL A   1      40.909  27.784  33.808  1.00  0.00     0.031 C 
ATOM     57  C   UNL A   1      40.933  26.230  27.519  1.00  0.00     0.029 A 
ATOM     58  C   UNL A   1      42.065  25.887  28.371  1.00  0.00     0.049 A 
ATOM     59  H   UNL A   1      42.690  26.914  30.080  1.00  0.00     0.167 HD
ATOM     60  C   UNL A   1      43.431  27.813  34.021  1.00  0.00     0.037 A 
ATOM     61  C   UNL A   1      42.948  24.875  28.198  1.00  0.00     0.037 A 
ATOM     62  C   UNL A   1      44.638  28.157  33.326  1.00  0.00     0.049 A 
ATOM     63  C   UNL A   1      44.190  25.085  28.973  1.00  0.00     0.074 A 
ATOM     64  C   UNL A   1      45.712  29.005  33.496  1.00  0.00     0.029 A 
ATOM     65  N   UNL A   1      44.834  27.522  32.136  1.00  0.00    -0.354 N 
ATOM     66  N   UNL A   1      45.108  25.959  28.671  1.00  0.00    -0.248 NA
ATOM     67  C   UNL A   1      44.389  24.380  30.239  1.00  0.00     0.031 C 
ATOM     68  C   UNL A   1      46.566  28.852  32.359  1.00  0.00     0.029 A 
ATOM     69  C   UNL A   1      46.008  27.894  31.534  1.00  0.00     0.049 A 
ATOM     70  H   UNL A   1      44.204  26.869  31.755  1.00  0.00     0.167 HD
ATOM     71  C   UNL A   1      45.774  26.173  29.857  1.00  0.00     0.074 A 
ATOM     72  C   UNL A   1      45.413  25.075  30.737  1.00  0.00     0.031 C 
ATOM     73  C   UNL A   1      46.220  27.412  30.198  1.00  0.00     0.037 A 
BRANCH  60  74
ATOM     74  C   UNL A   1      43.516  26.973  35.257  1.00  0.00     0.064 A 
ATOM     75  C   UNL A   1      43.826  27.527  36.507  1.00  0.00     0.173 A 
ATOM     76  C   UNL A   1      43.555  25.569  35.153  1.00  0.00     0.173 A 
ATOM     77  F   UNL A   1      43.834  28.857  36.680  1.00  0.00    -0.203 F 
ATOM     78  C   UNL A   1      44.166  26.717  37.594  1.00  0.00     0.198 A 
ATOM     79  C   UNL A   1      43.868  24.763  36.245  1.00  0.00     0.198 A 
ATOM     80  F   UNL A   1      43.356  24.967  33.970  1.00  0.00    -0.203 F 
ATOM     81  F   UNL A   1      44.506  27.277  38.763  1.00  0.00    -0.200 F 
ATOM     82  C   UNL A   1      44.186  25.337  37.462  1.00  0.00     0.200 A 
ATOM     83  F   UNL A   1      43.900  23.430  36.102  1.00  0.00    -0.200 F 
ATOM     84  F   UNL A   1      44.534  24.564  38.499  1.00  0.00    -0.200 F 
ENDBRANCH  60  74
BRANCH  61  85
ATOM     85  C   UNL A   1      42.764  23.652  27.386  1.00  0.00     0.064 A 
ATOM     86  C   UNL A   1      43.414  23.482  26.155  1.00  0.00     0.173 A 
ATOM     87  C   UNL A   1      42.088  22.534  27.906  1.00  0.00     0.173 A 
ATOM     88  F   UNL A   1      44.131  24.480  25.620  1.00  0.00    -0.203 F 
ATOM     89  C   UNL A   1      43.374  22.264  25.473  1.00  0.00     0.198 A 
ATOM     90  C   UNL A   1      42.031  21.325  27.216  1.00  0.00     0.198 A 
ATOM     91  F   UNL A   1      41.530  22.577  29.126  1.00  0.00    -0.203 F 
ATOM     92  F   UNL A   1      44.040  22.124  24.319  1.00  0.00    -0.200 F 
ATOM     93  C   UNL A   1      42.679  21.188  26.001  1.00  0.00     0.200 A 
ATOM     94  F   UNL A   1      41.381  20.282  27.752  1.00  0.00    -0.200 F 
ATOM     95  F   UNL A   1      42.660  20.014  25.359  1.00  0.00    -0.200 F 
ENDBRANCH  61  85
BRANCH  73  96
ATOM     96  C   UNL A   1      46.593  28.341  29.101  1.00  0.00     0.064 A 
ATOM     97  C   UNL A   1      47.881  28.381  28.547  1.00  0.00     0.173 A 
ATOM     98  C   UNL A   1      45.633  29.225  28.595  1.00  0.00     0.173 A 
ATOM     99  F   UNL A   1      48.817  27.498  28.925  1.00  0.00    -0.203 F 
ATOM    100  C   UNL A   1      48.208  29.316  27.567  1.00  0.00     0.198 A 
ATOM    101  C   UNL A   1      45.954  30.133  27.589  1.00  0.00     0.198 A 
ATOM    102  F   UNL A   1      44.379  29.205  29.072  1.00  0.00    -0.203 F 
ATOM    103  F   UNL A   1      49.453  29.354  27.067  1.00  0.00    -0.200 F 
ATOM    104  C   UNL A   1      47.244  30.188  27.086  1.00  0.00     0.200 A 
ATOM    105  F   UNL A   1      45.014  30.961  27.110  1.00  0.00    -0.200 F 
ATOM    106  F   UNL A   1      47.556  31.069  26.126  1.00  0.00    -0.200 F 
ENDBRANCH  73  96
ENDBRANCH  47  48
ENDBRANCH  39  42
ENDBRANCH  37  38
ENDBRANCH  36  37
ENDBRANCH   1  36
TORSDOF 16
ENDMDL
