MODEL 1
REMARK VINA RESULT:     -11.5      0.000      0.000
REMARK SMILES CC[C@@H](COC)NC(=O)N1CC[C@H](C(=O)NCCCNC(=O)c2ccc(-c3c4nc(c(-c5c(F)c(F)c(F)c(F)c5F)c5ccc([nH]5)c(-c5c(F)c(F)c(F)c(F)c5F)c5nc(c(-c6c(F)c(F)c(F)c(F)c6F)c6ccc3[nH]6)C=C5)C=C4)cc2)[C@@H]1C
REMARK SMILES IDX 17 1 16 2 14 3 15 4 13 6 10 7 11 8 86 9 12 10 87 11 8 12
REMARK SMILES IDX 7 13 9 15 3 16 2 17 1 18 4 19 5 20 6 21 18 22 19 23 20 24
REMARK SMILES IDX 21 25 22 27 23 28 24 29 85 30 25 31 84 32 26 33 27 34 28 35
REMARK SMILES IDX 78 36 29 37 83 38 77 39 79 40 30 41 82 42 76 43 75 44 31 46
REMARK SMILES IDX 63 47 43 48 62 49 44 50 47 51 61 52 80 53 45 54 46 55 60 57
REMARK SMILES IDX 81 58 48 59 32 60 33 61 41 62 34 63 35 64 39 65 42 66 36 67
REMARK SMILES IDX 37 68 40 69 38 70 64 71 65 72 73 73 66 74 67 75 71 76 74 77
REMARK SMILES IDX 68 78 69 79 72 80 70 81 49 82 50 83 58 84 51 85 52 86 56 87
REMARK SMILES IDX 59 88 53 89 54 90 57 91 55 92
REMARK H PARENT 16 5 7 14 20 26 79 45 47 56
REMARK Flexibility Score: inf
ROOT
ATOM      1  C   UNL A   1      36.822  20.678  24.984  1.00  0.00     0.117 C 
ENDROOT
BRANCH   1   2
ATOM      2  N   UNL A   1      35.656  19.811  24.942  1.00  0.00    -0.356 N 
ATOM      3  C   UNL A   1      34.327  20.132  24.954  1.00  0.00     0.225 C 
ATOM      4  O   UNL A   1      33.518  19.211  24.913  1.00  0.00    -0.275 OA
ATOM      5  H   UNL A   1      35.853  18.847  24.900  1.00  0.00     0.163 HD
BRANCH   3   6
ATOM      6  C   UNL A   1      33.952  21.601  24.933  1.00  0.00     0.102 C 
ATOM      7  N   UNL A   1      32.215  22.781  26.059  1.00  0.00    -0.321 N 
ATOM      8  C   UNL A   1      31.581  21.990  25.032  1.00  0.00     0.122 C 
ATOM      9  C   UNL A   1      33.592  22.310  26.259  1.00  0.00     0.096 C 
ATOM     10  C   UNL A   1      32.710  21.784  24.041  1.00  0.00     0.037 C 
ATOM     11  C   UNL A   1      33.742  21.527  27.559  1.00  0.00     0.032 C 
BRANCH   7  12
ATOM     12  C   UNL A   1      31.460  23.608  26.833  1.00  0.00     0.317 C 
ATOM     13  N   UNL A   1      31.660  24.943  26.792  1.00  0.00    -0.333 N 
ATOM     14  H   UNL A   1      31.466  25.418  27.633  1.00  0.00     0.165 HD
ATOM     15  O   UNL A   1      30.556  23.183  27.553  1.00  0.00    -0.249 OA
BRANCH  13  16
ATOM     16  C   UNL A   1      32.118  25.795  25.695  1.00  0.00     0.109 C 
BRANCH  16  17
ATOM     17  C   UNL A   1      31.269  27.075  25.622  1.00  0.00     0.024 C 
ATOM     18  C   UNL A   1      31.637  28.080  26.707  1.00  0.00     0.006 C 
ENDBRANCH  16  17
BRANCH  16  19
ATOM     19  C   UNL A   1      33.643  25.988  25.799  1.00  0.00     0.184 C 
BRANCH  19  20
ATOM     20  O   UNL A   1      34.385  25.346  24.761  1.00  0.00    -0.383 OA
ATOM     21  C   UNL A   1      33.734  25.311  23.501  1.00  0.00     0.194 C 
ENDBRANCH  19  20
ENDBRANCH  16  19
ENDBRANCH  13  16
ENDBRANCH   7  12
ENDBRANCH   3   6
ENDBRANCH   1   2
BRANCH   1  22
ATOM     22  C   UNL A   1      38.121  19.894  24.829  1.00  0.00     0.042 C 
BRANCH  22  23
ATOM     23  C   UNL A   1      39.118  20.105  25.965  1.00  0.00     0.118 C 
BRANCH  23  24
ATOM     24  N   UNL A   1      40.206  19.139  25.952  1.00  0.00    -0.352 N 
ATOM     25  C   UNL A   1      41.561  19.313  26.074  1.00  0.00     0.251 C 
ATOM     26  H   UNL A   1      39.922  18.204  25.837  1.00  0.00     0.163 HD
ATOM     27  O   UNL A   1      42.311  18.364  25.873  1.00  0.00    -0.269 OA
BRANCH  25  28
ATOM     28  C   UNL A   1      42.129  20.634  26.418  1.00  0.00     0.039 A 
ATOM     29  C   UNL A   1      42.534  21.475  25.377  1.00  0.00     0.014 A 
ATOM     30  C   UNL A   1      42.297  21.039  27.745  1.00  0.00     0.014 A 
ATOM     31  C   UNL A   1      43.044  22.743  25.664  1.00  0.00     0.010 A 
ATOM     32  C   UNL A   1      42.732  22.333  28.028  1.00  0.00     0.010 A 
ATOM     33  C   UNL A   1      43.109  23.198  26.991  1.00  0.00    -0.014 A 
BRANCH  33  34
ATOM     34  C   UNL A   1      43.548  24.585  27.298  1.00  0.00     0.031 A 
ATOM     35  C   UNL A   1      42.572  25.602  27.817  1.00  0.00     0.074 A 
ATOM     36  C   UNL A   1      44.827  24.939  27.058  1.00  0.00     0.049 A 
ATOM     37  N   UNL A   1      42.769  26.864  28.108  1.00  0.00    -0.248 NA
ATOM     38  C   UNL A   1      41.185  25.152  28.012  1.00  0.00     0.031 C 
ATOM     39  C   UNL A   1      45.857  24.058  26.508  1.00  0.00     0.029 A 
ATOM     40  N   UNL A   1      45.475  26.134  27.242  1.00  0.00    -0.354 N 
ATOM     41  C   UNL A   1      41.535  27.358  28.512  1.00  0.00     0.074 A 
ATOM     42  C   UNL A   1      40.583  26.276  28.374  1.00  0.00     0.031 C 
ATOM     43  C   UNL A   1      47.014  24.732  26.425  1.00  0.00     0.029 A 
ATOM     44  C   UNL A   1      46.799  26.103  26.876  1.00  0.00     0.049 A 
ATOM     45  H   UNL A   1      45.034  26.938  27.601  1.00  0.00     0.167 HD
ATOM     46  C   UNL A   1      41.228  28.592  28.978  1.00  0.00     0.037 A 
ATOM     47  C   UNL A   1      47.734  27.072  26.896  1.00  0.00     0.037 A 
ATOM     48  C   UNL A   1      42.181  29.662  29.129  1.00  0.00     0.049 A 
ATOM     49  C   UNL A   1      47.363  28.438  27.405  1.00  0.00     0.074 A 
ATOM     50  C   UNL A   1      41.981  30.930  29.647  1.00  0.00     0.029 A 
ATOM     51  N   UNL A   1      43.515  29.592  28.752  1.00  0.00    -0.354 N 
ATOM     52  N   UNL A   1      46.211  28.870  27.856  1.00  0.00    -0.248 NA
ATOM     53  C   UNL A   1      48.428  29.451  27.414  1.00  0.00     0.031 C 
ATOM     54  C   UNL A   1      43.178  31.645  29.531  1.00  0.00     0.029 A 
ATOM     55  C   UNL A   1      44.142  30.803  29.000  1.00  0.00     0.049 A 
ATOM     56  H   UNL A   1      43.953  28.798  28.366  1.00  0.00     0.167 HD
ATOM     57  C   UNL A   1      46.417  30.192  28.228  1.00  0.00     0.074 A 
ATOM     58  C   UNL A   1      47.812  30.485  27.969  1.00  0.00     0.031 C 
ATOM     59  C   UNL A   1      45.531  31.083  28.737  1.00  0.00     0.037 A 
BRANCH  46  60
ATOM     60  C   UNL A   1      39.800  28.857  29.362  1.00  0.00     0.064 A 
ATOM     61  C   UNL A   1      38.865  29.345  28.435  1.00  0.00     0.173 A 
ATOM     62  C   UNL A   1      39.349  28.582  30.662  1.00  0.00     0.173 A 
ATOM     63  F   UNL A   1      39.245  29.634  27.181  1.00  0.00    -0.203 F 
ATOM     64  C   UNL A   1      37.541  29.574  28.804  1.00  0.00     0.198 A 
ATOM     65  C   UNL A   1      38.017  28.781  31.018  1.00  0.00     0.198 A 
ATOM     66  F   UNL A   1      40.197  28.108  31.587  1.00  0.00    -0.203 F 
ATOM     67  F   UNL A   1      36.680  30.088  27.914  1.00  0.00    -0.200 F 
ATOM     68  C   UNL A   1      37.117  29.285  30.091  1.00  0.00     0.200 A 
ATOM     69  F   UNL A   1      37.605  28.486  32.259  1.00  0.00    -0.200 F 
ATOM     70  F   UNL A   1      35.841  29.498  30.441  1.00  0.00    -0.200 F 
ENDBRANCH  46  60
BRANCH  47  71
ATOM     71  C   UNL A   1      49.118  26.780  26.437  1.00  0.00     0.064 A 
ATOM     72  C   UNL A   1      50.091  26.314  27.331  1.00  0.00     0.173 A 
ATOM     73  C   UNL A   1      49.498  26.967  25.099  1.00  0.00     0.173 A 
ATOM     74  F   UNL A   1      49.782  26.138  28.624  1.00  0.00    -0.203 F 
ATOM     75  C   UNL A   1      51.397  26.070  26.912  1.00  0.00     0.198 A 
ATOM     76  C   UNL A   1      50.796  26.691  24.675  1.00  0.00     0.198 A 
ATOM     77  F   UNL A   1      48.603  27.403  24.201  1.00  0.00    -0.203 F 
ATOM     78  F   UNL A   1      52.320  25.674  27.799  1.00  0.00    -0.200 F 
ATOM     79  C   UNL A   1      51.747  26.252  25.583  1.00  0.00     0.200 A 
ATOM     80  F   UNL A   1      51.124  26.852  23.386  1.00  0.00    -0.200 F 
ATOM     81  F   UNL A   1      53.002  26.012  25.179  1.00  0.00    -0.200 F 
ENDBRANCH  47  71
BRANCH  59  82
ATOM     82  C   UNL A   1      46.051  32.451  29.078  1.00  0.00     0.064 A 
ATOM     83  C   UNL A   1      46.014  33.506  28.153  1.00  0.00     0.173 A 
ATOM     84  C   UNL A   1      46.571  32.717  30.354  1.00  0.00     0.173 A 
ATOM     85  F   UNL A   1      45.541  33.302  26.915  1.00  0.00    -0.203 F 
ATOM     86  C   UNL A   1      46.508  34.765  28.484  1.00  0.00     0.198 A 
ATOM     87  C   UNL A   1      47.031  33.986  30.692  1.00  0.00     0.198 A 
ATOM     88  F   UNL A   1      46.623  31.746  31.279  1.00  0.00    -0.203 F 
ATOM     89  F   UNL A   1      46.515  35.742  27.565  1.00  0.00    -0.200 F 
ATOM     90  C   UNL A   1      47.009  35.006  29.754  1.00  0.00     0.200 A 
ATOM     91  F   UNL A   1      47.501  34.220  31.925  1.00  0.00    -0.200 F 
ATOM     92  F   UNL A   1      47.480  36.220  30.071  1.00  0.00    -0.200 F 
ENDBRANCH  59  82
ENDBRANCH  33  34
ENDBRANCH  25  28
ENDBRANCH  23  24
ENDBRANCH  22  23
ENDBRANCH   1  22
TORSDOF 15
ENDMDL
MODEL 2
REMARK VINA RESULT:     -11.4      0.330      1.643
REMARK SMILES CC[C@@H](COC)NC(=O)N1CC[C@H](C(=O)NCCCNC(=O)c2ccc(-c3c4nc(c(-c5c(F)c(F)c(F)c(F)c5F)c5ccc([nH]5)c(-c5c(F)c(F)c(F)c(F)c5F)c5nc(c(-c6c(F)c(F)c(F)c(F)c6F)c6ccc3[nH]6)C=C5)C=C4)cc2)[C@@H]1C
REMARK SMILES IDX 17 1 16 2 14 3 15 4 13 6 10 7 11 8 86 9 12 10 87 11 8 12
REMARK SMILES IDX 7 13 9 15 3 16 2 17 1 18 4 19 5 20 6 21 18 22 19 23 20 24
REMARK SMILES IDX 21 25 22 27 23 28 24 29 85 30 25 31 84 32 26 33 27 34 28 35
REMARK SMILES IDX 78 36 29 37 83 38 77 39 79 40 30 41 82 42 76 43 75 44 31 46
REMARK SMILES IDX 63 47 43 48 62 49 44 50 47 51 61 52 80 53 45 54 46 55 60 57
REMARK SMILES IDX 81 58 48 59 32 60 33 61 41 62 34 63 35 64 39 65 42 66 36 67
REMARK SMILES IDX 37 68 40 69 38 70 64 71 65 72 73 73 66 74 67 75 71 76 74 77
REMARK SMILES IDX 68 78 69 79 72 80 70 81 49 82 50 83 58 84 51 85 52 86 56 87
REMARK SMILES IDX 59 88 53 89 54 90 57 91 55 92
REMARK H PARENT 16 5 7 14 20 26 79 45 47 56
REMARK Flexibility Score: inf
ROOT
ATOM      1  C   UNL A   1      36.651  20.491  25.021  1.00  0.00     0.117 C 
ENDROOT
BRANCH   1   2
ATOM      2  N   UNL A   1      35.471  19.643  25.001  1.00  0.00    -0.356 N 
ATOM      3  C   UNL A   1      34.148  19.986  24.995  1.00  0.00     0.225 C 
ATOM      4  O   UNL A   1      33.323  19.078  24.980  1.00  0.00    -0.275 OA
ATOM      5  H   UNL A   1      35.652  18.675  24.991  1.00  0.00     0.163 HD
BRANCH   3   6
ATOM      6  C   UNL A   1      33.798  21.460  24.925  1.00  0.00     0.102 C 
ATOM      7  N   UNL A   1      32.142  22.725  26.081  1.00  0.00    -0.321 N 
ATOM      8  C   UNL A   1      31.442  21.900  25.125  1.00  0.00     0.122 C 
ATOM      9  C   UNL A   1      33.519  22.236  26.233  1.00  0.00     0.096 C 
ATOM     10  C   UNL A   1      32.514  21.626  24.089  1.00  0.00     0.037 C 
ATOM     11  C   UNL A   1      33.721  21.510  27.559  1.00  0.00     0.032 C 
BRANCH   7  12
ATOM     12  C   UNL A   1      31.442  23.601  26.853  1.00  0.00     0.317 C 
ATOM     13  N   UNL A   1      31.675  24.926  26.754  1.00  0.00    -0.333 N 
ATOM     14  H   UNL A   1      31.529  25.437  27.583  1.00  0.00     0.165 HD
ATOM     15  O   UNL A   1      30.556  23.228  27.624  1.00  0.00    -0.249 OA
BRANCH  13  16
ATOM     16  C   UNL A   1      32.112  25.725  25.607  1.00  0.00     0.109 C 
BRANCH  16  17
ATOM     17  C   UNL A   1      31.169  26.922  25.401  1.00  0.00     0.024 C 
ATOM     18  C   UNL A   1      31.913  28.181  24.974  1.00  0.00     0.006 C 
ENDBRANCH  16  17
BRANCH  16  19
ATOM     19  C   UNL A   1      33.610  26.047  25.749  1.00  0.00     0.184 C 
BRANCH  19  20
ATOM     20  O   UNL A   1      34.413  25.587  24.661  1.00  0.00    -0.383 OA
ATOM     21  C   UNL A   1      33.682  25.052  23.570  1.00  0.00     0.194 C 
ENDBRANCH  19  20
ENDBRANCH  16  19
ENDBRANCH  13  16
ENDBRANCH   7  12
ENDBRANCH   3   6
ENDBRANCH   1   2
BRANCH   1  22
ATOM     22  C   UNL A   1      37.937  19.683  24.879  1.00  0.00     0.042 C 
BRANCH  22  23
ATOM     23  C   UNL A   1      39.072  20.150  25.787  1.00  0.00     0.118 C 
BRANCH  23  24
ATOM     24  N   UNL A   1      40.134  19.162  25.921  1.00  0.00    -0.352 N 
ATOM     25  C   UNL A   1      41.479  19.318  26.134  1.00  0.00     0.251 C 
ATOM     26  H   UNL A   1      39.836  18.228  25.845  1.00  0.00     0.163 HD
ATOM     27  O   UNL A   1      42.218  18.342  26.054  1.00  0.00    -0.269 OA
BRANCH  25  28
ATOM     28  C   UNL A   1      42.053  20.648  26.435  1.00  0.00     0.039 A 
ATOM     29  C   UNL A   1      42.398  21.478  25.365  1.00  0.00     0.014 A 
ATOM     30  C   UNL A   1      42.284  21.069  27.746  1.00  0.00     0.014 A 
ATOM     31  C   UNL A   1      42.910  22.754  25.611  1.00  0.00     0.010 A 
ATOM     32  C   UNL A   1      42.721  22.370  27.992  1.00  0.00     0.010 A 
ATOM     33  C   UNL A   1      43.038  23.226  26.928  1.00  0.00    -0.014 A 
BRANCH  33  34
ATOM     34  C   UNL A   1      43.481  24.619  27.196  1.00  0.00     0.031 A 
ATOM     35  C   UNL A   1      42.518  25.640  27.735  1.00  0.00     0.074 A 
ATOM     36  C   UNL A   1      44.747  24.976  26.903  1.00  0.00     0.049 A 
ATOM     37  N   UNL A   1      42.719  26.907  27.998  1.00  0.00    -0.248 NA
ATOM     38  C   UNL A   1      41.143  25.185  27.988  1.00  0.00     0.031 C 
ATOM     39  C   UNL A   1      45.762  24.092  26.328  1.00  0.00     0.029 A 
ATOM     40  N   UNL A   1      45.395  26.177  27.043  1.00  0.00    -0.354 N 
ATOM     41  C   UNL A   1      41.498  27.401  28.441  1.00  0.00     0.074 A 
ATOM     42  C   UNL A   1      40.547  26.312  28.356  1.00  0.00     0.031 C 
ATOM     43  C   UNL A   1      46.910  24.771  26.191  1.00  0.00     0.029 A 
ATOM     44  C   UNL A   1      46.705  26.148  26.628  1.00  0.00     0.049 A 
ATOM     45  H   UNL A   1      44.963  26.985  27.405  1.00  0.00     0.167 HD
ATOM     46  C   UNL A   1      41.201  28.641  28.898  1.00  0.00     0.037 A 
ATOM     47  C   UNL A   1      47.633  27.122  26.598  1.00  0.00     0.037 A 
ATOM     48  C   UNL A   1      42.153  29.718  28.996  1.00  0.00     0.049 A 
ATOM     49  C   UNL A   1      47.274  28.494  27.099  1.00  0.00     0.074 A 
ATOM     50  C   UNL A   1      41.965  30.993  29.501  1.00  0.00     0.029 A 
ATOM     51  N   UNL A   1      43.472  29.649  28.571  1.00  0.00    -0.354 N 
ATOM     52  N   UNL A   1      46.137  28.927  27.586  1.00  0.00    -0.248 NA
ATOM     53  C   UNL A   1      48.332  29.512  27.052  1.00  0.00     0.031 C 
ATOM     54  C   UNL A   1      43.152  31.712  29.329  1.00  0.00     0.029 A 
ATOM     55  C   UNL A   1      44.101  30.867  28.776  1.00  0.00     0.049 A 
ATOM     56  H   UNL A   1      43.900  28.851  28.181  1.00  0.00     0.167 HD
ATOM     57  C   UNL A   1      46.349  30.256  27.929  1.00  0.00     0.074 A 
ATOM     58  C   UNL A   1      47.731  30.552  27.613  1.00  0.00     0.031 C 
ATOM     59  C   UNL A   1      45.478  31.150  28.457  1.00  0.00     0.037 A 
BRANCH  46  60
ATOM     60  C   UNL A   1      39.787  28.904  29.331  1.00  0.00     0.064 A 
ATOM     61  C   UNL A   1      39.371  28.699  30.656  1.00  0.00     0.173 A 
ATOM     62  C   UNL A   1      38.845  29.406  28.420  1.00  0.00     0.173 A 
ATOM     63  F   UNL A   1      40.228  28.211  31.565  1.00  0.00    -0.203 F 
ATOM     64  C   UNL A   1      38.059  28.960  31.044  1.00  0.00     0.198 A 
ATOM     65  C   UNL A   1      37.543  29.697  28.821  1.00  0.00     0.198 A 
ATOM     66  F   UNL A   1      39.189  29.628  27.143  1.00  0.00    -0.203 F 
ATOM     67  F   UNL A   1      37.673  28.708  32.303  1.00  0.00    -0.200 F 
ATOM     68  C   UNL A   1      37.149  29.465  30.130  1.00  0.00     0.200 A 
ATOM     69  F   UNL A   1      36.668  30.200  27.938  1.00  0.00    -0.200 F 
ATOM     70  F   UNL A   1      35.889  29.724  30.508  1.00  0.00    -0.200 F 
ENDBRANCH  46  60
BRANCH  47  71
ATOM     71  C   UNL A   1      49.001  26.830  26.092  1.00  0.00     0.064 A 
ATOM     72  C   UNL A   1      49.336  27.051  24.748  1.00  0.00     0.173 A 
ATOM     73  C   UNL A   1      49.998  26.318  26.936  1.00  0.00     0.173 A 
ATOM     74  F   UNL A   1      48.412  27.522  23.898  1.00  0.00    -0.203 F 
ATOM     75  C   UNL A   1      50.606  26.749  24.263  1.00  0.00     0.198 A 
ATOM     76  C   UNL A   1      51.277  26.047  26.456  1.00  0.00     0.198 A 
ATOM     77  F   UNL A   1      49.732  26.095  28.231  1.00  0.00    -0.203 F 
ATOM     78  F   UNL A   1      50.884  26.922  22.964  1.00  0.00    -0.200 F 
ATOM     79  C   UNL A   1      51.578  26.253  25.119  1.00  0.00     0.200 A 
ATOM     80  F   UNL A   1      52.218  25.585  27.291  1.00  0.00    -0.200 F 
ATOM     81  F   UNL A   1      52.801  25.967  24.653  1.00  0.00    -0.200 F 
ENDBRANCH  47  71
BRANCH  59  82
ATOM     82  C   UNL A   1      46.002  32.526  28.756  1.00  0.00     0.064 A 
ATOM     83  C   UNL A   1      45.909  33.571  27.823  1.00  0.00     0.173 A 
ATOM     84  C   UNL A   1      46.583  32.810  30.001  1.00  0.00     0.173 A 
ATOM     85  F   UNL A   1      45.376  33.349  26.612  1.00  0.00    -0.203 F 
ATOM     86  C   UNL A   1      46.408  34.837  28.115  1.00  0.00     0.198 A 
ATOM     87  C   UNL A   1      47.048  34.087  30.302  1.00  0.00     0.198 A 
ATOM     88  F   UNL A   1      46.691  31.850  30.933  1.00  0.00    -0.203 F 
ATOM     89  F   UNL A   1      46.360  35.804  27.186  1.00  0.00    -0.200 F 
ATOM     90  C   UNL A   1      46.971  35.097  29.355  1.00  0.00     0.200 A 
ATOM     91  F   UNL A   1      47.577  34.339  31.507  1.00  0.00    -0.200 F 
ATOM     92  F   UNL A   1      47.445  36.318  29.636  1.00  0.00    -0.200 F 
ENDBRANCH  59  82
ENDBRANCH  33  34
ENDBRANCH  25  28
ENDBRANCH  23  24
ENDBRANCH  22  23
ENDBRANCH   1  22
TORSDOF 15
ENDMDL
MODEL 3
REMARK VINA RESULT:     -11.4      5.625     11.168
REMARK SMILES CC[C@@H](COC)NC(=O)N1CC[C@H](C(=O)NCCCNC(=O)c2ccc(-c3c4nc(c(-c5c(F)c(F)c(F)c(F)c5F)c5ccc([nH]5)c(-c5c(F)c(F)c(F)c(F)c5F)c5nc(c(-c6c(F)c(F)c(F)c(F)c6F)c6ccc3[nH]6)C=C5)C=C4)cc2)[C@@H]1C
REMARK SMILES IDX 17 1 16 2 14 3 15 4 13 6 10 7 11 8 86 9 12 10 87 11 8 12
REMARK SMILES IDX 7 13 9 15 3 16 2 17 1 18 4 19 5 20 6 21 18 22 19 23 20 24
REMARK SMILES IDX 21 25 22 27 23 28 24 29 85 30 25 31 84 32 26 33 27 34 28 35
REMARK SMILES IDX 78 36 29 37 83 38 77 39 79 40 30 41 82 42 76 43 75 44 31 46
REMARK SMILES IDX 63 47 43 48 62 49 44 50 47 51 61 52 80 53 45 54 46 55 60 57
REMARK SMILES IDX 81 58 48 59 32 60 33 61 41 62 34 63 35 64 39 65 42 66 36 67
REMARK SMILES IDX 37 68 40 69 38 70 64 71 65 72 73 73 66 74 67 75 71 76 74 77
REMARK SMILES IDX 68 78 69 79 72 80 70 81 49 82 50 83 58 84 51 85 52 86 56 87
REMARK SMILES IDX 59 88 53 89 54 90 57 91 55 92
REMARK H PARENT 16 5 7 14 20 26 79 45 47 56
REMARK Flexibility Score: inf
ROOT
ATOM      1  C   UNL A   1      31.398  30.827  25.869  1.00  0.00     0.117 C 
ENDROOT
BRANCH   1   2
ATOM      2  N   UNL A   1      30.654  30.694  24.627  1.00  0.00    -0.356 N 
ATOM      3  C   UNL A   1      30.507  29.610  23.808  1.00  0.00     0.225 C 
ATOM      4  O   UNL A   1      29.822  29.747  22.799  1.00  0.00    -0.275 OA
ATOM      5  H   UNL A   1      30.187  31.509  24.332  1.00  0.00     0.163 HD
BRANCH   3   6
ATOM      6  C   UNL A   1      31.132  28.299  24.246  1.00  0.00     0.102 C 
ATOM      7  N   UNL A   1      32.350  26.666  23.012  1.00  0.00    -0.321 N 
ATOM      8  C   UNL A   1      30.973  26.560  22.594  1.00  0.00     0.122 C 
ATOM      9  C   UNL A   1      32.544  27.927  23.740  1.00  0.00     0.096 C 
ATOM     10  C   UNL A   1      30.230  27.140  23.780  1.00  0.00     0.037 C 
ATOM     11  C   UNL A   1      33.307  28.953  22.908  1.00  0.00     0.032 C 
BRANCH   7  12
ATOM     12  C   UNL A   1      33.276  25.806  22.504  1.00  0.00     0.317 C 
ATOM     13  N   UNL A   1      33.778  24.819  23.276  1.00  0.00    -0.333 N 
ATOM     14  H   UNL A   1      34.703  24.556  23.064  1.00  0.00     0.165 HD
ATOM     15  O   UNL A   1      33.651  25.869  21.332  1.00  0.00    -0.249 OA
BRANCH  13  16
ATOM     16  C   UNL A   1      33.163  24.077  24.377  1.00  0.00     0.109 C 
BRANCH  16  17
ATOM     17  C   UNL A   1      33.316  22.563  24.153  1.00  0.00     0.024 C 
ATOM     18  C   UNL A   1      32.534  22.072  22.941  1.00  0.00     0.006 C 
ENDBRANCH  16  17
BRANCH  16  19
ATOM     19  C   UNL A   1      33.681  24.629  25.718  1.00  0.00     0.184 C 
BRANCH  19  20
ATOM     20  O   UNL A   1      32.685  25.286  26.504  1.00  0.00    -0.383 OA
ATOM     21  C   UNL A   1      31.359  24.838  26.276  1.00  0.00     0.194 C 
ENDBRANCH  19  20
ENDBRANCH  16  19
ENDBRANCH  13  16
ENDBRANCH   7  12
ENDBRANCH   3   6
ENDBRANCH   1   2
BRANCH   1  22
ATOM     22  C   UNL A   1      31.186  32.189  26.519  1.00  0.00     0.042 C 
BRANCH  22  23
ATOM     23  C   UNL A   1      32.434  32.767  27.183  1.00  0.00     0.118 C 
BRANCH  23  24
ATOM     24  N   UNL A   1      32.280  34.164  27.562  1.00  0.00    -0.352 N 
ATOM     25  C   UNL A   1      32.934  34.913  28.506  1.00  0.00     0.251 C 
ATOM     26  H   UNL A   1      31.592  34.652  27.056  1.00  0.00     0.163 HD
ATOM     27  O   UNL A   1      32.528  36.040  28.767  1.00  0.00    -0.269 OA
BRANCH  25  28
ATOM     28  C   UNL A   1      34.104  34.370  29.230  1.00  0.00     0.039 A 
ATOM     29  C   UNL A   1      33.886  33.710  30.442  1.00  0.00     0.014 A 
ATOM     30  C   UNL A   1      35.406  34.533  28.750  1.00  0.00     0.014 A 
ATOM     31  C   UNL A   1      34.964  33.155  31.137  1.00  0.00     0.010 A 
ATOM     32  C   UNL A   1      36.470  33.913  29.402  1.00  0.00     0.010 A 
ATOM     33  C   UNL A   1      36.260  33.216  30.601  1.00  0.00    -0.014 A 
BRANCH  33  34
ATOM     34  C   UNL A   1      37.396  32.537  31.279  1.00  0.00     0.031 A 
ATOM     35  C   UNL A   1      38.104  31.386  30.621  1.00  0.00     0.074 A 
ATOM     36  C   UNL A   1      37.755  32.931  32.517  1.00  0.00     0.049 A 
ATOM     37  N   UNL A   1      39.091  30.654  31.075  1.00  0.00    -0.248 NA
ATOM     38  C   UNL A   1      37.625  30.987  29.289  1.00  0.00     0.031 C 
ATOM     39  C   UNL A   1      37.114  34.000  33.281  1.00  0.00     0.029 A 
ATOM     40  N   UNL A   1      38.744  32.473  33.351  1.00  0.00    -0.354 N 
ATOM     41  C   UNL A   1      39.345  29.707  30.091  1.00  0.00     0.074 A 
ATOM     42  C   UNL A   1      38.373  29.920  29.040  1.00  0.00     0.031 C 
ATOM     43  C   UNL A   1      37.741  34.137  34.459  1.00  0.00     0.029 A 
ATOM     44  C   UNL A   1      38.802  33.139  34.551  1.00  0.00     0.049 A 
ATOM     45  H   UNL A   1      39.354  31.738  33.113  1.00  0.00     0.167 HD
ATOM     46  C   UNL A   1      40.316  28.763  30.055  1.00  0.00     0.037 A 
ATOM     47  C   UNL A   1      39.614  32.961  35.610  1.00  0.00     0.037 A 
ATOM     48  C   UNL A   1      41.292  28.564  31.097  1.00  0.00     0.049 A 
ATOM     49  C   UNL A   1      40.675  31.896  35.550  1.00  0.00     0.074 A 
ATOM     50  C   UNL A   1      42.351  27.674  31.127  1.00  0.00     0.029 A 
ATOM     51  N   UNL A   1      41.322  29.261  32.296  1.00  0.00    -0.354 N 
ATOM     52  N   UNL A   1      40.955  31.059  34.582  1.00  0.00    -0.248 NA
ATOM     53  C   UNL A   1      41.539  31.758  36.731  1.00  0.00     0.031 C 
ATOM     54  C   UNL A   1      42.988  27.792  32.367  1.00  0.00     0.029 A 
ATOM     55  C   UNL A   1      42.365  28.801  33.085  1.00  0.00     0.049 A 
ATOM     56  H   UNL A   1      40.697  29.978  32.549  1.00  0.00     0.167 HD
ATOM     57  C   UNL A   1      42.041  30.314  35.022  1.00  0.00     0.074 A 
ATOM     58  C   UNL A   1      42.383  30.813  36.338  1.00  0.00     0.031 C 
ATOM     59  C   UNL A   1      42.695  29.307  34.394  1.00  0.00     0.037 A 
BRANCH  46  60
ATOM     60  C   UNL A   1      40.374  27.869  28.850  1.00  0.00     0.064 A 
ATOM     61  C   UNL A   1      41.162  28.188  27.732  1.00  0.00     0.173 A 
ATOM     62  C   UNL A   1      39.666  26.658  28.826  1.00  0.00     0.173 A 
ATOM     63  F   UNL A   1      41.851  29.338  27.698  1.00  0.00    -0.203 F 
ATOM     64  C   UNL A   1      41.215  27.342  26.627  1.00  0.00     0.198 A 
ATOM     65  C   UNL A   1      39.748  25.798  27.732  1.00  0.00     0.198 A 
ATOM     66  F   UNL A   1      38.903  26.298  29.869  1.00  0.00    -0.203 F 
ATOM     67  F   UNL A   1      41.934  27.693  25.551  1.00  0.00    -0.200 F 
ATOM     68  C   UNL A   1      40.515  26.146  26.630  1.00  0.00     0.200 A 
ATOM     69  F   UNL A   1      39.083  24.635  27.745  1.00  0.00    -0.200 F 
ATOM     70  F   UNL A   1      40.575  25.329  25.569  1.00  0.00    -0.200 F 
ENDBRANCH  46  60
BRANCH  47  71
ATOM     71  C   UNL A   1      39.470  33.826  36.812  1.00  0.00     0.064 A 
ATOM     72  C   UNL A   1      40.105  35.073  36.883  1.00  0.00     0.173 A 
ATOM     73  C   UNL A   1      38.701  33.421  37.914  1.00  0.00     0.173 A 
ATOM     74  F   UNL A   1      40.866  35.496  35.863  1.00  0.00    -0.203 F 
ATOM     75  C   UNL A   1      39.998  35.872  38.020  1.00  0.00     0.198 A 
ATOM     76  C   UNL A   1      38.569  34.235  39.036  1.00  0.00     0.198 A 
ATOM     77  F   UNL A   1      38.067  32.240  37.893  1.00  0.00    -0.203 F 
ATOM     78  F   UNL A   1      40.658  37.037  38.082  1.00  0.00    -0.200 F 
ATOM     79  C   UNL A   1      39.225  35.455  39.093  1.00  0.00     0.200 A 
ATOM     80  F   UNL A   1      37.807  33.836  40.063  1.00  0.00    -0.200 F 
ATOM     81  F   UNL A   1      39.119  36.227  40.184  1.00  0.00    -0.200 F 
ENDBRANCH  47  71
BRANCH  59  82
ATOM     82  C   UNL A   1      43.868  28.698  35.109  1.00  0.00     0.064 A 
ATOM     83  C   UNL A   1      45.172  29.191  34.942  1.00  0.00     0.173 A 
ATOM     84  C   UNL A   1      43.683  27.623  35.991  1.00  0.00     0.173 A 
ATOM     85  F   UNL A   1      45.406  30.207  34.099  1.00  0.00    -0.203 F 
ATOM     86  C   UNL A   1      46.248  28.608  35.606  1.00  0.00     0.198 A 
ATOM     87  C   UNL A   1      44.756  27.066  36.681  1.00  0.00     0.198 A 
ATOM     88  F   UNL A   1      42.456  27.117  36.194  1.00  0.00    -0.203 F 
ATOM     89  F   UNL A   1      47.492  29.058  35.386  1.00  0.00    -0.200 F 
ATOM     90  C   UNL A   1      46.039  27.551  36.480  1.00  0.00     0.200 A 
ATOM     91  F   UNL A   1      44.549  26.055  37.536  1.00  0.00    -0.200 F 
ATOM     92  F   UNL A   1      47.075  26.995  37.122  1.00  0.00    -0.200 F 
ENDBRANCH  59  82
ENDBRANCH  33  34
ENDBRANCH  25  28
ENDBRANCH  23  24
ENDBRANCH  22  23
ENDBRANCH   1  22
TORSDOF 15
ENDMDL
