MODEL 1
REMARK VINA RESULT:     -13.3      0.000      0.000
REMARK SMILES Cc1cc(C(=O)NNC(=O)[C@H]2[C@@H](C(=O)NCCCNC(=O)c3ccc(-c4c5nc(c(-c6c(F)c(F)c(F)c(F)c6F)c6ccc([nH]6)c(-c6c(F)c(F)c(F)c(F)c6F)c6nc(c(-c7c(F)c(F)c(F)c(F)c7F)c7ccc4[nH]7)C=C6)C=C5)cc3)[C@@H]3C=C[C@H]2C3)cs1
REMARK SMILES IDX 16 1 15 2 13 3 14 4 12 6 11 7 88 8 85 9 87 10 89 11 86 12
REMARK SMILES IDX 9 13 8 14 10 16 7 17 5 18 6 19 4 21 1 22 2 23 3 24 91 25
REMARK SMILES IDX 90 26 17 27 18 28 19 29 20 30 21 32 22 33 23 34 84 35 24 36
REMARK SMILES IDX 83 37 25 38 26 39 27 40 77 41 28 42 82 43 76 44 78 45 29 46
REMARK SMILES IDX 81 47 75 48 74 49 30 51 62 52 42 53 61 54 43 55 46 56 60 57
REMARK SMILES IDX 79 58 44 59 45 60 59 62 80 63 47 64 31 65 32 66 40 67 33 68
REMARK SMILES IDX 34 69 38 70 41 71 35 72 36 73 39 74 37 75 63 76 64 77 72 78
REMARK SMILES IDX 65 79 66 80 70 81 73 82 67 83 68 84 71 85 69 86 48 87 49 88
REMARK SMILES IDX 57 89 50 90 51 91 55 92 58 93 52 94 53 95 56 96 54 97
REMARK H PARENT 15 5 8 15 7 20 19 31 78 50 46 61
REMARK Flexibility Score: inf
ROOT
ATOM      1  C   UNL A   1      31.511  30.674  26.461  1.00  0.00     0.117 C 
ENDROOT
BRANCH   1   2
ATOM      2  N   UNL A   1      32.283  30.233  25.316  1.00  0.00    -0.356 N 
ATOM      3  C   UNL A   1      32.003  29.240  24.426  1.00  0.00     0.224 C 
ATOM      4  O   UNL A   1      32.710  29.144  23.424  1.00  0.00    -0.275 OA
ATOM      5  H   UNL A   1      33.127  30.718  25.159  1.00  0.00     0.163 HD
BRANCH   3   6
ATOM      6  C   UNL A   1      30.751  28.399  24.660  1.00  0.00     0.098 C 
ATOM      7  C   UNL A   1      30.967  26.851  24.852  1.00  0.00     0.100 C 
ATOM      8  C   UNL A   1      30.425  26.293  23.508  1.00  0.00     0.025 C 
ATOM      9  C   UNL A   1      29.923  28.469  23.351  1.00  0.00     0.025 C 
ATOM     10  C   UNL A   1      28.907  26.428  23.608  1.00  0.00    -0.027 C 
ATOM     11  C   UNL A   1      30.649  27.421  22.501  1.00  0.00     0.017 C 
ATOM     12  C   UNL A   1      28.618  27.738  23.552  1.00  0.00    -0.027 C 
BRANCH   7  13
ATOM     13  C   UNL A   1      32.305  26.525  25.503  1.00  0.00     0.242 C 
ATOM     14  N   UNL A   1      33.464  26.322  24.823  1.00  0.00    -0.267 N 
ATOM     15  H   UNL A   1      34.256  26.121  25.372  1.00  0.00     0.191 HD
ATOM     16  O   UNL A   1      32.331  26.226  26.707  1.00  0.00    -0.273 OA
BRANCH  14  17
ATOM     17  N   UNL A   1      33.670  26.365  23.461  1.00  0.00    -0.263 N 
ATOM     18  C   UNL A   1      33.682  25.264  22.616  1.00  0.00     0.270 C 
ATOM     19  O   UNL A   1      33.628  25.486  21.405  1.00  0.00    -0.267 OA
ATOM     20  H   UNL A   1      33.821  27.249  23.054  1.00  0.00     0.191 HD
BRANCH  18  21
ATOM     21  C   UNL A   1      33.684  23.888  23.139  1.00  0.00     0.052 A 
ATOM     22  C   UNL A   1      35.099  20.840  24.932  1.00  0.00     0.056 C 
ATOM     23  C   UNL A   1      34.321  21.872  24.187  1.00  0.00     0.002 A 
ATOM     24  C   UNL A   1      34.744  23.101  23.715  1.00  0.00     0.029 A 
ATOM     25  S   UNL A   1      32.685  21.583  23.800  1.00  0.00    -0.148 S 
ATOM     26  C   UNL A   1      32.528  23.122  23.081  1.00  0.00     0.079 A 
ENDBRANCH  18  21
ENDBRANCH  14  17
ENDBRANCH   7  13
ENDBRANCH   3   6
ENDBRANCH   1   2
BRANCH   1  27
ATOM     27  C   UNL A   1      31.441  32.187  26.557  1.00  0.00     0.042 C 
BRANCH  27  28
ATOM     28  C   UNL A   1      32.628  32.810  27.278  1.00  0.00     0.118 C 
BRANCH  28  29
ATOM     29  N   UNL A   1      32.414  34.210  27.621  1.00  0.00    -0.352 N 
ATOM     30  C   UNL A   1      33.006  34.982  28.590  1.00  0.00     0.251 C 
ATOM     31  H   UNL A   1      31.740  34.674  27.074  1.00  0.00     0.163 HD
ATOM     32  O   UNL A   1      32.562  36.094  28.845  1.00  0.00    -0.269 OA
BRANCH  30  33
ATOM     33  C   UNL A   1      34.165  34.458  29.342  1.00  0.00     0.039 A 
ATOM     34  C   UNL A   1      33.947  33.823  30.566  1.00  0.00     0.014 A 
ATOM     35  C   UNL A   1      35.463  34.589  28.842  1.00  0.00     0.014 A 
ATOM     36  C   UNL A   1      35.023  33.257  31.251  1.00  0.00     0.010 A 
ATOM     37  C   UNL A   1      36.515  33.936  29.470  1.00  0.00     0.010 A 
ATOM     38  C   UNL A   1      36.309  33.273  30.688  1.00  0.00    -0.014 A 
BRANCH  38  39
ATOM     39  C   UNL A   1      37.458  32.621  31.367  1.00  0.00     0.031 A 
ATOM     40  C   UNL A   1      38.180  31.485  30.696  1.00  0.00     0.074 A 
ATOM     41  C   UNL A   1      37.815  33.015  32.605  1.00  0.00     0.049 A 
ATOM     42  N   UNL A   1      39.162  30.745  31.148  1.00  0.00    -0.248 NA
ATOM     43  C   UNL A   1      37.723  31.111  29.348  1.00  0.00     0.031 C 
ATOM     44  C   UNL A   1      37.163  34.074  33.379  1.00  0.00     0.029 A 
ATOM     45  N   UNL A   1      38.811  32.566  33.436  1.00  0.00    -0.354 N 
ATOM     46  C   UNL A   1      39.428  29.820  30.147  1.00  0.00     0.074 A 
ATOM     47  C   UNL A   1      38.463  30.043  29.094  1.00  0.00     0.031 C 
ATOM     48  C   UNL A   1      37.797  34.215  34.553  1.00  0.00     0.029 A 
ATOM     49  C   UNL A   1      38.868  33.228  34.638  1.00  0.00     0.049 A 
ATOM     50  H   UNL A   1      39.428  31.838  33.192  1.00  0.00     0.167 HD
ATOM     51  C   UNL A   1      40.411  28.890  30.095  1.00  0.00     0.037 A 
ATOM     52  C   UNL A   1      39.689  33.051  35.690  1.00  0.00     0.037 A 
ATOM     53  C   UNL A   1      41.382  28.682  31.136  1.00  0.00     0.049 A 
ATOM     54  C   UNL A   1      40.753  31.988  35.617  1.00  0.00     0.074 A 
ATOM     55  C   UNL A   1      42.438  27.790  31.166  1.00  0.00     0.029 A 
ATOM     56  N   UNL A   1      41.412  29.379  32.335  1.00  0.00    -0.354 N 
ATOM     57  N   UNL A   1      41.036  31.163  34.638  1.00  0.00    -0.248 NA
ATOM     58  C   UNL A   1      41.620  31.839  36.794  1.00  0.00     0.031 C 
ATOM     59  C   UNL A   1      43.078  27.912  32.403  1.00  0.00     0.029 A 
ATOM     60  C   UNL A   1      42.460  28.923  33.119  1.00  0.00     0.049 A 
ATOM     61  H   UNL A   1      40.782  30.091  32.592  1.00  0.00     0.167 HD
ATOM     62  C   UNL A   1      42.135  30.428  35.063  1.00  0.00     0.074 A 
ATOM     63  C   UNL A   1      42.477  30.916  36.383  1.00  0.00     0.031 C 
ATOM     64  C   UNL A   1      42.800  29.437  34.421  1.00  0.00     0.037 A 
BRANCH  51  65
ATOM     65  C   UNL A   1      40.494  28.033  28.863  1.00  0.00     0.064 A 
ATOM     66  C   UNL A   1      39.792  26.822  28.763  1.00  0.00     0.173 A 
ATOM     67  C   UNL A   1      41.245  28.449  27.753  1.00  0.00     0.173 A 
ATOM     68  F   UNL A   1      39.069  26.372  29.799  1.00  0.00    -0.203 F 
ATOM     69  C   UNL A   1      39.860  26.047  27.608  1.00  0.00     0.198 A 
ATOM     70  C   UNL A   1      41.283  27.687  26.588  1.00  0.00     0.198 A 
ATOM     71  F   UNL A   1      41.932  29.601  27.793  1.00  0.00    -0.203 F 
ATOM     72  F   UNL A   1      39.221  24.870  27.555  1.00  0.00    -0.200 F 
ATOM     73  C   UNL A   1      40.598  26.484  26.518  1.00  0.00     0.200 A 
ATOM     74  F   UNL A   1      41.984  28.119  25.530  1.00  0.00    -0.200 F 
ATOM     75  F   UNL A   1      40.651  25.744  25.403  1.00  0.00    -0.200 F 
ENDBRANCH  51  65
BRANCH  52  76
ATOM     76  C   UNL A   1      39.560  33.909  36.900  1.00  0.00     0.064 A 
ATOM     77  C   UNL A   1      38.808  33.487  38.006  1.00  0.00     0.173 A 
ATOM     78  C   UNL A   1      40.149  35.181  36.963  1.00  0.00     0.173 A 
ATOM     79  F   UNL A   1      38.209  32.286  37.988  1.00  0.00    -0.203 F 
ATOM     80  C   UNL A   1      38.618  34.316  39.110  1.00  0.00     0.198 A 
ATOM     81  C   UNL A   1      39.988  35.996  38.082  1.00  0.00     0.198 A 
ATOM     82  F   UNL A   1      40.885  35.633  35.937  1.00  0.00    -0.203 F 
ATOM     83  F   UNL A   1      37.839  33.911  40.122  1.00  0.00    -0.200 F 
ATOM     84  C   UNL A   1      39.211  35.568  39.148  1.00  0.00     0.200 A 
ATOM     85  F   UNL A   1      40.577  37.197  38.123  1.00  0.00    -0.200 F 
ATOM     86  F   UNL A   1      39.024  36.368  40.207  1.00  0.00    -0.200 F 
ENDBRANCH  52  76
BRANCH  64  87
ATOM     87  C   UNL A   1      44.005  28.857  35.108  1.00  0.00     0.064 A 
ATOM     88  C   UNL A   1      45.292  29.380  34.916  1.00  0.00     0.173 A 
ATOM     89  C   UNL A   1      43.859  27.780  35.997  1.00  0.00     0.173 A 
ATOM     90  F   UNL A   1      45.487  30.400  34.067  1.00  0.00    -0.203 F 
ATOM     91  C   UNL A   1      46.394  28.824  35.561  1.00  0.00     0.198 A 
ATOM     92  C   UNL A   1      44.957  27.252  36.669  1.00  0.00     0.198 A 
ATOM     93  F   UNL A   1      42.649  27.248  36.225  1.00  0.00    -0.203 F 
ATOM     94  F   UNL A   1      47.621  29.302  35.317  1.00  0.00    -0.200 F 
ATOM     95  C   UNL A   1      46.224  27.767  36.443  1.00  0.00     0.200 A 
ATOM     96  F   UNL A   1      44.789  26.242  37.534  1.00  0.00    -0.200 F 
ATOM     97  F   UNL A   1      47.285  27.238  37.068  1.00  0.00    -0.200 F 
ENDBRANCH  64  87
ENDBRANCH  38  39
ENDBRANCH  30  33
ENDBRANCH  28  29
ENDBRANCH  27  28
ENDBRANCH   1  27
TORSDOF 13
ENDMDL
MODEL 2
REMARK VINA RESULT:     -13.2      0.471      7.418
REMARK SMILES Cc1cc(C(=O)NNC(=O)[C@H]2[C@@H](C(=O)NCCCNC(=O)c3ccc(-c4c5nc(c(-c6c(F)c(F)c(F)c(F)c6F)c6ccc([nH]6)c(-c6c(F)c(F)c(F)c(F)c6F)c6nc(c(-c7c(F)c(F)c(F)c(F)c7F)c7ccc4[nH]7)C=C6)C=C5)cc3)[C@@H]3C=C[C@H]2C3)cs1
REMARK SMILES IDX 16 1 15 2 13 3 14 4 12 6 11 7 88 8 85 9 87 10 89 11 86 12
REMARK SMILES IDX 9 13 8 14 10 16 7 17 5 18 6 19 4 21 1 22 2 23 3 24 91 25
REMARK SMILES IDX 90 26 17 27 18 28 19 29 20 30 21 32 22 33 23 34 84 35 24 36
REMARK SMILES IDX 83 37 25 38 26 39 27 40 77 41 28 42 82 43 76 44 78 45 29 46
REMARK SMILES IDX 81 47 75 48 74 49 30 51 62 52 42 53 61 54 43 55 46 56 60 57
REMARK SMILES IDX 79 58 44 59 45 60 59 62 80 63 47 64 31 65 32 66 40 67 33 68
REMARK SMILES IDX 34 69 38 70 41 71 35 72 36 73 39 74 37 75 63 76 64 77 72 78
REMARK SMILES IDX 65 79 66 80 70 81 73 82 67 83 68 84 71 85 69 86 48 87 49 88
REMARK SMILES IDX 57 89 50 90 51 91 55 92 58 93 52 94 53 95 56 96 54 97
REMARK H PARENT 15 5 8 15 7 20 19 31 78 50 46 61
REMARK Flexibility Score: inf
ROOT
ATOM      1  C   UNL A   1      31.415  30.810  26.464  1.00  0.00     0.117 C 
ENDROOT
BRANCH   1   2
ATOM      2  N   UNL A   1      32.246  30.338  25.374  1.00  0.00    -0.356 N 
ATOM      3  C   UNL A   1      32.015  29.316  24.502  1.00  0.00     0.224 C 
ATOM      4  O   UNL A   1      32.773  29.193  23.541  1.00  0.00    -0.275 OA
ATOM      5  H   UNL A   1      33.095  30.822  25.246  1.00  0.00     0.163 HD
BRANCH   3   6
ATOM      6  C   UNL A   1      30.755  28.477  24.698  1.00  0.00     0.098 C 
ATOM      7  C   UNL A   1      30.961  26.924  24.857  1.00  0.00     0.100 C 
ATOM      8  C   UNL A   1      30.436  26.401  23.492  1.00  0.00     0.025 C 
ATOM      9  C   UNL A   1      29.947  28.582  23.379  1.00  0.00     0.025 C 
ATOM     10  C   UNL A   1      28.917  26.542  23.574  1.00  0.00    -0.027 C 
ATOM     11  C   UNL A   1      30.680  27.550  22.515  1.00  0.00     0.017 C 
ATOM     12  C   UNL A   1      28.636  27.854  23.544  1.00  0.00    -0.027 C 
BRANCH   7  13
ATOM     13  C   UNL A   1      32.288  26.576  25.520  1.00  0.00     0.242 C 
ATOM     14  N   UNL A   1      33.447  26.344  24.849  1.00  0.00    -0.267 N 
ATOM     15  H   UNL A   1      34.231  26.131  25.404  1.00  0.00     0.191 HD
ATOM     16  O   UNL A   1      32.300  26.285  26.725  1.00  0.00    -0.273 OA
BRANCH  14  17
ATOM     17  N   UNL A   1      33.662  26.372  23.488  1.00  0.00    -0.263 N 
ATOM     18  C   UNL A   1      33.689  25.262  22.656  1.00  0.00     0.270 C 
ATOM     19  O   UNL A   1      33.642  25.469  21.442  1.00  0.00    -0.267 OA
ATOM     20  H   UNL A   1      33.809  27.253  23.071  1.00  0.00     0.191 HD
BRANCH  18  21
ATOM     21  C   UNL A   1      33.698  23.892  23.195  1.00  0.00     0.052 A 
ATOM     22  C   UNL A   1      35.162  20.841  24.942  1.00  0.00     0.056 C 
ATOM     23  C   UNL A   1      34.360  21.877  24.231  1.00  0.00     0.002 A 
ATOM     24  C   UNL A   1      34.776  23.093  23.719  1.00  0.00     0.029 A 
ATOM     25  S   UNL A   1      32.700  21.613  23.941  1.00  0.00    -0.148 S 
ATOM     26  C   UNL A   1      32.528  23.146  23.213  1.00  0.00     0.079 A 
ENDBRANCH  18  21
ENDBRANCH  14  17
ENDBRANCH   7  13
ENDBRANCH   3   6
ENDBRANCH   1   2
BRANCH   1  27
ATOM     27  C   UNL A   1      31.391  32.325  26.552  1.00  0.00     0.042 C 
BRANCH  27  28
ATOM     28  C   UNL A   1      32.637  32.921  27.192  1.00  0.00     0.118 C 
BRANCH  28  29
ATOM     29  N   UNL A   1      32.435  34.282  27.671  1.00  0.00    -0.352 N 
ATOM     30  C   UNL A   1      33.044  34.956  28.702  1.00  0.00     0.251 C 
ATOM     31  H   UNL A   1      31.755  34.799  27.181  1.00  0.00     0.163 HD
ATOM     32  O   UNL A   1      32.609  36.039  29.068  1.00  0.00    -0.269 OA
BRANCH  30  33
ATOM     33  C   UNL A   1      34.211  34.357  29.383  1.00  0.00     0.039 A 
ATOM     34  C   UNL A   1      34.005  33.593  30.532  1.00  0.00     0.014 A 
ATOM     35  C   UNL A   1      35.504  34.547  28.888  1.00  0.00     0.014 A 
ATOM     36  C   UNL A   1      35.089  32.961  31.143  1.00  0.00     0.010 A 
ATOM     37  C   UNL A   1      36.563  33.834  29.434  1.00  0.00     0.010 A 
ATOM     38  C   UNL A   1      36.370  33.042  30.575  1.00  0.00    -0.014 A 
BRANCH  38  39
ATOM     39  C   UNL A   1      37.526  32.325  31.170  1.00  0.00     0.031 A 
ATOM     40  C   UNL A   1      38.022  32.707  32.538  1.00  0.00     0.074 A 
ATOM     41  C   UNL A   1      38.159  31.371  30.461  1.00  0.00     0.049 A 
ATOM     42  N   UNL A   1      39.053  32.248  33.204  1.00  0.00    -0.248 NA
ATOM     43  C   UNL A   1      37.279  33.764  33.243  1.00  0.00     0.031 C 
ATOM     44  C   UNL A   1      37.801  30.944  29.106  1.00  0.00     0.029 A 
ATOM     45  N   UNL A   1      39.244  30.591  30.777  1.00  0.00    -0.354 N 
ATOM     46  C   UNL A   1      39.083  32.964  34.393  1.00  0.00     0.074 A 
ATOM     47  C   UNL A   1      38.014  33.936  34.332  1.00  0.00     0.031 C 
ATOM     48  C   UNL A   1      38.628  29.958  28.723  1.00  0.00     0.029 A 
ATOM     49  C   UNL A   1      39.602  29.714  29.781  1.00  0.00     0.049 A 
ATOM     50  H   UNL A   1      39.720  30.654  31.637  1.00  0.00     0.167 HD
ATOM     51  C   UNL A   1      39.906  32.804  35.456  1.00  0.00     0.037 A 
ATOM     52  C   UNL A   1      40.608  28.821  29.729  1.00  0.00     0.037 A 
ATOM     53  C   UNL A   1      40.958  31.824  35.522  1.00  0.00     0.049 A 
ATOM     54  C   UNL A   1      41.528  28.687  30.915  1.00  0.00     0.074 A 
ATOM     55  C   UNL A   1      41.825  31.557  36.566  1.00  0.00     0.029 A 
ATOM     56  N   UNL A   1      41.284  30.948  34.497  1.00  0.00    -0.354 N 
ATOM     57  N   UNL A   1      41.507  29.326  32.059  1.00  0.00    -0.248 NA
ATOM     58  C   UNL A   1      42.609  27.698  30.802  1.00  0.00     0.031 C 
ATOM     59  C   UNL A   1      42.708  30.555  36.156  1.00  0.00     0.029 A 
ATOM     60  C   UNL A   1      42.352  30.152  34.879  1.00  0.00     0.049 A 
ATOM     61  H   UNL A   1      40.825  30.899  33.627  1.00  0.00     0.167 HD
ATOM     62  C   UNL A   1      42.539  28.788  32.816  1.00  0.00     0.074 A 
ATOM     63  C   UNL A   1      43.158  27.760  32.006  1.00  0.00     0.031 C 
ATOM     64  C   UNL A   1      42.941  29.117  34.068  1.00  0.00     0.037 A 
BRANCH  51  65
ATOM     65  C   UNL A   1      39.694  33.701  36.643  1.00  0.00     0.064 A 
ATOM     66  C   UNL A   1      40.283  34.974  36.714  1.00  0.00     0.173 A 
ATOM     67  C   UNL A   1      38.858  33.306  37.697  1.00  0.00     0.173 A 
ATOM     68  F   UNL A   1      41.101  35.396  35.739  1.00  0.00    -0.203 F 
ATOM     69  C   UNL A   1      40.062  35.805  37.809  1.00  0.00     0.198 A 
ATOM     70  C   UNL A   1      38.613  34.155  38.774  1.00  0.00     0.198 A 
ATOM     71  F   UNL A   1      38.265  32.103  37.677  1.00  0.00    -0.203 F 
ATOM     72  F   UNL A   1      40.675  36.996  37.878  1.00  0.00    -0.200 F 
ATOM     73  C   UNL A   1      39.220  35.399  38.834  1.00  0.00     0.200 A 
ATOM     74  F   UNL A   1      37.786  33.767  39.755  1.00  0.00    -0.200 F 
ATOM     75  F   UNL A   1      38.998  36.206  39.880  1.00  0.00    -0.200 F 
ENDBRANCH  51  65
BRANCH  52  76
ATOM     76  C   UNL A   1      40.795  27.965  28.526  1.00  0.00     0.064 A 
ATOM     77  C   UNL A   1      41.565  28.406  27.441  1.00  0.00     0.173 A 
ATOM     78  C   UNL A   1      40.179  26.709  28.418  1.00  0.00     0.173 A 
ATOM     79  F   UNL A   1      42.160  29.608  27.487  1.00  0.00    -0.203 F 
ATOM     80  C   UNL A   1      41.681  27.644  26.280  1.00  0.00     0.198 A 
ATOM     81  C   UNL A   1      40.324  25.931  27.271  1.00  0.00     0.198 A 
ATOM     82  F   UNL A   1      39.437  26.234  29.429  1.00  0.00    -0.203 F 
ATOM     83  F   UNL A   1      42.367  28.121  25.233  1.00  0.00    -0.200 F 
ATOM     84  C   UNL A   1      41.063  26.406  26.197  1.00  0.00     0.200 A 
ATOM     85  F   UNL A   1      39.740  24.728  27.202  1.00  0.00    -0.200 F 
ATOM     86  F   UNL A   1      41.169  25.675  25.079  1.00  0.00    -0.200 F 
ENDBRANCH  52  76
BRANCH  64  87
ATOM     87  C   UNL A   1      44.063  28.315  34.666  1.00  0.00     0.064 A 
ATOM     88  C   UNL A   1      43.831  27.125  35.372  1.00  0.00     0.173 A 
ATOM     89  C   UNL A   1      45.393  28.731  34.499  1.00  0.00     0.173 A 
ATOM     90  F   UNL A   1      42.577  26.691  35.571  1.00  0.00    -0.203 F 
ATOM     91  C   UNL A   1      44.887  26.401  35.919  1.00  0.00     0.198 A 
ATOM     92  C   UNL A   1      46.448  27.984  35.014  1.00  0.00     0.198 A 
ATOM     93  F   UNL A   1      45.672  29.856  33.824  1.00  0.00    -0.203 F 
ATOM     94  F   UNL A   1      44.637  25.300  36.640  1.00  0.00    -0.200 F 
ATOM     95  C   UNL A   1      46.194  26.826  35.733  1.00  0.00     0.200 A 
ATOM     96  F   UNL A   1      47.712  28.387  34.818  1.00  0.00    -0.200 F 
ATOM     97  F   UNL A   1      47.209  26.123  36.254  1.00  0.00    -0.200 F 
ENDBRANCH  64  87
ENDBRANCH  38  39
ENDBRANCH  30  33
ENDBRANCH  28  29
ENDBRANCH  27  28
ENDBRANCH   1  27
TORSDOF 13
ENDMDL
MODEL 3
REMARK VINA RESULT:     -13.1      0.637      7.260
REMARK SMILES Cc1cc(C(=O)NNC(=O)[C@H]2[C@@H](C(=O)NCCCNC(=O)c3ccc(-c4c5nc(c(-c6c(F)c(F)c(F)c(F)c6F)c6ccc([nH]6)c(-c6c(F)c(F)c(F)c(F)c6F)c6nc(c(-c7c(F)c(F)c(F)c(F)c7F)c7ccc4[nH]7)C=C6)C=C5)cc3)[C@@H]3C=C[C@H]2C3)cs1
REMARK SMILES IDX 16 1 15 2 13 3 14 4 12 6 11 7 88 8 85 9 87 10 89 11 86 12
REMARK SMILES IDX 9 13 8 14 10 16 7 17 5 18 6 19 4 21 1 22 2 23 3 24 91 25
REMARK SMILES IDX 90 26 17 27 18 28 19 29 20 30 21 32 22 33 23 34 84 35 24 36
REMARK SMILES IDX 83 37 25 38 26 39 27 40 77 41 28 42 82 43 76 44 78 45 29 46
REMARK SMILES IDX 81 47 75 48 74 49 30 51 62 52 42 53 61 54 43 55 46 56 60 57
REMARK SMILES IDX 79 58 44 59 45 60 59 62 80 63 47 64 31 65 32 66 40 67 33 68
REMARK SMILES IDX 34 69 38 70 41 71 35 72 36 73 39 74 37 75 63 76 64 77 72 78
REMARK SMILES IDX 65 79 66 80 70 81 73 82 67 83 68 84 71 85 69 86 48 87 49 88
REMARK SMILES IDX 57 89 50 90 51 91 55 92 58 93 52 94 53 95 56 96 54 97
REMARK H PARENT 15 5 8 15 7 20 19 31 78 50 46 61
REMARK Flexibility Score: inf
ROOT
ATOM      1  C   UNL A   1      31.403  30.756  26.438  1.00  0.00     0.117 C 
ENDROOT
BRANCH   1   2
ATOM      2  N   UNL A   1      32.232  30.277  25.349  1.00  0.00    -0.356 N 
ATOM      3  C   UNL A   1      31.990  29.260  24.474  1.00  0.00     0.224 C 
ATOM      4  O   UNL A   1      32.749  29.130  23.514  1.00  0.00    -0.275 OA
ATOM      5  H   UNL A   1      33.087  30.750  25.224  1.00  0.00     0.163 HD
BRANCH   3   6
ATOM      6  C   UNL A   1      30.719  28.437  24.663  1.00  0.00     0.098 C 
ATOM      7  C   UNL A   1      30.908  26.887  24.865  1.00  0.00     0.100 C 
ATOM      8  C   UNL A   1      30.407  26.333  23.504  1.00  0.00     0.025 C 
ATOM      9  C   UNL A   1      29.940  28.515  23.326  1.00  0.00     0.025 C 
ATOM     10  C   UNL A   1      28.888  26.489  23.549  1.00  0.00    -0.027 C 
ATOM     11  C   UNL A   1      30.682  27.456  22.504  1.00  0.00     0.017 C 
ATOM     12  C   UNL A   1      28.619  27.802  23.481  1.00  0.00    -0.027 C 
BRANCH   7  13
ATOM     13  C   UNL A   1      32.217  26.544  25.565  1.00  0.00     0.242 C 
ATOM     14  N   UNL A   1      33.399  26.333  24.928  1.00  0.00    -0.267 N 
ATOM     15  H   UNL A   1      34.168  26.121  25.505  1.00  0.00     0.191 HD
ATOM     16  O   UNL A   1      32.195  26.239  26.767  1.00  0.00    -0.273 OA
BRANCH  14  17
ATOM     17  N   UNL A   1      33.656  26.380  23.574  1.00  0.00    -0.263 N 
ATOM     18  C   UNL A   1      33.724  25.280  22.731  1.00  0.00     0.270 C 
ATOM     19  O   UNL A   1      33.712  25.501  21.519  1.00  0.00    -0.267 OA
ATOM     20  H   UNL A   1      33.804  27.268  23.173  1.00  0.00     0.191 HD
BRANCH  18  21
ATOM     21  C   UNL A   1      33.734  23.904  23.254  1.00  0.00     0.052 A 
ATOM     22  C   UNL A   1      35.205  20.834  24.961  1.00  0.00     0.056 C 
ATOM     23  C   UNL A   1      34.400  21.878  24.264  1.00  0.00     0.002 A 
ATOM     24  C   UNL A   1      34.814  23.100  23.765  1.00  0.00     0.029 A 
ATOM     25  S   UNL A   1      32.739  21.617  23.978  1.00  0.00    -0.148 S 
ATOM     26  C   UNL A   1      32.564  23.158  23.268  1.00  0.00     0.079 A 
ENDBRANCH  18  21
ENDBRANCH  14  17
ENDBRANCH   7  13
ENDBRANCH   3   6
ENDBRANCH   1   2
BRANCH   1  27
ATOM     27  C   UNL A   1      31.380  32.271  26.516  1.00  0.00     0.042 C 
BRANCH  27  28
ATOM     28  C   UNL A   1      32.642  32.873  27.118  1.00  0.00     0.118 C 
BRANCH  28  29
ATOM     29  N   UNL A   1      32.447  34.230  27.612  1.00  0.00    -0.352 N 
ATOM     30  C   UNL A   1      33.060  34.889  28.649  1.00  0.00     0.251 C 
ATOM     31  H   UNL A   1      31.769  34.755  27.128  1.00  0.00     0.163 HD
ATOM     32  O   UNL A   1      32.629  35.970  29.028  1.00  0.00    -0.269 OA
BRANCH  30  33
ATOM     33  C   UNL A   1      34.224  34.279  29.323  1.00  0.00     0.039 A 
ATOM     34  C   UNL A   1      34.008  33.392  30.378  1.00  0.00     0.014 A 
ATOM     35  C   UNL A   1      35.526  34.577  28.913  1.00  0.00     0.014 A 
ATOM     36  C   UNL A   1      35.094  32.751  30.975  1.00  0.00     0.010 A 
ATOM     37  C   UNL A   1      36.596  33.862  29.435  1.00  0.00     0.010 A 
ATOM     38  C   UNL A   1      36.393  32.949  30.480  1.00  0.00    -0.014 A 
BRANCH  38  39
ATOM     39  C   UNL A   1      37.557  32.229  31.056  1.00  0.00     0.031 A 
ATOM     40  C   UNL A   1      38.060  32.590  32.427  1.00  0.00     0.074 A 
ATOM     41  C   UNL A   1      38.191  31.291  30.326  1.00  0.00     0.049 A 
ATOM     42  N   UNL A   1      39.097  32.126  33.078  1.00  0.00    -0.248 NA
ATOM     43  C   UNL A   1      37.315  33.630  33.155  1.00  0.00     0.031 C 
ATOM     44  C   UNL A   1      37.827  30.885  28.967  1.00  0.00     0.029 A 
ATOM     45  N   UNL A   1      39.283  30.512  30.622  1.00  0.00    -0.354 N 
ATOM     46  C   UNL A   1      39.131  32.821  34.279  1.00  0.00     0.074 A 
ATOM     47  C   UNL A   1      38.056  33.788  34.242  1.00  0.00     0.031 C 
ATOM     48  C   UNL A   1      38.657  29.910  28.561  1.00  0.00     0.029 A 
ATOM     49  C   UNL A   1      39.640  29.655  29.609  1.00  0.00     0.049 A 
ATOM     50  H   UNL A   1      39.763  30.563  31.480  1.00  0.00     0.167 HD
ATOM     51  C   UNL A   1      39.961  32.648  35.335  1.00  0.00     0.037 A 
ATOM     52  C   UNL A   1      40.650  28.768  29.536  1.00  0.00     0.037 A 
ATOM     53  C   UNL A   1      41.019  31.673  35.377  1.00  0.00     0.049 A 
ATOM     54  C   UNL A   1      41.579  28.619  30.713  1.00  0.00     0.074 A 
ATOM     55  C   UNL A   1      41.894  31.394  36.411  1.00  0.00     0.029 A 
ATOM     56  N   UNL A   1      41.344  30.817  34.335  1.00  0.00    -0.354 N 
ATOM     57  N   UNL A   1      41.560  29.238  31.868  1.00  0.00    -0.248 NA
ATOM     58  C   UNL A   1      42.664  27.638  30.577  1.00  0.00     0.031 C 
ATOM     59  C   UNL A   1      42.780  30.404  35.978  1.00  0.00     0.029 A 
ATOM     60  C   UNL A   1      42.418  30.021  34.697  1.00  0.00     0.049 A 
ATOM     61  H   UNL A   1      40.880  30.781  33.468  1.00  0.00     0.167 HD
ATOM     62  C   UNL A   1      42.600  28.694  32.610  1.00  0.00     0.074 A 
ATOM     63  C   UNL A   1      43.221  27.684  31.778  1.00  0.00     0.031 C 
ATOM     64  C   UNL A   1      43.008  29.003  33.865  1.00  0.00     0.037 A 
BRANCH  51  65
ATOM     65  C   UNL A   1      39.751  33.524  36.538  1.00  0.00     0.064 A 
ATOM     66  C   UNL A   1      40.426  34.746  36.682  1.00  0.00     0.173 A 
ATOM     67  C   UNL A   1      38.833  33.161  37.534  1.00  0.00     0.173 A 
ATOM     68  F   UNL A   1      41.325  35.135  35.764  1.00  0.00    -0.203 F 
ATOM     69  C   UNL A   1      40.208  35.559  37.791  1.00  0.00     0.198 A 
ATOM     70  C   UNL A   1      38.593  33.994  38.624  1.00  0.00     0.198 A 
ATOM     71  F   UNL A   1      38.157  32.006  37.444  1.00  0.00    -0.203 F 
ATOM     72  F   UNL A   1      40.901  36.698  37.931  1.00  0.00    -0.200 F 
ATOM     73  C   UNL A   1      39.285  35.187  38.756  1.00  0.00     0.200 A 
ATOM     74  F   UNL A   1      37.688  33.639  39.548  1.00  0.00    -0.200 F 
ATOM     75  F   UNL A   1      39.066  35.977  39.816  1.00  0.00    -0.200 F 
ENDBRANCH  51  65
BRANCH  52  76
ATOM     76  C   UNL A   1      40.834  27.934  28.317  1.00  0.00     0.064 A 
ATOM     77  C   UNL A   1      40.257  26.660  28.223  1.00  0.00     0.173 A 
ATOM     78  C   UNL A   1      41.620  28.372  27.240  1.00  0.00     0.173 A 
ATOM     79  F   UNL A   1      39.512  26.186  29.234  1.00  0.00    -0.203 F 
ATOM     80  C   UNL A   1      40.489  25.841  27.119  1.00  0.00     0.198 A 
ATOM     81  C   UNL A   1      41.822  27.568  26.120  1.00  0.00     0.198 A 
ATOM     82  F   UNL A   1      42.190  29.586  27.274  1.00  0.00    -0.203 F 
ATOM     83  F   UNL A   1      39.979  24.603  27.087  1.00  0.00    -0.200 F 
ATOM     84  C   UNL A   1      41.268  26.297  26.068  1.00  0.00     0.200 A 
ATOM     85  F   UNL A   1      42.561  28.019  25.099  1.00  0.00    -0.200 F 
ATOM     86  F   UNL A   1      41.496  25.509  25.008  1.00  0.00    -0.200 F 
ENDBRANCH  52  76
BRANCH  64  87
ATOM     87  C   UNL A   1      44.139  28.198  34.442  1.00  0.00     0.064 A 
ATOM     88  C   UNL A   1      45.474  28.617  34.344  1.00  0.00     0.173 A 
ATOM     89  C   UNL A   1      43.874  27.004  35.130  1.00  0.00     0.173 A 
ATOM     90  F   UNL A   1      45.782  29.745  33.685  1.00  0.00    -0.203 F 
ATOM     91  C   UNL A   1      46.505  27.853  34.884  1.00  0.00     0.198 A 
ATOM     92  C   UNL A   1      44.904  26.262  35.701  1.00  0.00     0.198 A 
ATOM     93  F   UNL A   1      42.615  26.562  35.261  1.00  0.00    -0.203 F 
ATOM     94  F   UNL A   1      47.777  28.243  34.727  1.00  0.00    -0.200 F 
ATOM     95  C   UNL A   1      46.218  26.681  35.568  1.00  0.00     0.200 A 
ATOM     96  F   UNL A   1      44.624  25.139  36.378  1.00  0.00    -0.200 F 
ATOM     97  F   UNL A   1      47.212  25.950  36.093  1.00  0.00    -0.200 F 
ENDBRANCH  64  87
ENDBRANCH  38  39
ENDBRANCH  30  33
ENDBRANCH  28  29
ENDBRANCH  27  28
ENDBRANCH   1  27
TORSDOF 13
ENDMDL
