MODEL 1
REMARK VINA RESULT:     -14.5      0.000      0.000
REMARK SMILES Cc1cc(F)ccc1S(=O)(=O)Nc1ccc2oc(C)c(C(=O)NCCCNC(=O)c3ccc(-c4c5nc(c(-c6c(F)c(F)c(F)c(F)c6F)c6ccc([nH]6)c(-c6c(F)c(F)c(F)c(F)c6F)c6nc(c(-c7c(F)c(F)c(F)c(F)c7F)c7ccc4[nH]7)C=C6)C=C5)cc3)c2c1
REMARK SMILES IDX 24 1 23 2 21 3 22 4 20 6 13 7 14 8 94 9 15 10 93 11 16 12
REMARK SMILES IDX 17 13 18 14 19 15 12 16 9 18 10 19 11 20 8 21 1 22 2 23 3 24
REMARK SMILES IDX 4 25 7 26 5 27 6 28 25 29 26 30 27 31 28 32 29 34 30 35
REMARK SMILES IDX 31 36 92 37 32 38 91 39 33 40 34 41 35 42 85 43 36 44 90 45
REMARK SMILES IDX 84 46 86 47 37 48 89 49 83 50 82 51 38 53 70 54 50 55 69 56
REMARK SMILES IDX 51 57 54 58 68 59 87 60 52 61 53 62 67 64 88 65 55 66 39 67
REMARK SMILES IDX 40 68 48 69 41 70 42 71 46 72 49 73 43 74 44 75 47 76 45 77
REMARK SMILES IDX 71 78 72 79 80 80 73 81 74 82 78 83 81 84 75 85 76 86 79 87
REMARK SMILES IDX 77 88 56 89 57 90 65 91 58 92 59 93 63 94 66 95 60 96 61 97
REMARK SMILES IDX 64 98 62 99
REMARK H PARENT 23 5 12 17 27 33 86 52 54 63
REMARK Flexibility Score: inf
ROOT
ATOM      1  C   UNL A   1      32.771  29.632  25.160  1.00  0.00     0.118 C 
ENDROOT
BRANCH   1   2
ATOM      2  N   UNL A   1      31.523  29.439  24.507  1.00  0.00    -0.352 N 
ATOM      3  C   UNL A   1      31.122  28.457  23.660  1.00  0.00     0.255 C 
ATOM      4  O   UNL A   1      29.905  28.442  23.452  1.00  0.00    -0.269 OA
ATOM      5  H   UNL A   1      30.842  30.124  24.700  1.00  0.00     0.163 HD
BRANCH   3   6
ATOM      6  C   UNL A   1      32.036  27.550  22.959  1.00  0.00     0.088 A 
ATOM      7  C   UNL A   1      31.188  23.940  23.711  1.00  0.00     0.050 A 
ATOM      8  C   UNL A   1      32.115  23.360  22.845  1.00  0.00     0.030 A 
ATOM      9  C   UNL A   1      30.865  25.298  23.613  1.00  0.00     0.039 A 
ATOM     10  C   UNL A   1      32.903  24.161  22.009  1.00  0.00     0.050 A 
ATOM     11  C   UNL A   1      31.772  26.130  22.939  1.00  0.00     0.035 A 
ATOM     12  C   UNL A   1      32.759  25.532  22.185  1.00  0.00     0.135 A 
ATOM     13  O   UNL A   1      33.629  26.467  21.759  1.00  0.00    -0.461 OA
ATOM     14  C   UNL A   1      33.296  27.654  22.356  1.00  0.00     0.114 A 
ATOM     15  C   UNL A   1      34.431  28.606  22.250  1.00  0.00     0.088 C 
BRANCH   7  16
ATOM     16  N   UNL A   1      30.663  23.306  24.860  1.00  0.00    -0.280 N 
ATOM     17  H   UNL A   1      29.692  23.385  25.001  1.00  0.00     0.180 HD
BRANCH  16  18
ATOM     18  S   UNL A   1      31.509  22.446  25.996  1.00  0.00     0.262 S 
ATOM     19  O   UNL A   1      31.369  21.040  25.669  1.00  0.00    -0.201 OA
ATOM     20  O   UNL A   1      31.021  22.954  27.264  1.00  0.00    -0.201 OA
BRANCH  18  21
ATOM     21  C   UNL A   1      33.278  22.775  26.006  1.00  0.00     0.090 A 
ATOM     22  C   UNL A   1      33.416  25.372  26.125  1.00  0.00     0.046 C 
ATOM     23  C   UNL A   1      33.973  23.997  25.960  1.00  0.00    -0.028 A 
ATOM     24  C   UNL A   1      35.373  23.965  25.748  1.00  0.00     0.044 A 
ATOM     25  C   UNL A   1      36.075  22.768  25.718  1.00  0.00     0.123 A 
ATOM     26  C   UNL A   1      34.027  21.574  26.022  1.00  0.00     0.025 A 
ATOM     27  F   UNL A   1      37.402  22.783  25.539  1.00  0.00    -0.207 F 
ATOM     28  C   UNL A   1      35.417  21.569  25.898  1.00  0.00     0.040 A 
ENDBRANCH  18  21
ENDBRANCH  16  18
ENDBRANCH   7  16
ENDBRANCH   3   6
ENDBRANCH   1   2
BRANCH   1  29
ATOM     29  C   UNL A   1      33.062  28.596  26.233  1.00  0.00     0.042 C 
BRANCH  29  30
ATOM     30  C   UNL A   1      34.390  28.956  26.839  1.00  0.00     0.118 C 
BRANCH  30  31
ATOM     31  N   UNL A   1      34.510  30.420  27.004  1.00  0.00    -0.352 N 
ATOM     32  C   UNL A   1      35.387  31.135  27.793  1.00  0.00     0.251 C 
ATOM     33  H   UNL A   1      33.876  30.959  26.478  1.00  0.00     0.163 HD
ATOM     34  O   UNL A   1      35.233  32.314  28.024  1.00  0.00    -0.269 OA
BRANCH  32  35
ATOM     35  C   UNL A   1      36.540  30.393  28.303  1.00  0.00     0.039 A 
ATOM     36  C   UNL A   1      36.529  29.692  29.510  1.00  0.00     0.014 A 
ATOM     37  C   UNL A   1      37.637  30.377  27.460  1.00  0.00     0.014 A 
ATOM     38  C   UNL A   1      37.658  28.953  29.840  1.00  0.00     0.010 A 
ATOM     39  C   UNL A   1      38.526  29.374  27.592  1.00  0.00     0.010 A 
ATOM     40  C   UNL A   1      38.641  28.822  28.862  1.00  0.00    -0.014 A 
BRANCH  40  41
ATOM     41  C   UNL A   1      39.965  28.273  29.037  1.00  0.00     0.031 A 
ATOM     42  C   UNL A   1      40.186  26.877  28.687  1.00  0.00     0.074 A 
ATOM     43  C   UNL A   1      40.902  29.238  29.210  1.00  0.00     0.049 A 
ATOM     44  N   UNL A   1      41.160  26.172  29.125  1.00  0.00    -0.248 NA
ATOM     45  C   UNL A   1      39.279  26.127  27.820  1.00  0.00     0.031 C 
ATOM     46  C   UNL A   1      42.335  29.252  28.991  1.00  0.00     0.029 A 
ATOM     47  N   UNL A   1      40.639  30.541  29.687  1.00  0.00    -0.354 N 
ATOM     48  C   UNL A   1      41.248  25.075  28.296  1.00  0.00     0.074 A 
ATOM     49  C   UNL A   1      39.956  24.984  27.665  1.00  0.00     0.031 C 
ATOM     50  C   UNL A   1      42.856  30.309  29.652  1.00  0.00     0.029 A 
ATOM     51  C   UNL A   1      41.774  30.935  30.402  1.00  0.00     0.049 A 
ATOM     52  H   UNL A   1      39.820  31.068  29.544  1.00  0.00     0.167 HD
ATOM     53  C   UNL A   1      42.489  24.544  28.086  1.00  0.00     0.037 A 
ATOM     54  C   UNL A   1      41.647  30.988  31.762  1.00  0.00     0.037 A 
ATOM     55  C   UNL A   1      43.475  25.334  28.836  1.00  0.00     0.049 A 
ATOM     56  C   UNL A   1      42.436  29.865  32.380  1.00  0.00     0.074 A 
ATOM     57  C   UNL A   1      44.335  26.348  28.444  1.00  0.00     0.029 A 
ATOM     58  N   UNL A   1      43.378  25.413  30.222  1.00  0.00    -0.354 N 
ATOM     59  N   UNL A   1      42.628  28.702  31.814  1.00  0.00    -0.248 NA
ATOM     60  C   UNL A   1      43.181  30.028  33.619  1.00  0.00     0.031 C 
ATOM     61  C   UNL A   1      44.694  27.086  29.606  1.00  0.00     0.029 A 
ATOM     62  C   UNL A   1      44.049  26.525  30.698  1.00  0.00     0.049 A 
ATOM     63  H   UNL A   1      42.898  24.766  30.787  1.00  0.00     0.167 HD
ATOM     64  C   UNL A   1      43.571  28.012  32.525  1.00  0.00     0.074 A 
ATOM     65  C   UNL A   1      43.866  28.874  33.657  1.00  0.00     0.031 C 
ATOM     66  C   UNL A   1      44.092  26.812  32.123  1.00  0.00     0.037 A 
BRANCH  53  67
ATOM     67  C   UNL A   1      42.898  23.563  27.002  1.00  0.00     0.064 A 
ATOM     68  C   UNL A   1      42.585  22.188  27.145  1.00  0.00     0.173 A 
ATOM     69  C   UNL A   1      43.601  23.874  25.822  1.00  0.00     0.173 A 
ATOM     70  F   UNL A   1      41.847  21.742  28.169  1.00  0.00    -0.203 F 
ATOM     71  C   UNL A   1      43.006  21.215  26.236  1.00  0.00     0.198 A 
ATOM     72  C   UNL A   1      44.035  22.896  24.917  1.00  0.00     0.198 A 
ATOM     73  F   UNL A   1      43.864  25.130  25.462  1.00  0.00    -0.203 F 
ATOM     74  F   UNL A   1      42.688  19.929  26.445  1.00  0.00    -0.200 F 
ATOM     75  C   UNL A   1      43.745  21.566  25.127  1.00  0.00     0.200 A 
ATOM     76  F   UNL A   1      44.732  23.261  23.831  1.00  0.00    -0.200 F 
ATOM     77  F   UNL A   1      44.153  20.634  24.257  1.00  0.00    -0.200 F 
ENDBRANCH  53  67
BRANCH  54  78
ATOM     78  C   UNL A   1      40.284  31.477  32.168  1.00  0.00     0.064 A 
ATOM     79  C   UNL A   1      39.423  30.531  32.772  1.00  0.00     0.173 A 
ATOM     80  C   UNL A   1      40.003  32.830  32.409  1.00  0.00     0.173 A 
ATOM     81  F   UNL A   1      39.632  29.218  32.575  1.00  0.00    -0.203 F 
ATOM     82  C   UNL A   1      38.452  30.907  33.700  1.00  0.00     0.198 A 
ATOM     83  C   UNL A   1      38.999  33.206  33.313  1.00  0.00     0.198 A 
ATOM     84  F   UNL A   1      40.766  33.789  31.868  1.00  0.00    -0.203 F 
ATOM     85  F   UNL A   1      37.772  29.968  34.376  1.00  0.00    -0.200 F 
ATOM     86  C   UNL A   1      38.261  32.245  33.991  1.00  0.00     0.200 A 
ATOM     87  F   UNL A   1      38.805  34.503  33.596  1.00  0.00    -0.200 F 
ATOM     88  F   UNL A   1      37.394  32.604  34.950  1.00  0.00    -0.200 F 
ENDBRANCH  54  78
BRANCH  66  89
ATOM     89  C   UNL A   1      44.812  25.842  33.028  1.00  0.00     0.064 A 
ATOM     90  C   UNL A   1      46.192  25.597  32.955  1.00  0.00     0.173 A 
ATOM     91  C   UNL A   1      44.146  25.235  34.123  1.00  0.00     0.173 A 
ATOM     92  F   UNL A   1      46.977  26.242  32.083  1.00  0.00    -0.203 F 
ATOM     93  C   UNL A   1      46.832  24.718  33.828  1.00  0.00     0.198 A 
ATOM     94  C   UNL A   1      44.808  24.432  35.046  1.00  0.00     0.198 A 
ATOM     95  F   UNL A   1      42.841  25.425  34.359  1.00  0.00    -0.203 F 
ATOM     96  F   UNL A   1      48.135  24.456  33.659  1.00  0.00    -0.200 F 
ATOM     97  C   UNL A   1      46.144  24.144  34.878  1.00  0.00     0.200 A 
ATOM     98  F   UNL A   1      44.142  23.955  36.106  1.00  0.00    -0.200 F 
ATOM     99  F   UNL A   1      46.773  23.337  35.740  1.00  0.00    -0.200 F 
ENDBRANCH  66  89
ENDBRANCH  40  41
ENDBRANCH  32  35
ENDBRANCH  30  31
ENDBRANCH  29  30
ENDBRANCH   1  29
TORSDOF 13
ENDMDL
MODEL 2
REMARK VINA RESULT:     -14.5      3.153      9.094
REMARK SMILES Cc1cc(F)ccc1S(=O)(=O)Nc1ccc2oc(C)c(C(=O)NCCCNC(=O)c3ccc(-c4c5nc(c(-c6c(F)c(F)c(F)c(F)c6F)c6ccc([nH]6)c(-c6c(F)c(F)c(F)c(F)c6F)c6nc(c(-c7c(F)c(F)c(F)c(F)c7F)c7ccc4[nH]7)C=C6)C=C5)cc3)c2c1
REMARK SMILES IDX 24 1 23 2 21 3 22 4 20 6 13 7 14 8 94 9 15 10 93 11 16 12
REMARK SMILES IDX 17 13 18 14 19 15 12 16 9 18 10 19 11 20 8 21 1 22 2 23 3 24
REMARK SMILES IDX 4 25 7 26 5 27 6 28 25 29 26 30 27 31 28 32 29 34 30 35
REMARK SMILES IDX 31 36 92 37 32 38 91 39 33 40 34 41 35 42 85 43 36 44 90 45
REMARK SMILES IDX 84 46 86 47 37 48 89 49 83 50 82 51 38 53 70 54 50 55 69 56
REMARK SMILES IDX 51 57 54 58 68 59 87 60 52 61 53 62 67 64 88 65 55 66 39 67
REMARK SMILES IDX 40 68 48 69 41 70 42 71 46 72 49 73 43 74 44 75 47 76 45 77
REMARK SMILES IDX 71 78 72 79 80 80 73 81 74 82 78 83 81 84 75 85 76 86 79 87
REMARK SMILES IDX 77 88 56 89 57 90 65 91 58 92 59 93 63 94 66 95 60 96 61 97
REMARK SMILES IDX 64 98 62 99
REMARK H PARENT 23 5 12 17 27 33 86 52 54 63
REMARK Flexibility Score: inf
ROOT
ATOM      1  C   UNL A   1      35.260  22.916  24.611  1.00  0.00     0.118 C 
ENDROOT
BRANCH   1   2
ATOM      2  N   UNL A   1      34.485  21.728  24.523  1.00  0.00    -0.352 N 
ATOM      3  C   UNL A   1      33.194  21.498  24.871  1.00  0.00     0.255 C 
ATOM      4  O   UNL A   1      32.745  20.428  24.451  1.00  0.00    -0.269 OA
ATOM      5  H   UNL A   1      34.959  20.950  24.150  1.00  0.00     0.163 HD
BRANCH   3   6
ATOM      6  C   UNL A   1      32.410  22.370  25.752  1.00  0.00     0.088 A 
ATOM      7  C   UNL A   1      30.657  25.069  23.762  1.00  0.00     0.050 A 
ATOM      8  C   UNL A   1      29.940  25.627  24.820  1.00  0.00     0.030 A 
ATOM      9  C   UNL A   1      31.266  23.816  23.888  1.00  0.00     0.039 A 
ATOM     10  C   UNL A   1      29.997  25.054  26.096  1.00  0.00     0.050 A 
ATOM     11  C   UNL A   1      31.500  23.340  25.187  1.00  0.00     0.035 A 
ATOM     12  C   UNL A   1      30.876  23.986  26.234  1.00  0.00     0.135 A 
ATOM     13  O   UNL A   1      31.348  23.512  27.402  1.00  0.00    -0.461 OA
ATOM     14  C   UNL A   1      32.385  22.662  27.122  1.00  0.00     0.114 A 
ATOM     15  C   UNL A   1      33.190  22.429  28.348  1.00  0.00     0.088 C 
BRANCH   7  16
ATOM     16  N   UNL A   1      31.013  25.764  22.583  1.00  0.00    -0.280 N 
ATOM     17  H   UNL A   1      30.876  25.287  21.733  1.00  0.00     0.180 HD
BRANCH  16  18
ATOM     18  S   UNL A   1      31.637  27.296  22.482  1.00  0.00     0.262 S 
ATOM     19  O   UNL A   1      30.582  28.163  21.994  1.00  0.00    -0.201 OA
ATOM     20  O   UNL A   1      32.860  27.133  21.719  1.00  0.00    -0.201 OA
BRANCH  18  21
ATOM     21  C   UNL A   1      32.155  27.990  24.059  1.00  0.00     0.090 A 
ATOM     22  C   UNL A   1      33.930  26.291  24.920  1.00  0.00     0.046 C 
ATOM     23  C   UNL A   1      33.020  27.468  25.037  1.00  0.00    -0.028 A 
ATOM     24  C   UNL A   1      33.078  28.117  26.295  1.00  0.00     0.044 A 
ATOM     25  C   UNL A   1      32.409  29.310  26.527  1.00  0.00     0.123 A 
ATOM     26  C   UNL A   1      31.525  29.233  24.309  1.00  0.00     0.025 A 
ATOM     27  F   UNL A   1      32.509  29.904  27.724  1.00  0.00    -0.207 F 
ATOM     28  C   UNL A   1      31.664  29.899  25.526  1.00  0.00     0.040 A 
ENDBRANCH  18  21
ENDBRANCH  16  18
ENDBRANCH   7  16
ENDBRANCH   3   6
ENDBRANCH   1   2
BRANCH   1  29
ATOM     29  C   UNL A   1      35.847  23.157  25.993  1.00  0.00     0.042 C 
BRANCH  29  30
ATOM     30  C   UNL A   1      37.229  23.711  25.788  1.00  0.00     0.118 C 
BRANCH  30  31
ATOM     31  N   UNL A   1      38.252  22.738  26.224  1.00  0.00    -0.352 N 
ATOM     32  C   UNL A   1      39.529  22.973  26.694  1.00  0.00     0.251 C 
ATOM     33  H   UNL A   1      37.987  21.792  26.170  1.00  0.00     0.163 HD
ATOM     34  O   UNL A   1      40.352  22.090  26.794  1.00  0.00    -0.269 OA
BRANCH  32  35
ATOM     35  C   UNL A   1      39.817  24.347  27.104  1.00  0.00     0.039 A 
ATOM     36  C   UNL A   1      40.298  25.323  26.230  1.00  0.00     0.014 A 
ATOM     37  C   UNL A   1      39.510  24.635  28.422  1.00  0.00     0.014 A 
ATOM     38  C   UNL A   1      40.448  26.615  26.720  1.00  0.00     0.010 A 
ATOM     39  C   UNL A   1      39.283  25.919  28.756  1.00  0.00     0.010 A 
ATOM     40  C   UNL A   1      39.937  26.876  27.990  1.00  0.00    -0.014 A 
BRANCH  40  41
ATOM     41  C   UNL A   1      40.143  28.071  28.773  1.00  0.00     0.031 A 
ATOM     42  C   UNL A   1      39.168  29.146  28.661  1.00  0.00     0.074 A 
ATOM     43  C   UNL A   1      41.062  27.891  29.754  1.00  0.00     0.049 A 
ATOM     44  N   UNL A   1      39.400  30.363  28.981  1.00  0.00    -0.248 NA
ATOM     45  C   UNL A   1      37.823  28.941  28.127  1.00  0.00     0.031 C 
ATOM     46  C   UNL A   1      41.291  28.576  31.010  1.00  0.00     0.029 A 
ATOM     47  N   UNL A   1      42.076  26.908  29.738  1.00  0.00    -0.354 N 
ATOM     48  C   UNL A   1      38.171  30.974  29.105  1.00  0.00     0.074 A 
ATOM     49  C   UNL A   1      37.265  30.134  28.364  1.00  0.00     0.031 C 
ATOM     50  C   UNL A   1      42.533  28.268  31.444  1.00  0.00     0.029 A 
ATOM     51  C   UNL A   1      43.170  27.458  30.411  1.00  0.00     0.049 A 
ATOM     52  H   UNL A   1      42.023  26.012  29.333  1.00  0.00     0.167 HD
ATOM     53  C   UNL A   1      38.057  31.979  30.022  1.00  0.00     0.037 A 
ATOM     54  C   UNL A   1      44.242  27.813  29.642  1.00  0.00     0.037 A 
ATOM     55  C   UNL A   1      39.353  32.157  30.692  1.00  0.00     0.049 A 
ATOM     56  C   UNL A   1      44.340  29.315  29.584  1.00  0.00     0.074 A 
ATOM     57  C   UNL A   1      39.830  31.705  31.912  1.00  0.00     0.029 A 
ATOM     58  N   UNL A   1      40.469  32.516  29.942  1.00  0.00    -0.354 N 
ATOM     59  N   UNL A   1      43.311  30.121  29.636  1.00  0.00    -0.248 NA
ATOM     60  C   UNL A   1      45.616  30.012  29.607  1.00  0.00     0.031 C 
ATOM     61  C   UNL A   1      41.251  31.726  31.858  1.00  0.00     0.029 A 
ATOM     62  C   UNL A   1      41.635  32.183  30.606  1.00  0.00     0.049 A 
ATOM     63  H   UNL A   1      40.434  32.949  29.059  1.00  0.00     0.167 HD
ATOM     64  C   UNL A   1      43.760  31.403  29.798  1.00  0.00     0.074 A 
ATOM     65  C   UNL A   1      45.208  31.283  29.749  1.00  0.00     0.031 C 
ATOM     66  C   UNL A   1      42.934  32.471  30.016  1.00  0.00     0.037 A 
BRANCH  53  67
ATOM     67  C   UNL A   1      36.778  32.586  30.568  1.00  0.00     0.064 A 
ATOM     68  C   UNL A   1      36.056  33.522  29.788  1.00  0.00     0.173 A 
ATOM     69  C   UNL A   1      36.207  32.326  31.829  1.00  0.00     0.173 A 
ATOM     70  F   UNL A   1      36.420  33.815  28.533  1.00  0.00    -0.203 F 
ATOM     71  C   UNL A   1      34.921  34.189  30.257  1.00  0.00     0.198 A 
ATOM     72  C   UNL A   1      35.077  33.004  32.305  1.00  0.00     0.198 A 
ATOM     73  F   UNL A   1      36.679  31.380  32.641  1.00  0.00    -0.203 F 
ATOM     74  F   UNL A   1      34.299  35.077  29.468  1.00  0.00    -0.200 F 
ATOM     75  C   UNL A   1      34.439  33.941  31.523  1.00  0.00     0.200 A 
ATOM     76  F   UNL A   1      34.608  32.730  33.532  1.00  0.00    -0.200 F 
ATOM     77  F   UNL A   1      33.355  34.583  31.977  1.00  0.00    -0.200 F 
ENDBRANCH  53  67
BRANCH  54  78
ATOM     78  C   UNL A   1      44.454  26.841  28.514  1.00  0.00     0.064 A 
ATOM     79  C   UNL A   1      44.137  27.298  27.213  1.00  0.00     0.173 A 
ATOM     80  C   UNL A   1      45.336  25.754  28.604  1.00  0.00     0.173 A 
ATOM     81  F   UNL A   1      43.292  28.331  27.056  1.00  0.00    -0.203 F 
ATOM     82  C   UNL A   1      44.797  26.815  26.083  1.00  0.00     0.198 A 
ATOM     83  C   UNL A   1      45.968  25.244  27.460  1.00  0.00     0.198 A 
ATOM     84  F   UNL A   1      45.682  25.257  29.798  1.00  0.00    -0.203 F 
ATOM     85  F   UNL A   1      44.590  27.392  24.889  1.00  0.00    -0.200 F 
ATOM     86  C   UNL A   1      45.734  25.807  26.212  1.00  0.00     0.200 A 
ATOM     87  F   UNL A   1      46.875  24.263  27.578  1.00  0.00    -0.200 F 
ATOM     88  F   UNL A   1      46.436  25.405  25.143  1.00  0.00    -0.200 F 
ENDBRANCH  54  78
BRANCH  66  89
ATOM     89  C   UNL A   1      43.322  33.915  29.811  1.00  0.00     0.064 A 
ATOM     90  C   UNL A   1      43.526  34.818  30.865  1.00  0.00     0.173 A 
ATOM     91  C   UNL A   1      43.663  34.401  28.523  1.00  0.00     0.173 A 
ATOM     92  F   UNL A   1      43.416  34.441  32.146  1.00  0.00    -0.203 F 
ATOM     93  C   UNL A   1      43.916  36.137  30.642  1.00  0.00     0.198 A 
ATOM     94  C   UNL A   1      44.140  35.691  28.315  1.00  0.00     0.198 A 
ATOM     95  F   UNL A   1      43.579  33.636  27.426  1.00  0.00    -0.203 F 
ATOM     96  F   UNL A   1      44.013  36.980  31.679  1.00  0.00    -0.200 F 
ATOM     97  C   UNL A   1      44.233  36.571  29.370  1.00  0.00     0.200 A 
ATOM     98  F   UNL A   1      44.525  36.065  27.087  1.00  0.00    -0.200 F 
ATOM     99  F   UNL A   1      44.651  37.826  29.166  1.00  0.00    -0.200 F 
ENDBRANCH  66  89
ENDBRANCH  40  41
ENDBRANCH  32  35
ENDBRANCH  30  31
ENDBRANCH  29  30
ENDBRANCH   1  29
TORSDOF 13
ENDMDL
MODEL 3
REMARK VINA RESULT:     -14.2      1.536      2.220
REMARK SMILES Cc1cc(F)ccc1S(=O)(=O)Nc1ccc2oc(C)c(C(=O)NCCCNC(=O)c3ccc(-c4c5nc(c(-c6c(F)c(F)c(F)c(F)c6F)c6ccc([nH]6)c(-c6c(F)c(F)c(F)c(F)c6F)c6nc(c(-c7c(F)c(F)c(F)c(F)c7F)c7ccc4[nH]7)C=C6)C=C5)cc3)c2c1
REMARK SMILES IDX 24 1 23 2 21 3 22 4 20 6 13 7 14 8 94 9 15 10 93 11 16 12
REMARK SMILES IDX 17 13 18 14 19 15 12 16 9 18 10 19 11 20 8 21 1 22 2 23 3 24
REMARK SMILES IDX 4 25 7 26 5 27 6 28 25 29 26 30 27 31 28 32 29 34 30 35
REMARK SMILES IDX 31 36 92 37 32 38 91 39 33 40 34 41 35 42 85 43 36 44 90 45
REMARK SMILES IDX 84 46 86 47 37 48 89 49 83 50 82 51 38 53 70 54 50 55 69 56
REMARK SMILES IDX 51 57 54 58 68 59 87 60 52 61 53 62 67 64 88 65 55 66 39 67
REMARK SMILES IDX 40 68 48 69 41 70 42 71 46 72 49 73 43 74 44 75 47 76 45 77
REMARK SMILES IDX 71 78 72 79 80 80 73 81 74 82 78 83 81 84 75 85 76 86 79 87
REMARK SMILES IDX 77 88 56 89 57 90 65 91 58 92 59 93 63 94 66 95 60 96 61 97
REMARK SMILES IDX 64 98 62 99
REMARK H PARENT 23 5 12 17 27 33 86 52 54 63
REMARK Flexibility Score: inf
ROOT
ATOM      1  C   UNL A   1      32.202  29.425  26.069  1.00  0.00     0.118 C 
ENDROOT
BRANCH   1   2
ATOM      2  N   UNL A   1      32.588  28.913  24.801  1.00  0.00    -0.352 N 
ATOM      3  C   UNL A   1      32.198  27.783  24.159  1.00  0.00     0.255 C 
ATOM      4  O   UNL A   1      32.533  27.740  22.972  1.00  0.00    -0.269 OA
ATOM      5  H   UNL A   1      33.240  29.464  24.311  1.00  0.00     0.163 HD
BRANCH   3   6
ATOM      6  C   UNL A   1      31.531  26.651  24.813  1.00  0.00     0.088 A 
ATOM      7  C   UNL A   1      34.070  24.194  26.166  1.00  0.00     0.050 A 
ATOM      8  C   UNL A   1      33.166  23.340  26.798  1.00  0.00     0.030 A 
ATOM      9  C   UNL A   1      33.679  25.468  25.740  1.00  0.00     0.039 A 
ATOM     10  C   UNL A   1      31.800  23.647  26.823  1.00  0.00     0.050 A 
ATOM     11  C   UNL A   1      32.305  25.699  25.576  1.00  0.00     0.035 A 
ATOM     12  C   UNL A   1      31.426  24.776  26.104  1.00  0.00     0.135 A 
ATOM     13  O   UNL A   1      30.174  25.066  25.705  1.00  0.00    -0.461 OA
ATOM     14  C   UNL A   1      30.248  26.089  24.797  1.00  0.00     0.114 A 
ATOM     15  C   UNL A   1      28.977  26.179  24.035  1.00  0.00     0.088 C 
BRANCH   7  16
ATOM     16  N   UNL A   1      35.352  23.806  25.715  1.00  0.00    -0.280 N 
ATOM     17  H   UNL A   1      36.122  24.217  26.170  1.00  0.00     0.180 HD
BRANCH  16  18
ATOM     18  S   UNL A   1      35.697  22.733  24.500  1.00  0.00     0.262 S 
ATOM     19  O   UNL A   1      36.914  22.037  24.868  1.00  0.00    -0.201 OA
ATOM     20  O   UNL A   1      35.651  23.536  23.292  1.00  0.00    -0.201 OA
BRANCH  18  21
ATOM     21  C   UNL A   1      34.452  21.457  24.264  1.00  0.00     0.090 A 
ATOM     22  C   UNL A   1      32.514  22.709  23.057  1.00  0.00     0.046 C 
ATOM     23  C   UNL A   1      33.143  21.550  23.757  1.00  0.00    -0.028 A 
ATOM     24  C   UNL A   1      32.289  20.428  23.894  1.00  0.00     0.044 A 
ATOM     25  C   UNL A   1      32.755  19.218  24.389  1.00  0.00     0.123 A 
ATOM     26  C   UNL A   1      34.911  20.197  24.717  1.00  0.00     0.025 A 
ATOM     27  F   UNL A   1      31.921  18.174  24.480  1.00  0.00    -0.207 F 
ATOM     28  C   UNL A   1      34.076  19.080  24.763  1.00  0.00     0.040 A 
ENDBRANCH  18  21
ENDBRANCH  16  18
ENDBRANCH   7  16
ENDBRANCH   3   6
ENDBRANCH   1   2
BRANCH   1  29
ATOM     29  C   UNL A   1      32.893  28.741  27.237  1.00  0.00     0.042 C 
BRANCH  29  30
ATOM     30  C   UNL A   1      34.356  29.073  27.134  1.00  0.00     0.118 C 
BRANCH  30  31
ATOM     31  N   UNL A   1      34.564  30.535  27.166  1.00  0.00    -0.352 N 
ATOM     32  C   UNL A   1      35.529  31.260  27.836  1.00  0.00     0.251 C 
ATOM     33  H   UNL A   1      33.926  31.066  26.638  1.00  0.00     0.163 HD
ATOM     34  O   UNL A   1      35.454  32.461  27.975  1.00  0.00    -0.269 OA
BRANCH  32  35
ATOM     35  C   UNL A   1      36.673  30.495  28.334  1.00  0.00     0.039 A 
ATOM     36  C   UNL A   1      36.643  29.751  29.514  1.00  0.00     0.014 A 
ATOM     37  C   UNL A   1      37.781  30.505  27.504  1.00  0.00     0.014 A 
ATOM     38  C   UNL A   1      37.765  28.996  29.833  1.00  0.00     0.010 A 
ATOM     39  C   UNL A   1      38.664  29.495  27.612  1.00  0.00     0.010 A 
ATOM     40  C   UNL A   1      38.761  28.896  28.863  1.00  0.00    -0.014 A 
BRANCH  40  41
ATOM     41  C   UNL A   1      40.080  28.337  29.036  1.00  0.00     0.031 A 
ATOM     42  C   UNL A   1      40.289  26.939  28.687  1.00  0.00     0.074 A 
ATOM     43  C   UNL A   1      41.026  29.294  29.205  1.00  0.00     0.049 A 
ATOM     44  N   UNL A   1      41.258  26.226  29.123  1.00  0.00    -0.248 NA
ATOM     45  C   UNL A   1      39.373  26.196  27.823  1.00  0.00     0.031 C 
ATOM     46  C   UNL A   1      42.458  29.296  28.983  1.00  0.00     0.029 A 
ATOM     47  N   UNL A   1      40.776  30.599  29.681  1.00  0.00    -0.354 N 
ATOM     48  C   UNL A   1      41.335  25.127  28.296  1.00  0.00     0.074 A 
ATOM     49  C   UNL A   1      40.041  25.046  27.667  1.00  0.00     0.031 C 
ATOM     50  C   UNL A   1      42.991  30.349  29.641  1.00  0.00     0.029 A 
ATOM     51  C   UNL A   1      41.915  30.986  30.393  1.00  0.00     0.049 A 
ATOM     52  H   UNL A   1      39.961  31.133  29.539  1.00  0.00     0.167 HD
ATOM     53  C   UNL A   1      42.570  24.585  28.083  1.00  0.00     0.037 A 
ATOM     54  C   UNL A   1      41.793  31.041  31.753  1.00  0.00     0.037 A 
ATOM     55  C   UNL A   1      43.565  25.368  28.830  1.00  0.00     0.049 A 
ATOM     56  C   UNL A   1      42.573  29.912  32.371  1.00  0.00     0.074 A 
ATOM     57  C   UNL A   1      44.432  26.374  28.435  1.00  0.00     0.029 A 
ATOM     58  N   UNL A   1      43.472  25.450  30.216  1.00  0.00    -0.354 N 
ATOM     59  N   UNL A   1      42.754  28.746  31.805  1.00  0.00    -0.248 NA
ATOM     60  C   UNL A   1      43.323  30.070  33.607  1.00  0.00     0.031 C 
ATOM     61  C   UNL A   1      44.801  27.110  29.595  1.00  0.00     0.029 A 
ATOM     62  C   UNL A   1      44.153  26.556  30.689  1.00  0.00     0.049 A 
ATOM     63  H   UNL A   1      42.988  24.807  30.783  1.00  0.00     0.167 HD
ATOM     64  C   UNL A   1      43.693  28.049  32.515  1.00  0.00     0.074 A 
ATOM     65  C   UNL A   1      43.998  28.911  33.645  1.00  0.00     0.031 C 
ATOM     66  C   UNL A   1      44.202  26.845  32.114  1.00  0.00     0.037 A 
BRANCH  53  67
ATOM     67  C   UNL A   1      42.968  23.599  27.000  1.00  0.00     0.064 A 
ATOM     68  C   UNL A   1      42.692  22.220  27.169  1.00  0.00     0.173 A 
ATOM     69  C   UNL A   1      43.627  23.910  25.794  1.00  0.00     0.173 A 
ATOM     70  F   UNL A   1      41.996  21.771  28.222  1.00  0.00    -0.203 F 
ATOM     71  C   UNL A   1      43.107  21.244  26.260  1.00  0.00     0.198 A 
ATOM     72  C   UNL A   1      44.055  22.931  24.889  1.00  0.00     0.198 A 
ATOM     73  F   UNL A   1      43.851  25.167  25.410  1.00  0.00    -0.203 F 
ATOM     74  F   UNL A   1      42.825  19.955  26.495  1.00  0.00    -0.200 F 
ATOM     75  C   UNL A   1      43.803  21.597  25.124  1.00  0.00     0.200 A 
ATOM     76  F   UNL A   1      44.710  23.297  23.777  1.00  0.00    -0.200 F 
ATOM     77  F   UNL A   1      44.206  20.663  24.254  1.00  0.00    -0.200 F 
ENDBRANCH  53  67
BRANCH  54  78
ATOM     78  C   UNL A   1      40.434  31.542  32.162  1.00  0.00     0.064 A 
ATOM     79  C   UNL A   1      39.556  30.596  32.740  1.00  0.00     0.173 A 
ATOM     80  C   UNL A   1      40.173  32.894  32.430  1.00  0.00     0.173 A 
ATOM     81  F   UNL A   1      39.746  29.285  32.517  1.00  0.00    -0.203 F 
ATOM     82  C   UNL A   1      38.585  30.968  33.671  1.00  0.00     0.198 A 
ATOM     83  C   UNL A   1      39.169  33.266  33.336  1.00  0.00     0.198 A 
ATOM     84  F   UNL A   1      40.953  33.852  31.914  1.00  0.00    -0.203 F 
ATOM     85  F   UNL A   1      37.887  30.025  34.323  1.00  0.00    -0.200 F 
ATOM     86  C   UNL A   1      38.412  32.302  33.989  1.00  0.00     0.200 A 
ATOM     87  F   UNL A   1      38.994  34.559  33.646  1.00  0.00    -0.200 F 
ATOM     88  F   UNL A   1      37.546  32.653  34.951  1.00  0.00    -0.200 F 
ENDBRANCH  54  78
BRANCH  66  89
ATOM     89  C   UNL A   1      44.916  25.870  33.018  1.00  0.00     0.064 A 
ATOM     90  C   UNL A   1      46.299  25.638  32.965  1.00  0.00     0.173 A 
ATOM     91  C   UNL A   1      44.238  25.242  34.094  1.00  0.00     0.173 A 
ATOM     92  F   UNL A   1      47.093  26.302  32.115  1.00  0.00    -0.203 F 
ATOM     93  C   UNL A   1      46.934  24.754  33.837  1.00  0.00     0.198 A 
ATOM     94  C   UNL A   1      44.891  24.433  35.017  1.00  0.00     0.198 A 
ATOM     95  F   UNL A   1      42.927  25.417  34.310  1.00  0.00    -0.203 F 
ATOM     96  F   UNL A   1      48.242  24.506  33.687  1.00  0.00    -0.200 F 
ATOM     97  C   UNL A   1      46.233  24.160  34.868  1.00  0.00     0.200 A 
ATOM     98  F   UNL A   1      44.213  23.936  36.060  1.00  0.00    -0.200 F 
ATOM     99  F   UNL A   1      46.855  23.348  35.730  1.00  0.00    -0.200 F 
ENDBRANCH  66  89
ENDBRANCH  40  41
ENDBRANCH  32  35
ENDBRANCH  30  31
ENDBRANCH  29  30
ENDBRANCH   1  29
TORSDOF 13
ENDMDL
