MODEL 1
REMARK VINA RESULT:     -12.4      0.000      0.000
REMARK SMILES O=C(CCCNC(=O)[C@@H]1CCCN(S(=O)(=O)c2ccc(F)cc2)C1)NCCCNC(=O)c1ccc(-c2c3nc(c(-c4c(F)c(F)c(F)c(F)c4F)c4ccc([nH]4)c(-c4c(F)c(F)c(F)c(F)c4F)c4nc(c(-c5c(F)c(F)c(F)c(F)c5F)c5ccc2[nH]5)C=C4)C=C3)cc1
REMARK SMILES IDX 1 1 2 2 25 3 3 5 4 6 5 7 6 8 7 9 8 11 9 12 10 13 24 14 11 15
REMARK SMILES IDX 13 16 12 17 14 18 15 19 16 20 17 21 18 22 23 23 19 24 22 25
REMARK SMILES IDX 20 26 21 27 26 28 27 29 28 30 29 31 30 32 31 34 32 35 33 36
REMARK SMILES IDX 94 37 34 38 93 39 35 40 36 41 37 42 87 43 38 44 92 45 86 46
REMARK SMILES IDX 88 47 39 48 91 49 85 50 84 51 40 53 72 54 52 55 71 56 53 57
REMARK SMILES IDX 56 58 70 59 89 60 54 61 55 62 69 64 90 65 57 66 41 67 42 68
REMARK SMILES IDX 50 69 43 70 44 71 48 72 51 73 45 74 46 75 49 76 47 77 73 78
REMARK SMILES IDX 74 79 82 80 75 81 76 82 80 83 83 84 77 85 78 86 81 87 79 88
REMARK SMILES IDX 58 89 59 90 67 91 60 92 61 93 65 94 68 95 62 96 63 97 66 98
REMARK SMILES IDX 64 99
REMARK H PARENT 25 4 6 10 29 33 88 52 56 63
REMARK Flexibility Score: inf
ROOT
ATOM      1  O   UNL A   1      36.976  23.612  25.180  1.00  0.00    -0.275 OA
ATOM      2  C   UNL A   1      36.252  22.765  25.688  1.00  0.00     0.220 C 
ATOM      3  N   UNL A   1      36.336  21.418  25.415  1.00  0.00    -0.356 N 
ATOM      4  H   UNL A   1      35.742  20.799  25.897  1.00  0.00     0.163 HD
ENDROOT
BRANCH   2   5
ATOM      5  C   UNL A   1      35.146  23.128  26.657  1.00  0.00     0.102 C 
BRANCH   5   6
ATOM      6  C   UNL A   1      34.348  21.904  27.114  1.00  0.00     0.031 C 
BRANCH   6   7
ATOM      7  C   UNL A   1      32.856  22.141  27.356  1.00  0.00     0.116 C 
BRANCH   7   8
ATOM      8  N   UNL A   1      32.439  23.473  26.954  1.00  0.00    -0.356 N 
ATOM      9  C   UNL A   1      31.719  24.001  25.947  1.00  0.00     0.224 C 
ATOM     10  H   UNL A   1      32.766  24.164  27.574  1.00  0.00     0.163 HD
ATOM     11  O   UNL A   1      31.342  25.162  26.168  1.00  0.00    -0.275 OA
BRANCH   9  12
ATOM     12  C   UNL A   1      31.330  23.340  24.628  1.00  0.00     0.093 C 
ATOM     13  C   UNL A   1      32.036  22.103  24.085  1.00  0.00     0.016 C 
ATOM     14  C   UNL A   1      31.288  24.436  23.548  1.00  0.00     0.116 C 
ATOM     15  C   UNL A   1      33.383  22.423  23.445  1.00  0.00     0.018 C 
ATOM     16  N   UNL A   1      32.671  24.742  23.030  1.00  0.00    -0.197 NA
ATOM     17  C   UNL A   1      33.269  23.531  22.404  1.00  0.00     0.102 C 
BRANCH  16  18
ATOM     18  S   UNL A   1      32.651  26.143  22.020  1.00  0.00     0.243 S 
ATOM     19  O   UNL A   1      34.024  26.412  21.633  1.00  0.00    -0.207 OA
ATOM     20  O   UNL A   1      31.623  25.957  21.023  1.00  0.00    -0.207 OA
BRANCH  18  21
ATOM     21  C   UNL A   1      32.123  27.467  23.090  1.00  0.00     0.082 A 
ATOM     22  C   UNL A   1      33.036  28.031  23.991  1.00  0.00     0.025 A 
ATOM     23  C   UNL A   1      30.847  28.022  22.934  1.00  0.00     0.025 A 
ATOM     24  C   UNL A   1      32.651  29.116  24.779  1.00  0.00     0.040 A 
ATOM     25  C   UNL A   1      30.477  29.125  23.709  1.00  0.00     0.040 A 
ATOM     26  C   UNL A   1      31.378  29.654  24.628  1.00  0.00     0.123 A 
ATOM     27  F   UNL A   1      31.021  30.710  25.371  1.00  0.00    -0.207 F 
ENDBRANCH  18  21
ENDBRANCH  16  18
ENDBRANCH   9  12
ENDBRANCH   7   8
ENDBRANCH   6   7
ENDBRANCH   5   6
ENDBRANCH   2   5
BRANCH   3  28
ATOM     28  C   UNL A   1      37.267  20.877  24.444  1.00  0.00     0.117 C 
BRANCH  28  29
ATOM     29  C   UNL A   1      38.071  19.707  25.000  1.00  0.00     0.042 C 
BRANCH  29  30
ATOM     30  C   UNL A   1      39.263  20.091  25.875  1.00  0.00     0.118 C 
BRANCH  30  31
ATOM     31  N   UNL A   1      40.304  19.078  25.922  1.00  0.00    -0.352 N 
ATOM     32  C   UNL A   1      41.657  19.210  26.123  1.00  0.00     0.251 C 
ATOM     33  H   UNL A   1      39.991  18.153  25.788  1.00  0.00     0.163 HD
ATOM     34  O   UNL A   1      42.382  18.224  26.020  1.00  0.00    -0.269 OA
BRANCH  32  35
ATOM     35  C   UNL A   1      42.257  20.532  26.417  1.00  0.00     0.039 A 
ATOM     36  C   UNL A   1      42.764  21.283  25.351  1.00  0.00     0.014 A 
ATOM     37  C   UNL A   1      42.340  21.035  27.719  1.00  0.00     0.014 A 
ATOM     38  C   UNL A   1      43.278  22.563  25.580  1.00  0.00     0.010 A 
ATOM     39  C   UNL A   1      42.791  22.338  27.937  1.00  0.00     0.010 A 
ATOM     40  C   UNL A   1      43.255  23.119  26.869  1.00  0.00    -0.014 A 
BRANCH  40  41
ATOM     41  C   UNL A   1      43.676  24.527  27.096  1.00  0.00     0.031 A 
ATOM     42  C   UNL A   1      42.702  25.554  27.603  1.00  0.00     0.074 A 
ATOM     43  C   UNL A   1      44.939  24.896  26.800  1.00  0.00     0.049 A 
ATOM     44  N   UNL A   1      42.892  26.830  27.832  1.00  0.00    -0.248 NA
ATOM     45  C   UNL A   1      41.332  25.093  27.872  1.00  0.00     0.031 C 
ATOM     46  C   UNL A   1      45.969  24.010  26.256  1.00  0.00     0.029 A 
ATOM     47  N   UNL A   1      45.571  26.110  26.911  1.00  0.00    -0.354 N 
ATOM     48  C   UNL A   1      41.668  27.324  28.264  1.00  0.00     0.074 A 
ATOM     49  C   UNL A   1      40.730  26.223  28.220  1.00  0.00     0.031 C 
ATOM     50  C   UNL A   1      47.111  24.699  26.113  1.00  0.00     0.029 A 
ATOM     51  C   UNL A   1      46.887  26.083  26.520  1.00  0.00     0.049 A 
ATOM     52  H   UNL A   1      45.123  26.922  27.242  1.00  0.00     0.167 HD
ATOM     53  C   UNL A   1      41.362  28.576  28.680  1.00  0.00     0.037 A 
ATOM     54  C   UNL A   1      47.813  27.062  26.492  1.00  0.00     0.037 A 
ATOM     55  C   UNL A   1      42.298  29.667  28.745  1.00  0.00     0.049 A 
ATOM     56  C   UNL A   1      47.445  28.444  26.955  1.00  0.00     0.074 A 
ATOM     57  C   UNL A   1      42.089  30.955  29.211  1.00  0.00     0.029 A 
ATOM     58  N   UNL A   1      43.621  29.603  28.334  1.00  0.00    -0.354 N 
ATOM     59  N   UNL A   1      46.299  28.882  27.413  1.00  0.00    -0.248 NA
ATOM     60  C   UNL A   1      48.500  29.465  26.897  1.00  0.00     0.031 C 
ATOM     61  C   UNL A   1      43.272  31.680  29.041  1.00  0.00     0.029 A 
ATOM     62  C   UNL A   1      44.233  30.833  28.514  1.00  0.00     0.049 A 
ATOM     63  H   UNL A   1      44.061  28.801  27.968  1.00  0.00     0.167 HD
ATOM     64  C   UNL A   1      46.496  30.223  27.712  1.00  0.00     0.074 A 
ATOM     65  C   UNL A   1      47.879  30.522  27.403  1.00  0.00     0.031 C 
ATOM     66  C   UNL A   1      45.607  31.124  28.196  1.00  0.00     0.037 A 
BRANCH  53  67
ATOM     67  C   UNL A   1      39.950  28.840  29.117  1.00  0.00     0.064 A 
ATOM     68  C   UNL A   1      39.556  28.602  30.442  1.00  0.00     0.173 A 
ATOM     69  C   UNL A   1      38.969  29.254  28.204  1.00  0.00     0.173 A 
ATOM     70  F   UNL A   1      40.455  28.196  31.352  1.00  0.00    -0.203 F 
ATOM     71  C   UNL A   1      38.230  28.759  30.834  1.00  0.00     0.198 A 
ATOM     72  C   UNL A   1      37.648  29.436  28.606  1.00  0.00     0.198 A 
ATOM     73  F   UNL A   1      39.296  29.502  26.927  1.00  0.00    -0.203 F 
ATOM     74  F   UNL A   1      37.870  28.496  32.099  1.00  0.00    -0.200 F 
ATOM     75  C   UNL A   1      37.278  29.179  29.918  1.00  0.00     0.200 A 
ATOM     76  F   UNL A   1      36.734  29.861  27.723  1.00  0.00    -0.200 F 
ATOM     77  F   UNL A   1      36.002  29.337  30.299  1.00  0.00    -0.200 F 
ENDBRANCH  53  67
BRANCH  54  78
ATOM     78  C   UNL A   1      49.193  26.752  26.037  1.00  0.00     0.064 A 
ATOM     79  C   UNL A   1      50.164  26.266  26.923  1.00  0.00     0.173 A 
ATOM     80  C   UNL A   1      49.572  26.966  24.704  1.00  0.00     0.173 A 
ATOM     81  F   UNL A   1      49.851  26.049  28.209  1.00  0.00    -0.203 F 
ATOM     82  C   UNL A   1      51.468  26.022  26.498  1.00  0.00     0.198 A 
ATOM     83  C   UNL A   1      50.869  26.698  24.274  1.00  0.00     0.198 A 
ATOM     84  F   UNL A   1      48.670  27.409  23.816  1.00  0.00    -0.203 F 
ATOM     85  F   UNL A   1      52.386  25.588  27.372  1.00  0.00    -0.200 F 
ATOM     86  C   UNL A   1      51.818  26.235  25.173  1.00  0.00     0.200 A 
ATOM     87  F   UNL A   1      51.197  26.882  22.988  1.00  0.00    -0.200 F 
ATOM     88  F   UNL A   1      53.070  25.990  24.761  1.00  0.00    -0.200 F 
ENDBRANCH  54  78
BRANCH  66  89
ATOM     89  C   UNL A   1      46.098  32.523  28.428  1.00  0.00     0.064 A 
ATOM     90  C   UNL A   1      46.031  33.483  27.407  1.00  0.00     0.173 A 
ATOM     91  C   UNL A   1      46.686  32.898  29.645  1.00  0.00     0.173 A 
ATOM     92  F   UNL A   1      45.484  33.172  26.222  1.00  0.00    -0.203 F 
ATOM     93  C   UNL A   1      46.544  34.764  27.592  1.00  0.00     0.198 A 
ATOM     94  C   UNL A   1      47.174  34.189  29.836  1.00  0.00     0.198 A 
ATOM     95  F   UNL A   1      46.762  32.021  30.657  1.00  0.00    -0.203 F 
ATOM     96  F   UNL A   1      46.493  35.655  26.593  1.00  0.00    -0.200 F 
ATOM     97  C   UNL A   1      47.110  35.117  28.808  1.00  0.00     0.200 A 
ATOM     98  F   UNL A   1      47.698  34.537  31.019  1.00  0.00    -0.200 F 
ATOM     99  F   UNL A   1      47.589  36.356  28.990  1.00  0.00    -0.200 F 
ENDBRANCH  66  89
ENDBRANCH  40  41
ENDBRANCH  32  35
ENDBRANCH  30  31
ENDBRANCH  29  30
ENDBRANCH  28  29
ENDBRANCH   3  28
TORSDOF 16
ENDMDL
MODEL 2
REMARK VINA RESULT:     -12.4      1.165      1.803
REMARK SMILES O=C(CCCNC(=O)[C@@H]1CCCN(S(=O)(=O)c2ccc(F)cc2)C1)NCCCNC(=O)c1ccc(-c2c3nc(c(-c4c(F)c(F)c(F)c(F)c4F)c4ccc([nH]4)c(-c4c(F)c(F)c(F)c(F)c4F)c4nc(c(-c5c(F)c(F)c(F)c(F)c5F)c5ccc2[nH]5)C=C4)C=C3)cc1
REMARK SMILES IDX 1 1 2 2 25 3 3 5 4 6 5 7 6 8 7 9 8 11 9 12 10 13 24 14 11 15
REMARK SMILES IDX 13 16 12 17 14 18 15 19 16 20 17 21 18 22 23 23 19 24 22 25
REMARK SMILES IDX 20 26 21 27 26 28 27 29 28 30 29 31 30 32 31 34 32 35 33 36
REMARK SMILES IDX 94 37 34 38 93 39 35 40 36 41 37 42 87 43 38 44 92 45 86 46
REMARK SMILES IDX 88 47 39 48 91 49 85 50 84 51 40 53 72 54 52 55 71 56 53 57
REMARK SMILES IDX 56 58 70 59 89 60 54 61 55 62 69 64 90 65 57 66 41 67 42 68
REMARK SMILES IDX 50 69 43 70 44 71 48 72 51 73 45 74 46 75 49 76 47 77 73 78
REMARK SMILES IDX 74 79 82 80 75 81 76 82 80 83 83 84 77 85 78 86 81 87 79 88
REMARK SMILES IDX 58 89 59 90 67 91 60 92 61 93 65 94 68 95 62 96 63 97 66 98
REMARK SMILES IDX 64 99
REMARK H PARENT 25 4 6 10 29 33 88 52 56 63
REMARK Flexibility Score: inf
ROOT
ATOM      1  O   UNL A   1      37.340  23.681  25.714  1.00  0.00    -0.275 OA
ATOM      2  C   UNL A   1      36.348  22.964  25.751  1.00  0.00     0.220 C 
ATOM      3  N   UNL A   1      36.273  21.725  25.154  1.00  0.00    -0.356 N 
ATOM      4  H   UNL A   1      35.450  21.196  25.264  1.00  0.00     0.163 HD
ENDROOT
BRANCH   2   5
ATOM      5  C   UNL A   1      35.068  23.395  26.435  1.00  0.00     0.102 C 
BRANCH   5   6
ATOM      6  C   UNL A   1      34.349  22.228  27.115  1.00  0.00     0.031 C 
BRANCH   6   7
ATOM      7  C   UNL A   1      32.868  22.069  26.764  1.00  0.00     0.116 C 
BRANCH   7   8
ATOM      8  N   UNL A   1      32.165  23.339  26.761  1.00  0.00    -0.356 N 
ATOM      9  C   UNL A   1      31.318  23.976  25.931  1.00  0.00     0.224 C 
ATOM     10  H   UNL A   1      32.355  23.867  27.569  1.00  0.00     0.163 HD
ATOM     11  O   UNL A   1      30.709  24.911  26.473  1.00  0.00    -0.275 OA
BRANCH   9  12
ATOM     12  C   UNL A   1      31.040  23.671  24.462  1.00  0.00     0.093 C 
ATOM     13  C   UNL A   1      31.798  22.602  23.684  1.00  0.00     0.016 C 
ATOM     14  C   UNL A   1      31.073  25.003  23.691  1.00  0.00     0.116 C 
ATOM     15  C   UNL A   1      33.188  23.057  23.251  1.00  0.00     0.018 C 
ATOM     16  N   UNL A   1      32.489  25.414  23.376  1.00  0.00    -0.197 NA
ATOM     17  C   UNL A   1      33.145  24.391  22.516  1.00  0.00     0.102 C 
BRANCH  16  18
ATOM     18  S   UNL A   1      32.534  27.024  22.750  1.00  0.00     0.243 S 
ATOM     19  O   UNL A   1      33.729  27.131  21.932  1.00  0.00    -0.207 OA
ATOM     20  O   UNL A   1      31.232  27.324  22.203  1.00  0.00    -0.207 OA
BRANCH  18  21
ATOM     21  C   UNL A   1      32.765  28.061  24.181  1.00  0.00     0.082 A 
ATOM     22  C   UNL A   1      31.884  29.127  24.409  1.00  0.00     0.025 A 
ATOM     23  C   UNL A   1      33.736  27.728  25.133  1.00  0.00     0.025 A 
ATOM     24  C   UNL A   1      32.013  29.896  25.565  1.00  0.00     0.040 A 
ATOM     25  C   UNL A   1      33.844  28.489  26.300  1.00  0.00     0.040 A 
ATOM     26  C   UNL A   1      32.989  29.569  26.500  1.00  0.00     0.123 A 
ATOM     27  F   UNL A   1      33.095  30.297  27.619  1.00  0.00    -0.207 F 
ENDBRANCH  18  21
ENDBRANCH  16  18
ENDBRANCH   9  12
ENDBRANCH   7   8
ENDBRANCH   6   7
ENDBRANCH   5   6
ENDBRANCH   2   5
BRANCH   3  28
ATOM     28  C   UNL A   1      37.359  21.171  24.371  1.00  0.00     0.117 C 
BRANCH  28  29
ATOM     29  C   UNL A   1      37.947  19.914  25.001  1.00  0.00     0.042 C 
BRANCH  29  30
ATOM     30  C   UNL A   1      39.094  20.151  25.983  1.00  0.00     0.118 C 
BRANCH  30  31
ATOM     31  N   UNL A   1      40.158  19.165  25.889  1.00  0.00    -0.352 N 
ATOM     32  C   UNL A   1      41.512  19.306  26.076  1.00  0.00     0.251 C 
ATOM     33  H   UNL A   1      39.862  18.255  25.652  1.00  0.00     0.163 HD
ATOM     34  O   UNL A   1      42.256  18.358  25.843  1.00  0.00    -0.269 OA
BRANCH  32  35
ATOM     35  C   UNL A   1      42.089  20.599  26.513  1.00  0.00     0.039 A 
ATOM     36  C   UNL A   1      42.545  21.486  25.533  1.00  0.00     0.014 A 
ATOM     37  C   UNL A   1      42.199  20.943  27.864  1.00  0.00     0.014 A 
ATOM     38  C   UNL A   1      43.036  22.742  25.902  1.00  0.00     0.010 A 
ATOM     39  C   UNL A   1      42.625  22.221  28.226  1.00  0.00     0.010 A 
ATOM     40  C   UNL A   1      43.039  23.138  27.249  1.00  0.00    -0.014 A 
BRANCH  40  41
ATOM     41  C   UNL A   1      43.434  24.519  27.634  1.00  0.00     0.031 A 
ATOM     42  C   UNL A   1      42.396  25.557  27.960  1.00  0.00     0.074 A 
ATOM     43  C   UNL A   1      44.739  24.855  27.646  1.00  0.00     0.049 A 
ATOM     44  N   UNL A   1      42.562  26.815  28.289  1.00  0.00    -0.248 NA
ATOM     45  C   UNL A   1      40.990  25.135  27.893  1.00  0.00     0.031 C 
ATOM     46  C   UNL A   1      45.843  23.958  27.303  1.00  0.00     0.029 A 
ATOM     47  N   UNL A   1      45.360  26.040  27.956  1.00  0.00    -0.354 N 
ATOM     48  C   UNL A   1      41.285  27.333  28.460  1.00  0.00     0.074 A 
ATOM     49  C   UNL A   1      40.353  26.269  28.154  1.00  0.00     0.031 C 
ATOM     50  C   UNL A   1      47.005  24.611  27.453  1.00  0.00     0.029 A 
ATOM     51  C   UNL A   1      46.730  25.983  27.868  1.00  0.00     0.049 A 
ATOM     52  H   UNL A   1      44.870  26.853  28.218  1.00  0.00     0.167 HD
ATOM     53  C   UNL A   1      40.924  28.576  28.859  1.00  0.00     0.037 A 
ATOM     54  C   UNL A   1      47.662  26.929  28.096  1.00  0.00     0.037 A 
ATOM     55  C   UNL A   1      41.849  29.630  29.186  1.00  0.00     0.049 A 
ATOM     56  C   UNL A   1      47.235  28.302  28.533  1.00  0.00     0.074 A 
ATOM     57  C   UNL A   1      41.573  30.903  29.657  1.00  0.00     0.029 A 
ATOM     58  N   UNL A   1      43.228  29.536  29.078  1.00  0.00    -0.354 N 
ATOM     59  N   UNL A   1      46.026  28.761  28.745  1.00  0.00    -0.248 NA
ATOM     60  C   UNL A   1      48.301  29.287  28.764  1.00  0.00     0.031 C 
ATOM     61  C   UNL A   1      42.781  31.593  29.792  1.00  0.00     0.029 A 
ATOM     62  C   UNL A   1      43.815  30.736  29.452  1.00  0.00     0.049 A 
ATOM     63  H   UNL A   1      43.719  28.736  28.781  1.00  0.00     0.167 HD
ATOM     64  C   UNL A   1      46.184  30.080  29.146  1.00  0.00     0.074 A 
ATOM     65  C   UNL A   1      47.608  30.343  29.170  1.00  0.00     0.031 C 
ATOM     66  C   UNL A   1      45.232  30.990  29.463  1.00  0.00     0.037 A 
BRANCH  53  67
ATOM     67  C   UNL A   1      39.458  28.872  28.982  1.00  0.00     0.064 A 
ATOM     68  C   UNL A   1      38.725  29.329  27.876  1.00  0.00     0.173 A 
ATOM     69  C   UNL A   1      38.795  28.777  30.215  1.00  0.00     0.173 A 
ATOM     70  F   UNL A   1      39.315  29.445  26.676  1.00  0.00    -0.203 F 
ATOM     71  C   UNL A   1      37.387  29.690  28.003  1.00  0.00     0.198 A 
ATOM     72  C   UNL A   1      37.449  29.114  30.332  1.00  0.00     0.198 A 
ATOM     73  F   UNL A   1      39.449  28.339  31.301  1.00  0.00    -0.203 F 
ATOM     74  F   UNL A   1      36.715  30.153  26.939  1.00  0.00    -0.200 F 
ATOM     75  C   UNL A   1      36.749  29.579  29.229  1.00  0.00     0.200 A 
ATOM     76  F   UNL A   1      36.829  28.987  31.513  1.00  0.00    -0.200 F 
ATOM     77  F   UNL A   1      35.458  29.920  29.348  1.00  0.00    -0.200 F 
ENDBRANCH  53  67
BRANCH  54  78
ATOM     78  C   UNL A   1      49.101  26.590  27.946  1.00  0.00     0.064 A 
ATOM     79  C   UNL A   1      49.908  26.317  29.059  1.00  0.00     0.173 A 
ATOM     80  C   UNL A   1      49.701  26.561  26.680  1.00  0.00     0.173 A 
ATOM     81  F   UNL A   1      49.381  26.337  30.292  1.00  0.00    -0.203 F 
ATOM     82  C   UNL A   1      51.267  26.046  28.912  1.00  0.00     0.198 A 
ATOM     83  C   UNL A   1      51.054  26.264  26.532  1.00  0.00     0.198 A 
ATOM     84  F   UNL A   1      48.963  26.794  25.585  1.00  0.00    -0.203 F 
ATOM     85  F   UNL A   1      52.024  25.820  29.994  1.00  0.00    -0.200 F 
ATOM     86  C   UNL A   1      51.837  26.016  27.649  1.00  0.00     0.200 A 
ATOM     87  F   UNL A   1      51.596  26.214  25.307  1.00  0.00    -0.200 F 
ATOM     88  F   UNL A   1      53.142  25.744  27.506  1.00  0.00    -0.200 F 
ENDBRANCH  54  78
BRANCH  66  89
ATOM     89  C   UNL A   1      45.693  32.360  29.869  1.00  0.00     0.064 A 
ATOM     90  C   UNL A   1      45.856  33.371  28.910  1.00  0.00     0.173 A 
ATOM     91  C   UNL A   1      46.027  32.655  31.198  1.00  0.00     0.173 A 
ATOM     92  F   UNL A   1      45.557  33.139  27.624  1.00  0.00    -0.203 F 
ATOM     93  C   UNL A   1      46.346  34.625  29.267  1.00  0.00     0.198 A 
ATOM     94  C   UNL A   1      46.491  33.918  31.557  1.00  0.00     0.198 A 
ATOM     95  F   UNL A   1      45.875  31.725  32.154  1.00  0.00    -0.203 F 
ATOM     96  F   UNL A   1      46.519  35.567  28.330  1.00  0.00    -0.200 F 
ATOM     97  C   UNL A   1      46.658  34.899  30.591  1.00  0.00     0.200 A 
ATOM     98  F   UNL A   1      46.768  34.189  32.840  1.00  0.00    -0.200 F 
ATOM     99  F   UNL A   1      47.115  36.111  30.936  1.00  0.00    -0.200 F 
ENDBRANCH  66  89
ENDBRANCH  40  41
ENDBRANCH  32  35
ENDBRANCH  30  31
ENDBRANCH  29  30
ENDBRANCH  28  29
ENDBRANCH   3  28
TORSDOF 16
ENDMDL
MODEL 3
REMARK VINA RESULT:     -12.4      1.215      7.181
REMARK SMILES O=C(CCCNC(=O)[C@@H]1CCCN(S(=O)(=O)c2ccc(F)cc2)C1)NCCCNC(=O)c1ccc(-c2c3nc(c(-c4c(F)c(F)c(F)c(F)c4F)c4ccc([nH]4)c(-c4c(F)c(F)c(F)c(F)c4F)c4nc(c(-c5c(F)c(F)c(F)c(F)c5F)c5ccc2[nH]5)C=C4)C=C3)cc1
REMARK SMILES IDX 1 1 2 2 25 3 3 5 4 6 5 7 6 8 7 9 8 11 9 12 10 13 24 14 11 15
REMARK SMILES IDX 13 16 12 17 14 18 15 19 16 20 17 21 18 22 23 23 19 24 22 25
REMARK SMILES IDX 20 26 21 27 26 28 27 29 28 30 29 31 30 32 31 34 32 35 33 36
REMARK SMILES IDX 94 37 34 38 93 39 35 40 36 41 37 42 87 43 38 44 92 45 86 46
REMARK SMILES IDX 88 47 39 48 91 49 85 50 84 51 40 53 72 54 52 55 71 56 53 57
REMARK SMILES IDX 56 58 70 59 89 60 54 61 55 62 69 64 90 65 57 66 41 67 42 68
REMARK SMILES IDX 50 69 43 70 44 71 48 72 51 73 45 74 46 75 49 76 47 77 73 78
REMARK SMILES IDX 74 79 82 80 75 81 76 82 80 83 83 84 77 85 78 86 81 87 79 88
REMARK SMILES IDX 58 89 59 90 67 91 60 92 61 93 65 94 68 95 62 96 63 97 66 98
REMARK SMILES IDX 64 99
REMARK H PARENT 25 4 6 10 29 33 88 52 56 63
REMARK Flexibility Score: inf
ROOT
ATOM      1  O   UNL A   1      37.300  23.789  25.724  1.00  0.00    -0.275 OA
ATOM      2  C   UNL A   1      36.334  23.037  25.778  1.00  0.00     0.220 C 
ATOM      3  N   UNL A   1      36.293  21.796  25.183  1.00  0.00    -0.356 N 
ATOM      4  H   UNL A   1      35.492  21.238  25.307  1.00  0.00     0.163 HD
ENDROOT
BRANCH   2   5
ATOM      5  C   UNL A   1      35.051  23.423  26.484  1.00  0.00     0.102 C 
BRANCH   5   6
ATOM      6  C   UNL A   1      34.396  22.235  27.192  1.00  0.00     0.031 C 
BRANCH   6   7
ATOM      7  C   UNL A   1      32.917  22.009  26.871  1.00  0.00     0.116 C 
BRANCH   7   8
ATOM      8  N   UNL A   1      32.166  23.251  26.839  1.00  0.00    -0.356 N 
ATOM      9  C   UNL A   1      31.311  23.845  25.986  1.00  0.00     0.224 C 
ATOM     10  H   UNL A   1      32.320  23.795  27.645  1.00  0.00     0.163 HD
ATOM     11  O   UNL A   1      30.656  24.761  26.505  1.00  0.00    -0.275 OA
BRANCH   9  12
ATOM     12  C   UNL A   1      31.073  23.512  24.516  1.00  0.00     0.093 C 
ATOM     13  C   UNL A   1      31.861  22.438  23.776  1.00  0.00     0.016 C 
ATOM     14  C   UNL A   1      31.112  24.831  23.723  1.00  0.00     0.116 C 
ATOM     15  C   UNL A   1      33.257  22.900  23.370  1.00  0.00     0.018 C 
ATOM     16  N   UNL A   1      32.532  25.251  23.436  1.00  0.00    -0.197 NA
ATOM     17  C   UNL A   1      33.219  24.221  22.611  1.00  0.00     0.102 C 
BRANCH  16  18
ATOM     18  S   UNL A   1      32.577  26.851  22.785  1.00  0.00     0.243 S 
ATOM     19  O   UNL A   1      33.726  26.920  21.901  1.00  0.00    -0.207 OA
ATOM     20  O   UNL A   1      31.253  27.172  22.307  1.00  0.00    -0.207 OA
BRANCH  18  21
ATOM     21  C   UNL A   1      32.910  27.902  24.185  1.00  0.00     0.082 A 
ATOM     22  C   UNL A   1      32.166  29.078  24.356  1.00  0.00     0.025 A 
ATOM     23  C   UNL A   1      33.813  27.486  25.170  1.00  0.00     0.025 A 
ATOM     24  C   UNL A   1      32.370  29.867  25.488  1.00  0.00     0.040 A 
ATOM     25  C   UNL A   1      33.994  28.269  26.313  1.00  0.00     0.040 A 
ATOM     26  C   UNL A   1      33.278  29.454  26.456  1.00  0.00     0.123 A 
ATOM     27  F   UNL A   1      33.454  30.204  27.552  1.00  0.00    -0.207 F 
ENDBRANCH  18  21
ENDBRANCH  16  18
ENDBRANCH   9  12
ENDBRANCH   7   8
ENDBRANCH   6   7
ENDBRANCH   5   6
ENDBRANCH   2   5
BRANCH   3  28
ATOM     28  C   UNL A   1      37.385  21.279  24.381  1.00  0.00     0.117 C 
BRANCH  28  29
ATOM     29  C   UNL A   1      37.972  19.996  24.957  1.00  0.00     0.042 C 
BRANCH  29  30
ATOM     30  C   UNL A   1      39.070  20.191  26.001  1.00  0.00     0.118 C 
BRANCH  30  31
ATOM     31  N   UNL A   1      40.153  19.227  25.897  1.00  0.00    -0.352 N 
ATOM     32  C   UNL A   1      41.506  19.396  26.071  1.00  0.00     0.251 C 
ATOM     33  H   UNL A   1      39.874  18.311  25.665  1.00  0.00     0.163 HD
ATOM     34  O   UNL A   1      42.267  18.463  25.831  1.00  0.00    -0.269 OA
BRANCH  32  35
ATOM     35  C   UNL A   1      42.060  20.701  26.500  1.00  0.00     0.039 A 
ATOM     36  C   UNL A   1      42.422  21.625  25.514  1.00  0.00     0.014 A 
ATOM     37  C   UNL A   1      42.240  21.022  27.849  1.00  0.00     0.014 A 
ATOM     38  C   UNL A   1      42.887  22.892  25.881  1.00  0.00     0.010 A 
ATOM     39  C   UNL A   1      42.640  22.308  28.214  1.00  0.00     0.010 A 
ATOM     40  C   UNL A   1      42.958  23.260  27.234  1.00  0.00    -0.014 A 
BRANCH  40  41
ATOM     41  C   UNL A   1      43.324  24.648  27.624  1.00  0.00     0.031 A 
ATOM     42  C   UNL A   1      44.763  25.076  27.700  1.00  0.00     0.074 A 
ATOM     43  C   UNL A   1      42.351  25.519  27.958  1.00  0.00     0.049 A 
ATOM     44  N   UNL A   1      45.262  26.237  28.047  1.00  0.00    -0.248 NA
ATOM     45  C   UNL A   1      45.776  24.067  27.359  1.00  0.00     0.031 C 
ATOM     46  C   UNL A   1      40.919  25.217  27.973  1.00  0.00     0.029 A 
ATOM     47  N   UNL A   1      42.416  26.833  28.349  1.00  0.00    -0.354 N 
ATOM     48  C   UNL A   1      46.641  26.095  27.973  1.00  0.00     0.074 A 
ATOM     49  C   UNL A   1      46.904  24.724  27.594  1.00  0.00     0.031 C 
ATOM     50  C   UNL A   1      40.240  26.320  28.321  1.00  0.00     0.029 A 
ATOM     51  C   UNL A   1      41.187  27.398  28.588  1.00  0.00     0.049 A 
ATOM     52  H   UNL A   1      43.264  27.325  28.448  1.00  0.00     0.167 HD
ATOM     53  C   UNL A   1      47.598  27.030  28.180  1.00  0.00     0.037 A 
ATOM     54  C   UNL A   1      40.857  28.645  28.978  1.00  0.00     0.037 A 
ATOM     55  C   UNL A   1      47.339  28.401  28.535  1.00  0.00     0.049 A 
ATOM     56  C   UNL A   1      41.940  29.662  29.205  1.00  0.00     0.074 A 
ATOM     57  C   UNL A   1      48.247  29.433  28.706  1.00  0.00     0.029 A 
ATOM     58  N   UNL A   1      46.081  28.933  28.775  1.00  0.00    -0.354 N 
ATOM     59  N   UNL A   1      43.237  29.529  29.076  1.00  0.00    -0.248 NA
ATOM     60  C   UNL A   1      41.512  31.003  29.630  1.00  0.00     0.031 C 
ATOM     61  C   UNL A   1      47.543  30.578  29.091  1.00  0.00     0.029 A 
ATOM     62  C   UNL A   1      46.192  30.273  29.114  1.00  0.00     0.049 A 
ATOM     63  H   UNL A   1      45.235  28.434  28.713  1.00  0.00     0.167 HD
ATOM     64  C   UNL A   1      43.780  30.767  29.390  1.00  0.00     0.074 A 
ATOM     65  C   UNL A   1      42.670  31.647  29.694  1.00  0.00     0.031 C 
ATOM     66  C   UNL A   1      45.082  31.138  29.424  1.00  0.00     0.037 A 
BRANCH  53  67
ATOM     67  C   UNL A   1      49.030  26.611  28.013  1.00  0.00     0.064 A 
ATOM     68  C   UNL A   1      49.826  26.323  29.132  1.00  0.00     0.173 A 
ATOM     69  C   UNL A   1      49.637  26.572  26.749  1.00  0.00     0.173 A 
ATOM     70  F   UNL A   1      49.296  26.355  30.364  1.00  0.00    -0.203 F 
ATOM     71  C   UNL A   1      51.177  26.021  28.992  1.00  0.00     0.198 A 
ATOM     72  C   UNL A   1      50.983  26.243  26.610  1.00  0.00     0.198 A 
ATOM     73  F   UNL A   1      48.917  26.833  25.647  1.00  0.00    -0.203 F 
ATOM     74  F   UNL A   1      51.925  25.779  30.077  1.00  0.00    -0.200 F 
ATOM     75  C   UNL A   1      51.754  25.977  27.731  1.00  0.00     0.200 A 
ATOM     76  F   UNL A   1      51.532  26.183  25.389  1.00  0.00    -0.200 F 
ATOM     77  F   UNL A   1      53.054  25.680  27.597  1.00  0.00    -0.200 F 
ENDBRANCH  53  67
BRANCH  54  78
ATOM     78  C   UNL A   1      39.425  29.006  29.143  1.00  0.00     0.064 A 
ATOM     79  C   UNL A   1      38.651  29.443  28.060  1.00  0.00     0.173 A 
ATOM     80  C   UNL A   1      38.813  28.945  30.403  1.00  0.00     0.173 A 
ATOM     81  F   UNL A   1      39.193  29.522  26.835  1.00  0.00    -0.203 F 
ATOM     82  C   UNL A   1      37.322  29.823  28.233  1.00  0.00     0.198 A 
ATOM     83  C   UNL A   1      37.477  29.301  30.571  1.00  0.00     0.198 A 
ATOM     84  F   UNL A   1      39.509  28.512  31.464  1.00  0.00    -0.203 F 
ATOM     85  F   UNL A   1      36.612  30.268  27.187  1.00  0.00    -0.200 F 
ATOM     86  C   UNL A   1      36.735  29.748  29.487  1.00  0.00     0.200 A 
ATOM     87  F   UNL A   1      36.907  29.205  31.779  1.00  0.00    -0.200 F 
ATOM     88  F   UNL A   1      35.453  30.104  29.652  1.00  0.00    -0.200 F 
ENDBRANCH  54  78
BRANCH  66  89
ATOM     89  C   UNL A   1      45.387  32.559  29.800  1.00  0.00     0.064 A 
ATOM     90  C   UNL A   1      45.409  33.567  28.825  1.00  0.00     0.173 A 
ATOM     91  C   UNL A   1      45.714  32.912  31.118  1.00  0.00     0.173 A 
ATOM     92  F   UNL A   1      45.111  33.280  27.549  1.00  0.00    -0.203 F 
ATOM     93  C   UNL A   1      45.755  34.875  29.153  1.00  0.00     0.198 A 
ATOM     94  C   UNL A   1      46.033  34.226  31.448  1.00  0.00     0.198 A 
ATOM     95  F   UNL A   1      45.694  31.986  32.089  1.00  0.00    -0.203 F 
ATOM     96  F   UNL A   1      45.795  35.816  28.200  1.00  0.00    -0.200 F 
ATOM     97  C   UNL A   1      46.062  35.204  30.465  1.00  0.00     0.200 A 
ATOM     98  F   UNL A   1      46.305  34.548  32.720  1.00  0.00    -0.200 F 
ATOM     99  F   UNL A   1      46.380  36.467  30.783  1.00  0.00    -0.200 F 
ENDBRANCH  66  89
ENDBRANCH  40  41
ENDBRANCH  32  35
ENDBRANCH  30  31
ENDBRANCH  29  30
ENDBRANCH  28  29
ENDBRANCH   3  28
TORSDOF 16
ENDMDL
