MODEL 1
REMARK VINA RESULT:     -12.8      0.000      0.000
REMARK SMILES Cn1ccc(S(=O)(=O)N2CCO[C@H](CC(=O)NCCCNC(=O)c3ccc(-c4c5nc(c(-c6c(F)c(F)c(F)c(F)c6F)c6ccc([nH]6)c(-c6c(F)c(F)c(F)c(F)c6F)c6nc(c(-c7c(F)c(F)c(F)c(F)c7F)c7ccc4[nH]7)C=C6)C=C5)cc3)C2)c1
REMARK SMILES IDX 18 1 17 2 15 3 16 4 14 6 13 7 9 8 10 9 87 10 11 11 12 12
REMARK SMILES IDX 6 13 7 14 8 15 5 16 1 17 2 18 3 19 88 20 4 21 19 22 20 23
REMARK SMILES IDX 21 24 22 25 23 27 24 28 25 29 86 30 26 31 85 32 27 33 28 34
REMARK SMILES IDX 29 35 79 36 30 37 84 38 78 39 80 40 31 41 83 42 77 43 76 44
REMARK SMILES IDX 32 46 64 47 44 48 63 49 45 50 48 51 62 52 81 53 46 54 47 55
REMARK SMILES IDX 61 57 82 58 49 59 33 60 34 61 42 62 35 63 36 64 40 65 43 66
REMARK SMILES IDX 37 67 38 68 41 69 39 70 65 71 66 72 74 73 67 74 68 75 72 76
REMARK SMILES IDX 75 77 69 78 70 79 73 80 71 81 50 82 51 83 59 84 52 85 53 86
REMARK SMILES IDX 57 87 60 88 54 89 55 90 58 91 56 92
REMARK H PARENT 17 5 21 26 80 45 48 56
REMARK Flexibility Score: inf
ROOT
ATOM      1  C   UNL A   1      31.535  30.865  26.041  1.00  0.00     0.117 C 
ENDROOT
BRANCH   1   2
ATOM      2  N   UNL A   1      32.701  30.249  26.650  1.00  0.00    -0.356 N 
ATOM      3  C   UNL A   1      32.850  28.999  27.164  1.00  0.00     0.222 C 
ATOM      4  O   UNL A   1      33.904  28.714  27.729  1.00  0.00    -0.275 OA
ATOM      5  H   UNL A   1      33.500  30.821  26.698  1.00  0.00     0.163 HD
BRANCH   3   6
ATOM      6  C   UNL A   1      31.721  28.008  27.058  1.00  0.00     0.133 C 
BRANCH   6   7
ATOM      7  C   UNL A   1      32.227  26.682  26.479  1.00  0.00     0.142 C 
ATOM      8  N   UNL A   1      31.288  26.948  24.252  1.00  0.00    -0.193 NA
ATOM      9  C   UNL A   1      30.381  25.804  24.446  1.00  0.00     0.131 C 
ATOM     10  C   UNL A   1      32.559  26.797  24.974  1.00  0.00     0.135 C 
ATOM     11  C   UNL A   1      30.082  25.708  25.947  1.00  0.00     0.177 C 
ATOM     12  O   UNL A   1      31.283  25.610  26.735  1.00  0.00    -0.375 OA
BRANCH   8  13
ATOM     13  S   UNL A   1      31.178  27.878  22.872  1.00  0.00     0.244 S 
ATOM     14  O   UNL A   1      31.016  27.002  21.733  1.00  0.00    -0.207 OA
ATOM     15  O   UNL A   1      32.165  28.933  22.917  1.00  0.00    -0.207 OA
BRANCH  13  16
ATOM     16  C   UNL A   1      29.669  28.722  22.995  1.00  0.00     0.100 A 
ATOM     17  C   UNL A   1      27.579  31.641  23.460  1.00  0.00     0.149 C 
ATOM     18  N   UNL A   1      28.165  30.337  23.245  1.00  0.00    -0.356 N 
ATOM     19  C   UNL A   1      27.469  29.160  23.151  1.00  0.00     0.086 A 
ATOM     20  C   UNL A   1      29.504  30.088  23.127  1.00  0.00     0.106 A 
ATOM     21  C   UNL A   1      28.380  28.134  22.993  1.00  0.00     0.041 A 
ENDBRANCH  13  16
ENDBRANCH   8  13
ENDBRANCH   6   7
ENDBRANCH   3   6
ENDBRANCH   1   2
BRANCH   1  22
ATOM     22  C   UNL A   1      31.313  32.289  26.540  1.00  0.00     0.042 C 
BRANCH  22  23
ATOM     23  C   UNL A   1      32.492  32.876  27.312  1.00  0.00     0.118 C 
BRANCH  23  24
ATOM     24  N   UNL A   1      32.302  34.277  27.653  1.00  0.00    -0.352 N 
ATOM     25  C   UNL A   1      32.950  35.062  28.576  1.00  0.00     0.251 C 
ATOM     26  H   UNL A   1      31.598  34.736  27.142  1.00  0.00     0.163 HD
ATOM     27  O   UNL A   1      32.519  36.184  28.829  1.00  0.00    -0.269 OA
BRANCH  25  28
ATOM     28  C   UNL A   1      34.144  34.560  29.288  1.00  0.00     0.039 A 
ATOM     29  C   UNL A   1      33.986  34.044  30.578  1.00  0.00     0.014 A 
ATOM     30  C   UNL A   1      35.415  34.614  28.708  1.00  0.00     0.014 A 
ATOM     31  C   UNL A   1      35.085  33.510  31.254  1.00  0.00     0.010 A 
ATOM     32  C   UNL A   1      36.500  34.026  29.358  1.00  0.00     0.010 A 
ATOM     33  C   UNL A   1      36.343  33.458  30.631  1.00  0.00    -0.014 A 
BRANCH  33  34
ATOM     34  C   UNL A   1      37.493  32.780  31.280  1.00  0.00     0.031 A 
ATOM     35  C   UNL A   1      38.168  31.615  30.614  1.00  0.00     0.074 A 
ATOM     36  C   UNL A   1      37.878  33.169  32.510  1.00  0.00     0.049 A 
ATOM     37  N   UNL A   1      39.121  30.840  31.069  1.00  0.00    -0.248 NA
ATOM     38  C   UNL A   1      37.696  31.258  29.267  1.00  0.00     0.031 C 
ATOM     39  C   UNL A   1      37.274  34.257  33.281  1.00  0.00     0.029 A 
ATOM     40  N   UNL A   1      38.858  32.680  33.339  1.00  0.00    -0.354 N 
ATOM     41  C   UNL A   1      39.350  29.898  30.076  1.00  0.00     0.074 A 
ATOM     42  C   UNL A   1      38.415  30.174  29.007  1.00  0.00     0.031 C 
ATOM     43  C   UNL A   1      37.900  34.360  34.463  1.00  0.00     0.029 A 
ATOM     44  C   UNL A   1      38.924  33.323  34.551  1.00  0.00     0.049 A 
ATOM     45  H   UNL A   1      39.456  31.940  33.089  1.00  0.00     0.167 HD
ATOM     46  C   UNL A   1      40.269  28.904  30.053  1.00  0.00     0.037 A 
ATOM     47  C   UNL A   1      39.710  33.092  35.619  1.00  0.00     0.037 A 
ATOM     48  C   UNL A   1      41.221  28.649  31.103  1.00  0.00     0.049 A 
ATOM     49  C   UNL A   1      40.719  31.980  35.567  1.00  0.00     0.074 A 
ATOM     50  C   UNL A   1      42.239  27.713  31.135  1.00  0.00     0.029 A 
ATOM     51  N   UNL A   1      41.267  29.332  32.309  1.00  0.00    -0.354 N 
ATOM     52  N   UNL A   1      40.970  31.137  34.595  1.00  0.00    -0.248 NA
ATOM     53  C   UNL A   1      41.555  31.786  36.760  1.00  0.00     0.031 C 
ATOM     54  C   UNL A   1      42.879  27.803  32.376  1.00  0.00     0.029 A 
ATOM     55  C   UNL A   1      42.284  28.822  33.102  1.00  0.00     0.049 A 
ATOM     56  H   UNL A   1      40.668  30.070  32.564  1.00  0.00     0.167 HD
ATOM     57  C   UNL A   1      42.002  30.329  35.049  1.00  0.00     0.074 A 
ATOM     58  C   UNL A   1      42.343  30.791  36.378  1.00  0.00     0.031 C 
ATOM     59  C   UNL A   1      42.610  29.293  34.423  1.00  0.00     0.037 A 
BRANCH  46  60
ATOM     60  C   UNL A   1      40.302  28.013  28.848  1.00  0.00     0.064 A 
ATOM     61  C   UNL A   1      41.054  28.345  27.712  1.00  0.00     0.173 A 
ATOM     62  C   UNL A   1      39.625  26.785  28.853  1.00  0.00     0.173 A 
ATOM     63  F   UNL A   1      41.712  29.513  27.656  1.00  0.00    -0.203 F 
ATOM     64  C   UNL A   1      41.113  27.487  26.616  1.00  0.00     0.198 A 
ATOM     65  C   UNL A   1      39.704  25.919  27.766  1.00  0.00     0.198 A 
ATOM     66  F   UNL A   1      38.896  26.418  29.918  1.00  0.00    -0.203 F 
ATOM     67  F   UNL A   1      41.812  27.840  25.529  1.00  0.00    -0.200 F 
ATOM     68  C   UNL A   1      40.444  26.273  26.647  1.00  0.00     0.200 A 
ATOM     69  F   UNL A   1      39.067  24.740  27.801  1.00  0.00    -0.200 F 
ATOM     70  F   UNL A   1      40.511  25.443  25.597  1.00  0.00    -0.200 F 
ENDBRANCH  46  60
BRANCH  47  71
ATOM     71  C   UNL A   1      39.578  33.939  36.833  1.00  0.00     0.064 A 
ATOM     72  C   UNL A   1      40.260  35.158  36.936  1.00  0.00     0.173 A 
ATOM     73  C   UNL A   1      38.778  33.542  37.915  1.00  0.00     0.173 A 
ATOM     74  F   UNL A   1      41.054  35.567  35.936  1.00  0.00    -0.203 F 
ATOM     75  C   UNL A   1      40.163  35.942  38.083  1.00  0.00     0.198 A 
ATOM     76  C   UNL A   1      38.661  34.338  39.051  1.00  0.00     0.198 A 
ATOM     77  F   UNL A   1      38.103  32.385  37.862  1.00  0.00    -0.203 F 
ATOM     78  F   UNL A   1      40.860  37.083  38.174  1.00  0.00    -0.200 F 
ATOM     79  C   UNL A   1      39.360  35.533  39.138  1.00  0.00     0.200 A 
ATOM     80  F   UNL A   1      37.874  33.947  40.063  1.00  0.00    -0.200 F 
ATOM     81  F   UNL A   1      39.264  36.289  40.241  1.00  0.00    -0.200 F 
ENDBRANCH  47  71
BRANCH  59  82
ATOM     82  C   UNL A   1      43.717  28.602  35.160  1.00  0.00     0.064 A 
ATOM     83  C   UNL A   1      43.467  27.497  35.987  1.00  0.00     0.173 A 
ATOM     84  C   UNL A   1      45.046  29.029  35.013  1.00  0.00     0.173 A 
ATOM     85  F   UNL A   1      42.211  27.064  36.172  1.00  0.00    -0.203 F 
ATOM     86  C   UNL A   1      44.506  26.857  36.657  1.00  0.00     0.198 A 
ATOM     87  C   UNL A   1      46.084  28.371  35.666  1.00  0.00     0.198 A 
ATOM     88  F   UNL A   1      45.335  30.079  34.230  1.00  0.00    -0.203 F 
ATOM     89  F   UNL A   1      44.240  25.831  37.476  1.00  0.00    -0.200 F 
ATOM     90  C   UNL A   1      45.813  27.291  36.492  1.00  0.00     0.200 A 
ATOM     91  F   UNL A   1      47.348  28.785  35.497  1.00  0.00    -0.200 F 
ATOM     92  F   UNL A   1      46.812  26.670  37.135  1.00  0.00    -0.200 F 
ENDBRANCH  59  82
ENDBRANCH  33  34
ENDBRANCH  25  28
ENDBRANCH  23  24
ENDBRANCH  22  23
ENDBRANCH   1  22
TORSDOF 13
ENDMDL
MODEL 2
REMARK VINA RESULT:     -12.8      0.123      1.606
REMARK SMILES Cn1ccc(S(=O)(=O)N2CCO[C@H](CC(=O)NCCCNC(=O)c3ccc(-c4c5nc(c(-c6c(F)c(F)c(F)c(F)c6F)c6ccc([nH]6)c(-c6c(F)c(F)c(F)c(F)c6F)c6nc(c(-c7c(F)c(F)c(F)c(F)c7F)c7ccc4[nH]7)C=C6)C=C5)cc3)C2)c1
REMARK SMILES IDX 18 1 17 2 15 3 16 4 14 6 13 7 9 8 10 9 87 10 11 11 12 12
REMARK SMILES IDX 6 13 7 14 8 15 5 16 1 17 2 18 3 19 88 20 4 21 19 22 20 23
REMARK SMILES IDX 21 24 22 25 23 27 24 28 25 29 86 30 26 31 85 32 27 33 28 34
REMARK SMILES IDX 29 35 79 36 30 37 84 38 78 39 80 40 31 41 83 42 77 43 76 44
REMARK SMILES IDX 32 46 64 47 44 48 63 49 45 50 48 51 62 52 81 53 46 54 47 55
REMARK SMILES IDX 61 57 82 58 49 59 33 60 34 61 42 62 35 63 36 64 40 65 43 66
REMARK SMILES IDX 37 67 38 68 41 69 39 70 65 71 66 72 74 73 67 74 68 75 72 76
REMARK SMILES IDX 75 77 69 78 70 79 73 80 71 81 50 82 51 83 59 84 52 85 53 86
REMARK SMILES IDX 57 87 60 88 54 89 55 90 58 91 56 92
REMARK H PARENT 17 5 21 26 80 45 48 56
REMARK Flexibility Score: inf
ROOT
ATOM      1  C   UNL A   1      31.657  30.754  25.964  1.00  0.00     0.117 C 
ENDROOT
BRANCH   1   2
ATOM      2  N   UNL A   1      32.824  30.126  26.558  1.00  0.00    -0.356 N 
ATOM      3  C   UNL A   1      32.958  28.887  27.100  1.00  0.00     0.222 C 
ATOM      4  O   UNL A   1      34.020  28.591  27.644  1.00  0.00    -0.275 OA
ATOM      5  H   UNL A   1      33.637  30.680  26.570  1.00  0.00     0.163 HD
BRANCH   3   6
ATOM      6  C   UNL A   1      31.804  27.920  27.049  1.00  0.00     0.133 C 
BRANCH   6   7
ATOM      7  C   UNL A   1      32.251  26.586  26.441  1.00  0.00     0.142 C 
ATOM      8  N   UNL A   1      31.290  26.925  24.233  1.00  0.00    -0.193 NA
ATOM      9  C   UNL A   1      30.343  25.812  24.422  1.00  0.00     0.131 C 
ATOM     10  C   UNL A   1      32.565  26.714  24.933  1.00  0.00     0.135 C 
ATOM     11  C   UNL A   1      30.063  25.703  25.926  1.00  0.00     0.177 C 
ATOM     12  O   UNL A   1      31.271  25.546  26.694  1.00  0.00    -0.375 OA
BRANCH   8  13
ATOM     13  S   UNL A   1      31.195  27.881  22.870  1.00  0.00     0.244 S 
ATOM     14  O   UNL A   1      31.043  27.027  21.713  1.00  0.00    -0.207 OA
ATOM     15  O   UNL A   1      32.183  28.933  22.945  1.00  0.00    -0.207 OA
BRANCH  13  16
ATOM     16  C   UNL A   1      29.686  28.724  22.994  1.00  0.00     0.100 A 
ATOM     17  C   UNL A   1      27.596  31.650  23.414  1.00  0.00     0.149 C 
ATOM     18  N   UNL A   1      28.182  30.343  23.224  1.00  0.00    -0.356 N 
ATOM     19  C   UNL A   1      27.488  29.162  23.173  1.00  0.00     0.086 A 
ATOM     20  C   UNL A   1      29.520  30.093  23.092  1.00  0.00     0.106 A 
ATOM     21  C   UNL A   1      28.399  28.134  23.028  1.00  0.00     0.041 A 
ENDBRANCH  13  16
ENDBRANCH   8  13
ENDBRANCH   6   7
ENDBRANCH   3   6
ENDBRANCH   1   2
BRANCH   1  22
ATOM     22  C   UNL A   1      31.369  32.123  26.574  1.00  0.00     0.042 C 
BRANCH  22  23
ATOM     23  C   UNL A   1      32.550  32.740  27.317  1.00  0.00     0.118 C 
BRANCH  23  24
ATOM     24  N   UNL A   1      32.345  34.144  27.639  1.00  0.00    -0.352 N 
ATOM     25  C   UNL A   1      32.976  34.947  28.557  1.00  0.00     0.251 C 
ATOM     26  H   UNL A   1      31.640  34.589  27.115  1.00  0.00     0.163 HD
ATOM     27  O   UNL A   1      32.531  36.067  28.791  1.00  0.00    -0.269 OA
BRANCH  25  28
ATOM     28  C   UNL A   1      34.169  34.466  29.286  1.00  0.00     0.039 A 
ATOM     29  C   UNL A   1      33.997  33.914  30.559  1.00  0.00     0.014 A 
ATOM     30  C   UNL A   1      35.451  34.575  28.739  1.00  0.00     0.014 A 
ATOM     31  C   UNL A   1      35.097  33.400  31.249  1.00  0.00     0.010 A 
ATOM     32  C   UNL A   1      36.538  34.006  29.401  1.00  0.00     0.010 A 
ATOM     33  C   UNL A   1      36.370  33.403  30.656  1.00  0.00    -0.014 A 
BRANCH  33  34
ATOM     34  C   UNL A   1      37.526  32.746  31.316  1.00  0.00     0.031 A 
ATOM     35  C   UNL A   1      38.221  31.586  30.663  1.00  0.00     0.074 A 
ATOM     36  C   UNL A   1      37.898  33.150  32.546  1.00  0.00     0.049 A 
ATOM     37  N   UNL A   1      39.182  30.828  31.130  1.00  0.00    -0.248 NA
ATOM     38  C   UNL A   1      37.762  31.212  29.317  1.00  0.00     0.031 C 
ATOM     39  C   UNL A   1      37.274  34.235  33.304  1.00  0.00     0.029 A 
ATOM     40  N   UNL A   1      38.880  32.682  33.385  1.00  0.00    -0.354 N 
ATOM     41  C   UNL A   1      39.431  29.882  30.146  1.00  0.00     0.074 A 
ATOM     42  C   UNL A   1      38.498  30.137  29.069  1.00  0.00     0.031 C 
ATOM     43  C   UNL A   1      37.892  34.356  34.490  1.00  0.00     0.029 A 
ATOM     44  C   UNL A   1      38.930  33.335  34.591  1.00  0.00     0.049 A 
ATOM     45  H   UNL A   1      39.490  31.948  33.143  1.00  0.00     0.167 HD
ATOM     46  C   UNL A   1      40.364  28.901  30.136  1.00  0.00     0.037 A 
ATOM     47  C   UNL A   1      39.712  33.123  35.666  1.00  0.00     0.037 A 
ATOM     48  C   UNL A   1      41.313  28.668  31.193  1.00  0.00     0.049 A 
ATOM     49  C   UNL A   1      40.737  32.025  35.628  1.00  0.00     0.074 A 
ATOM     50  C   UNL A   1      42.344  27.747  31.238  1.00  0.00     0.029 A 
ATOM     51  N   UNL A   1      41.342  29.361  32.394  1.00  0.00    -0.354 N 
ATOM     52  N   UNL A   1      41.007  31.179  34.664  1.00  0.00    -0.248 NA
ATOM     53  C   UNL A   1      41.569  31.852  36.828  1.00  0.00     0.031 C 
ATOM     54  C   UNL A   1      42.976  27.855  32.482  1.00  0.00     0.029 A 
ATOM     55  C   UNL A   1      42.361  28.871  33.196  1.00  0.00     0.049 A 
ATOM     56  H   UNL A   1      40.731  30.092  32.640  1.00  0.00     0.167 HD
ATOM     57  C   UNL A   1      42.047  30.389  35.131  1.00  0.00     0.074 A 
ATOM     58  C   UNL A   1      42.373  30.865  36.458  1.00  0.00     0.031 C 
ATOM     59  C   UNL A   1      42.674  29.356  34.515  1.00  0.00     0.037 A 
BRANCH  46  60
ATOM     60  C   UNL A   1      40.416  28.002  28.937  1.00  0.00     0.064 A 
ATOM     61  C   UNL A   1      39.692  26.802  28.889  1.00  0.00     0.173 A 
ATOM     62  C   UNL A   1      41.148  28.375  27.800  1.00  0.00     0.173 A 
ATOM     63  F   UNL A   1      38.984  26.398  29.954  1.00  0.00    -0.203 F 
ATOM     64  C   UNL A   1      39.713  25.998  27.752  1.00  0.00     0.198 A 
ATOM     65  C   UNL A   1      41.148  27.582  26.656  1.00  0.00     0.198 A 
ATOM     66  F   UNL A   1      41.853  29.517  27.794  1.00  0.00    -0.203 F 
ATOM     67  F   UNL A   1      39.039  24.841  27.740  1.00  0.00    -0.200 F 
ATOM     68  C   UNL A   1      40.434  26.393  26.634  1.00  0.00     0.200 A 
ATOM     69  F   UNL A   1      41.836  27.969  25.573  1.00  0.00    -0.200 F 
ATOM     70  F   UNL A   1      40.443  25.625  25.537  1.00  0.00    -0.200 F 
ENDBRANCH  46  60
BRANCH  47  71
ATOM     71  C   UNL A   1      39.561  33.977  36.873  1.00  0.00     0.064 A 
ATOM     72  C   UNL A   1      38.781  33.555  37.958  1.00  0.00     0.173 A 
ATOM     73  C   UNL A   1      40.182  35.231  36.960  1.00  0.00     0.173 A 
ATOM     74  F   UNL A   1      38.151  32.373  37.909  1.00  0.00    -0.203 F 
ATOM     75  C   UNL A   1      38.613  34.364  39.079  1.00  0.00     0.198 A 
ATOM     76  C   UNL A   1      40.033  36.028  38.092  1.00  0.00     0.198 A 
ATOM     77  F   UNL A   1      40.940  35.677  35.949  1.00  0.00    -0.203 F 
ATOM     78  F   UNL A   1      37.827  33.956  40.085  1.00  0.00    -0.200 F 
ATOM     79  C   UNL A   1      39.242  35.598  39.147  1.00  0.00     0.200 A 
ATOM     80  F   UNL A   1      40.653  37.214  38.160  1.00  0.00    -0.200 F 
ATOM     81  F   UNL A   1      39.082  36.375  40.227  1.00  0.00    -0.200 F 
ENDBRANCH  47  71
BRANCH  59  82
ATOM     82  C   UNL A   1      43.786  28.687  35.264  1.00  0.00     0.064 A 
ATOM     83  C   UNL A   1      43.547  27.585  36.098  1.00  0.00     0.173 A 
ATOM     84  C   UNL A   1      45.109  29.133  35.123  1.00  0.00     0.173 A 
ATOM     85  F   UNL A   1      42.296  27.135  36.278  1.00  0.00    -0.203 F 
ATOM     86  C   UNL A   1      44.591  26.965  36.779  1.00  0.00     0.198 A 
ATOM     87  C   UNL A   1      46.153  28.495  35.786  1.00  0.00     0.198 A 
ATOM     88  F   UNL A   1      45.388  30.181  34.333  1.00  0.00    -0.203 F 
ATOM     89  F   UNL A   1      44.335  25.941  37.604  1.00  0.00    -0.200 F 
ATOM     90  C   UNL A   1      45.892  27.416  36.618  1.00  0.00     0.200 A 
ATOM     91  F   UNL A   1      47.412  28.925  35.622  1.00  0.00    -0.200 F 
ATOM     92  F   UNL A   1      46.896  26.815  37.272  1.00  0.00    -0.200 F 
ENDBRANCH  59  82
ENDBRANCH  33  34
ENDBRANCH  25  28
ENDBRANCH  23  24
ENDBRANCH  22  23
ENDBRANCH   1  22
TORSDOF 13
ENDMDL
MODEL 3
REMARK VINA RESULT:     -12.6      1.690      3.695
REMARK SMILES Cn1ccc(S(=O)(=O)N2CCO[C@H](CC(=O)NCCCNC(=O)c3ccc(-c4c5nc(c(-c6c(F)c(F)c(F)c(F)c6F)c6ccc([nH]6)c(-c6c(F)c(F)c(F)c(F)c6F)c6nc(c(-c7c(F)c(F)c(F)c(F)c7F)c7ccc4[nH]7)C=C6)C=C5)cc3)C2)c1
REMARK SMILES IDX 18 1 17 2 15 3 16 4 14 6 13 7 9 8 10 9 87 10 11 11 12 12
REMARK SMILES IDX 6 13 7 14 8 15 5 16 1 17 2 18 3 19 88 20 4 21 19 22 20 23
REMARK SMILES IDX 21 24 22 25 23 27 24 28 25 29 86 30 26 31 85 32 27 33 28 34
REMARK SMILES IDX 29 35 79 36 30 37 84 38 78 39 80 40 31 41 83 42 77 43 76 44
REMARK SMILES IDX 32 46 64 47 44 48 63 49 45 50 48 51 62 52 81 53 46 54 47 55
REMARK SMILES IDX 61 57 82 58 49 59 33 60 34 61 42 62 35 63 36 64 40 65 43 66
REMARK SMILES IDX 37 67 38 68 41 69 39 70 65 71 66 72 74 73 67 74 68 75 72 76
REMARK SMILES IDX 75 77 69 78 70 79 73 80 71 81 50 82 51 83 59 84 52 85 53 86
REMARK SMILES IDX 57 87 60 88 54 89 55 90 58 91 56 92
REMARK H PARENT 17 5 21 26 80 45 48 56
REMARK Flexibility Score: inf
ROOT
ATOM      1  C   UNL A   1      31.694  30.653  25.925  1.00  0.00     0.117 C 
ENDROOT
BRANCH   1   2
ATOM      2  N   UNL A   1      30.962  30.507  24.679  1.00  0.00    -0.356 N 
ATOM      3  C   UNL A   1      30.632  29.378  23.997  1.00  0.00     0.222 C 
ATOM      4  O   UNL A   1      30.090  29.489  22.898  1.00  0.00    -0.275 OA
ATOM      5  H   UNL A   1      30.660  31.349  24.269  1.00  0.00     0.163 HD
BRANCH   3   6
ATOM      6  C   UNL A   1      30.959  28.029  24.581  1.00  0.00     0.133 C 
BRANCH   6   7
ATOM      7  C   UNL A   1      32.199  27.438  23.901  1.00  0.00     0.142 C 
ATOM      8  N   UNL A   1      32.392  25.457  25.297  1.00  0.00    -0.193 NA
ATOM      9  C   UNL A   1      33.677  25.915  25.852  1.00  0.00     0.131 C 
ATOM     10  C   UNL A   1      32.182  25.893  23.909  1.00  0.00     0.135 C 
ATOM     11  C   UNL A   1      33.668  27.448  25.818  1.00  0.00     0.177 C 
ATOM     12  O   UNL A   1      33.415  27.960  24.496  1.00  0.00    -0.375 OA
BRANCH   8  13
ATOM     13  S   UNL A   1      31.668  24.078  25.894  1.00  0.00     0.244 S 
ATOM     14  O   UNL A   1      30.849  23.496  24.854  1.00  0.00    -0.207 OA
ATOM     15  O   UNL A   1      31.180  24.326  27.231  1.00  0.00    -0.207 OA
BRANCH  13  16
ATOM     16  C   UNL A   1      32.953  22.939  26.129  1.00  0.00     0.100 A 
ATOM     17  C   UNL A   1      35.450  20.552  25.049  1.00  0.00     0.149 C 
ATOM     18  N   UNL A   1      34.553  21.449  25.742  1.00  0.00    -0.356 N 
ATOM     19  C   UNL A   1      34.437  21.560  27.103  1.00  0.00     0.086 A 
ATOM     20  C   UNL A   1      33.673  22.301  25.136  1.00  0.00     0.106 A 
ATOM     21  C   UNL A   1      33.448  22.484  27.375  1.00  0.00     0.041 A 
ENDBRANCH  13  16
ENDBRANCH   8  13
ENDBRANCH   6   7
ENDBRANCH   3   6
ENDBRANCH   1   2
BRANCH   1  22
ATOM     22  C   UNL A   1      31.390  31.979  26.616  1.00  0.00     0.042 C 
BRANCH  22  23
ATOM     23  C   UNL A   1      32.599  32.632  27.280  1.00  0.00     0.118 C 
BRANCH  23  24
ATOM     24  N   UNL A   1      32.382  34.036  27.594  1.00  0.00    -0.352 N 
ATOM     25  C   UNL A   1      33.003  34.847  28.511  1.00  0.00     0.251 C 
ATOM     26  H   UNL A   1      31.677  34.474  27.064  1.00  0.00     0.163 HD
ATOM     27  O   UNL A   1      32.550  35.966  28.738  1.00  0.00    -0.269 OA
BRANCH  25  28
ATOM     28  C   UNL A   1      34.195  34.378  29.250  1.00  0.00     0.039 A 
ATOM     29  C   UNL A   1      34.010  33.731  30.476  1.00  0.00     0.014 A 
ATOM     30  C   UNL A   1      35.487  34.589  28.759  1.00  0.00     0.014 A 
ATOM     31  C   UNL A   1      35.112  33.226  31.169  1.00  0.00     0.010 A 
ATOM     32  C   UNL A   1      36.580  34.031  29.420  1.00  0.00     0.010 A 
ATOM     33  C   UNL A   1      36.402  33.335  30.625  1.00  0.00    -0.014 A 
BRANCH  33  34
ATOM     34  C   UNL A   1      37.568  32.693  31.282  1.00  0.00     0.031 A 
ATOM     35  C   UNL A   1      38.281  31.546  30.623  1.00  0.00     0.074 A 
ATOM     36  C   UNL A   1      37.936  33.097  32.513  1.00  0.00     0.049 A 
ATOM     37  N   UNL A   1      39.253  30.801  31.086  1.00  0.00    -0.248 NA
ATOM     38  C   UNL A   1      37.826  31.171  29.276  1.00  0.00     0.031 C 
ATOM     39  C   UNL A   1      37.296  34.170  33.276  1.00  0.00     0.029 A 
ATOM     40  N   UNL A   1      38.925  32.641  33.348  1.00  0.00    -0.354 N 
ATOM     41  C   UNL A   1      39.515  29.863  30.097  1.00  0.00     0.074 A 
ATOM     42  C   UNL A   1      38.578  30.108  29.022  1.00  0.00     0.031 C 
ATOM     43  C   UNL A   1      37.913  34.295  34.462  1.00  0.00     0.029 A 
ATOM     44  C   UNL A   1      38.967  33.289  34.558  1.00  0.00     0.049 A 
ATOM     45  H   UNL A   1      39.546  31.918  33.103  1.00  0.00     0.167 HD
ATOM     46  C   UNL A   1      40.464  28.896  30.083  1.00  0.00     0.037 A 
ATOM     47  C   UNL A   1      39.753  33.086  35.631  1.00  0.00     0.037 A 
ATOM     48  C   UNL A   1      41.417  28.673  31.138  1.00  0.00     0.049 A 
ATOM     49  C   UNL A   1      40.795  32.003  35.587  1.00  0.00     0.074 A 
ATOM     50  C   UNL A   1      42.462  27.768  31.179  1.00  0.00     0.029 A 
ATOM     51  N   UNL A   1      41.437  29.362  32.342  1.00  0.00    -0.354 N 
ATOM     52  N   UNL A   1      41.076  31.165  34.620  1.00  0.00    -0.248 NA
ATOM     53  C   UNL A   1      41.630  31.838  36.785  1.00  0.00     0.031 C 
ATOM     54  C   UNL A   1      43.093  27.881  32.422  1.00  0.00     0.029 A 
ATOM     55  C   UNL A   1      42.464  28.884  33.141  1.00  0.00     0.049 A 
ATOM     56  H   UNL A   1      40.815  30.082  32.592  1.00  0.00     0.167 HD
ATOM     57  C   UNL A   1      42.128  30.389  35.082  1.00  0.00     0.074 A 
ATOM     58  C   UNL A   1      42.449  30.865  36.411  1.00  0.00     0.031 C 
ATOM     59  C   UNL A   1      42.770  29.369  34.462  1.00  0.00     0.037 A 
BRANCH  46  60
ATOM     60  C   UNL A   1      40.528  28.003  28.881  1.00  0.00     0.064 A 
ATOM     61  C   UNL A   1      39.789  26.813  28.811  1.00  0.00     0.173 A 
ATOM     62  C   UNL A   1      41.288  28.373  27.761  1.00  0.00     0.173 A 
ATOM     63  F   UNL A   1      39.055  26.413  29.860  1.00  0.00    -0.203 F 
ATOM     64  C   UNL A   1      39.823  26.016  27.670  1.00  0.00     0.198 A 
ATOM     65  C   UNL A   1      41.301  27.585  26.613  1.00  0.00     0.198 A 
ATOM     66  F   UNL A   1      42.007  29.505  27.775  1.00  0.00    -0.203 F 
ATOM     67  F   UNL A   1      39.134  24.867  27.638  1.00  0.00    -0.200 F 
ATOM     68  C   UNL A   1      40.572  26.406  26.570  1.00  0.00     0.200 A 
ATOM     69  F   UNL A   1      42.016  27.969  25.546  1.00  0.00    -0.200 F 
ATOM     70  F   UNL A   1      40.593  25.644  25.468  1.00  0.00    -0.200 F 
ENDBRANCH  46  60
BRANCH  47  71
ATOM     71  C   UNL A   1      39.590  33.932  36.841  1.00  0.00     0.064 A 
ATOM     72  C   UNL A   1      38.789  33.510  37.911  1.00  0.00     0.173 A 
ATOM     73  C   UNL A   1      40.220  35.180  36.948  1.00  0.00     0.173 A 
ATOM     74  F   UNL A   1      38.149  32.333  37.843  1.00  0.00    -0.203 F 
ATOM     75  C   UNL A   1      38.610  34.312  39.035  1.00  0.00     0.198 A 
ATOM     76  C   UNL A   1      40.060  35.970  38.083  1.00  0.00     0.198 A 
ATOM     77  F   UNL A   1      40.999  35.626  35.952  1.00  0.00    -0.203 F 
ATOM     78  F   UNL A   1      37.805  33.904  40.025  1.00  0.00    -0.200 F 
ATOM     79  C   UNL A   1      39.249  35.539  39.122  1.00  0.00     0.200 A 
ATOM     80  F   UNL A   1      40.690  37.150  38.169  1.00  0.00    -0.200 F 
ATOM     81  F   UNL A   1      39.078  36.310  40.205  1.00  0.00    -0.200 F 
ENDBRANCH  47  71
BRANCH  59  82
ATOM     82  C   UNL A   1      43.893  28.714  35.207  1.00  0.00     0.064 A 
ATOM     83  C   UNL A   1      45.211  29.183  35.104  1.00  0.00     0.173 A 
ATOM     84  C   UNL A   1      43.646  27.626  36.057  1.00  0.00     0.173 A 
ATOM     85  F   UNL A   1      45.499  30.210  34.290  1.00  0.00    -0.203 F 
ATOM     86  C   UNL A   1      46.244  28.573  35.811  1.00  0.00     0.198 A 
ATOM     87  C   UNL A   1      44.677  27.034  36.780  1.00  0.00     0.198 A 
ATOM     88  F   UNL A   1      42.401  27.143  36.192  1.00  0.00    -0.203 F 
ATOM     89  F   UNL A   1      47.502  29.010  35.664  1.00  0.00    -0.200 F 
ATOM     90  C   UNL A   1      45.975  27.504  36.652  1.00  0.00     0.200 A 
ATOM     91  F   UNL A   1      44.414  26.007  37.601  1.00  0.00    -0.200 F 
ATOM     92  F   UNL A   1      46.971  26.921  37.334  1.00  0.00    -0.200 F 
ENDBRANCH  59  82
ENDBRANCH  33  34
ENDBRANCH  25  28
ENDBRANCH  23  24
ENDBRANCH  22  23
ENDBRANCH   1  22
TORSDOF 13
ENDMDL
