MODEL 1
REMARK VINA RESULT:      -9.7      0.000      0.000
REMARK SMILES C=CCSc1ccccc1C(=O)NCCCNC(=O)c1ccc(-c2c3nc(c(-c4c(F)c(F)c(F)c(F)c4F)c4ccc([nH]4)c(-c4c(F)c(F)c(F)c(F)c4F)c4nc(c(-c5c(F)c(F)c(F)c(F)c5F)c5ccc2[nH]5)C=C4)C=C3)cc1
REMARK SMILES IDX 14 1 13 2 11 3 12 4 10 6 5 7 6 8 7 9 9 10 8 11 4 12 3 13
REMARK SMILES IDX 2 14 1 15 15 16 16 17 17 18 18 19 19 21 20 22 21 23 82 24
REMARK SMILES IDX 22 25 81 26 23 27 24 28 25 29 75 30 26 31 80 32 74 33 76 34
REMARK SMILES IDX 27 35 79 36 73 37 72 38 28 40 60 41 40 42 59 43 41 44 44 45
REMARK SMILES IDX 58 46 77 47 42 48 43 49 57 51 78 52 45 53 29 54 30 55 38 56
REMARK SMILES IDX 31 57 32 58 36 59 39 60 33 61 34 62 37 63 35 64 61 65 62 66
REMARK SMILES IDX 70 67 63 68 64 69 68 70 71 71 65 72 66 73 69 74 67 75 46 76
REMARK SMILES IDX 47 77 55 78 48 79 49 80 53 81 56 82 50 83 51 84 54 85 52 86
REMARK H PARENT 13 5 17 20 76 39 44 50
REMARK Flexibility Score: inf
ROOT
ATOM      1  C   UNL A   1      31.278  30.878  26.384  1.00  0.00     0.118 C 
ENDROOT
BRANCH   1   2
ATOM      2  N   UNL A   1      32.284  30.438  25.442  1.00  0.00    -0.352 N 
ATOM      3  C   UNL A   1      32.525  29.233  24.837  1.00  0.00     0.252 C 
ATOM      4  O   UNL A   1      33.563  29.159  24.172  1.00  0.00    -0.269 OA
ATOM      5  H   UNL A   1      32.919  31.144  25.184  1.00  0.00     0.163 HD
BRANCH   3   6
ATOM      6  C   UNL A   1      31.584  28.073  24.794  1.00  0.00     0.053 A 
ATOM      7  C   UNL A   1      30.552  27.803  23.871  1.00  0.00     0.020 A 
ATOM      8  C   UNL A   1      29.674  26.730  24.134  1.00  0.00     0.016 A 
ATOM      9  C   UNL A   1      29.802  25.936  25.273  1.00  0.00     0.001 A 
ATOM     10  C   UNL A   1      31.691  27.255  25.944  1.00  0.00     0.015 A 
ATOM     11  C   UNL A   1      30.811  26.201  26.184  1.00  0.00     0.001 A 
BRANCH   7  12
ATOM     12  S   UNL A   1      30.126  28.838  22.478  1.00  0.00    -0.121 SA
BRANCH  12  13
ATOM     13  C   UNL A   1      29.300  30.294  23.215  1.00  0.00     0.101 C 
BRANCH  13  14
ATOM     14  C   UNL A   1      27.805  30.213  23.267  1.00  0.00    -0.024 C 
ATOM     15  C   UNL A   1      27.107  29.092  23.032  1.00  0.00     0.005 C 
ENDBRANCH  13  14
ENDBRANCH  12  13
ENDBRANCH   7  12
ENDBRANCH   3   6
ENDBRANCH   1   2
BRANCH   1  16
ATOM     16  C   UNL A   1      31.331  32.401  26.529  1.00  0.00     0.042 C 
BRANCH  16  17
ATOM     17  C   UNL A   1      32.614  32.911  27.168  1.00  0.00     0.118 C 
BRANCH  17  18
ATOM     18  N   UNL A   1      32.470  34.279  27.641  1.00  0.00    -0.352 N 
ATOM     19  C   UNL A   1      33.046  34.902  28.719  1.00  0.00     0.251 C 
ATOM     20  H   UNL A   1      31.866  34.843  27.106  1.00  0.00     0.163 HD
ATOM     21  O   UNL A   1      32.586  35.980  29.104  1.00  0.00    -0.269 OA
BRANCH  19  22
ATOM     22  C   UNL A   1      34.202  34.309  29.433  1.00  0.00     0.039 A 
ATOM     23  C   UNL A   1      35.484  34.483  28.900  1.00  0.00     0.014 A 
ATOM     24  C   UNL A   1      34.036  33.524  30.577  1.00  0.00     0.014 A 
ATOM     25  C   UNL A   1      36.594  33.910  29.532  1.00  0.00     0.010 A 
ATOM     26  C   UNL A   1      35.148  33.025  31.255  1.00  0.00     0.010 A 
ATOM     27  C   UNL A   1      36.437  33.195  30.730  1.00  0.00    -0.014 A 
BRANCH  27  28
ATOM     28  C   UNL A   1      37.599  32.582  31.425  1.00  0.00     0.031 A 
ATOM     29  C   UNL A   1      38.341  31.437  30.788  1.00  0.00     0.074 A 
ATOM     30  C   UNL A   1      37.952  33.010  32.652  1.00  0.00     0.049 A 
ATOM     31  N   UNL A   1      39.311  30.702  31.271  1.00  0.00    -0.248 NA
ATOM     32  C   UNL A   1      37.913  31.046  29.435  1.00  0.00     0.031 C 
ATOM     33  C   UNL A   1      37.289  34.080  33.398  1.00  0.00     0.029 A 
ATOM     34  N   UNL A   1      38.948  32.585  33.497  1.00  0.00    -0.354 N 
ATOM     35  C   UNL A   1      39.594  29.757  30.294  1.00  0.00     0.074 A 
ATOM     36  C   UNL A   1      38.659  29.974  29.211  1.00  0.00     0.031 C 
ATOM     37  C   UNL A   1      37.899  34.235  34.583  1.00  0.00     0.029 A 
ATOM     38  C   UNL A   1      38.974  33.253  34.697  1.00  0.00     0.049 A 
ATOM     39  H   UNL A   1      39.582  31.868  33.265  1.00  0.00     0.167 HD
ATOM     40  C   UNL A   1      40.561  28.808  30.286  1.00  0.00     0.037 A 
ATOM     41  C   UNL A   1      39.767  33.085  35.772  1.00  0.00     0.037 A 
ATOM     42  C   UNL A   1      41.509  28.610  31.351  1.00  0.00     0.049 A 
ATOM     43  C   UNL A   1      40.842  32.033  35.735  1.00  0.00     0.074 A 
ATOM     44  C   UNL A   1      42.553  27.705  31.421  1.00  0.00     0.029 A 
ATOM     45  N   UNL A   1      41.530  29.337  32.533  1.00  0.00    -0.354 N 
ATOM     46  N   UNL A   1      41.132  31.178  34.785  1.00  0.00    -0.248 NA
ATOM     47  C   UNL A   1      41.709  31.928  36.918  1.00  0.00     0.031 C 
ATOM     48  C   UNL A   1      43.187  27.862  32.659  1.00  0.00     0.029 A 
ATOM     49  C   UNL A   1      42.563  28.894  33.341  1.00  0.00     0.049 A 
ATOM     50  H   UNL A   1      40.903  30.060  32.762  1.00  0.00     0.167 HD
ATOM     51  C   UNL A   1      42.223  30.452  35.241  1.00  0.00     0.074 A 
ATOM     52  C   UNL A   1      42.557  30.978  36.548  1.00  0.00     0.031 C 
ATOM     53  C   UNL A   1      42.887  29.438  34.635  1.00  0.00     0.037 A 
BRANCH  40  54
ATOM     54  C   UNL A   1      40.650  27.917  29.081  1.00  0.00     0.064 A 
ATOM     55  C   UNL A   1      39.843  26.776  28.953  1.00  0.00     0.173 A 
ATOM     56  C   UNL A   1      41.525  28.223  28.028  1.00  0.00     0.173 A 
ATOM     57  F   UNL A   1      38.999  26.433  29.938  1.00  0.00    -0.203 F 
ATOM     58  C   UNL A   1      39.929  25.958  27.829  1.00  0.00     0.198 A 
ATOM     59  C   UNL A   1      41.586  27.420  26.891  1.00  0.00     0.198 A 
ATOM     60  F   UNL A   1      42.313  29.306  28.095  1.00  0.00    -0.203 F 
ATOM     61  F   UNL A   1      39.184  24.848  27.752  1.00  0.00    -0.200 F 
ATOM     62  C   UNL A   1      40.795  26.285  26.796  1.00  0.00     0.200 A 
ATOM     63  F   UNL A   1      42.414  27.742  25.889  1.00  0.00    -0.200 F 
ATOM     64  F   UNL A   1      40.872  25.500  25.713  1.00  0.00    -0.200 F 
ENDBRANCH  40  54
BRANCH  41  65
ATOM     65  C   UNL A   1      39.585  33.945  36.970  1.00  0.00     0.064 A 
ATOM     66  C   UNL A   1      38.818  33.513  38.060  1.00  0.00     0.173 A 
ATOM     67  C   UNL A   1      40.173  35.216  37.048  1.00  0.00     0.173 A 
ATOM     68  F   UNL A   1      38.220  32.313  38.021  1.00  0.00    -0.203 F 
ATOM     69  C   UNL A   1      38.629  34.325  39.175  1.00  0.00     0.198 A 
ATOM     70  C   UNL A   1      40.006  36.018  38.176  1.00  0.00     0.198 A 
ATOM     71  F   UNL A   1      40.921  35.676  36.035  1.00  0.00    -0.203 F 
ATOM     72  F   UNL A   1      37.854  33.904  40.183  1.00  0.00    -0.200 F 
ATOM     73  C   UNL A   1      39.227  35.575  39.235  1.00  0.00     0.200 A 
ATOM     74  F   UNL A   1      40.597  37.218  38.237  1.00  0.00    -0.200 F 
ATOM     75  F   UNL A   1      39.048  36.355  40.310  1.00  0.00    -0.200 F 
ENDBRANCH  41  65
BRANCH  53  76
ATOM     76  C   UNL A   1      44.061  28.854  35.363  1.00  0.00     0.064 A 
ATOM     77  C   UNL A   1      43.910  27.803  36.277  1.00  0.00     0.173 A 
ATOM     78  C   UNL A   1      45.359  29.325  35.109  1.00  0.00     0.173 A 
ATOM     79  F   UNL A   1      42.689  27.328  36.564  1.00  0.00    -0.203 F 
ATOM     80  C   UNL A   1      45.013  27.259  36.930  1.00  0.00     0.198 A 
ATOM     81  C   UNL A   1      46.461  28.762  35.743  1.00  0.00     0.198 A 
ATOM     82  F   UNL A   1      45.556  30.326  34.237  1.00  0.00    -0.203 F 
ATOM     83  F   UNL A   1      44.841  26.284  37.833  1.00  0.00    -0.200 F 
ATOM     84  C   UNL A   1      46.287  27.734  36.658  1.00  0.00     0.200 A 
ATOM     85  F   UNL A   1      47.693  29.214  35.470  1.00  0.00    -0.200 F 
ATOM     86  F   UNL A   1      47.348  27.205  37.282  1.00  0.00    -0.200 F 
ENDBRANCH  53  76
ENDBRANCH  27  28
ENDBRANCH  19  22
ENDBRANCH  17  18
ENDBRANCH  16  17
ENDBRANCH   1  16
TORSDOF 13
ENDMDL
MODEL 2
REMARK VINA RESULT:      -9.7      3.891      9.890
REMARK SMILES C=CCSc1ccccc1C(=O)NCCCNC(=O)c1ccc(-c2c3nc(c(-c4c(F)c(F)c(F)c(F)c4F)c4ccc([nH]4)c(-c4c(F)c(F)c(F)c(F)c4F)c4nc(c(-c5c(F)c(F)c(F)c(F)c5F)c5ccc2[nH]5)C=C4)C=C3)cc1
REMARK SMILES IDX 14 1 13 2 11 3 12 4 10 6 5 7 6 8 7 9 9 10 8 11 4 12 3 13
REMARK SMILES IDX 2 14 1 15 15 16 16 17 17 18 18 19 19 21 20 22 21 23 82 24
REMARK SMILES IDX 22 25 81 26 23 27 24 28 25 29 75 30 26 31 80 32 74 33 76 34
REMARK SMILES IDX 27 35 79 36 73 37 72 38 28 40 60 41 40 42 59 43 41 44 44 45
REMARK SMILES IDX 58 46 77 47 42 48 43 49 57 51 78 52 45 53 29 54 30 55 38 56
REMARK SMILES IDX 31 57 32 58 36 59 39 60 33 61 34 62 37 63 35 64 61 65 62 66
REMARK SMILES IDX 70 67 63 68 64 69 68 70 71 71 65 72 66 73 69 74 67 75 46 76
REMARK SMILES IDX 47 77 55 78 48 79 49 80 53 81 56 82 50 83 51 84 54 85 52 86
REMARK H PARENT 13 5 17 20 76 39 44 50
REMARK Flexibility Score: inf
ROOT
ATOM      1  C   UNL A   1      34.032  34.477  29.983  1.00  0.00     0.118 C 
ENDROOT
BRANCH   1   2
ATOM      2  N   UNL A   1      34.364  33.361  30.840  1.00  0.00    -0.352 N 
ATOM      3  C   UNL A   1      35.554  32.777  31.184  1.00  0.00     0.252 C 
ATOM      4  O   UNL A   1      35.476  31.740  31.850  1.00  0.00    -0.269 OA
ATOM      5  H   UNL A   1      33.581  32.939  31.261  1.00  0.00     0.163 HD
BRANCH   3   6
ATOM      6  C   UNL A   1      36.911  33.358  30.953  1.00  0.00     0.053 A 
ATOM      7  C   UNL A   1      37.724  34.091  31.843  1.00  0.00     0.020 A 
ATOM      8  C   UNL A   1      38.901  34.692  31.344  1.00  0.00     0.016 A 
ATOM      9  C   UNL A   1      39.275  34.578  30.006  1.00  0.00     0.001 A 
ATOM     10  C   UNL A   1      37.312  33.258  29.600  1.00  0.00     0.015 A 
ATOM     11  C   UNL A   1      38.477  33.862  29.129  1.00  0.00     0.001 A 
BRANCH   7  12
ATOM     12  S   UNL A   1      37.290  34.504  33.526  1.00  0.00    -0.121 SA
BRANCH  12  13
ATOM     13  C   UNL A   1      38.238  33.325  34.554  1.00  0.00     0.101 C 
BRANCH  13  14
ATOM     14  C   UNL A   1      37.640  31.954  34.658  1.00  0.00    -0.024 C 
ATOM     15  C   UNL A   1      38.307  30.825  34.378  1.00  0.00     0.005 C 
ENDBRANCH  13  14
ENDBRANCH  12  13
ENDBRANCH   7  12
ENDBRANCH   3   6
ENDBRANCH   1   2
BRANCH   1  16
ATOM     16  C   UNL A   1      33.632  33.968  28.596  1.00  0.00     0.042 C 
BRANCH  16  17
ATOM     17  C   UNL A   1      34.545  32.877  28.057  1.00  0.00     0.118 C 
BRANCH  17  18
ATOM     18  N   UNL A   1      33.804  31.666  27.740  1.00  0.00    -0.352 N 
ATOM     19  C   UNL A   1      34.248  30.377  27.591  1.00  0.00     0.251 C 
ATOM     20  H   UNL A   1      32.836  31.792  27.611  1.00  0.00     0.163 HD
ATOM     21  O   UNL A   1      33.508  29.547  27.057  1.00  0.00    -0.269 OA
BRANCH  19  22
ATOM     22  C   UNL A   1      35.594  29.961  28.051  1.00  0.00     0.039 A 
ATOM     23  C   UNL A   1      35.740  29.472  29.354  1.00  0.00     0.014 A 
ATOM     24  C   UNL A   1      36.726  30.112  27.245  1.00  0.00     0.014 A 
ATOM     25  C   UNL A   1      37.001  29.099  29.831  1.00  0.00     0.010 A 
ATOM     26  C   UNL A   1      37.970  29.661  27.688  1.00  0.00     0.010 A 
ATOM     27  C   UNL A   1      38.125  29.169  28.993  1.00  0.00    -0.014 A 
BRANCH  27  28
ATOM     28  C   UNL A   1      39.476  28.773  29.471  1.00  0.00     0.031 A 
ATOM     29  C   UNL A   1      40.231  29.667  30.419  1.00  0.00     0.074 A 
ATOM     30  C   UNL A   1      40.049  27.646  29.010  1.00  0.00     0.049 A 
ATOM     31  N   UNL A   1      41.454  29.554  30.871  1.00  0.00    -0.248 NA
ATOM     32  C   UNL A   1      39.525  30.866  30.898  1.00  0.00     0.031 C 
ATOM     33  C   UNL A   1      39.443  26.716  28.056  1.00  0.00     0.029 A 
ATOM     34  N   UNL A   1      41.282  27.097  29.270  1.00  0.00    -0.354 N 
ATOM     35  C   UNL A   1      41.668  30.670  31.669  1.00  0.00     0.074 A 
ATOM     36  C   UNL A   1      40.470  31.477  31.598  1.00  0.00     0.031 C 
ATOM     37  C   UNL A   1      40.298  25.710  27.817  1.00  0.00     0.029 A 
ATOM     38  C   UNL A   1      41.526  25.939  28.573  1.00  0.00     0.049 A 
ATOM     39  H   UNL A   1      41.928  27.497  29.895  1.00  0.00     0.167 HD
ATOM     40  C   UNL A   1      42.755  30.984  32.415  1.00  0.00     0.037 A 
ATOM     41  C   UNL A   1      42.621  25.156  28.539  1.00  0.00     0.037 A 
ATOM     42  C   UNL A   1      43.936  30.167  32.509  1.00  0.00     0.049 A 
ATOM     43  C   UNL A   1      43.811  25.519  29.385  1.00  0.00     0.074 A 
ATOM     44  C   UNL A   1      45.073  30.376  33.269  1.00  0.00     0.029 A 
ATOM     45  N   UNL A   1      44.128  28.978  31.820  1.00  0.00    -0.354 N 
ATOM     46  N   UNL A   1      43.982  26.551  30.174  1.00  0.00    -0.248 NA
ATOM     47  C   UNL A   1      44.959  24.601  29.345  1.00  0.00     0.031 C 
ATOM     48  C   UNL A   1      45.967  29.329  33.017  1.00  0.00     0.029 A 
ATOM     49  C   UNL A   1      45.369  28.447  32.132  1.00  0.00     0.049 A 
ATOM     50  H   UNL A   1      43.478  28.572  31.202  1.00  0.00     0.167 HD
ATOM     51  C   UNL A   1      45.240  26.398  30.739  1.00  0.00     0.074 A 
ATOM     52  C   UNL A   1      45.785  25.162  30.218  1.00  0.00     0.031 C 
ATOM     53  C   UNL A   1      45.888  27.209  31.610  1.00  0.00     0.037 A 
BRANCH  40  54
ATOM     54  C   UNL A   1      42.712  32.264  33.201  1.00  0.00     0.064 A 
ATOM     55  C   UNL A   1      42.258  32.291  34.528  1.00  0.00     0.173 A 
ATOM     56  C   UNL A   1      43.158  33.467  32.635  1.00  0.00     0.173 A 
ATOM     57  F   UNL A   1      41.809  31.170  35.111  1.00  0.00    -0.203 F 
ATOM     58  C   UNL A   1      42.226  33.481  35.251  1.00  0.00     0.198 A 
ATOM     59  C   UNL A   1      43.154  34.649  33.371  1.00  0.00     0.198 A 
ATOM     60  F   UNL A   1      43.608  33.495  31.372  1.00  0.00    -0.203 F 
ATOM     61  F   UNL A   1      41.744  33.491  36.500  1.00  0.00    -0.200 F 
ATOM     62  C   UNL A   1      42.681  34.657  34.674  1.00  0.00     0.200 A 
ATOM     63  F   UNL A   1      43.603  35.783  32.817  1.00  0.00    -0.200 F 
ATOM     64  F   UNL A   1      42.656  35.800  35.373  1.00  0.00    -0.200 F 
ENDBRANCH  40  54
BRANCH  41  65
ATOM     65  C   UNL A   1      42.638  23.941  27.684  1.00  0.00     0.064 A 
ATOM     66  C   UNL A   1      42.264  22.692  28.197  1.00  0.00     0.173 A 
ATOM     67  C   UNL A   1      43.027  24.003  26.338  1.00  0.00     0.173 A 
ATOM     68  F   UNL A   1      41.903  22.580  29.484  1.00  0.00    -0.203 F 
ATOM     69  C   UNL A   1      42.298  21.547  27.404  1.00  0.00     0.198 A 
ATOM     70  C   UNL A   1      43.035  22.863  25.537  1.00  0.00     0.198 A 
ATOM     71  F   UNL A   1      43.389  25.175  25.796  1.00  0.00    -0.203 F 
ATOM     72  F   UNL A   1      41.979  20.359  27.933  1.00  0.00    -0.200 F 
ATOM     73  C   UNL A   1      42.678  21.634  26.073  1.00  0.00     0.200 A 
ATOM     74  F   UNL A   1      43.389  22.953  24.248  1.00  0.00    -0.200 F 
ATOM     75  F   UNL A   1      42.707  20.534  25.309  1.00  0.00    -0.200 F 
ENDBRANCH  41  65
BRANCH  53  76
ATOM     76  C   UNL A   1      47.243  26.770  32.079  1.00  0.00     0.064 A 
ATOM     77  C   UNL A   1      47.398  25.903  33.170  1.00  0.00     0.173 A 
ATOM     78  C   UNL A   1      48.399  27.188  31.401  1.00  0.00     0.173 A 
ATOM     79  F   UNL A   1      46.325  25.486  33.859  1.00  0.00    -0.203 F 
ATOM     80  C   UNL A   1      48.663  25.489  33.580  1.00  0.00     0.198 A 
ATOM     81  C   UNL A   1      49.659  26.752  31.798  1.00  0.00     0.198 A 
ATOM     82  F   UNL A   1      48.302  28.013  30.347  1.00  0.00    -0.203 F 
ATOM     83  F   UNL A   1      48.790  24.695  34.652  1.00  0.00    -0.200 F 
ATOM     84  C   UNL A   1      49.790  25.908  32.890  1.00  0.00     0.200 A 
ATOM     85  F   UNL A   1      50.747  27.148  31.122  1.00  0.00    -0.200 F 
ATOM     86  F   UNL A   1      51.006  25.503  33.282  1.00  0.00    -0.200 F 
ENDBRANCH  53  76
ENDBRANCH  27  28
ENDBRANCH  19  22
ENDBRANCH  17  18
ENDBRANCH  16  17
ENDBRANCH   1  16
TORSDOF 13
ENDMDL
MODEL 3
REMARK VINA RESULT:      -9.7      0.286      2.062
REMARK SMILES C=CCSc1ccccc1C(=O)NCCCNC(=O)c1ccc(-c2c3nc(c(-c4c(F)c(F)c(F)c(F)c4F)c4ccc([nH]4)c(-c4c(F)c(F)c(F)c(F)c4F)c4nc(c(-c5c(F)c(F)c(F)c(F)c5F)c5ccc2[nH]5)C=C4)C=C3)cc1
REMARK SMILES IDX 14 1 13 2 11 3 12 4 10 6 5 7 6 8 7 9 9 10 8 11 4 12 3 13
REMARK SMILES IDX 2 14 1 15 15 16 16 17 17 18 18 19 19 21 20 22 21 23 82 24
REMARK SMILES IDX 22 25 81 26 23 27 24 28 25 29 75 30 26 31 80 32 74 33 76 34
REMARK SMILES IDX 27 35 79 36 73 37 72 38 28 40 60 41 40 42 59 43 41 44 44 45
REMARK SMILES IDX 58 46 77 47 42 48 43 49 57 51 78 52 45 53 29 54 30 55 38 56
REMARK SMILES IDX 31 57 32 58 36 59 39 60 33 61 34 62 37 63 35 64 61 65 62 66
REMARK SMILES IDX 70 67 63 68 64 69 68 70 71 71 65 72 66 73 69 74 67 75 46 76
REMARK SMILES IDX 47 77 55 78 48 79 49 80 53 81 56 82 50 83 51 84 54 85 52 86
REMARK H PARENT 13 5 17 20 76 39 44 50
REMARK Flexibility Score: inf
ROOT
ATOM      1  C   UNL A   1      31.164  30.923  26.272  1.00  0.00     0.118 C 
ENDROOT
BRANCH   1   2
ATOM      2  N   UNL A   1      32.334  30.379  25.619  1.00  0.00    -0.352 N 
ATOM      3  C   UNL A   1      32.633  29.131  25.139  1.00  0.00     0.252 C 
ATOM      4  O   UNL A   1      33.792  28.966  24.747  1.00  0.00    -0.269 OA
ATOM      5  H   UNL A   1      33.058  31.034  25.494  1.00  0.00     0.163 HD
BRANCH   3   6
ATOM      6  C   UNL A   1      31.656  28.024  24.916  1.00  0.00     0.053 A 
ATOM      7  C   UNL A   1      30.728  27.858  23.866  1.00  0.00     0.020 A 
ATOM      8  C   UNL A   1      29.781  26.815  23.958  1.00  0.00     0.016 A 
ATOM      9  C   UNL A   1      29.741  25.953  25.053  1.00  0.00     0.001 A 
ATOM     10  C   UNL A   1      31.593  27.136  26.016  1.00  0.00     0.015 A 
ATOM     11  C   UNL A   1      30.647  26.114  26.088  1.00  0.00     0.001 A 
BRANCH   7  12
ATOM     12  S   UNL A   1      30.512  28.991  22.501  1.00  0.00    -0.121 SA
BRANCH  12  13
ATOM     13  C   UNL A   1      28.798  29.607  22.674  1.00  0.00     0.101 C 
BRANCH  13  14
ATOM     14  C   UNL A   1      28.659  30.878  23.455  1.00  0.00    -0.024 C 
ATOM     15  C   UNL A   1      27.511  31.560  23.576  1.00  0.00     0.005 C 
ENDBRANCH  13  14
ENDBRANCH  12  13
ENDBRANCH   7  12
ENDBRANCH   3   6
ENDBRANCH   1   2
BRANCH   1  16
ATOM     16  C   UNL A   1      31.305  32.441  26.413  1.00  0.00     0.042 C 
BRANCH  16  17
ATOM     17  C   UNL A   1      32.531  32.871  27.203  1.00  0.00     0.118 C 
BRANCH  17  18
ATOM     18  N   UNL A   1      32.443  34.264  27.614  1.00  0.00    -0.352 N 
ATOM     19  C   UNL A   1      33.063  34.916  28.648  1.00  0.00     0.251 C 
ATOM     20  H   UNL A   1      31.846  34.822  27.066  1.00  0.00     0.163 HD
ATOM     21  O   UNL A   1      32.647  36.026  28.992  1.00  0.00    -0.269 OA
BRANCH  19  22
ATOM     22  C   UNL A   1      34.215  34.318  29.366  1.00  0.00     0.039 A 
ATOM     23  C   UNL A   1      35.507  34.562  28.887  1.00  0.00     0.014 A 
ATOM     24  C   UNL A   1      34.039  33.463  30.457  1.00  0.00     0.014 A 
ATOM     25  C   UNL A   1      36.614  33.989  29.521  1.00  0.00     0.010 A 
ATOM     26  C   UNL A   1      35.145  32.960  31.142  1.00  0.00     0.010 A 
ATOM     27  C   UNL A   1      36.444  33.200  30.670  1.00  0.00    -0.014 A 
BRANCH  27  28
ATOM     28  C   UNL A   1      37.603  32.584  31.368  1.00  0.00     0.031 A 
ATOM     29  C   UNL A   1      38.342  31.437  30.731  1.00  0.00     0.074 A 
ATOM     30  C   UNL A   1      37.955  33.011  32.595  1.00  0.00     0.049 A 
ATOM     31  N   UNL A   1      39.308  30.699  31.216  1.00  0.00    -0.248 NA
ATOM     32  C   UNL A   1      37.915  31.047  29.377  1.00  0.00     0.031 C 
ATOM     33  C   UNL A   1      37.293  34.083  33.339  1.00  0.00     0.029 A 
ATOM     34  N   UNL A   1      38.947  32.582  33.442  1.00  0.00    -0.354 N 
ATOM     35  C   UNL A   1      39.590  29.753  30.240  1.00  0.00     0.074 A 
ATOM     36  C   UNL A   1      38.659  29.973  29.155  1.00  0.00     0.031 C 
ATOM     37  C   UNL A   1      37.901  34.236  34.526  1.00  0.00     0.029 A 
ATOM     38  C   UNL A   1      38.973  33.250  34.641  1.00  0.00     0.049 A 
ATOM     39  H   UNL A   1      39.580  31.864  33.210  1.00  0.00     0.167 HD
ATOM     40  C   UNL A   1      40.554  28.801  30.234  1.00  0.00     0.037 A 
ATOM     41  C   UNL A   1      39.764  33.080  35.718  1.00  0.00     0.037 A 
ATOM     42  C   UNL A   1      41.500  28.601  31.300  1.00  0.00     0.049 A 
ATOM     43  C   UNL A   1      40.836  32.025  35.683  1.00  0.00     0.074 A 
ATOM     44  C   UNL A   1      42.542  27.692  31.371  1.00  0.00     0.029 A 
ATOM     45  N   UNL A   1      41.521  29.327  32.482  1.00  0.00    -0.354 N 
ATOM     46  N   UNL A   1      41.125  31.169  34.733  1.00  0.00    -0.248 NA
ATOM     47  C   UNL A   1      41.701  31.918  36.867  1.00  0.00     0.031 C 
ATOM     48  C   UNL A   1      43.174  27.848  32.610  1.00  0.00     0.029 A 
ATOM     49  C   UNL A   1      42.552  28.881  33.292  1.00  0.00     0.049 A 
ATOM     50  H   UNL A   1      40.896  30.052  32.710  1.00  0.00     0.167 HD
ATOM     51  C   UNL A   1      42.213  30.440  35.192  1.00  0.00     0.074 A 
ATOM     52  C   UNL A   1      42.547  30.965  36.499  1.00  0.00     0.031 C 
ATOM     53  C   UNL A   1      42.875  29.424  34.586  1.00  0.00     0.037 A 
BRANCH  40  54
ATOM     54  C   UNL A   1      40.643  27.910  29.028  1.00  0.00     0.064 A 
ATOM     55  C   UNL A   1      41.531  28.188  27.977  1.00  0.00     0.173 A 
ATOM     56  C   UNL A   1      39.859  26.750  28.936  1.00  0.00     0.173 A 
ATOM     57  F   UNL A   1      42.293  29.290  28.011  1.00  0.00    -0.203 F 
ATOM     58  C   UNL A   1      41.610  27.353  26.865  1.00  0.00     0.198 A 
ATOM     59  C   UNL A   1      39.963  25.901  27.837  1.00  0.00     0.198 A 
ATOM     60  F   UNL A   1      39.000  26.434  29.915  1.00  0.00    -0.203 F 
ATOM     61  F   UNL A   1      42.429  27.664  25.853  1.00  0.00    -0.200 F 
ATOM     62  C   UNL A   1      40.832  26.207  26.799  1.00  0.00     0.200 A 
ATOM     63  F   UNL A   1      39.220  24.788  27.779  1.00  0.00    -0.200 F 
ATOM     64  F   UNL A   1      40.914  25.401  25.732  1.00  0.00    -0.200 F 
ENDBRANCH  40  54
BRANCH  41  65
ATOM     65  C   UNL A   1      39.583  33.941  36.915  1.00  0.00     0.064 A 
ATOM     66  C   UNL A   1      40.194  35.200  36.999  1.00  0.00     0.173 A 
ATOM     67  C   UNL A   1      38.797  33.524  37.999  1.00  0.00     0.173 A 
ATOM     68  F   UNL A   1      40.972  35.632  35.995  1.00  0.00    -0.203 F 
ATOM     69  C   UNL A   1      40.043  36.000  38.128  1.00  0.00     0.198 A 
ATOM     70  C   UNL A   1      38.623  34.337  39.118  1.00  0.00     0.198 A 
ATOM     71  F   UNL A   1      38.185  32.331  37.967  1.00  0.00    -0.203 F 
ATOM     72  F   UNL A   1      40.674  37.179  38.200  1.00  0.00    -0.200 F 
ATOM     73  C   UNL A   1      39.253  35.571  39.185  1.00  0.00     0.200 A 
ATOM     74  F   UNL A   1      37.848  33.926  40.130  1.00  0.00    -0.200 F 
ATOM     75  F   UNL A   1      39.104  36.343  40.270  1.00  0.00    -0.200 F 
ENDBRANCH  41  65
BRANCH  53  76
ATOM     76  C   UNL A   1      44.046  28.837  35.316  1.00  0.00     0.064 A 
ATOM     77  C   UNL A   1      45.345  29.335  35.141  1.00  0.00     0.173 A 
ATOM     78  C   UNL A   1      43.859  27.791  36.233  1.00  0.00     0.173 A 
ATOM     79  F   UNL A   1      45.578  30.324  34.266  1.00  0.00    -0.203 F 
ATOM     80  C   UNL A   1      46.419  28.790  35.842  1.00  0.00     0.198 A 
ATOM     81  C   UNL A   1      44.930  27.267  36.949  1.00  0.00     0.198 A 
ATOM     82  F   UNL A   1      42.633  27.285  36.438  1.00  0.00    -0.203 F 
ATOM     83  F   UNL A   1      47.658  29.252  35.628  1.00  0.00    -0.200 F 
ATOM     84  C   UNL A   1      46.209  27.763  36.749  1.00  0.00     0.200 A 
ATOM     85  F   UNL A   1      44.724  26.282  37.835  1.00  0.00    -0.200 F 
ATOM     86  F   UNL A   1      47.243  27.245  37.427  1.00  0.00    -0.200 F 
ENDBRANCH  53  76
ENDBRANCH  27  28
ENDBRANCH  19  22
ENDBRANCH  17  18
ENDBRANCH  16  17
ENDBRANCH   1  16
TORSDOF 13
ENDMDL
