MODEL 1
REMARK VINA RESULT:     -14.6      0.000      0.000
REMARK SMILES Cc1cccc(-c2ncc(C[NH+]3CCC4(CC3)NC(=O)C[C@H]4C(=O)NCCCNC(=O)c3ccc(-c4c5nc(c(-c6c(F)c(F)c(F)c(F)c6F)c6ccc([nH]6)c(-c6c(F)c(F)c(F)c(F)c6F)c6nc(c(-c7c(F)c(F)c(F)c(F)c7F)c7ccc4[nH]7)C=C6)C=C5)cc3)cn2)c1
REMARK SMILES IDX 26 1 25 2 23 3 24 4 22 6 12 7 13 8 17 9 14 11 16 12 15 13
REMARK SMILES IDX 18 14 19 15 21 17 20 18 11 19 10 20 7 21 8 22 96 23 9 24
REMARK SMILES IDX 95 25 6 26 1 27 2 28 3 29 97 30 4 31 5 32 27 33 28 34 29 35
REMARK SMILES IDX 30 36 31 38 32 39 33 40 94 41 34 42 93 43 35 44 36 45 37 46
REMARK SMILES IDX 87 47 38 48 92 49 86 50 88 51 39 52 91 53 85 54 84 55 40 57
REMARK SMILES IDX 72 58 52 59 71 60 53 61 56 62 70 63 89 64 54 65 55 66 69 68
REMARK SMILES IDX 90 69 57 70 41 71 42 72 50 73 43 74 44 75 48 76 51 77 45 78
REMARK SMILES IDX 46 79 49 80 47 81 73 82 74 83 82 84 75 85 76 86 80 87 83 88
REMARK SMILES IDX 77 89 78 90 81 91 79 92 58 93 59 94 67 95 60 96 61 97 65 98
REMARK SMILES IDX 68 99 62 100 63 101 66 102 64 103
REMARK H PARENT 25 5 12 10 18 16 29 37 88 56 56 67
REMARK Flexibility Score: inf
ROOT
ATOM      1  C   UNL A   1      36.221  22.018  26.331  1.00  0.00     0.117 C 
ENDROOT
BRANCH   1   2
ATOM      2  N   UNL A   1      34.995  21.222  26.418  1.00  0.00    -0.356 N 
ATOM      3  C   UNL A   1      33.911  21.034  25.608  1.00  0.00     0.226 C 
ATOM      4  O   UNL A   1      33.080  20.208  26.008  1.00  0.00    -0.275 OA
ATOM      5  H   UNL A   1      34.939  20.702  27.251  1.00  0.00     0.163 HD
BRANCH   3   6
ATOM      6  C   UNL A   1      33.598  21.817  24.319  1.00  0.00     0.114 C 
ATOM      7  N   UNL A   1      30.270  24.169  25.175  1.00  0.00    -0.331 N 
ATOM      8  C   UNL A   1      30.590  23.859  23.787  1.00  0.00     0.264 C 
ATOM      9  C   UNL A   1      31.006  23.301  26.070  1.00  0.00     0.264 C 
ATOM     10  H   UNL A   1      29.277  23.945  25.248  1.00  0.00     0.348 HD
ATOM     11  C   UNL A   1      32.079  23.785  23.421  1.00  0.00     0.091 C 
ATOM     12  C   UNL A   1      32.503  23.476  25.918  1.00  0.00     0.091 C 
ATOM     13  C   UNL A   1      33.065  23.257  24.510  1.00  0.00     0.063 C 
ATOM     14  N   UNL A   1      34.283  24.022  24.279  1.00  0.00    -0.349 N 
ATOM     15  C   UNL A   1      35.243  23.357  23.542  1.00  0.00     0.221 C 
ATOM     16  H   UNL A   1      34.412  24.936  24.619  1.00  0.00     0.164 HD
ATOM     17  C   UNL A   1      34.827  21.918  23.412  1.00  0.00     0.116 C 
ATOM     18  O   UNL A   1      36.254  23.853  23.103  1.00  0.00    -0.275 OA
BRANCH   7  19
ATOM     19  C   UNL A   1      30.108  25.573  25.600  1.00  0.00     0.302 C 
BRANCH  19  20
ATOM     20  C   UNL A   1      29.858  26.606  24.533  1.00  0.00     0.043 A 
ATOM     21  C   UNL A   1      29.241  28.809  23.052  1.00  0.00     0.159 A 
ATOM     22  N   UNL A   1      30.488  28.709  23.552  1.00  0.00    -0.236 NA
ATOM     23  N   UNL A   1      28.301  27.848  23.155  1.00  0.00    -0.236 NA
ATOM     24  C   UNL A   1      30.779  27.586  24.238  1.00  0.00     0.124 A 
ATOM     25  C   UNL A   1      28.640  26.759  23.888  1.00  0.00     0.124 A 
BRANCH  21  26
ATOM     26  C   UNL A   1      28.855  30.108  22.480  1.00  0.00     0.019 A 
ATOM     27  C   UNL A   1      29.134  33.840  23.349  1.00  0.00     0.044 C 
ATOM     28  C   UNL A   1      28.816  32.570  22.610  1.00  0.00    -0.050 A 
ATOM     29  C   UNL A   1      28.155  32.617  21.383  1.00  0.00     0.003 A 
ATOM     30  C   UNL A   1      29.180  31.319  23.129  1.00  0.00     0.015 A 
ATOM     31  C   UNL A   1      27.833  31.435  20.714  1.00  0.00     0.001 A 
ATOM     32  C   UNL A   1      28.162  30.192  21.267  1.00  0.00     0.012 A 
ENDBRANCH  21  26
ENDBRANCH  19  20
ENDBRANCH   7  19
ENDBRANCH   3   6
ENDBRANCH   1   2
BRANCH   1  33
ATOM     33  C   UNL A   1      37.457  21.271  25.836  1.00  0.00     0.042 C 
BRANCH  33  34
ATOM     34  C   UNL A   1      38.549  22.147  25.243  1.00  0.00     0.118 C 
BRANCH  34  35
ATOM     35  N   UNL A   1      39.725  22.181  26.123  1.00  0.00    -0.352 N 
ATOM     36  C   UNL A   1      40.388  23.226  26.739  1.00  0.00     0.251 C 
ATOM     37  H   UNL A   1      40.111  21.296  26.310  1.00  0.00     0.163 HD
ATOM     38  O   UNL A   1      41.422  23.032  27.367  1.00  0.00    -0.269 OA
BRANCH  36  39
ATOM     39  C   UNL A   1      39.725  24.541  26.813  1.00  0.00     0.039 A 
ATOM     40  C   UNL A   1      40.430  25.574  26.181  1.00  0.00     0.014 A 
ATOM     41  C   UNL A   1      38.859  24.787  27.867  1.00  0.00     0.014 A 
ATOM     42  C   UNL A   1      40.567  26.779  26.843  1.00  0.00     0.010 A 
ATOM     43  C   UNL A   1      39.101  25.925  28.595  1.00  0.00     0.010 A 
ATOM     44  C   UNL A   1      40.018  26.868  28.115  1.00  0.00    -0.014 A 
BRANCH  44  45
ATOM     45  C   UNL A   1      40.294  27.956  29.023  1.00  0.00     0.031 A 
ATOM     46  C   UNL A   1      39.318  29.051  29.025  1.00  0.00     0.074 A 
ATOM     47  C   UNL A   1      41.321  27.848  29.894  1.00  0.00     0.049 A 
ATOM     48  N   UNL A   1      39.558  30.234  29.453  1.00  0.00    -0.248 NA
ATOM     49  C   UNL A   1      37.973  28.903  28.471  1.00  0.00     0.031 C 
ATOM     50  C   UNL A   1      41.598  28.667  31.070  1.00  0.00     0.029 A 
ATOM     51  N   UNL A   1      42.462  27.035  29.769  1.00  0.00    -0.354 N 
ATOM     52  C   UNL A   1      38.353  30.895  29.528  1.00  0.00     0.074 A 
ATOM     53  C   UNL A   1      37.417  30.065  28.816  1.00  0.00     0.031 C 
ATOM     54  C   UNL A   1      42.905  28.567  31.371  1.00  0.00     0.029 A 
ATOM     55  C   UNL A   1      43.526  27.799  30.307  1.00  0.00     0.049 A 
ATOM     56  H   UNL A   1      42.510  26.128  29.390  1.00  0.00     0.167 HD
ATOM     57  C   UNL A   1      38.281  31.990  30.333  1.00  0.00     0.037 A 
ATOM     58  C   UNL A   1      44.531  28.255  29.502  1.00  0.00     0.037 A 
ATOM     59  C   UNL A   1      39.607  32.287  30.870  1.00  0.00     0.049 A 
ATOM     60  C   UNL A   1      44.583  29.765  29.456  1.00  0.00     0.074 A 
ATOM     61  C   UNL A   1      40.230  31.931  32.054  1.00  0.00     0.029 A 
ATOM     62  N   UNL A   1      40.617  32.663  29.990  1.00  0.00    -0.354 N 
ATOM     63  N   UNL A   1      43.544  30.535  29.644  1.00  0.00    -0.248 NA
ATOM     64  C   UNL A   1      45.815  30.519  29.262  1.00  0.00     0.031 C 
ATOM     65  C   UNL A   1      41.632  32.056  31.866  1.00  0.00     0.029 A 
ATOM     66  C   UNL A   1      41.858  32.507  30.577  1.00  0.00     0.049 A 
ATOM     67  H   UNL A   1      40.469  32.995  29.074  1.00  0.00     0.167 HD
ATOM     68  C   UNL A   1      43.944  31.850  29.642  1.00  0.00     0.074 A 
ATOM     69  C   UNL A   1      45.373  31.782  29.398  1.00  0.00     0.031 C 
ATOM     70  C   UNL A   1      43.073  32.882  29.867  1.00  0.00     0.037 A 
BRANCH  57  71
ATOM     71  C   UNL A   1      37.001  32.580  30.874  1.00  0.00     0.064 A 
ATOM     72  C   UNL A   1      36.218  33.433  30.065  1.00  0.00     0.173 A 
ATOM     73  C   UNL A   1      36.509  32.396  32.181  1.00  0.00     0.173 A 
ATOM     74  F   UNL A   1      36.520  33.650  28.778  1.00  0.00    -0.203 F 
ATOM     75  C   UNL A   1      35.094  34.108  30.546  1.00  0.00     0.198 A 
ATOM     76  C   UNL A   1      35.408  33.104  32.676  1.00  0.00     0.198 A 
ATOM     77  F   UNL A   1      37.037  31.488  33.008  1.00  0.00    -0.203 F 
ATOM     78  F   UNL A   1      34.401  34.910  29.726  1.00  0.00    -0.200 F 
ATOM     79  C   UNL A   1      34.703  33.964  31.859  1.00  0.00     0.200 A 
ATOM     80  F   UNL A   1      35.032  32.941  33.953  1.00  0.00    -0.200 F 
ATOM     81  F   UNL A   1      33.640  34.631  32.330  1.00  0.00    -0.200 F 
ENDBRANCH  57  71
BRANCH  58  82
ATOM     82  C   UNL A   1      44.812  27.317  28.375  1.00  0.00     0.064 A 
ATOM     83  C   UNL A   1      45.211  26.006  28.720  1.00  0.00     0.173 A 
ATOM     84  C   UNL A   1      44.264  27.506  27.102  1.00  0.00     0.173 A 
ATOM     85  F   UNL A   1      45.764  25.770  29.921  1.00  0.00    -0.203 F 
ATOM     86  C   UNL A   1      44.889  24.915  27.916  1.00  0.00     0.198 A 
ATOM     87  C   UNL A   1      43.984  26.410  26.278  1.00  0.00     0.198 A 
ATOM     88  F   UNL A   1      43.875  28.726  26.704  1.00  0.00    -0.203 F 
ATOM     89  F   UNL A   1      45.112  23.669  28.361  1.00  0.00    -0.200 F 
ATOM     90  C   UNL A   1      44.242  25.117  26.711  1.00  0.00     0.200 A 
ATOM     91  F   UNL A   1      43.361  26.602  25.105  1.00  0.00    -0.200 F 
ATOM     92  F   UNL A   1      43.829  24.065  25.989  1.00  0.00    -0.200 F 
ENDBRANCH  58  82
BRANCH  70  93
ATOM     93  C   UNL A   1      43.295  34.355  29.564  1.00  0.00     0.064 A 
ATOM     94  C   UNL A   1      43.439  35.354  30.539  1.00  0.00     0.173 A 
ATOM     95  C   UNL A   1      43.527  34.792  28.230  1.00  0.00     0.173 A 
ATOM     96  F   UNL A   1      43.392  35.075  31.846  1.00  0.00    -0.203 F 
ATOM     97  C   UNL A   1      43.707  36.686  30.208  1.00  0.00     0.198 A 
ATOM     98  C   UNL A   1      43.880  36.103  27.912  1.00  0.00     0.198 A 
ATOM     99  F   UNL A   1      43.455  33.961  27.181  1.00  0.00    -0.203 F 
ATOM    100  F   UNL A   1      43.767  37.606  31.180  1.00  0.00    -0.200 F 
ATOM    101  C   UNL A   1      43.943  37.057  28.899  1.00  0.00     0.200 A 
ATOM    102  F   UNL A   1      44.177  36.421  26.644  1.00  0.00    -0.200 F 
ATOM    103  F   UNL A   1      44.256  38.323  28.595  1.00  0.00    -0.200 F 
ENDBRANCH  70  93
ENDBRANCH  44  45
ENDBRANCH  36  39
ENDBRANCH  34  35
ENDBRANCH  33  34
ENDBRANCH   1  33
TORSDOF 13
ENDMDL
MODEL 2
REMARK VINA RESULT:     -14.3      1.356      2.172
REMARK SMILES Cc1cccc(-c2ncc(C[NH+]3CCC4(CC3)NC(=O)C[C@H]4C(=O)NCCCNC(=O)c3ccc(-c4c5nc(c(-c6c(F)c(F)c(F)c(F)c6F)c6ccc([nH]6)c(-c6c(F)c(F)c(F)c(F)c6F)c6nc(c(-c7c(F)c(F)c(F)c(F)c7F)c7ccc4[nH]7)C=C6)C=C5)cc3)cn2)c1
REMARK SMILES IDX 26 1 25 2 23 3 24 4 22 6 12 7 13 8 17 9 14 11 16 12 15 13
REMARK SMILES IDX 18 14 19 15 21 17 20 18 11 19 10 20 7 21 8 22 96 23 9 24
REMARK SMILES IDX 95 25 6 26 1 27 2 28 3 29 97 30 4 31 5 32 27 33 28 34 29 35
REMARK SMILES IDX 30 36 31 38 32 39 33 40 94 41 34 42 93 43 35 44 36 45 37 46
REMARK SMILES IDX 87 47 38 48 92 49 86 50 88 51 39 52 91 53 85 54 84 55 40 57
REMARK SMILES IDX 72 58 52 59 71 60 53 61 56 62 70 63 89 64 54 65 55 66 69 68
REMARK SMILES IDX 90 69 57 70 41 71 42 72 50 73 43 74 44 75 48 76 51 77 45 78
REMARK SMILES IDX 46 79 49 80 47 81 73 82 74 83 82 84 75 85 76 86 80 87 83 88
REMARK SMILES IDX 77 89 78 90 81 91 79 92 58 93 59 94 67 95 60 96 61 97 65 98
REMARK SMILES IDX 68 99 62 100 63 101 66 102 64 103
REMARK H PARENT 25 5 12 10 18 16 29 37 88 56 56 67
REMARK Flexibility Score: inf
ROOT
ATOM      1  C   UNL A   1      36.437  22.880  26.199  1.00  0.00     0.117 C 
ENDROOT
BRANCH   1   2
ATOM      2  N   UNL A   1      36.434  21.571  25.544  1.00  0.00    -0.356 N 
ATOM      3  C   UNL A   1      35.480  20.631  25.276  1.00  0.00     0.226 C 
ATOM      4  O   UNL A   1      35.861  19.648  24.628  1.00  0.00    -0.275 OA
ATOM      5  H   UNL A   1      37.326  21.306  25.222  1.00  0.00     0.163 HD
BRANCH   3   6
ATOM      6  C   UNL A   1      34.026  20.647  25.786  1.00  0.00     0.114 C 
ATOM      7  N   UNL A   1      32.427  24.307  24.608  1.00  0.00    -0.331 N 
ATOM      8  C   UNL A   1      31.811  23.577  25.709  1.00  0.00     0.264 C 
ATOM      9  C   UNL A   1      33.738  23.767  24.314  1.00  0.00     0.264 C 
ATOM     10  H   UNL A   1      32.540  25.251  24.978  1.00  0.00     0.348 HD
ATOM     11  C   UNL A   1      31.792  22.046  25.600  1.00  0.00     0.091 C 
ATOM     12  C   UNL A   1      33.666  22.314  23.890  1.00  0.00     0.091 C 
ATOM     13  C   UNL A   1      32.994  21.359  24.880  1.00  0.00     0.063 C 
ATOM     14  N   UNL A   1      32.393  20.211  24.214  1.00  0.00    -0.349 N 
ATOM     15  C   UNL A   1      32.531  19.019  24.896  1.00  0.00     0.221 C 
ATOM     16  H   UNL A   1      31.926  20.279  23.349  1.00  0.00     0.164 HD
ATOM     17  C   UNL A   1      33.500  19.229  26.025  1.00  0.00     0.116 C 
ATOM     18  O   UNL A   1      31.979  17.982  24.608  1.00  0.00    -0.275 OA
BRANCH   7  19
ATOM     19  C   UNL A   1      31.611  24.727  23.452  1.00  0.00     0.302 C 
BRANCH  19  20
ATOM     20  C   UNL A   1      31.402  26.204  23.240  1.00  0.00     0.043 A 
ATOM     21  C   UNL A   1      30.462  28.745  22.950  1.00  0.00     0.159 A 
ATOM     22  N   UNL A   1      30.792  28.328  24.187  1.00  0.00    -0.236 NA
ATOM     23  N   UNL A   1      30.653  28.023  21.827  1.00  0.00    -0.236 NA
ATOM     24  C   UNL A   1      31.301  27.084  24.293  1.00  0.00     0.124 A 
ATOM     25  C   UNL A   1      31.132  26.767  22.001  1.00  0.00     0.124 A 
BRANCH  21  26
ATOM     26  C   UNL A   1      29.725  30.014  22.850  1.00  0.00     0.019 A 
ATOM     27  C   UNL A   1      27.980  32.133  20.163  1.00  0.00     0.044 C 
ATOM     28  C   UNL A   1      28.493  31.666  21.496  1.00  0.00    -0.050 A 
ATOM     29  C   UNL A   1      28.275  32.431  22.641  1.00  0.00     0.003 A 
ATOM     30  C   UNL A   1      29.191  30.456  21.620  1.00  0.00     0.015 A 
ATOM     31  C   UNL A   1      28.780  32.010  23.872  1.00  0.00     0.001 A 
ATOM     32  C   UNL A   1      29.514  30.824  23.972  1.00  0.00     0.012 A 
ENDBRANCH  21  26
ENDBRANCH  19  20
ENDBRANCH   7  19
ENDBRANCH   3   6
ENDBRANCH   1   2
BRANCH   1  33
ATOM     33  C   UNL A   1      37.788  23.589  26.248  1.00  0.00     0.042 C 
BRANCH  33  34
ATOM     34  C   UNL A   1      38.968  22.769  25.750  1.00  0.00     0.118 C 
BRANCH  34  35
ATOM     35  N   UNL A   1      40.121  22.918  26.647  1.00  0.00    -0.352 N 
ATOM     36  C   UNL A   1      40.671  24.024  27.269  1.00  0.00     0.251 C 
ATOM     37  H   UNL A   1      40.589  22.075  26.841  1.00  0.00     0.163 HD
ATOM     38  O   UNL A   1      41.710  23.931  27.913  1.00  0.00    -0.269 OA
BRANCH  36  39
ATOM     39  C   UNL A   1      39.882  25.268  27.331  1.00  0.00     0.039 A 
ATOM     40  C   UNL A   1      40.399  26.312  26.552  1.00  0.00     0.014 A 
ATOM     41  C   UNL A   1      39.115  25.510  28.459  1.00  0.00     0.014 A 
ATOM     42  C   UNL A   1      40.477  27.573  27.110  1.00  0.00     0.010 A 
ATOM     43  C   UNL A   1      39.310  26.720  29.075  1.00  0.00     0.010 A 
ATOM     44  C   UNL A   1      40.063  27.709  28.428  1.00  0.00    -0.014 A 
BRANCH  44  45
ATOM     45  C   UNL A   1      40.317  28.888  29.222  1.00  0.00     0.031 A 
ATOM     46  C   UNL A   1      39.245  29.888  29.244  1.00  0.00     0.074 A 
ATOM     47  C   UNL A   1      41.428  28.944  29.989  1.00  0.00     0.049 A 
ATOM     48  N   UNL A   1      39.408  31.118  29.558  1.00  0.00    -0.248 NA
ATOM     49  C   UNL A   1      37.874  29.576  28.842  1.00  0.00     0.031 C 
ATOM     50  C   UNL A   1      41.734  29.878  31.068  1.00  0.00     0.029 A 
ATOM     51  N   UNL A   1      42.625  28.228  29.808  1.00  0.00    -0.354 N 
ATOM     52  C   UNL A   1      38.158  31.674  29.707  1.00  0.00     0.074 A 
ATOM     53  C   UNL A   1      37.243  30.708  29.157  1.00  0.00     0.031 C 
ATOM     54  C   UNL A   1      43.067  29.919  31.241  1.00  0.00     0.029 A 
ATOM     55  C   UNL A   1      43.656  29.125  30.178  1.00  0.00     0.049 A 
ATOM     56  H   UNL A   1      42.725  27.301  29.493  1.00  0.00     0.167 HD
ATOM     57  C   UNL A   1      38.057  32.820  30.434  1.00  0.00     0.037 A 
ATOM     58  C   UNL A   1      44.531  29.601  29.243  1.00  0.00     0.037 A 
ATOM     59  C   UNL A   1      39.393  33.277  30.809  1.00  0.00     0.049 A 
ATOM     60  C   UNL A   1      44.432  31.101  29.082  1.00  0.00     0.074 A 
ATOM     61  C   UNL A   1      40.157  33.076  31.947  1.00  0.00     0.029 A 
ATOM     62  N   UNL A   1      40.274  33.668  29.806  1.00  0.00    -0.354 N 
ATOM     63  N   UNL A   1      43.346  31.788  29.319  1.00  0.00    -0.248 NA
ATOM     64  C   UNL A   1      45.561  31.944  28.709  1.00  0.00     0.031 C 
ATOM     65  C   UNL A   1      41.515  33.310  31.608  1.00  0.00     0.029 A 
ATOM     66  C   UNL A   1      41.573  33.672  30.273  1.00  0.00     0.049 A 
ATOM     67  H   UNL A   1      40.008  33.909  28.889  1.00  0.00     0.167 HD
ATOM     68  C   UNL A   1      43.615  33.129  29.180  1.00  0.00     0.074 A 
ATOM     69  C   UNL A   1      45.014  33.169  28.798  1.00  0.00     0.031 C 
ATOM     70  C   UNL A   1      42.674  34.094  29.418  1.00  0.00     0.037 A 
BRANCH  57  71
ATOM     71  C   UNL A   1      36.783  33.336  31.059  1.00  0.00     0.064 A 
ATOM     72  C   UNL A   1      35.803  33.960  30.254  1.00  0.00     0.173 A 
ATOM     73  C   UNL A   1      36.478  33.300  32.433  1.00  0.00     0.173 A 
ATOM     74  F   UNL A   1      35.918  34.009  28.921  1.00  0.00    -0.203 F 
ATOM     75  C   UNL A   1      34.664  34.567  30.787  1.00  0.00     0.198 A 
ATOM     76  C   UNL A   1      35.358  33.945  32.972  1.00  0.00     0.198 A 
ATOM     77  F   UNL A   1      37.216  32.596  33.297  1.00  0.00    -0.203 F 
ATOM     78  F   UNL A   1      33.778  35.149  29.967  1.00  0.00    -0.200 F 
ATOM     79  C   UNL A   1      34.454  34.584  32.149  1.00  0.00     0.200 A 
ATOM     80  F   UNL A   1      35.162  33.938  34.298  1.00  0.00    -0.200 F 
ATOM     81  F   UNL A   1      33.375  35.189  32.664  1.00  0.00    -0.200 F 
ENDBRANCH  57  71
BRANCH  58  82
ATOM     82  C   UNL A   1      44.794  28.603  28.165  1.00  0.00     0.064 A 
ATOM     83  C   UNL A   1      45.341  27.362  28.563  1.00  0.00     0.173 A 
ATOM     84  C   UNL A   1      44.117  28.642  26.941  1.00  0.00     0.173 A 
ATOM     85  F   UNL A   1      46.020  27.271  29.718  1.00  0.00    -0.203 F 
ATOM     86  C   UNL A   1      45.048  26.187  27.874  1.00  0.00     0.198 A 
ATOM     87  C   UNL A   1      43.865  27.464  26.229  1.00  0.00     0.198 A 
ATOM     88  F   UNL A   1      43.584  29.789  26.496  1.00  0.00    -0.203 F 
ATOM     89  F   UNL A   1      45.424  25.004  28.384  1.00  0.00    -0.200 F 
ATOM     90  C   UNL A   1      44.279  26.236  26.726  1.00  0.00     0.200 A 
ATOM     91  F   UNL A   1      43.124  27.507  25.112  1.00  0.00    -0.200 F 
ATOM     92  F   UNL A   1      43.900  25.099  26.127  1.00  0.00    -0.200 F 
ENDBRANCH  58  82
BRANCH  70  93
ATOM     93  C   UNL A   1      42.723  35.551  28.987  1.00  0.00     0.064 A 
ATOM     94  C   UNL A   1      42.009  36.083  27.902  1.00  0.00     0.173 A 
ATOM     95  C   UNL A   1      43.402  36.518  29.780  1.00  0.00     0.173 A 
ATOM     96  F   UNL A   1      41.206  35.326  27.147  1.00  0.00    -0.203 F 
ATOM     97  C   UNL A   1      42.038  37.446  27.587  1.00  0.00     0.198 A 
ATOM     98  C   UNL A   1      43.357  37.885  29.512  1.00  0.00     0.198 A 
ATOM     99  F   UNL A   1      44.111  36.183  30.867  1.00  0.00    -0.203 F 
ATOM    100  F   UNL A   1      41.389  37.883  26.499  1.00  0.00    -0.200 F 
ATOM    101  C   UNL A   1      42.697  38.347  28.399  1.00  0.00     0.200 A 
ATOM    102  F   UNL A   1      43.942  38.747  30.357  1.00  0.00    -0.200 F 
ATOM    103  F   UNL A   1      42.673  39.657  28.122  1.00  0.00    -0.200 F 
ENDBRANCH  70  93
ENDBRANCH  44  45
ENDBRANCH  36  39
ENDBRANCH  34  35
ENDBRANCH  33  34
ENDBRANCH   1  33
TORSDOF 13
ENDMDL
MODEL 3
REMARK VINA RESULT:     -14.2      3.446     10.050
REMARK SMILES Cc1cccc(-c2ncc(C[NH+]3CCC4(CC3)NC(=O)C[C@H]4C(=O)NCCCNC(=O)c3ccc(-c4c5nc(c(-c6c(F)c(F)c(F)c(F)c6F)c6ccc([nH]6)c(-c6c(F)c(F)c(F)c(F)c6F)c6nc(c(-c7c(F)c(F)c(F)c(F)c7F)c7ccc4[nH]7)C=C6)C=C5)cc3)cn2)c1
REMARK SMILES IDX 26 1 25 2 23 3 24 4 22 6 12 7 13 8 17 9 14 11 16 12 15 13
REMARK SMILES IDX 18 14 19 15 21 17 20 18 11 19 10 20 7 21 8 22 96 23 9 24
REMARK SMILES IDX 95 25 6 26 1 27 2 28 3 29 97 30 4 31 5 32 27 33 28 34 29 35
REMARK SMILES IDX 30 36 31 38 32 39 33 40 94 41 34 42 93 43 35 44 36 45 37 46
REMARK SMILES IDX 87 47 38 48 92 49 86 50 88 51 39 52 91 53 85 54 84 55 40 57
REMARK SMILES IDX 72 58 52 59 71 60 53 61 56 62 70 63 89 64 54 65 55 66 69 68
REMARK SMILES IDX 90 69 57 70 41 71 42 72 50 73 43 74 44 75 48 76 51 77 45 78
REMARK SMILES IDX 46 79 49 80 47 81 73 82 74 83 82 84 75 85 76 86 80 87 83 88
REMARK SMILES IDX 77 89 78 90 81 91 79 92 58 93 59 94 67 95 60 96 61 97 65 98
REMARK SMILES IDX 68 99 62 100 63 101 66 102 64 103
REMARK H PARENT 25 5 12 10 18 16 29 37 88 56 56 67
REMARK Flexibility Score: inf
ROOT
ATOM      1  C   UNL A   1      33.441  29.835  26.696  1.00  0.00     0.117 C 
ENDROOT
BRANCH   1   2
ATOM      2  N   UNL A   1      32.397  28.812  26.787  1.00  0.00    -0.356 N 
ATOM      3  C   UNL A   1      31.700  28.066  25.879  1.00  0.00     0.226 C 
ATOM      4  O   UNL A   1      30.919  27.233  26.356  1.00  0.00    -0.275 OA
ATOM      5  H   UNL A   1      32.138  28.616  27.716  1.00  0.00     0.163 HD
BRANCH   3   6
ATOM      6  C   UNL A   1      31.734  28.240  24.348  1.00  0.00     0.114 C 
ATOM      7  N   UNL A   1      33.465  24.772  22.827  1.00  0.00    -0.331 N 
ATOM      8  C   UNL A   1      33.467  25.986  22.021  1.00  0.00     0.264 C 
ATOM      9  C   UNL A   1      33.138  25.078  24.204  1.00  0.00     0.264 C 
ATOM     10  H   UNL A   1      34.433  24.454  22.786  1.00  0.00     0.348 HD
ATOM     11  C   UNL A   1      32.231  26.891  22.131  1.00  0.00     0.091 C 
ATOM     12  C   UNL A   1      31.757  25.689  24.331  1.00  0.00     0.091 C 
ATOM     13  C   UNL A   1      31.507  26.959  23.512  1.00  0.00     0.063 C 
ATOM     14  N   UNL A   1      30.102  27.119  23.162  1.00  0.00    -0.349 N 
ATOM     15  C   UNL A   1      29.645  28.420  23.216  1.00  0.00     0.221 C 
ATOM     16  H   UNL A   1      29.525  26.362  22.908  1.00  0.00     0.164 HD
ATOM     17  C   UNL A   1      30.699  29.264  23.878  1.00  0.00     0.116 C 
ATOM     18  O   UNL A   1      28.568  28.800  22.819  1.00  0.00    -0.275 OA
BRANCH   7  19
ATOM     19  C   UNL A   1      32.905  23.520  22.279  1.00  0.00     0.302 C 
BRANCH  19  20
ATOM     20  C   UNL A   1      32.982  22.282  23.133  1.00  0.00     0.043 A 
ATOM     21  C   UNL A   1      33.441  19.833  24.237  1.00  0.00     0.159 A 
ATOM     22  N   UNL A   1      34.342  20.809  24.460  1.00  0.00    -0.236 NA
ATOM     23  N   UNL A   1      32.276  20.009  23.581  1.00  0.00    -0.236 NA
ATOM     24  C   UNL A   1      34.064  22.023  23.943  1.00  0.00     0.124 A 
ATOM     25  C   UNL A   1      32.070  21.240  23.052  1.00  0.00     0.124 A 
BRANCH  21  26
ATOM     26  C   UNL A   1      33.830  18.468  24.621  1.00  0.00     0.019 A 
ATOM     27  C   UNL A   1      32.154  15.203  25.757  1.00  0.00     0.044 C 
ATOM     28  C   UNL A   1      33.206  16.196  25.347  1.00  0.00    -0.050 A 
ATOM     29  C   UNL A   1      34.551  15.828  25.328  1.00  0.00     0.003 A 
ATOM     30  C   UNL A   1      32.861  17.501  24.967  1.00  0.00     0.015 A 
ATOM     31  C   UNL A   1      35.528  16.761  24.977  1.00  0.00     0.001 A 
ATOM     32  C   UNL A   1      35.173  18.073  24.645  1.00  0.00     0.012 A 
ENDBRANCH  21  26
ENDBRANCH  19  20
ENDBRANCH   7  19
ENDBRANCH   3   6
ENDBRANCH   1   2
BRANCH   1  33
ATOM     33  C   UNL A   1      33.269  31.034  27.626  1.00  0.00     0.042 C 
BRANCH  33  34
ATOM     34  C   UNL A   1      34.356  32.092  27.526  1.00  0.00     0.118 C 
BRANCH  34  35
ATOM     35  N   UNL A   1      34.951  32.355  28.842  1.00  0.00    -0.352 N 
ATOM     36  C   UNL A   1      35.711  31.567  29.687  1.00  0.00     0.251 C 
ATOM     37  H   UNL A   1      34.778  33.260  29.186  1.00  0.00     0.163 HD
ATOM     38  O   UNL A   1      36.030  31.965  30.801  1.00  0.00    -0.269 OA
BRANCH  36  39
ATOM     39  C   UNL A   1      36.314  30.332  29.153  1.00  0.00     0.039 A 
ATOM     40  C   UNL A   1      36.557  29.348  30.122  1.00  0.00     0.014 A 
ATOM     41  C   UNL A   1      37.062  30.411  27.989  1.00  0.00     0.014 A 
ATOM     42  C   UNL A   1      37.776  28.700  30.110  1.00  0.00     0.010 A 
ATOM     43  C   UNL A   1      38.325  29.878  28.046  1.00  0.00     0.010 A 
ATOM     44  C   UNL A   1      38.696  29.099  29.149  1.00  0.00    -0.014 A 
BRANCH  44  45
ATOM     45  C   UNL A   1      40.084  28.703  29.168  1.00  0.00     0.031 A 
ATOM     46  C   UNL A   1      40.357  27.306  28.816  1.00  0.00     0.074 A 
ATOM     47  C   UNL A   1      41.037  29.641  29.362  1.00  0.00     0.049 A 
ATOM     48  N   UNL A   1      41.428  26.677  29.127  1.00  0.00    -0.248 NA
ATOM     49  C   UNL A   1      39.383  26.469  28.116  1.00  0.00     0.031 C 
ATOM     50  C   UNL A   1      42.474  29.528  29.133  1.00  0.00     0.029 A 
ATOM     51  N   UNL A   1      40.890  30.885  30.002  1.00  0.00    -0.354 N 
ATOM     52  C   UNL A   1      41.429  25.495  28.421  1.00  0.00     0.074 A 
ATOM     53  C   UNL A   1      40.098  25.367  27.888  1.00  0.00     0.031 C 
ATOM     54  C   UNL A   1      43.106  30.456  29.874  1.00  0.00     0.029 A 
ATOM     55  C   UNL A   1      42.100  31.086  30.710  1.00  0.00     0.049 A 
ATOM     56  H   UNL A   1      40.113  31.488  29.963  1.00  0.00     0.167 HD
ATOM     57  C   UNL A   1      42.622  24.862  28.249  1.00  0.00     0.037 A 
ATOM     58  C   UNL A   1      42.113  31.090  32.076  1.00  0.00     0.037 A 
ATOM     59  C   UNL A   1      43.660  25.568  28.996  1.00  0.00     0.049 A 
ATOM     60  C   UNL A   1      42.948  29.964  32.641  1.00  0.00     0.074 A 
ATOM     61  C   UNL A   1      44.563  26.550  28.626  1.00  0.00     0.029 A 
ATOM     62  N   UNL A   1      43.573  25.614  30.384  1.00  0.00    -0.354 N 
ATOM     63  N   UNL A   1      43.154  28.830  32.024  1.00  0.00    -0.248 NA
ATOM     64  C   UNL A   1      43.665  30.055  33.906  1.00  0.00     0.031 C 
ATOM     65  C   UNL A   1      44.991  27.218  29.803  1.00  0.00     0.029 A 
ATOM     66  C   UNL A   1      44.363  26.629  30.888  1.00  0.00     0.049 A 
ATOM     67  H   UNL A   1      43.025  25.007  30.932  1.00  0.00     0.167 HD
ATOM     68  C   UNL A   1      44.035  28.068  32.753  1.00  0.00     0.074 A 
ATOM     69  C   UNL A   1      44.322  28.882  33.920  1.00  0.00     0.031 C 
ATOM     70  C   UNL A   1      44.476  26.845  32.323  1.00  0.00     0.037 A 
BRANCH  57  71
ATOM     71  C   UNL A   1      42.904  23.827  27.187  1.00  0.00     0.064 A 
ATOM     72  C   UNL A   1      42.518  22.483  27.387  1.00  0.00     0.173 A 
ATOM     73  C   UNL A   1      43.587  24.067  25.979  1.00  0.00     0.173 A 
ATOM     74  F   UNL A   1      41.800  22.112  28.456  1.00  0.00    -0.203 F 
ATOM     75  C   UNL A   1      42.860  21.459  26.501  1.00  0.00     0.198 A 
ATOM     76  C   UNL A   1      43.967  23.036  25.112  1.00  0.00     0.198 A 
ATOM     77  F   UNL A   1      43.864  25.308  25.564  1.00  0.00    -0.203 F 
ATOM     78  F   UNL A   1      42.468  20.203  26.757  1.00  0.00    -0.200 F 
ATOM     79  C   UNL A   1      43.607  21.730  25.376  1.00  0.00     0.200 A 
ATOM     80  F   UNL A   1      44.681  23.321  24.013  1.00  0.00    -0.200 F 
ATOM     81  F   UNL A   1      43.959  20.746  24.539  1.00  0.00    -0.200 F 
ENDBRANCH  57  71
BRANCH  58  82
ATOM     82  C   UNL A   1      40.843  31.633  32.644  1.00  0.00     0.064 A 
ATOM     83  C   UNL A   1      39.927  30.696  33.170  1.00  0.00     0.173 A 
ATOM     84  C   UNL A   1      40.743  32.952  33.099  1.00  0.00     0.173 A 
ATOM     85  F   UNL A   1      39.962  29.419  32.754  1.00  0.00    -0.203 F 
ATOM     86  C   UNL A   1      39.094  31.017  34.240  1.00  0.00     0.198 A 
ATOM     87  C   UNL A   1      39.872  33.281  34.143  1.00  0.00     0.198 A 
ATOM     88  F   UNL A   1      41.573  33.897  32.633  1.00  0.00    -0.203 F 
ATOM     89  F   UNL A   1      38.375  30.056  34.839  1.00  0.00    -0.200 F 
ATOM     90  C   UNL A   1      39.095  32.303  34.749  1.00  0.00     0.200 A 
ATOM     91  F   UNL A   1      39.866  34.528  34.637  1.00  0.00    -0.200 F 
ATOM     92  F   UNL A   1      38.383  32.587  35.848  1.00  0.00    -0.200 F 
ENDBRANCH  58  82
BRANCH  70  93
ATOM     93  C   UNL A   1      45.159  25.771  33.154  1.00  0.00     0.064 A 
ATOM     94  C   UNL A   1      46.534  25.492  33.117  1.00  0.00     0.173 A 
ATOM     95  C   UNL A   1      44.439  25.068  34.160  1.00  0.00     0.173 A 
ATOM     96  F   UNL A   1      47.370  26.174  32.327  1.00  0.00    -0.203 F 
ATOM     97  C   UNL A   1      47.124  24.536  33.951  1.00  0.00     0.198 A 
ATOM     98  C   UNL A   1      45.047  24.179  35.046  1.00  0.00     0.198 A 
ATOM     99  F   UNL A   1      43.123  25.235  34.348  1.00  0.00    -0.203 F 
ATOM    100  F   UNL A   1      48.430  24.268  33.822  1.00  0.00    -0.200 F 
ATOM    101  C   UNL A   1      46.385  23.893  34.925  1.00  0.00     0.200 A 
ATOM    102  F   UNL A   1      44.324  23.625  36.030  1.00  0.00    -0.200 F 
ATOM    103  F   UNL A   1      46.968  23.021  35.757  1.00  0.00    -0.200 F 
ENDBRANCH  70  93
ENDBRANCH  44  45
ENDBRANCH  36  39
ENDBRANCH  34  35
ENDBRANCH  33  34
ENDBRANCH   1  33
TORSDOF 13
ENDMDL
