MODEL 1
REMARK VINA RESULT:     -11.9      0.000      0.000
REMARK SMILES O=C(CNS(=O)(=O)c1ccccc1)N[C@@H](CO)C(=O)NCCCNC(=O)c1ccc(-c2c3nc(c(-c4c(F)c(F)c(F)c(F)c4F)c4ccc([nH]4)c(-c4c(F)c(F)c(F)c(F)c4F)c4nc(c(-c5c(F)c(F)c(F)c(F)c5F)c5ccc2[nH]5)C=C4)C=C3)cc1
REMARK SMILES IDX 18 1 19 2 20 3 15 5 14 6 1 7 2 8 3 10 4 11 5 13 6 14 7 15
REMARK SMILES IDX 8 16 9 17 13 18 10 19 12 20 11 21 16 22 17 23 21 25 22 26
REMARK SMILES IDX 23 27 24 28 25 29 26 31 27 32 28 33 89 34 29 35 88 36 30 37
REMARK SMILES IDX 31 38 32 39 82 40 33 41 87 42 81 43 83 44 34 45 86 46 80 47
REMARK SMILES IDX 79 48 35 50 67 51 47 52 66 53 48 54 51 55 65 56 84 57 49 58
REMARK SMILES IDX 50 59 64 61 85 62 52 63 36 64 37 65 45 66 38 67 39 68 43 69
REMARK SMILES IDX 46 70 40 71 41 72 44 73 42 74 68 75 69 76 77 77 70 78 71 79
REMARK SMILES IDX 75 80 78 81 72 82 73 83 76 84 74 85 53 86 54 87 62 88 55 89
REMARK SMILES IDX 56 90 60 91 63 92 57 93 58 94 61 95 59 96
REMARK H PARENT 20 4 14 9 4 12 17 24 24 30 83 49 51 60
REMARK Flexibility Score: inf
ROOT
ATOM      1  C   UNL A   1      31.029  29.338  24.189  1.00  0.00     0.244 C 
ATOM      2  O   UNL A   1      30.218  29.292  23.258  1.00  0.00    -0.273 OA
ATOM      3  N   UNL A   1      31.007  30.462  24.954  1.00  0.00    -0.354 N 
ATOM      4  H   UNL A   1      30.456  31.191  24.588  1.00  0.00     0.163 HD
ENDROOT
BRANCH   1   5
ATOM      5  C   UNL A   1      31.946  28.141  24.481  1.00  0.00     0.197 C 
BRANCH   5   6
ATOM      6  N   UNL A   1      31.222  26.879  24.646  1.00  0.00    -0.341 N 
ATOM      7  O   UNL A   1      31.021  27.081  26.916  1.00  0.00    -0.274 OA
ATOM      8  C   UNL A   1      30.746  26.487  25.879  1.00  0.00     0.235 C 
ATOM      9  H   UNL A   1      31.072  26.300  23.863  1.00  0.00     0.164 HD
BRANCH   8  10
ATOM     10  C   UNL A   1      29.901  25.221  25.874  1.00  0.00     0.198 C 
BRANCH  10  11
ATOM     11  N   UNL A   1      30.579  24.121  25.145  1.00  0.00    -0.202 NA
ATOM     12  H   UNL A   1      31.225  24.536  24.473  1.00  0.00     0.141 HD
BRANCH  11  13
ATOM     13  S   UNL A   1      31.456  23.048  26.130  1.00  0.00     0.241 S 
ATOM     14  O   UNL A   1      31.206  23.426  27.501  1.00  0.00    -0.207 OA
ATOM     15  O   UNL A   1      31.163  21.723  25.635  1.00  0.00    -0.207 OA
BRANCH  13  16
ATOM     16  C   UNL A   1      33.130  23.440  25.710  1.00  0.00     0.082 A 
ATOM     17  C   UNL A   1      33.423  23.997  24.461  1.00  0.00     0.022 A 
ATOM     18  C   UNL A   1      34.144  23.163  26.631  1.00  0.00     0.022 A 
ATOM     19  C   UNL A   1      34.752  24.247  24.121  1.00  0.00     0.001 A 
ATOM     20  C   UNL A   1      35.469  23.417  26.281  1.00  0.00     0.001 A 
ATOM     21  C   UNL A   1      35.772  23.952  25.028  1.00  0.00     0.000 A 
ENDBRANCH  13  16
ENDBRANCH  11  13
ENDBRANCH  10  11
ENDBRANCH   8  10
ENDBRANCH   5   6
BRANCH   5  22
ATOM     22  C   UNL A   1      33.138  28.070  23.514  1.00  0.00     0.191 C 
BRANCH  22  23
ATOM     23  O   UNL A   1      33.716  29.341  23.220  1.00  0.00    -0.394 OA
ATOM     24  H   UNL A   1      34.317  29.597  23.938  1.00  0.00     0.210 HD
ENDBRANCH  22  23
ENDBRANCH   5  22
ENDBRANCH   1   5
BRANCH   3  25
ATOM     25  C   UNL A   1      31.654  30.776  26.214  1.00  0.00     0.117 C 
BRANCH  25  26
ATOM     26  C   UNL A   1      31.446  32.228  26.621  1.00  0.00     0.042 C 
BRANCH  26  27
ATOM     27  C   UNL A   1      32.644  32.861  27.316  1.00  0.00     0.118 C 
BRANCH  27  28
ATOM     28  N   UNL A   1      32.416  34.250  27.691  1.00  0.00    -0.352 N 
ATOM     29  C   UNL A   1      33.014  35.022  28.657  1.00  0.00     0.251 C 
ATOM     30  H   UNL A   1      31.722  34.710  27.167  1.00  0.00     0.163 HD
ATOM     31  O   UNL A   1      32.554  36.129  28.922  1.00  0.00    -0.269 OA
BRANCH  29  32
ATOM     32  C   UNL A   1      34.188  34.519  29.405  1.00  0.00     0.039 A 
ATOM     33  C   UNL A   1      33.987  33.926  30.655  1.00  0.00     0.014 A 
ATOM     34  C   UNL A   1      35.480  34.639  28.891  1.00  0.00     0.014 A 
ATOM     35  C   UNL A   1      35.071  33.381  31.347  1.00  0.00     0.010 A 
ATOM     36  C   UNL A   1      36.544  34.015  29.535  1.00  0.00     0.010 A 
ATOM     37  C   UNL A   1      36.352  33.381  30.772  1.00  0.00    -0.014 A 
BRANCH  37  38
ATOM     38  C   UNL A   1      37.506  32.729  31.443  1.00  0.00     0.031 A 
ATOM     39  C   UNL A   1      38.236  31.604  30.765  1.00  0.00     0.074 A 
ATOM     40  C   UNL A   1      37.847  33.097  32.694  1.00  0.00     0.049 A 
ATOM     41  N   UNL A   1      39.200  30.844  31.224  1.00  0.00    -0.248 NA
ATOM     42  C   UNL A   1      37.807  31.263  29.399  1.00  0.00     0.031 C 
ATOM     43  C   UNL A   1      37.187  34.142  33.478  1.00  0.00     0.029 A 
ATOM     44  N   UNL A   1      38.828  32.627  33.530  1.00  0.00    -0.354 N 
ATOM     45  C   UNL A   1      39.468  29.924  30.220  1.00  0.00     0.074 A 
ATOM     46  C   UNL A   1      38.538  30.188  29.143  1.00  0.00     0.031 C 
ATOM     47  C   UNL A   1      37.803  34.257  34.666  1.00  0.00     0.029 A 
ATOM     48  C   UNL A   1      38.872  33.266  34.745  1.00  0.00     0.049 A 
ATOM     49  H   UNL A   1      39.445  31.899  33.282  1.00  0.00     0.167 HD
ATOM     50  C   UNL A   1      40.417  28.960  30.189  1.00  0.00     0.037 A 
ATOM     51  C   UNL A   1      39.680  33.072  35.805  1.00  0.00     0.037 A 
ATOM     52  C   UNL A   1      41.372  28.730  31.240  1.00  0.00     0.049 A 
ATOM     53  C   UNL A   1      40.735  32.001  35.738  1.00  0.00     0.074 A 
ATOM     54  C   UNL A   1      42.423  27.830  31.269  1.00  0.00     0.029 A 
ATOM     55  N   UNL A   1      41.395  29.411  32.448  1.00  0.00    -0.354 N 
ATOM     56  N   UNL A   1      41.018  31.179  34.757  1.00  0.00    -0.248 NA
ATOM     57  C   UNL A   1      41.583  31.834  36.926  1.00  0.00     0.031 C 
ATOM     58  C   UNL A   1      43.058  27.938  32.510  1.00  0.00     0.029 A 
ATOM     59  C   UNL A   1      42.432  28.938  33.236  1.00  0.00     0.049 A 
ATOM     60  H   UNL A   1      40.769  30.125  32.707  1.00  0.00     0.167 HD
ATOM     61  C   UNL A   1      42.093  30.419  35.196  1.00  0.00     0.074 A 
ATOM     62  C   UNL A   1      42.420  30.887  36.528  1.00  0.00     0.031 C 
ATOM     63  C   UNL A   1      42.752  29.425  34.554  1.00  0.00     0.037 A 
BRANCH  50  64
ATOM     64  C   UNL A   1      40.480  28.080  28.975  1.00  0.00     0.064 A 
ATOM     65  C   UNL A   1      39.751  26.883  28.894  1.00  0.00     0.173 A 
ATOM     66  C   UNL A   1      41.238  28.463  27.858  1.00  0.00     0.173 A 
ATOM     67  F   UNL A   1      39.020  26.466  29.939  1.00  0.00    -0.203 F 
ATOM     68  C   UNL A   1      39.799  26.091  27.750  1.00  0.00     0.198 A 
ATOM     69  C   UNL A   1      41.260  27.683  26.705  1.00  0.00     0.198 A 
ATOM     70  F   UNL A   1      41.949  29.600  27.881  1.00  0.00    -0.203 F 
ATOM     71  F   UNL A   1      39.129  24.931  27.713  1.00  0.00    -0.200 F 
ATOM     72  C   UNL A   1      40.546  26.495  26.655  1.00  0.00     0.200 A 
ATOM     73  F   UNL A   1      41.973  28.080  25.641  1.00  0.00    -0.200 F 
ATOM     74  F   UNL A   1      40.582  25.737  25.549  1.00  0.00    -0.200 F 
ENDBRANCH  50  64
BRANCH  51  75
ATOM     75  C   UNL A   1      39.554  33.939  37.004  1.00  0.00     0.064 A 
ATOM     76  C   UNL A   1      38.793  33.524  38.106  1.00  0.00     0.173 A 
ATOM     77  C   UNL A   1      40.183  35.189  37.078  1.00  0.00     0.173 A 
ATOM     78  F   UNL A   1      38.156  32.344  38.073  1.00  0.00    -0.203 F 
ATOM     79  C   UNL A   1      38.652  34.334  39.231  1.00  0.00     0.198 A 
ATOM     80  C   UNL A   1      40.062  35.988  38.214  1.00  0.00     0.198 A 
ATOM     81  F   UNL A   1      40.926  35.630  36.053  1.00  0.00    -0.203 F 
ATOM     82  F   UNL A   1      37.886  33.929  40.253  1.00  0.00    -0.200 F 
ATOM     83  C   UNL A   1      39.291  35.563  39.286  1.00  0.00     0.200 A 
ATOM     84  F   UNL A   1      40.693  37.169  38.271  1.00  0.00    -0.200 F 
ATOM     85  F   UNL A   1      39.160  36.340  40.370  1.00  0.00    -0.200 F 
ENDBRANCH  51  75
BRANCH  63  86
ATOM     86  C   UNL A   1      43.918  28.801  35.261  1.00  0.00     0.064 A 
ATOM     87  C   UNL A   1      43.766  27.677  36.084  1.00  0.00     0.173 A 
ATOM     88  C   UNL A   1      45.213  29.310  35.074  1.00  0.00     0.173 A 
ATOM     89  F   UNL A   1      42.546  27.164  36.305  1.00  0.00    -0.203 F 
ATOM     90  C   UNL A   1      44.864  27.098  36.713  1.00  0.00     0.198 A 
ATOM     91  C   UNL A   1      46.312  28.710  35.682  1.00  0.00     0.198 A 
ATOM     92  F   UNL A   1      45.414  30.380  34.290  1.00  0.00    -0.203 F 
ATOM     93  F   UNL A   1      44.689  26.050  37.531  1.00  0.00    -0.200 F 
ATOM     94  C   UNL A   1      46.136  27.609  36.505  1.00  0.00     0.200 A 
ATOM     95  F   UNL A   1      47.542  29.198  35.469  1.00  0.00    -0.200 F 
ATOM     96  F   UNL A   1      47.194  27.044  37.105  1.00  0.00    -0.200 F 
ENDBRANCH  63  86
ENDBRANCH  37  38
ENDBRANCH  29  32
ENDBRANCH  27  28
ENDBRANCH  26  27
ENDBRANCH  25  26
ENDBRANCH   3  25
TORSDOF 17
ENDMDL
MODEL 2
REMARK VINA RESULT:     -11.8      0.290      1.679
REMARK SMILES O=C(CNS(=O)(=O)c1ccccc1)N[C@@H](CO)C(=O)NCCCNC(=O)c1ccc(-c2c3nc(c(-c4c(F)c(F)c(F)c(F)c4F)c4ccc([nH]4)c(-c4c(F)c(F)c(F)c(F)c4F)c4nc(c(-c5c(F)c(F)c(F)c(F)c5F)c5ccc2[nH]5)C=C4)C=C3)cc1
REMARK SMILES IDX 18 1 19 2 20 3 15 5 14 6 1 7 2 8 3 10 4 11 5 13 6 14 7 15
REMARK SMILES IDX 8 16 9 17 13 18 10 19 12 20 11 21 16 22 17 23 21 25 22 26
REMARK SMILES IDX 23 27 24 28 25 29 26 31 27 32 28 33 89 34 29 35 88 36 30 37
REMARK SMILES IDX 31 38 32 39 82 40 33 41 87 42 81 43 83 44 34 45 86 46 80 47
REMARK SMILES IDX 79 48 35 50 67 51 47 52 66 53 48 54 51 55 65 56 84 57 49 58
REMARK SMILES IDX 50 59 64 61 85 62 52 63 36 64 37 65 45 66 38 67 39 68 43 69
REMARK SMILES IDX 46 70 40 71 41 72 44 73 42 74 68 75 69 76 77 77 70 78 71 79
REMARK SMILES IDX 75 80 78 81 72 82 73 83 76 84 74 85 53 86 54 87 62 88 55 89
REMARK SMILES IDX 56 90 60 91 63 92 57 93 58 94 61 95 59 96
REMARK H PARENT 20 4 14 9 4 12 17 24 24 30 83 49 51 60
REMARK Flexibility Score: inf
ROOT
ATOM      1  C   UNL A   1      31.090  29.318  24.236  1.00  0.00     0.244 C 
ATOM      2  O   UNL A   1      30.313  29.251  23.277  1.00  0.00    -0.273 OA
ATOM      3  N   UNL A   1      31.027  30.450  24.988  1.00  0.00    -0.354 N 
ATOM      4  H   UNL A   1      30.479  31.167  24.595  1.00  0.00     0.163 HD
ENDROOT
BRANCH   1   5
ATOM      5  C   UNL A   1      32.013  28.137  24.572  1.00  0.00     0.197 C 
BRANCH   5   6
ATOM      6  N   UNL A   1      31.303  26.863  24.706  1.00  0.00    -0.341 N 
ATOM      7  O   UNL A   1      31.037  27.042  26.972  1.00  0.00    -0.274 OA
ATOM      8  C   UNL A   1      30.799  26.453  25.922  1.00  0.00     0.235 C 
ATOM      9  H   UNL A   1      31.183  26.290  23.914  1.00  0.00     0.164 HD
BRANCH   8  10
ATOM     10  C   UNL A   1      29.974  25.175  25.882  1.00  0.00     0.198 C 
BRANCH  10  11
ATOM     11  N   UNL A   1      30.677  24.100  25.142  1.00  0.00    -0.202 NA
ATOM     12  H   UNL A   1      31.372  24.533  24.535  1.00  0.00     0.141 HD
BRANCH  11  13
ATOM     13  S   UNL A   1      31.469  22.959  26.123  1.00  0.00     0.241 S 
ATOM     14  O   UNL A   1      31.435  23.463  27.477  1.00  0.00    -0.207 OA
ATOM     15  O   UNL A   1      30.913  21.674  25.770  1.00  0.00    -0.207 OA
BRANCH  13  16
ATOM     16  C   UNL A   1      33.129  23.032  25.513  1.00  0.00     0.082 A 
ATOM     17  C   UNL A   1      34.158  23.484  26.345  1.00  0.00     0.022 A 
ATOM     18  C   UNL A   1      33.384  22.656  24.192  1.00  0.00     0.022 A 
ATOM     19  C   UNL A   1      35.451  23.590  25.835  1.00  0.00     0.001 A 
ATOM     20  C   UNL A   1      34.680  22.766  23.690  1.00  0.00     0.001 A 
ATOM     21  C   UNL A   1      35.709  23.238  24.508  1.00  0.00     0.000 A 
ENDBRANCH  13  16
ENDBRANCH  11  13
ENDBRANCH  10  11
ENDBRANCH   8  10
ENDBRANCH   5   6
BRANCH   5  22
ATOM     22  C   UNL A   1      33.249  28.085  23.661  1.00  0.00     0.191 C 
BRANCH  22  23
ATOM     23  O   UNL A   1      33.645  29.359  23.157  1.00  0.00    -0.394 OA
ATOM     24  H   UNL A   1      33.059  29.615  22.427  1.00  0.00     0.210 HD
ENDBRANCH  22  23
ENDBRANCH   5  22
ENDBRANCH   1   5
BRANCH   3  25
ATOM     25  C   UNL A   1      31.625  30.785  26.266  1.00  0.00     0.117 C 
BRANCH  25  26
ATOM     26  C   UNL A   1      31.434  32.252  26.622  1.00  0.00     0.042 C 
BRANCH  26  27
ATOM     27  C   UNL A   1      32.652  32.904  27.264  1.00  0.00     0.118 C 
BRANCH  27  28
ATOM     28  N   UNL A   1      32.422  34.291  27.643  1.00  0.00    -0.352 N 
ATOM     29  C   UNL A   1      33.005  35.056  28.625  1.00  0.00     0.251 C 
ATOM     30  H   UNL A   1      31.739  34.756  27.110  1.00  0.00     0.163 HD
ATOM     31  O   UNL A   1      32.544  36.162  28.887  1.00  0.00    -0.269 OA
BRANCH  29  32
ATOM     32  C   UNL A   1      34.164  34.545  29.390  1.00  0.00     0.039 A 
ATOM     33  C   UNL A   1      33.934  33.882  30.599  1.00  0.00     0.014 A 
ATOM     34  C   UNL A   1      35.471  34.724  28.933  1.00  0.00     0.014 A 
ATOM     35  C   UNL A   1      35.006  33.330  31.304  1.00  0.00     0.010 A 
ATOM     36  C   UNL A   1      36.527  34.095  29.585  1.00  0.00     0.010 A 
ATOM     37  C   UNL A   1      36.307  33.392  30.779  1.00  0.00    -0.014 A 
BRANCH  37  38
ATOM     38  C   UNL A   1      37.453  32.736  31.460  1.00  0.00     0.031 A 
ATOM     39  C   UNL A   1      38.171  31.594  30.796  1.00  0.00     0.074 A 
ATOM     40  C   UNL A   1      37.797  33.116  32.705  1.00  0.00     0.049 A 
ATOM     41  N   UNL A   1      39.126  30.829  31.266  1.00  0.00    -0.248 NA
ATOM     42  C   UNL A   1      37.739  31.241  29.435  1.00  0.00     0.031 C 
ATOM     43  C   UNL A   1      37.148  34.179  33.476  1.00  0.00     0.029 A 
ATOM     44  N   UNL A   1      38.772  32.646  33.548  1.00  0.00    -0.354 N 
ATOM     45  C   UNL A   1      39.384  29.893  30.274  1.00  0.00     0.074 A 
ATOM     46  C   UNL A   1      38.458  30.155  29.193  1.00  0.00     0.031 C 
ATOM     47  C   UNL A   1      37.765  34.302  34.662  1.00  0.00     0.029 A 
ATOM     48  C   UNL A   1      38.822  33.300  34.755  1.00  0.00     0.049 A 
ATOM     49  H   UNL A   1      39.381  31.908  33.310  1.00  0.00     0.167 HD
ATOM     50  C   UNL A   1      40.322  28.918  30.256  1.00  0.00     0.037 A 
ATOM     51  C   UNL A   1      39.627  33.110  35.818  1.00  0.00     0.037 A 
ATOM     52  C   UNL A   1      41.273  28.691  31.311  1.00  0.00     0.049 A 
ATOM     53  C   UNL A   1      40.670  32.027  35.765  1.00  0.00     0.074 A 
ATOM     54  C   UNL A   1      42.314  27.779  31.352  1.00  0.00     0.029 A 
ATOM     55  N   UNL A   1      41.303  29.388  32.510  1.00  0.00    -0.354 N 
ATOM     56  N   UNL A   1      40.945  31.189  34.796  1.00  0.00    -0.248 NA
ATOM     57  C   UNL A   1      41.515  31.866  36.956  1.00  0.00     0.031 C 
ATOM     58  C   UNL A   1      42.949  27.896  32.593  1.00  0.00     0.029 A 
ATOM     59  C   UNL A   1      42.334  28.912  33.305  1.00  0.00     0.049 A 
ATOM     60  H   UNL A   1      40.685  30.112  32.759  1.00  0.00     0.167 HD
ATOM     61  C   UNL A   1      42.011  30.423  35.246  1.00  0.00     0.074 A 
ATOM     62  C   UNL A   1      42.342  30.904  36.572  1.00  0.00     0.031 C 
ATOM     63  C   UNL A   1      42.659  29.413  34.617  1.00  0.00     0.037 A 
BRANCH  50  64
ATOM     64  C   UNL A   1      40.375  28.022  29.053  1.00  0.00     0.064 A 
ATOM     65  C   UNL A   1      39.655  26.819  28.999  1.00  0.00     0.173 A 
ATOM     66  C   UNL A   1      41.116  28.395  27.922  1.00  0.00     0.173 A 
ATOM     67  F   UNL A   1      38.940  26.411  30.059  1.00  0.00    -0.203 F 
ATOM     68  C   UNL A   1      39.694  26.011  27.865  1.00  0.00     0.198 A 
ATOM     69  C   UNL A   1      41.129  27.599  26.779  1.00  0.00     0.198 A 
ATOM     70  F   UNL A   1      41.819  29.538  27.920  1.00  0.00    -0.203 F 
ATOM     71  F   UNL A   1      39.032  24.846  27.852  1.00  0.00    -0.200 F 
ATOM     72  C   UNL A   1      40.423  26.406  26.755  1.00  0.00     0.200 A 
ATOM     73  F   UNL A   1      41.826  27.987  25.701  1.00  0.00    -0.200 F 
ATOM     74  F   UNL A   1      40.450  25.632  25.660  1.00  0.00    -0.200 F 
ENDBRANCH  50  64
BRANCH  51  75
ATOM     75  C   UNL A   1      39.511  33.994  37.006  1.00  0.00     0.064 A 
ATOM     76  C   UNL A   1      40.151  35.240  37.032  1.00  0.00     0.173 A 
ATOM     77  C   UNL A   1      38.766  33.618  38.133  1.00  0.00     0.173 A 
ATOM     78  F   UNL A   1      40.892  35.635  35.986  1.00  0.00    -0.203 F 
ATOM     79  C   UNL A   1      40.064  36.072  38.147  1.00  0.00     0.198 A 
ATOM     80  C   UNL A   1      38.659  34.461  39.237  1.00  0.00     0.198 A 
ATOM     81  F   UNL A   1      38.131  32.438  38.156  1.00  0.00    -0.203 F 
ATOM     82  F   UNL A   1      40.719  37.241  38.160  1.00  0.00    -0.200 F 
ATOM     83  C   UNL A   1      39.314  35.684  39.246  1.00  0.00     0.200 A 
ATOM     84  F   UNL A   1      37.922  34.090  40.292  1.00  0.00    -0.200 F 
ATOM     85  F   UNL A   1      39.227  36.486  40.316  1.00  0.00    -0.200 F 
ENDBRANCH  51  75
BRANCH  63  86
ATOM     86  C   UNL A   1      43.817  28.785  35.333  1.00  0.00     0.064 A 
ATOM     87  C   UNL A   1      45.130  29.244  35.155  1.00  0.00     0.173 A 
ATOM     88  C   UNL A   1      43.603  27.739  36.244  1.00  0.00     0.173 A 
ATOM     89  F   UNL A   1      45.387  30.231  34.283  1.00  0.00    -0.203 F 
ATOM     90  C   UNL A   1      46.190  28.664  35.846  1.00  0.00     0.198 A 
ATOM     91  C   UNL A   1      44.661  27.181  36.955  1.00  0.00     0.198 A 
ATOM     92  F   UNL A   1      42.365  27.269  36.455  1.00  0.00    -0.203 F 
ATOM     93  F   UNL A   1      47.442  29.089  35.628  1.00  0.00    -0.200 F 
ATOM     94  C   UNL A   1      45.953  27.639  36.751  1.00  0.00     0.200 A 
ATOM     95  F   UNL A   1      44.429  26.201  37.839  1.00  0.00    -0.200 F 
ATOM     96  F   UNL A   1      46.975  27.088  37.423  1.00  0.00    -0.200 F 
ENDBRANCH  63  86
ENDBRANCH  37  38
ENDBRANCH  29  32
ENDBRANCH  27  28
ENDBRANCH  26  27
ENDBRANCH  25  26
ENDBRANCH   3  25
TORSDOF 17
ENDMDL
MODEL 3
REMARK VINA RESULT:     -11.8      5.586     10.141
REMARK SMILES O=C(CNS(=O)(=O)c1ccccc1)N[C@@H](CO)C(=O)NCCCNC(=O)c1ccc(-c2c3nc(c(-c4c(F)c(F)c(F)c(F)c4F)c4ccc([nH]4)c(-c4c(F)c(F)c(F)c(F)c4F)c4nc(c(-c5c(F)c(F)c(F)c(F)c5F)c5ccc2[nH]5)C=C4)C=C3)cc1
REMARK SMILES IDX 18 1 19 2 20 3 15 5 14 6 1 7 2 8 3 10 4 11 5 13 6 14 7 15
REMARK SMILES IDX 8 16 9 17 13 18 10 19 12 20 11 21 16 22 17 23 21 25 22 26
REMARK SMILES IDX 23 27 24 28 25 29 26 31 27 32 28 33 89 34 29 35 88 36 30 37
REMARK SMILES IDX 31 38 32 39 82 40 33 41 87 42 81 43 83 44 34 45 86 46 80 47
REMARK SMILES IDX 79 48 35 50 67 51 47 52 66 53 48 54 51 55 65 56 84 57 49 58
REMARK SMILES IDX 50 59 64 61 85 62 52 63 36 64 37 65 45 66 38 67 39 68 43 69
REMARK SMILES IDX 46 70 40 71 41 72 44 73 42 74 68 75 69 76 77 77 70 78 71 79
REMARK SMILES IDX 75 80 78 81 72 82 73 83 76 84 74 85 53 86 54 87 62 88 55 89
REMARK SMILES IDX 56 90 60 91 63 92 57 93 58 94 61 95 59 96
REMARK H PARENT 20 4 14 9 4 12 17 24 24 30 83 49 51 60
REMARK Flexibility Score: inf
ROOT
ATOM      1  C   UNL A   1      43.079  18.578  26.053  1.00  0.00     0.244 C 
ATOM      2  O   UNL A   1      43.755  17.701  26.603  1.00  0.00    -0.273 OA
ATOM      3  N   UNL A   1      41.774  18.659  26.426  1.00  0.00    -0.354 N 
ATOM      4  H   UNL A   1      41.463  17.906  26.980  1.00  0.00     0.163 HD
ENDROOT
BRANCH   1   5
ATOM      5  C   UNL A   1      43.731  19.551  25.060  1.00  0.00     0.197 C 
BRANCH   5   6
ATOM      6  N   UNL A   1      44.390  20.689  25.707  1.00  0.00    -0.341 N 
ATOM      7  O   UNL A   1      43.812  22.184  24.073  1.00  0.00    -0.274 OA
ATOM      8  C   UNL A   1      44.306  21.958  25.174  1.00  0.00     0.235 C 
ATOM      9  H   UNL A   1      44.901  20.545  26.536  1.00  0.00     0.164 HD
BRANCH   8  10
ATOM     10  C   UNL A   1      44.928  23.058  26.021  1.00  0.00     0.198 C 
BRANCH  10  11
ATOM     11  N   UNL A   1      44.923  22.701  27.460  1.00  0.00    -0.202 NA
ATOM     12  H   UNL A   1      45.878  22.475  27.735  1.00  0.00     0.141 HD
BRANCH  11  13
ATOM     13  S   UNL A   1      44.347  23.920  28.496  1.00  0.00     0.241 S 
ATOM     14  O   UNL A   1      43.054  24.328  27.998  1.00  0.00    -0.207 OA
ATOM     15  O   UNL A   1      44.527  23.421  29.839  1.00  0.00    -0.207 OA
BRANCH  13  16
ATOM     16  C   UNL A   1      45.516  25.221  28.225  1.00  0.00     0.082 A 
ATOM     17  C   UNL A   1      46.744  25.205  28.894  1.00  0.00     0.022 A 
ATOM     18  C   UNL A   1      45.182  26.265  27.359  1.00  0.00     0.022 A 
ATOM     19  C   UNL A   1      47.632  26.265  28.716  1.00  0.00     0.001 A 
ATOM     20  C   UNL A   1      46.076  27.320  27.187  1.00  0.00     0.001 A 
ATOM     21  C   UNL A   1      47.295  27.323  27.869  1.00  0.00     0.000 A 
ENDBRANCH  13  16
ENDBRANCH  11  13
ENDBRANCH  10  11
ENDBRANCH   8  10
ENDBRANCH   5   6
BRANCH   5  22
ATOM     22  C   UNL A   1      44.592  18.828  24.013  1.00  0.00     0.191 C 
BRANCH  22  23
ATOM     23  O   UNL A   1      45.888  18.466  24.486  1.00  0.00    -0.394 OA
ATOM     24  H   UNL A   1      46.237  17.738  23.949  1.00  0.00     0.210 HD
ENDBRANCH  22  23
ENDBRANCH   5  22
ENDBRANCH   1   5
BRANCH   3  25
ATOM     25  C   UNL A   1      40.760  19.659  26.153  1.00  0.00     0.117 C 
BRANCH  25  26
ATOM     26  C   UNL A   1      40.816  20.819  27.136  1.00  0.00     0.042 C 
BRANCH  26  27
ATOM     27  C   UNL A   1      40.829  22.194  26.481  1.00  0.00     0.118 C 
BRANCH  27  28
ATOM     28  N   UNL A   1      39.530  22.584  25.950  1.00  0.00    -0.352 N 
ATOM     29  C   UNL A   1      38.745  23.677  26.226  1.00  0.00     0.251 C 
ATOM     30  H   UNL A   1      39.154  21.964  25.285  1.00  0.00     0.163 HD
ATOM     31  O   UNL A   1      37.600  23.730  25.788  1.00  0.00    -0.269 OA
BRANCH  29  32
ATOM     32  C   UNL A   1      39.255  24.777  27.075  1.00  0.00     0.039 A 
ATOM     33  C   UNL A   1      40.049  25.768  26.488  1.00  0.00     0.014 A 
ATOM     34  C   UNL A   1      38.970  24.833  28.439  1.00  0.00     0.014 A 
ATOM     35  C   UNL A   1      40.484  26.853  27.252  1.00  0.00     0.010 A 
ATOM     36  C   UNL A   1      39.323  25.959  29.177  1.00  0.00     0.010 A 
ATOM     37  C   UNL A   1      40.086  26.980  28.593  1.00  0.00    -0.014 A 
BRANCH  37  38
ATOM     38  C   UNL A   1      40.458  28.168  29.405  1.00  0.00     0.031 A 
ATOM     39  C   UNL A   1      41.808  28.241  30.061  1.00  0.00     0.074 A 
ATOM     40  C   UNL A   1      39.552  29.143  29.614  1.00  0.00     0.049 A 
ATOM     41  N   UNL A   1      42.282  29.142  30.885  1.00  0.00    -0.248 NA
ATOM     42  C   UNL A   1      42.741  27.138  29.781  1.00  0.00     0.031 C 
ATOM     43  C   UNL A   1      38.193  29.168  29.072  1.00  0.00     0.029 A 
ATOM     44  N   UNL A   1      39.636  30.301  30.347  1.00  0.00    -0.354 N 
ATOM     45  C   UNL A   1      43.549  28.700  31.241  1.00  0.00     0.074 A 
ATOM     46  C   UNL A   1      43.757  27.429  30.581  1.00  0.00     0.031 C 
ATOM     47  C   UNL A   1      37.583  30.298  29.462  1.00  0.00     0.029 A 
ATOM     48  C   UNL A   1      38.490  31.058  30.317  1.00  0.00     0.049 A 
ATOM     49  H   UNL A   1      40.443  30.564  30.848  1.00  0.00     0.167 HD
ATOM     50  C   UNL A   1      44.465  29.308  32.030  1.00  0.00     0.037 A 
ATOM     51  C   UNL A   1      38.203  32.230  30.914  1.00  0.00     0.037 A 
ATOM     52  C   UNL A   1      44.276  30.594  32.647  1.00  0.00     0.049 A 
ATOM     53  C   UNL A   1      39.245  32.890  31.776  1.00  0.00     0.074 A 
ATOM     54  C   UNL A   1      45.174  31.331  33.399  1.00  0.00     0.029 A 
ATOM     55  N   UNL A   1      43.107  31.339  32.577  1.00  0.00    -0.354 N 
ATOM     56  N   UNL A   1      40.462  32.492  32.054  1.00  0.00    -0.248 NA
ATOM     57  C   UNL A   1      38.872  34.165  32.404  1.00  0.00     0.031 C 
ATOM     58  C   UNL A   1      44.537  32.503  33.818  1.00  0.00     0.029 A 
ATOM     59  C   UNL A   1      43.257  32.518  33.289  1.00  0.00     0.049 A 
ATOM     60  H   UNL A   1      42.293  31.069  32.094  1.00  0.00     0.167 HD
ATOM     61  C   UNL A   1      41.010  33.478  32.863  1.00  0.00     0.074 A 
ATOM     62  C   UNL A   1      39.996  34.500  33.021  1.00  0.00     0.031 C 
ATOM     63  C   UNL A   1      42.243  33.533  33.423  1.00  0.00     0.037 A 
BRANCH  50  64
ATOM     64  C   UNL A   1      45.764  28.596  32.269  1.00  0.00     0.064 A 
ATOM     65  C   UNL A   1      46.876  28.794  31.436  1.00  0.00     0.173 A 
ATOM     66  C   UNL A   1      45.916  27.745  33.374  1.00  0.00     0.173 A 
ATOM     67  F   UNL A   1      46.780  29.589  30.359  1.00  0.00    -0.203 F 
ATOM     68  C   UNL A   1      48.083  28.146  31.686  1.00  0.00     0.198 A 
ATOM     69  C   UNL A   1      47.133  27.122  33.638  1.00  0.00     0.198 A 
ATOM     70  F   UNL A   1      44.886  27.526  34.206  1.00  0.00    -0.203 F 
ATOM     71  F   UNL A   1      49.118  28.316  30.851  1.00  0.00    -0.200 F 
ATOM     72  C   UNL A   1      48.213  27.319  32.790  1.00  0.00     0.200 A 
ATOM     73  F   UNL A   1      47.261  26.331  34.712  1.00  0.00    -0.200 F 
ATOM     74  F   UNL A   1      49.379  26.705  33.036  1.00  0.00    -0.200 F 
ENDBRANCH  50  64
BRANCH  51  75
ATOM     75  C   UNL A   1      36.887  32.879  30.684  1.00  0.00     0.064 A 
ATOM     76  C   UNL A   1      35.870  32.784  31.643  1.00  0.00     0.173 A 
ATOM     77  C   UNL A   1      36.617  33.600  29.513  1.00  0.00     0.173 A 
ATOM     78  F   UNL A   1      36.075  32.087  32.771  1.00  0.00    -0.203 F 
ATOM     79  C   UNL A   1      34.624  33.373  31.433  1.00  0.00     0.198 A 
ATOM     80  C   UNL A   1      35.379  34.210  29.315  1.00  0.00     0.198 A 
ATOM     81  F   UNL A   1      37.558  33.724  28.567  1.00  0.00    -0.203 F 
ATOM     82  F   UNL A   1      33.656  33.233  32.350  1.00  0.00    -0.200 F 
ATOM     83  C   UNL A   1      34.382  34.090  30.272  1.00  0.00     0.200 A 
ATOM     84  F   UNL A   1      35.153  34.915  28.199  1.00  0.00    -0.200 F 
ATOM     85  F   UNL A   1      33.186  34.661  30.072  1.00  0.00    -0.200 F 
ENDBRANCH  51  75
BRANCH  63  86
ATOM     86  C   UNL A   1      42.582  34.754  34.224  1.00  0.00     0.064 A 
ATOM     87  C   UNL A   1      42.999  35.944  33.612  1.00  0.00     0.173 A 
ATOM     88  C   UNL A   1      42.445  34.744  35.621  1.00  0.00     0.173 A 
ATOM     89  F   UNL A   1      43.160  35.998  32.281  1.00  0.00    -0.203 F 
ATOM     90  C   UNL A   1      43.287  37.075  34.371  1.00  0.00     0.198 A 
ATOM     91  C   UNL A   1      42.706  35.885  36.374  1.00  0.00     0.198 A 
ATOM     92  F   UNL A   1      42.042  33.631  36.254  1.00  0.00    -0.203 F 
ATOM     93  F   UNL A   1      43.725  38.189  33.770  1.00  0.00    -0.200 F 
ATOM     94  C   UNL A   1      43.132  37.046  35.750  1.00  0.00     0.200 A 
ATOM     95  F   UNL A   1      42.544  35.859  37.704  1.00  0.00    -0.200 F 
ATOM     96  F   UNL A   1      43.402  38.139  36.478  1.00  0.00    -0.200 F 
ENDBRANCH  63  86
ENDBRANCH  37  38
ENDBRANCH  29  32
ENDBRANCH  27  28
ENDBRANCH  26  27
ENDBRANCH  25  26
ENDBRANCH   3  25
TORSDOF 17
ENDMDL
