MODEL 1
REMARK VINA RESULT:     -12.5      0.000      0.000
REMARK SMILES O=C(NCCCNC(=O)[C@@H]1[C@H](C(=O)NCc2cccnc2)[C@H]2C=C[C@@H]1C2)c1ccc(-c2c3nc(c(-c4c(F)c(F)c(F)c(F)c4F)c4ccc([nH]4)c(-c4c(F)c(F)c(F)c(F)c4F)c4nc(c(-c5c(F)c(F)c(F)c(F)c5F)c5ccc2[nH]5)C=C4)C=C3)cc1
REMARK SMILES IDX 5 1 4 2 3 3 1 4 2 5 27 7 28 8 89 9 29 10 88 11 30 12 31 13
REMARK SMILES IDX 32 14 82 15 33 16 87 17 81 18 83 19 34 20 86 21 80 22 79 23
REMARK SMILES IDX 35 25 67 26 47 27 66 28 48 29 51 30 65 31 84 32 49 33 50 34
REMARK SMILES IDX 64 36 85 37 52 38 36 39 37 40 45 41 38 42 39 43 43 44 46 45
REMARK SMILES IDX 40 46 41 47 44 48 42 49 68 50 69 51 77 52 70 53 71 54 75 55
REMARK SMILES IDX 78 56 72 57 73 58 76 59 74 60 53 61 54 62 62 63 55 64 56 65
REMARK SMILES IDX 60 66 63 67 57 68 58 69 61 70 59 71 6 72 7 73 8 74 9 76
REMARK SMILES IDX 10 77 11 78 25 79 22 80 24 81 26 82 23 83 12 84 13 85 14 86
REMARK SMILES IDX 15 88 16 89 17 90 21 91 18 92 20 93 19 94
REMARK H PARENT 3 6 83 24 51 35 7 75 14 87
REMARK Flexibility Score: inf
ROOT
ATOM      1  C   UNL A   1      33.820  27.977  25.578  1.00  0.00     0.042 C 
ENDROOT
BRANCH   1   2
ATOM      2  C   UNL A   1      33.667  28.238  27.077  1.00  0.00     0.118 C 
BRANCH   2   3
ATOM      3  N   UNL A   1      33.628  29.656  27.401  1.00  0.00    -0.352 N 
ATOM      4  O   UNL A   1      34.258  31.596  28.341  1.00  0.00    -0.269 OA
ATOM      5  C   UNL A   1      34.566  30.459  27.999  1.00  0.00     0.251 C 
ATOM      6  H   UNL A   1      32.793  30.113  27.151  1.00  0.00     0.163 HD
BRANCH   5   7
ATOM      7  C   UNL A   1      35.944  29.975  28.245  1.00  0.00     0.039 A 
ATOM      8  C   UNL A   1      36.946  30.104  27.280  1.00  0.00     0.014 A 
ATOM      9  C   UNL A   1      36.259  29.468  29.510  1.00  0.00     0.014 A 
ATOM     10  C   UNL A   1      38.236  29.644  27.548  1.00  0.00     0.010 A 
ATOM     11  C   UNL A   1      37.568  29.067  29.800  1.00  0.00     0.010 A 
ATOM     12  C   UNL A   1      38.566  29.145  28.817  1.00  0.00    -0.014 A 
BRANCH  12  13
ATOM     13  C   UNL A   1      39.978  28.811  29.140  1.00  0.00     0.031 A 
ATOM     14  C   UNL A   1      40.869  29.790  29.850  1.00  0.00     0.074 A 
ATOM     15  C   UNL A   1      40.462  27.614  28.753  1.00  0.00     0.049 A 
ATOM     16  N   UNL A   1      42.135  29.673  30.167  1.00  0.00    -0.248 NA
ATOM     17  C   UNL A   1      40.268  31.071  30.250  1.00  0.00     0.031 C 
ATOM     18  C   UNL A   1      39.697  26.592  28.034  1.00  0.00     0.029 A 
ATOM     19  N   UNL A   1      41.707  27.055  28.897  1.00  0.00    -0.354 N 
ATOM     20  C   UNL A   1      42.486  30.864  30.786  1.00  0.00     0.074 A 
ATOM     21  C   UNL A   1      41.306  31.703  30.787  1.00  0.00     0.031 C 
ATOM     22  C   UNL A   1      40.484  25.530  27.809  1.00  0.00     0.029 A 
ATOM     23  C   UNL A   1      41.822  25.815  28.315  1.00  0.00     0.049 A 
ATOM     24  H   UNL A   1      42.446  27.499  29.373  1.00  0.00     0.167 HD
ATOM     25  C   UNL A   1      43.685  31.219  31.307  1.00  0.00     0.037 A 
ATOM     26  C   UNL A   1      42.893  25.012  28.171  1.00  0.00     0.037 A 
ATOM     27  C   UNL A   1      44.848  30.367  31.324  1.00  0.00     0.049 A 
ATOM     28  C   UNL A   1      44.217  25.451  28.730  1.00  0.00     0.074 A 
ATOM     29  C   UNL A   1      46.078  30.602  31.916  1.00  0.00     0.029 A 
ATOM     30  N   UNL A   1      44.932  29.128  30.709  1.00  0.00    -0.354 N 
ATOM     31  N   UNL A   1      44.513  26.544  29.389  1.00  0.00    -0.248 NA
ATOM     32  C   UNL A   1      45.359  24.550  28.519  1.00  0.00     0.031 C 
ATOM     33  C   UNL A   1      46.925  29.535  31.603  1.00  0.00     0.029 A 
ATOM     34  C   UNL A   1      46.208  28.609  30.864  1.00  0.00     0.049 A 
ATOM     35  H   UNL A   1      44.194  28.681  30.233  1.00  0.00     0.167 HD
ATOM     36  C   UNL A   1      45.867  26.458  29.681  1.00  0.00     0.074 A 
ATOM     37  C   UNL A   1      46.330  25.194  29.151  1.00  0.00     0.031 C 
ATOM     38  C   UNL A   1      46.657  27.352  30.324  1.00  0.00     0.037 A 
BRANCH  25  39
ATOM     39  C   UNL A   1      43.828  32.593  31.894  1.00  0.00     0.064 A 
ATOM     40  C   UNL A   1      44.201  33.695  31.113  1.00  0.00     0.173 A 
ATOM     41  C   UNL A   1      43.485  32.824  33.235  1.00  0.00     0.173 A 
ATOM     42  F   UNL A   1      44.542  33.528  29.826  1.00  0.00    -0.203 F 
ATOM     43  C   UNL A   1      44.235  34.978  31.656  1.00  0.00     0.198 A 
ATOM     44  C   UNL A   1      43.496  34.110  33.768  1.00  0.00     0.198 A 
ATOM     45  F   UNL A   1      43.111  31.804  34.023  1.00  0.00    -0.203 F 
ATOM     46  F   UNL A   1      44.615  36.016  30.897  1.00  0.00    -0.200 F 
ATOM     47  C   UNL A   1      43.872  35.186  32.979  1.00  0.00     0.200 A 
ATOM     48  F   UNL A   1      43.131  34.310  35.042  1.00  0.00    -0.200 F 
ATOM     49  F   UNL A   1      43.886  36.424  33.493  1.00  0.00    -0.200 F 
ENDBRANCH  25  39
BRANCH  26  50
ATOM     50  C   UNL A   1      42.764  23.730  27.430  1.00  0.00     0.064 A 
ATOM     51  C   UNL A   1      42.268  22.578  28.053  1.00  0.00     0.173 A 
ATOM     52  C   UNL A   1      43.151  23.629  26.085  1.00  0.00     0.173 A 
ATOM     53  F   UNL A   1      41.905  22.617  29.344  1.00  0.00    -0.203 F 
ATOM     54  C   UNL A   1      42.185  21.368  27.366  1.00  0.00     0.198 A 
ATOM     55  C   UNL A   1      43.037  22.428  25.389  1.00  0.00     0.198 A 
ATOM     56  F   UNL A   1      43.632  24.703  25.441  1.00  0.00    -0.203 F 
ATOM     57  F   UNL A   1      41.757  20.268  28.001  1.00  0.00    -0.200 F 
ATOM     58  C   UNL A   1      42.564  21.295  26.034  1.00  0.00     0.200 A 
ATOM     59  F   UNL A   1      43.389  22.367  24.099  1.00  0.00    -0.200 F 
ATOM     60  F   UNL A   1      42.482  20.132  25.374  1.00  0.00    -0.200 F 
ENDBRANCH  26  50
BRANCH  38  61
ATOM     61  C   UNL A   1      48.103  26.991  30.495  1.00  0.00     0.064 A 
ATOM     62  C   UNL A   1      48.529  26.167  31.546  1.00  0.00     0.173 A 
ATOM     63  C   UNL A   1      49.064  27.436  29.575  1.00  0.00     0.173 A 
ATOM     64  F   UNL A   1      47.652  25.732  32.463  1.00  0.00    -0.203 F 
ATOM     65  C   UNL A   1      49.869  25.814  31.679  1.00  0.00     0.198 A 
ATOM     66  C   UNL A   1      50.397  27.057  29.694  1.00  0.00     0.198 A 
ATOM     67  F   UNL A   1      48.705  28.224  28.550  1.00  0.00    -0.203 F 
ATOM     68  F   UNL A   1      50.263  25.058  32.714  1.00  0.00    -0.200 F 
ATOM     69  C   UNL A   1      50.800  26.251  30.748  1.00  0.00     0.200 A 
ATOM     70  F   UNL A   1      51.293  27.469  28.787  1.00  0.00    -0.200 F 
ATOM     71  F   UNL A   1      52.088  25.900  30.871  1.00  0.00    -0.200 F 
ENDBRANCH  38  61
ENDBRANCH  12  13
ENDBRANCH   5   7
ENDBRANCH   2   3
ENDBRANCH   1   2
BRANCH   1  72
ATOM     72  C   UNL A   1      33.016  26.789  25.039  1.00  0.00     0.117 C 
BRANCH  72  73
ATOM     73  N   UNL A   1      32.839  25.758  26.041  1.00  0.00    -0.356 N 
ATOM     74  C   UNL A   1      33.164  24.449  25.859  1.00  0.00     0.224 C 
ATOM     75  H   UNL A   1      32.459  26.020  26.911  1.00  0.00     0.163 HD
ATOM     76  O   UNL A   1      32.261  23.629  26.010  1.00  0.00    -0.275 OA
BRANCH  74  77
ATOM     77  C   UNL A   1      34.523  24.077  25.309  1.00  0.00     0.098 C 
ATOM     78  C   UNL A   1      34.523  23.224  24.004  1.00  0.00     0.098 C 
ATOM     79  C   UNL A   1      35.558  23.312  26.196  1.00  0.00     0.025 C 
ATOM     80  C   UNL A   1      35.674  22.205  24.248  1.00  0.00     0.025 C 
ATOM     81  C   UNL A   1      36.911  23.639  25.586  1.00  0.00    -0.027 C 
ATOM     82  C   UNL A   1      35.556  21.852  25.726  1.00  0.00     0.017 C 
ATOM     83  C   UNL A   1      36.971  22.995  24.405  1.00  0.00    -0.027 C 
BRANCH  78  84
ATOM     84  C   UNL A   1      33.219  22.684  23.377  1.00  0.00     0.224 C 
ATOM     85  O   UNL A   1      32.773  23.270  22.379  1.00  0.00    -0.275 OA
ATOM     86  N   UNL A   1      32.502  21.600  23.773  1.00  0.00    -0.352 N 
ATOM     87  H   UNL A   1      31.628  21.520  23.325  1.00  0.00     0.163 HD
BRANCH  86  88
ATOM     88  C   UNL A   1      32.764  20.544  24.718  1.00  0.00     0.153 C 
BRANCH  88  89
ATOM     89  C   UNL A   1      33.274  19.223  24.223  1.00  0.00    -0.010 A 
ATOM     90  C   UNL A   1      34.420  18.580  24.679  1.00  0.00     0.009 A 
ATOM     91  C   UNL A   1      32.531  18.568  23.233  1.00  0.00     0.116 A 
ATOM     92  C   UNL A   1      34.782  17.352  24.121  1.00  0.00     0.020 A 
ATOM     93  N   UNL A   1      32.865  17.392  22.664  1.00  0.00    -0.264 NA
ATOM     94  C   UNL A   1      33.985  16.806  23.127  1.00  0.00     0.111 A 
ENDBRANCH  88  89
ENDBRANCH  86  88
ENDBRANCH  78  84
ENDBRANCH  74  77
ENDBRANCH  72  73
ENDBRANCH   1  72
TORSDOF 13
ENDMDL
MODEL 2
REMARK VINA RESULT:     -12.4      4.173      9.189
REMARK SMILES O=C(NCCCNC(=O)[C@@H]1[C@H](C(=O)NCc2cccnc2)[C@H]2C=C[C@@H]1C2)c1ccc(-c2c3nc(c(-c4c(F)c(F)c(F)c(F)c4F)c4ccc([nH]4)c(-c4c(F)c(F)c(F)c(F)c4F)c4nc(c(-c5c(F)c(F)c(F)c(F)c5F)c5ccc2[nH]5)C=C4)C=C3)cc1
REMARK SMILES IDX 5 1 4 2 3 3 1 4 2 5 27 7 28 8 89 9 29 10 88 11 30 12 31 13
REMARK SMILES IDX 32 14 82 15 33 16 87 17 81 18 83 19 34 20 86 21 80 22 79 23
REMARK SMILES IDX 35 25 67 26 47 27 66 28 48 29 51 30 65 31 84 32 49 33 50 34
REMARK SMILES IDX 64 36 85 37 52 38 36 39 37 40 45 41 38 42 39 43 43 44 46 45
REMARK SMILES IDX 40 46 41 47 44 48 42 49 68 50 69 51 77 52 70 53 71 54 75 55
REMARK SMILES IDX 78 56 72 57 73 58 76 59 74 60 53 61 54 62 62 63 55 64 56 65
REMARK SMILES IDX 60 66 63 67 57 68 58 69 61 70 59 71 6 72 7 73 8 74 9 76
REMARK SMILES IDX 10 77 11 78 25 79 22 80 24 81 26 82 23 83 12 84 13 85 14 86
REMARK SMILES IDX 15 88 16 89 17 90 21 91 18 92 20 93 19 94
REMARK H PARENT 3 6 83 24 51 35 7 75 14 87
REMARK Flexibility Score: inf
ROOT
ATOM      1  C   UNL A   1      31.432  32.138  26.687  1.00  0.00     0.042 C 
ENDROOT
BRANCH   1   2
ATOM      2  C   UNL A   1      32.703  32.825  27.187  1.00  0.00     0.118 C 
BRANCH   2   3
ATOM      3  N   UNL A   1      32.467  34.187  27.641  1.00  0.00    -0.352 N 
ATOM      4  O   UNL A   1      32.551  35.974  28.999  1.00  0.00    -0.269 OA
ATOM      5  C   UNL A   1      33.026  34.889  28.679  1.00  0.00     0.251 C 
ATOM      6  H   UNL A   1      31.797  34.685  27.120  1.00  0.00     0.163 HD
BRANCH   5   7
ATOM      7  C   UNL A   1      34.189  34.357  29.425  1.00  0.00     0.039 A 
ATOM      8  C   UNL A   1      34.025  33.589  30.582  1.00  0.00     0.014 A 
ATOM      9  C   UNL A   1      35.470  34.554  28.898  1.00  0.00     0.014 A 
ATOM     10  C   UNL A   1      35.143  33.099  31.257  1.00  0.00     0.010 A 
ATOM     11  C   UNL A   1      36.586  34.007  29.540  1.00  0.00     0.010 A 
ATOM     12  C   UNL A   1      36.432  33.280  30.731  1.00  0.00    -0.014 A 
BRANCH  12  13
ATOM     13  C   UNL A   1      37.597  32.616  31.371  1.00  0.00     0.031 A 
ATOM     14  C   UNL A   1      38.284  31.449  30.720  1.00  0.00     0.074 A 
ATOM     15  C   UNL A   1      38.012  33.060  32.573  1.00  0.00     0.049 A 
ATOM     16  N   UNL A   1      39.284  30.729  31.165  1.00  0.00    -0.248 NA
ATOM     17  C   UNL A   1      37.782  31.027  29.404  1.00  0.00     0.031 C 
ATOM     18  C   UNL A   1      37.405  34.168  33.314  1.00  0.00     0.029 A 
ATOM     19  N   UNL A   1      39.029  32.634  33.391  1.00  0.00    -0.354 N 
ATOM     20  C   UNL A   1      39.520  29.762  30.197  1.00  0.00     0.074 A 
ATOM     21  C   UNL A   1      38.548  29.974  29.145  1.00  0.00     0.031 C 
ATOM     22  C   UNL A   1      38.066  34.342  34.467  1.00  0.00     0.029 A 
ATOM     23  C   UNL A   1      39.105  33.323  34.577  1.00  0.00     0.049 A 
ATOM     24  H   UNL A   1      39.646  31.905  33.149  1.00  0.00     0.167 HD
ATOM     25  C   UNL A   1      40.465  28.792  30.191  1.00  0.00     0.037 A 
ATOM     26  C   UNL A   1      39.896  33.135  35.649  1.00  0.00     0.037 A 
ATOM     27  C   UNL A   1      41.445  28.605  31.231  1.00  0.00     0.049 A 
ATOM     28  C   UNL A   1      40.911  32.027  35.624  1.00  0.00     0.074 A 
ATOM     29  C   UNL A   1      42.503  27.712  31.266  1.00  0.00     0.029 A 
ATOM     30  N   UNL A   1      41.479  29.310  32.424  1.00  0.00    -0.354 N 
ATOM     31  N   UNL A   1      41.180  31.175  34.666  1.00  0.00    -0.248 NA
ATOM     32  C   UNL A   1      41.728  31.847  36.833  1.00  0.00     0.031 C 
ATOM     33  C   UNL A   1      43.135  27.831  32.507  1.00  0.00     0.029 A 
ATOM     34  C   UNL A   1      42.507  28.836  33.224  1.00  0.00     0.049 A 
ATOM     35  H   UNL A   1      40.863  30.039  32.668  1.00  0.00     0.167 HD
ATOM     36  C   UNL A   1      42.200  30.369  35.148  1.00  0.00     0.074 A 
ATOM     37  C   UNL A   1      42.522  30.848  36.475  1.00  0.00     0.031 C 
ATOM     38  C   UNL A   1      42.811  29.319  34.546  1.00  0.00     0.037 A 
BRANCH  25  39
ATOM     39  C   UNL A   1      40.494  27.833  29.037  1.00  0.00     0.064 A 
ATOM     40  C   UNL A   1      39.671  26.698  28.998  1.00  0.00     0.173 A 
ATOM     41  C   UNL A   1      41.280  28.113  27.908  1.00  0.00     0.173 A 
ATOM     42  F   UNL A   1      38.904  26.383  30.053  1.00  0.00    -0.203 F 
ATOM     43  C   UNL A   1      39.643  25.873  27.876  1.00  0.00     0.198 A 
ATOM     44  C   UNL A   1      41.231  27.300  26.779  1.00  0.00     0.198 A 
ATOM     45  F   UNL A   1      42.076  29.193  27.889  1.00  0.00    -0.203 F 
ATOM     46  F   UNL A   1      38.867  24.780  27.869  1.00  0.00    -0.200 F 
ATOM     47  C   UNL A   1      40.414  26.180  26.764  1.00  0.00     0.200 A 
ATOM     48  F   UNL A   1      41.964  27.608  25.700  1.00  0.00    -0.200 F 
ATOM     49  F   UNL A   1      40.370  25.396  25.678  1.00  0.00    -0.200 F 
ENDBRANCH  25  39
BRANCH  26  50
ATOM     50  C   UNL A   1      39.729  33.991  36.854  1.00  0.00     0.064 A 
ATOM     51  C   UNL A   1      38.906  33.597  37.917  1.00  0.00     0.173 A 
ATOM     52  C   UNL A   1      40.381  35.229  36.958  1.00  0.00     0.173 A 
ATOM     53  F   UNL A   1      38.245  32.431  37.855  1.00  0.00    -0.203 F 
ATOM     54  C   UNL A   1      38.722  34.419  39.027  1.00  0.00     0.198 A 
ATOM     55  C   UNL A   1      40.223  36.035  38.082  1.00  0.00     0.198 A 
ATOM     56  F   UNL A   1      41.181  35.653  35.969  1.00  0.00    -0.203 F 
ATOM     57  F   UNL A   1      37.887  34.042  40.005  1.00  0.00    -0.200 F 
ATOM     58  C   UNL A   1      39.384  35.635  39.111  1.00  0.00     0.200 A 
ATOM     59  F   UNL A   1      40.877  37.201  38.166  1.00  0.00    -0.200 F 
ATOM     60  F   UNL A   1      39.208  36.423  40.180  1.00  0.00    -0.200 F 
ENDBRANCH  26  50
BRANCH  38  61
ATOM     61  C   UNL A   1      43.892  28.620  35.317  1.00  0.00     0.064 A 
ATOM     62  C   UNL A   1      43.597  27.570  36.198  1.00  0.00     0.173 A 
ATOM     63  C   UNL A   1      45.238  28.972  35.138  1.00  0.00     0.173 A 
ATOM     64  F   UNL A   1      42.323  27.210  36.418  1.00  0.00    -0.203 F 
ATOM     65  C   UNL A   1      44.610  26.908  36.885  1.00  0.00     0.198 A 
ATOM     66  C   UNL A   1      46.250  28.287  35.803  1.00  0.00     0.198 A 
ATOM     67  F   UNL A   1      45.572  29.966  34.302  1.00  0.00    -0.203 F 
ATOM     68  F   UNL A   1      44.303  25.935  37.755  1.00  0.00    -0.200 F 
ATOM     69  C   UNL A   1      45.936  27.260  36.681  1.00  0.00     0.200 A 
ATOM     70  F   UNL A   1      47.531  28.620  35.595  1.00  0.00    -0.200 F 
ATOM     71  F   UNL A   1      46.911  26.614  37.335  1.00  0.00    -0.200 F 
ENDBRANCH  38  61
ENDBRANCH  12  13
ENDBRANCH   5   7
ENDBRANCH   2   3
ENDBRANCH   1   2
BRANCH   1  72
ATOM     72  C   UNL A   1      31.552  30.626  26.468  1.00  0.00     0.117 C 
BRANCH  72  73
ATOM     73  N   UNL A   1      32.214  30.313  25.218  1.00  0.00    -0.356 N 
ATOM     74  C   UNL A   1      32.195  29.087  24.627  1.00  0.00     0.224 C 
ATOM     75  H   UNL A   1      32.709  31.034  24.765  1.00  0.00     0.163 HD
ATOM     76  O   UNL A   1      33.285  28.561  24.410  1.00  0.00    -0.275 OA
BRANCH  74  77
ATOM     77  C   UNL A   1      30.883  28.357  24.442  1.00  0.00     0.098 C 
ATOM     78  C   UNL A   1      30.670  27.096  25.334  1.00  0.00     0.098 C 
ATOM     79  C   UNL A   1      30.456  27.834  23.032  1.00  0.00     0.025 C 
ATOM     80  C   UNL A   1      29.989  26.088  24.363  1.00  0.00     0.025 C 
ATOM     81  C   UNL A   1      28.942  27.727  23.098  1.00  0.00    -0.027 C 
ATOM     82  C   UNL A   1      30.691  26.318  23.029  1.00  0.00     0.017 C 
ATOM     83  C   UNL A   1      28.660  26.695  23.917  1.00  0.00    -0.027 C 
BRANCH  78  84
ATOM     84  C   UNL A   1      31.778  26.550  26.260  1.00  0.00     0.224 C 
ATOM     85  O   UNL A   1      31.755  26.894  27.452  1.00  0.00    -0.275 OA
ATOM     86  N   UNL A   1      32.779  25.693  25.930  1.00  0.00    -0.352 N 
ATOM     87  H   UNL A   1      33.457  25.589  26.636  1.00  0.00     0.163 HD
BRANCH  86  88
ATOM     88  C   UNL A   1      33.045  24.903  24.754  1.00  0.00     0.153 C 
BRANCH  88  89
ATOM     89  C   UNL A   1      34.406  24.303  24.563  1.00  0.00    -0.010 A 
ATOM     90  C   UNL A   1      35.406  24.250  25.528  1.00  0.00     0.009 A 
ATOM     91  C   UNL A   1      34.695  23.730  23.318  1.00  0.00     0.116 A 
ATOM     92  C   UNL A   1      36.633  23.665  25.209  1.00  0.00     0.020 A 
ATOM     93  N   UNL A   1      35.876  23.175  22.976  1.00  0.00    -0.264 NA
ATOM     94  C   UNL A   1      36.820  23.151  23.936  1.00  0.00     0.111 A 
ENDBRANCH  88  89
ENDBRANCH  86  88
ENDBRANCH  78  84
ENDBRANCH  74  77
ENDBRANCH  72  73
ENDBRANCH   1  72
TORSDOF 13
ENDMDL
MODEL 3
REMARK VINA RESULT:     -12.4      3.394      7.213
REMARK SMILES O=C(NCCCNC(=O)[C@@H]1[C@H](C(=O)NCc2cccnc2)[C@H]2C=C[C@@H]1C2)c1ccc(-c2c3nc(c(-c4c(F)c(F)c(F)c(F)c4F)c4ccc([nH]4)c(-c4c(F)c(F)c(F)c(F)c4F)c4nc(c(-c5c(F)c(F)c(F)c(F)c5F)c5ccc2[nH]5)C=C4)C=C3)cc1
REMARK SMILES IDX 5 1 4 2 3 3 1 4 2 5 27 7 28 8 89 9 29 10 88 11 30 12 31 13
REMARK SMILES IDX 32 14 82 15 33 16 87 17 81 18 83 19 34 20 86 21 80 22 79 23
REMARK SMILES IDX 35 25 67 26 47 27 66 28 48 29 51 30 65 31 84 32 49 33 50 34
REMARK SMILES IDX 64 36 85 37 52 38 36 39 37 40 45 41 38 42 39 43 43 44 46 45
REMARK SMILES IDX 40 46 41 47 44 48 42 49 68 50 69 51 77 52 70 53 71 54 75 55
REMARK SMILES IDX 78 56 72 57 73 58 76 59 74 60 53 61 54 62 62 63 55 64 56 65
REMARK SMILES IDX 60 66 63 67 57 68 58 69 61 70 59 71 6 72 7 73 8 74 9 76
REMARK SMILES IDX 10 77 11 78 25 79 22 80 24 81 26 82 23 83 12 84 13 85 14 86
REMARK SMILES IDX 15 88 16 89 17 90 21 91 18 92 20 93 19 94
REMARK H PARENT 3 6 83 24 51 35 7 75 14 87
REMARK Flexibility Score: inf
ROOT
ATOM      1  C   UNL A   1      37.590  19.943  25.021  1.00  0.00     0.042 C 
ENDROOT
BRANCH   1   2
ATOM      2  C   UNL A   1      38.840  20.438  25.750  1.00  0.00     0.118 C 
BRANCH   2   3
ATOM      3  N   UNL A   1      39.862  19.410  25.877  1.00  0.00    -0.352 N 
ATOM      4  O   UNL A   1      41.923  18.522  25.969  1.00  0.00    -0.269 OA
ATOM      5  C   UNL A   1      41.215  19.520  26.068  1.00  0.00     0.251 C 
ATOM      6  H   UNL A   1      39.527  18.487  25.817  1.00  0.00     0.163 HD
BRANCH   5   7
ATOM      7  C   UNL A   1      41.842  20.824  26.384  1.00  0.00     0.039 A 
ATOM      8  C   UNL A   1      42.103  21.769  25.388  1.00  0.00     0.014 A 
ATOM      9  C   UNL A   1      42.085  21.142  27.725  1.00  0.00     0.014 A 
ATOM     10  C   UNL A   1      42.688  22.991  25.722  1.00  0.00     0.010 A 
ATOM     11  C   UNL A   1      42.612  22.393  28.065  1.00  0.00     0.010 A 
ATOM     12  C   UNL A   1      42.925  23.325  27.064  1.00  0.00    -0.014 A 
BRANCH  12  13
ATOM     13  C   UNL A   1      43.397  24.689  27.419  1.00  0.00     0.031 A 
ATOM     14  C   UNL A   1      42.458  25.719  27.981  1.00  0.00     0.074 A 
ATOM     15  C   UNL A   1      44.688  25.004  27.195  1.00  0.00     0.049 A 
ATOM     16  N   UNL A   1      42.697  26.966  28.301  1.00  0.00    -0.248 NA
ATOM     17  C   UNL A   1      41.066  25.300  28.208  1.00  0.00     0.031 C 
ATOM     18  C   UNL A   1      45.687  24.095  26.627  1.00  0.00     0.029 A 
ATOM     19  N   UNL A   1      45.382  26.170  27.403  1.00  0.00    -0.354 N 
ATOM     20  C   UNL A   1      41.490  27.485  28.748  1.00  0.00     0.074 A 
ATOM     21  C   UNL A   1      40.511  26.424  28.645  1.00  0.00     0.031 C 
ATOM     22  C   UNL A   1      46.864  24.731  26.543  1.00  0.00     0.029 A 
ATOM     23  C   UNL A   1      46.693  26.108  26.995  1.00  0.00     0.049 A 
ATOM     24  H   UNL A   1      44.980  26.972  27.808  1.00  0.00     0.167 HD
ATOM     25  C   UNL A   1      41.231  28.733  29.206  1.00  0.00     0.037 A 
ATOM     26  C   UNL A   1      47.642  27.061  26.953  1.00  0.00     0.037 A 
ATOM     27  C   UNL A   1      42.219  29.776  29.330  1.00  0.00     0.049 A 
ATOM     28  C   UNL A   1      47.311  28.445  27.436  1.00  0.00     0.074 A 
ATOM     29  C   UNL A   1      42.071  31.040  29.874  1.00  0.00     0.029 A 
ATOM     30  N   UNL A   1      43.529  29.682  28.890  1.00  0.00    -0.354 N 
ATOM     31  N   UNL A   1      46.188  28.898  27.937  1.00  0.00    -0.248 NA
ATOM     32  C   UNL A   1      48.375  29.455  27.341  1.00  0.00     0.031 C 
ATOM     33  C   UNL A   1      43.272  31.734  29.703  1.00  0.00     0.029 A 
ATOM     34  C   UNL A   1      44.186  30.884  29.103  1.00  0.00     0.049 A 
ATOM     35  H   UNL A   1      43.934  28.880  28.485  1.00  0.00     0.167 HD
ATOM     36  C   UNL A   1      46.413  30.236  28.227  1.00  0.00     0.074 A 
ATOM     37  C   UNL A   1      47.787  30.517  27.871  1.00  0.00     0.031 C 
ATOM     38  C   UNL A   1      45.553  31.151  28.736  1.00  0.00     0.037 A 
BRANCH  25  39
ATOM     39  C   UNL A   1      39.822  29.068  29.599  1.00  0.00     0.064 A 
ATOM     40  C   UNL A   1      38.867  29.471  28.655  1.00  0.00     0.173 A 
ATOM     41  C   UNL A   1      39.397  28.882  30.925  1.00  0.00     0.173 A 
ATOM     42  F   UNL A   1      39.221  29.668  27.376  1.00  0.00    -0.203 F 
ATOM     43  C   UNL A   1      37.540  29.685  29.026  1.00  0.00     0.198 A 
ATOM     44  C   UNL A   1      38.066  29.073  31.286  1.00  0.00     0.198 A 
ATOM     45  F   UNL A   1      40.269  28.487  31.865  1.00  0.00    -0.203 F 
ATOM     46  F   UNL A   1      36.648  30.091  28.112  1.00  0.00    -0.200 F 
ATOM     47  C   UNL A   1      37.139  29.475  30.337  1.00  0.00     0.200 A 
ATOM     48  F   UNL A   1      37.678  28.854  32.551  1.00  0.00    -0.200 F 
ATOM     49  F   UNL A   1      35.859  29.662  30.687  1.00  0.00    -0.200 F 
ENDBRANCH  25  39
BRANCH  26  50
ATOM     50  C   UNL A   1      48.984  26.748  26.395  1.00  0.00     0.064 A 
ATOM     51  C   UNL A   1      49.279  26.972  25.044  1.00  0.00     0.173 A 
ATOM     52  C   UNL A   1      49.995  26.203  27.201  1.00  0.00     0.173 A 
ATOM     53  F   UNL A   1      48.339  27.472  24.227  1.00  0.00    -0.203 F 
ATOM     54  C   UNL A   1      50.525  26.642  24.515  1.00  0.00     0.198 A 
ATOM     55  C   UNL A   1      51.251  25.904  26.681  1.00  0.00     0.198 A 
ATOM     56  F   UNL A   1      49.765  25.969  28.502  1.00  0.00    -0.203 F 
ATOM     57  F   UNL A   1      50.764  26.817  23.208  1.00  0.00    -0.200 F 
ATOM     58  C   UNL A   1      51.512  26.113  25.335  1.00  0.00     0.200 A 
ATOM     59  F   UNL A   1      52.205  25.408  27.479  1.00  0.00    -0.200 F 
ATOM     60  F   UNL A   1      52.711  25.797  24.826  1.00  0.00    -0.200 F 
ENDBRANCH  26  50
BRANCH  38  61
ATOM     61  C   UNL A   1      46.075  32.543  28.943  1.00  0.00     0.064 A 
ATOM     62  C   UNL A   1      45.926  33.530  27.958  1.00  0.00     0.173 A 
ATOM     63  C   UNL A   1      46.687  32.904  30.151  1.00  0.00     0.173 A 
ATOM     64  F   UNL A   1      45.365  33.228  26.777  1.00  0.00    -0.203 F 
ATOM     65  C   UNL A   1      46.387  34.826  28.171  1.00  0.00     0.198 A 
ATOM     66  C   UNL A   1      47.119  34.208  30.372  1.00  0.00     0.198 A 
ATOM     67  F   UNL A   1      46.849  31.997  31.126  1.00  0.00    -0.203 F 
ATOM     68  F   UNL A   1      46.272  35.745  27.201  1.00  0.00    -0.200 F 
ATOM     69  C   UNL A   1      46.974  35.167  29.380  1.00  0.00     0.200 A 
ATOM     70  F   UNL A   1      47.675  34.539  31.546  1.00  0.00    -0.200 F 
ATOM     71  F   UNL A   1      47.406  36.418  29.587  1.00  0.00    -0.200 F 
ENDBRANCH  38  61
ENDBRANCH  12  13
ENDBRANCH   5   7
ENDBRANCH   2   3
ENDBRANCH   1   2
BRANCH   1  72
ATOM     72  C   UNL A   1      36.436  20.950  24.950  1.00  0.00     0.117 C 
BRANCH  72  73
ATOM     73  N   UNL A   1      36.751  22.073  24.090  1.00  0.00    -0.356 N 
ATOM     74  C   UNL A   1      35.835  22.969  23.634  1.00  0.00     0.224 C 
ATOM     75  H   UNL A   1      37.690  22.196  23.818  1.00  0.00     0.163 HD
ATOM     76  O   UNL A   1      35.741  23.092  22.414  1.00  0.00    -0.275 OA
BRANCH  74  77
ATOM     77  C   UNL A   1      34.866  23.617  24.598  1.00  0.00     0.098 C 
ATOM     78  C   UNL A   1      33.426  23.020  24.624  1.00  0.00     0.098 C 
ATOM     79  C   UNL A   1      34.580  25.151  24.527  1.00  0.00     0.025 C 
ATOM     80  C   UNL A   1      32.523  24.282  24.745  1.00  0.00     0.025 C 
ATOM     81  C   UNL A   1      34.093  25.522  25.919  1.00  0.00    -0.027 C 
ATOM     82  C   UNL A   1      33.207  25.320  23.864  1.00  0.00     0.017 C 
ATOM     83  C   UNL A   1      32.868  24.978  26.060  1.00  0.00    -0.027 C 
BRANCH  78  84
ATOM     84  C   UNL A   1      32.976  21.918  23.640  1.00  0.00     0.224 C 
ATOM     85  O   UNL A   1      32.810  22.238  22.453  1.00  0.00    -0.275 OA
ATOM     86  N   UNL A   1      32.767  20.604  23.913  1.00  0.00    -0.352 N 
ATOM     87  H   UNL A   1      32.345  20.109  23.174  1.00  0.00     0.163 HD
BRANCH  86  88
ATOM     88  C   UNL A   1      33.041  19.789  25.070  1.00  0.00     0.153 C 
BRANCH  88  89
ATOM     89  C   UNL A   1      33.256  18.314  24.898  1.00  0.00    -0.010 A 
ATOM     90  C   UNL A   1      34.068  17.726  23.934  1.00  0.00     0.009 A 
ATOM     91  C   UNL A   1      32.604  17.453  25.789  1.00  0.00     0.116 A 
ATOM     92  C   UNL A   1      34.171  16.334  23.884  1.00  0.00     0.020 A 
ATOM     93  N   UNL A   1      32.669  16.106  25.753  1.00  0.00    -0.264 NA
ATOM     94  C   UNL A   1      33.460  15.576  24.800  1.00  0.00     0.111 A 
ENDBRANCH  88  89
ENDBRANCH  86  88
ENDBRANCH  78  84
ENDBRANCH  74  77
ENDBRANCH  72  73
ENDBRANCH   1  72
TORSDOF 13
ENDMDL
