MODEL 1
REMARK VINA RESULT:     -14.5      0.000      0.000
REMARK SMILES O=C(NCCCNC(=O)C1CC[NH+]([C@H]2CC(=O)N(c3ccc4c(c3)OCCO4)C2=O)CC1)c1ccc(-c2c3nc(c(-c4c(F)c(F)c(F)c(F)c4F)c4ccc([nH]4)c(-c4c(F)c(F)c(F)c(F)c4F)c4nc(c(-c5c(F)c(F)c(F)c(F)c5F)c5ccc2[nH]5)C=C4)C=C3)cc1
REMARK SMILES IDX 5 1 4 2 3 3 1 4 2 5 33 7 34 8 95 9 35 10 94 11 36 12 37 13
REMARK SMILES IDX 38 14 88 15 39 16 93 17 87 18 89 19 40 20 92 21 86 22 85 23
REMARK SMILES IDX 41 25 73 26 53 27 72 28 54 29 57 30 71 31 90 32 55 33 56 34
REMARK SMILES IDX 70 36 91 37 58 38 42 39 43 40 51 41 44 42 45 43 49 44 52 45
REMARK SMILES IDX 46 46 47 47 50 48 48 49 74 50 75 51 83 52 76 53 77 54 81 55
REMARK SMILES IDX 84 56 78 57 79 58 82 59 80 60 59 61 60 62 68 63 61 64 62 65
REMARK SMILES IDX 66 66 69 67 63 68 64 69 67 70 65 71 6 72 7 73 8 74 9 76
REMARK SMILES IDX 10 77 11 78 32 79 12 80 31 81 13 82 14 84 15 85 29 86 16 87
REMARK SMILES IDX 18 88 30 89 17 90 19 91 20 92 24 93 21 94 23 95 22 96 25 97
REMARK SMILES IDX 28 98 26 99 27 100
REMARK H PARENT 3 6 89 24 57 35 7 75 13 83
REMARK Flexibility Score: inf
ROOT
ATOM      1  C   UNL A   1      31.403  32.024  26.501  1.00  0.00     0.042 C 
ENDROOT
BRANCH   1   2
ATOM      2  C   UNL A   1      32.605  32.532  27.273  1.00  0.00     0.118 C 
BRANCH   2   3
ATOM      3  N   UNL A   1      32.466  33.942  27.595  1.00  0.00    -0.352 N 
ATOM      4  O   UNL A   1      32.546  35.762  28.907  1.00  0.00    -0.269 OA
ATOM      5  C   UNL A   1      33.035  34.677  28.605  1.00  0.00     0.251 C 
ATOM      6  H   UNL A   1      31.873  34.450  26.995  1.00  0.00     0.163 HD
BRANCH   5   7
ATOM      7  C   UNL A   1      34.226  34.179  29.329  1.00  0.00     0.039 A 
ATOM      8  C   UNL A   1      34.101  33.414  30.491  1.00  0.00     0.014 A 
ATOM      9  C   UNL A   1      35.493  34.403  28.780  1.00  0.00     0.014 A 
ATOM     10  C   UNL A   1      35.232  32.981  31.171  1.00  0.00     0.010 A 
ATOM     11  C   UNL A   1      36.624  33.874  29.405  1.00  0.00     0.010 A 
ATOM     12  C   UNL A   1      36.501  33.166  30.610  1.00  0.00    -0.014 A 
BRANCH  12  13
ATOM     13  C   UNL A   1      37.685  32.525  31.231  1.00  0.00     0.031 A 
ATOM     14  C   UNL A   1      38.369  31.371  30.565  1.00  0.00     0.074 A 
ATOM     15  C   UNL A   1      38.102  32.965  32.433  1.00  0.00     0.049 A 
ATOM     16  N   UNL A   1      39.329  30.606  31.017  1.00  0.00    -0.248 NA
ATOM     17  C   UNL A   1      37.899  31.018  29.217  1.00  0.00     0.031 C 
ATOM     18  C   UNL A   1      37.507  34.080  33.174  1.00  0.00     0.029 A 
ATOM     19  N   UNL A   1      39.110  32.524  33.252  1.00  0.00    -0.354 N 
ATOM     20  C   UNL A   1      39.560  29.664  30.024  1.00  0.00     0.074 A 
ATOM     21  C   UNL A   1      38.623  29.938  28.955  1.00  0.00     0.031 C 
ATOM     22  C   UNL A   1      38.163  34.242  34.330  1.00  0.00     0.029 A 
ATOM     23  C   UNL A   1      39.173  33.197  34.447  1.00  0.00     0.049 A 
ATOM     24  H   UNL A   1      39.727  31.797  33.007  1.00  0.00     0.167 HD
ATOM     25  C   UNL A   1      40.474  28.663  30.014  1.00  0.00     0.037 A 
ATOM     26  C   UNL A   1      39.924  32.970  35.540  1.00  0.00     0.037 A 
ATOM     27  C   UNL A   1      41.402  28.412  31.088  1.00  0.00     0.049 A 
ATOM     28  C   UNL A   1      40.901  31.832  35.523  1.00  0.00     0.074 A 
ATOM     29  C   UNL A   1      42.397  27.453  31.163  1.00  0.00     0.029 A 
ATOM     30  N   UNL A   1      41.438  29.119  32.283  1.00  0.00    -0.354 N 
ATOM     31  N   UNL A   1      41.136  30.963  34.571  1.00  0.00    -0.248 NA
ATOM     32  C   UNL A   1      41.716  31.639  36.729  1.00  0.00     0.031 C 
ATOM     33  C   UNL A   1      42.992  27.539  32.426  1.00  0.00     0.029 A 
ATOM     34  C   UNL A   1      42.417  28.596  33.113  1.00  0.00     0.049 A 
ATOM     35  H   UNL A   1      40.855  29.880  32.507  1.00  0.00     0.167 HD
ATOM     36  C   UNL A   1      42.143  30.137  35.046  1.00  0.00     0.074 A 
ATOM     37  C   UNL A   1      42.476  30.610  36.375  1.00  0.00     0.031 C 
ATOM     38  C   UNL A   1      42.741  29.087  34.432  1.00  0.00     0.037 A 
BRANCH  25  39
ATOM     39  C   UNL A   1      40.480  27.742  28.826  1.00  0.00     0.064 A 
ATOM     40  C   UNL A   1      41.269  27.992  27.692  1.00  0.00     0.173 A 
ATOM     41  C   UNL A   1      39.682  26.588  28.824  1.00  0.00     0.173 A 
ATOM     42  F   UNL A   1      42.044  29.086  27.637  1.00  0.00    -0.203 F 
ATOM     43  C   UNL A   1      41.222  27.148  26.585  1.00  0.00     0.198 A 
ATOM     44  C   UNL A   1      39.664  25.727  27.729  1.00  0.00     0.198 A 
ATOM     45  F   UNL A   1      38.914  26.292  29.884  1.00  0.00    -0.203 F 
ATOM     46  F   UNL A   1      41.931  27.446  25.487  1.00  0.00    -0.200 F 
ATOM     47  C   UNL A   1      40.423  26.015  26.605  1.00  0.00     0.200 A 
ATOM     48  F   UNL A   1      38.903  24.624  27.757  1.00  0.00    -0.200 F 
ATOM     49  F   UNL A   1      40.376  25.207  25.537  1.00  0.00    -0.200 F 
ENDBRANCH  25  39
BRANCH  26  50
ATOM     50  C   UNL A   1      39.748  33.840  36.730  1.00  0.00     0.064 A 
ATOM     51  C   UNL A   1      40.365  35.095  36.805  1.00  0.00     0.173 A 
ATOM     52  C   UNL A   1      38.901  33.462  37.784  1.00  0.00     0.173 A 
ATOM     53  F   UNL A   1      41.192  35.494  35.828  1.00  0.00    -0.203 F 
ATOM     54  C   UNL A   1      40.140  35.941  37.889  1.00  0.00     0.198 A 
ATOM     55  C   UNL A   1      38.654  34.321  38.852  1.00  0.00     0.198 A 
ATOM     56  F   UNL A   1      38.276  32.276  37.752  1.00  0.00    -0.203 F 
ATOM     57  F   UNL A   1      40.758  37.128  37.948  1.00  0.00    -0.200 F 
ATOM     58  C   UNL A   1      39.278  35.558  38.906  1.00  0.00     0.200 A 
ATOM     59  F   UNL A   1      37.803  33.956  39.820  1.00  0.00    -0.200 F 
ATOM     60  F   UNL A   1      39.045  36.383  39.936  1.00  0.00    -0.200 F 
ENDBRANCH  26  50
BRANCH  38  61
ATOM     61  C   UNL A   1      43.855  28.402  35.164  1.00  0.00     0.064 A 
ATOM     62  C   UNL A   1      43.618  27.339  36.047  1.00  0.00     0.173 A 
ATOM     63  C   UNL A   1      45.187  28.766  34.915  1.00  0.00     0.173 A 
ATOM     64  F   UNL A   1      42.360  26.965  36.331  1.00  0.00    -0.203 F 
ATOM     65  C   UNL A   1      44.673  26.668  36.658  1.00  0.00     0.198 A 
ATOM     66  C   UNL A   1      46.241  28.076  35.505  1.00  0.00     0.198 A 
ATOM     67  F   UNL A   1      45.466  29.776  34.077  1.00  0.00    -0.203 F 
ATOM     68  F   UNL A   1      44.424  25.674  37.520  1.00  0.00    -0.200 F 
ATOM     69  C   UNL A   1      45.983  27.029  36.377  1.00  0.00     0.200 A 
ATOM     70  F   UNL A   1      47.506  28.416  35.221  1.00  0.00    -0.200 F 
ATOM     71  F   UNL A   1      46.999  26.369  36.950  1.00  0.00    -0.200 F 
ENDBRANCH  38  61
ENDBRANCH  12  13
ENDBRANCH   5   7
ENDBRANCH   2   3
ENDBRANCH   1   2
BRANCH   1  72
ATOM     72  C   UNL A   1      31.650  30.662  25.854  1.00  0.00     0.117 C 
BRANCH  72  73
ATOM     73  N   UNL A   1      31.684  29.610  26.856  1.00  0.00    -0.356 N 
ATOM     74  C   UNL A   1      31.483  28.274  26.860  1.00  0.00     0.223 C 
ATOM     75  H   UNL A   1      31.908  29.955  27.750  1.00  0.00     0.163 HD
ATOM     76  O   UNL A   1      31.403  27.774  27.992  1.00  0.00    -0.275 OA
BRANCH  74  77
ATOM     77  C   UNL A   1      31.465  27.345  25.637  1.00  0.00     0.089 C 
ATOM     78  C   UNL A   1      30.943  25.924  25.731  1.00  0.00     0.075 C 
ATOM     79  C   UNL A   1      32.861  27.280  24.986  1.00  0.00     0.075 C 
ATOM     80  C   UNL A   1      31.890  25.006  26.501  1.00  0.00     0.263 C 
ATOM     81  C   UNL A   1      33.811  26.357  25.755  1.00  0.00     0.263 C 
ATOM     82  N   UNL A   1      33.283  25.030  26.071  1.00  0.00    -0.324 N 
ATOM     83  H   UNL A   1      33.869  24.862  26.888  1.00  0.00     0.348 HD
BRANCH  82  84
ATOM     84  C   UNL A   1      33.656  23.865  25.257  1.00  0.00     0.284 C 
ATOM     85  C   UNL A   1      34.267  24.196  23.908  1.00  0.00     0.176 C 
ATOM     86  C   UNL A   1      34.611  22.869  25.893  1.00  0.00     0.292 C 
ATOM     87  C   UNL A   1      35.435  23.284  23.788  1.00  0.00     0.240 C 
ATOM     88  N   UNL A   1      35.604  22.617  24.976  1.00  0.00    -0.245 N 
ATOM     89  O   UNL A   1      34.489  22.393  27.015  1.00  0.00    -0.267 OA
ATOM     90  O   UNL A   1      36.084  23.190  22.762  1.00  0.00    -0.274 OA
BRANCH  88  91
ATOM     91  C   UNL A   1      36.687  21.748  25.184  1.00  0.00     0.056 A 
ATOM     92  C   UNL A   1      36.591  20.385  24.889  1.00  0.00     0.031 A 
ATOM     93  C   UNL A   1      37.897  22.279  25.647  1.00  0.00     0.077 A 
ATOM     94  C   UNL A   1      37.721  19.571  25.001  1.00  0.00     0.052 A 
ATOM     95  C   UNL A   1      39.002  21.456  25.809  1.00  0.00     0.163 A 
ATOM     96  C   UNL A   1      38.919  20.103  25.476  1.00  0.00     0.161 A 
ATOM     97  O   UNL A   1      40.128  22.051  26.314  1.00  0.00    -0.486 OA
ATOM     98  O   UNL A   1      39.980  19.244  25.589  1.00  0.00    -0.486 OA
ATOM     99  C   UNL A   1      41.282  21.232  26.126  1.00  0.00     0.271 C 
ATOM    100  C   UNL A   1      40.983  19.778  26.459  1.00  0.00     0.271 C 
ENDBRANCH  88  91
ENDBRANCH  82  84
ENDBRANCH  74  77
ENDBRANCH  72  73
ENDBRANCH   1  72
TORSDOF 12
ENDMDL
MODEL 2
REMARK VINA RESULT:     -14.5      0.274      1.565
REMARK SMILES O=C(NCCCNC(=O)C1CC[NH+]([C@H]2CC(=O)N(c3ccc4c(c3)OCCO4)C2=O)CC1)c1ccc(-c2c3nc(c(-c4c(F)c(F)c(F)c(F)c4F)c4ccc([nH]4)c(-c4c(F)c(F)c(F)c(F)c4F)c4nc(c(-c5c(F)c(F)c(F)c(F)c5F)c5ccc2[nH]5)C=C4)C=C3)cc1
REMARK SMILES IDX 5 1 4 2 3 3 1 4 2 5 33 7 34 8 95 9 35 10 94 11 36 12 37 13
REMARK SMILES IDX 38 14 88 15 39 16 93 17 87 18 89 19 40 20 92 21 86 22 85 23
REMARK SMILES IDX 41 25 73 26 53 27 72 28 54 29 57 30 71 31 90 32 55 33 56 34
REMARK SMILES IDX 70 36 91 37 58 38 42 39 43 40 51 41 44 42 45 43 49 44 52 45
REMARK SMILES IDX 46 46 47 47 50 48 48 49 74 50 75 51 83 52 76 53 77 54 81 55
REMARK SMILES IDX 84 56 78 57 79 58 82 59 80 60 59 61 60 62 68 63 61 64 62 65
REMARK SMILES IDX 66 66 69 67 63 68 64 69 67 70 65 71 6 72 7 73 8 74 9 76
REMARK SMILES IDX 10 77 11 78 32 79 12 80 31 81 13 82 14 84 15 85 29 86 16 87
REMARK SMILES IDX 18 88 30 89 17 90 19 91 20 92 24 93 21 94 23 95 22 96 25 97
REMARK SMILES IDX 28 98 26 99 27 100
REMARK H PARENT 3 6 89 24 57 35 7 75 13 83
REMARK Flexibility Score: inf
ROOT
ATOM      1  C   UNL A   1      31.383  32.005  26.491  1.00  0.00     0.042 C 
ENDROOT
BRANCH   1   2
ATOM      2  C   UNL A   1      32.586  32.529  27.251  1.00  0.00     0.118 C 
BRANCH   2   3
ATOM      3  N   UNL A   1      32.455  33.950  27.528  1.00  0.00    -0.352 N 
ATOM      4  O   UNL A   1      32.528  35.807  28.786  1.00  0.00    -0.269 OA
ATOM      5  C   UNL A   1      33.012  34.709  28.526  1.00  0.00     0.251 C 
ATOM      6  H   UNL A   1      31.878  34.445  26.902  1.00  0.00     0.163 HD
BRANCH   5   7
ATOM      7  C   UNL A   1      34.184  34.222  29.287  1.00  0.00     0.039 A 
ATOM      8  C   UNL A   1      34.030  33.445  30.437  1.00  0.00     0.014 A 
ATOM      9  C   UNL A   1      35.466  34.471  28.786  1.00  0.00     0.014 A 
ATOM     10  C   UNL A   1      35.143  33.022  31.153  1.00  0.00     0.010 A 
ATOM     11  C   UNL A   1      36.583  33.952  29.445  1.00  0.00     0.010 A 
ATOM     12  C   UNL A   1      36.428  33.231  30.638  1.00  0.00    -0.014 A 
BRANCH  12  13
ATOM     13  C   UNL A   1      37.599  32.601  31.296  1.00  0.00     0.031 A 
ATOM     14  C   UNL A   1      38.299  31.439  30.662  1.00  0.00     0.074 A 
ATOM     15  C   UNL A   1      37.989  33.061  32.500  1.00  0.00     0.049 A 
ATOM     16  N   UNL A   1      39.250  30.683  31.147  1.00  0.00    -0.248 NA
ATOM     17  C   UNL A   1      37.860  31.065  29.309  1.00  0.00     0.031 C 
ATOM     18  C   UNL A   1      37.375  34.186  33.210  1.00  0.00     0.029 A 
ATOM     19  N   UNL A   1      38.979  32.634  33.347  1.00  0.00    -0.354 N 
ATOM     20  C   UNL A   1      39.505  29.726  30.174  1.00  0.00     0.074 A 
ATOM     21  C   UNL A   1      38.591  29.983  29.081  1.00  0.00     0.031 C 
ATOM     22  C   UNL A   1      38.006  34.367  34.377  1.00  0.00     0.029 A 
ATOM     23  C   UNL A   1      39.014  33.326  34.533  1.00  0.00     0.049 A 
ATOM     24  H   UNL A   1      39.602  31.905  33.127  1.00  0.00     0.167 HD
ATOM     25  C   UNL A   1      40.420  28.727  30.200  1.00  0.00     0.037 A 
ATOM     26  C   UNL A   1      39.742  33.117  35.645  1.00  0.00     0.037 A 
ATOM     27  C   UNL A   1      41.324  28.494  31.297  1.00  0.00     0.049 A 
ATOM     28  C   UNL A   1      40.720  31.980  35.668  1.00  0.00     0.074 A 
ATOM     29  C   UNL A   1      42.319  27.539  31.409  1.00  0.00     0.029 A 
ATOM     30  N   UNL A   1      41.334  29.219  32.482  1.00  0.00    -0.354 N 
ATOM     31  N   UNL A   1      40.977  31.098  34.734  1.00  0.00    -0.248 NA
ATOM     32  C   UNL A   1      41.509  31.808  36.894  1.00  0.00     0.031 C 
ATOM     33  C   UNL A   1      42.886  27.645  32.683  1.00  0.00     0.029 A 
ATOM     34  C   UNL A   1      42.294  28.711  33.342  1.00  0.00     0.049 A 
ATOM     35  H   UNL A   1      40.744  29.983  32.682  1.00  0.00     0.167 HD
ATOM     36  C   UNL A   1      41.975  30.281  35.244  1.00  0.00     0.074 A 
ATOM     37  C   UNL A   1      42.277  30.775  36.573  1.00  0.00     0.031 C 
ATOM     38  C   UNL A   1      42.588  29.223  34.659  1.00  0.00     0.037 A 
BRANCH  25  39
ATOM     39  C   UNL A   1      40.454  27.789  29.026  1.00  0.00     0.064 A 
ATOM     40  C   UNL A   1      41.250  28.035  27.896  1.00  0.00     0.173 A 
ATOM     41  C   UNL A   1      39.677  26.620  29.034  1.00  0.00     0.173 A 
ATOM     42  F   UNL A   1      42.007  29.141  27.831  1.00  0.00    -0.203 F 
ATOM     43  C   UNL A   1      41.228  27.173  26.802  1.00  0.00     0.198 A 
ATOM     44  C   UNL A   1      39.685  25.743  27.952  1.00  0.00     0.198 A 
ATOM     45  F   UNL A   1      38.903  26.328  30.091  1.00  0.00    -0.203 F 
ATOM     46  F   UNL A   1      41.943  27.467  25.706  1.00  0.00    -0.200 F 
ATOM     47  C   UNL A   1      40.450  26.027  26.832  1.00  0.00     0.200 A 
ATOM     48  F   UNL A   1      38.942  24.627  27.991  1.00  0.00    -0.200 F 
ATOM     49  F   UNL A   1      40.427  25.201  25.776  1.00  0.00    -0.200 F 
ENDBRANCH  25  39
BRANCH  26  50
ATOM     50  C   UNL A   1      39.538  34.004  36.818  1.00  0.00     0.064 A 
ATOM     51  C   UNL A   1      38.727  33.609  37.889  1.00  0.00     0.173 A 
ATOM     52  C   UNL A   1      40.208  35.233  36.922  1.00  0.00     0.173 A 
ATOM     53  F   UNL A   1      38.057  32.449  37.831  1.00  0.00    -0.203 F 
ATOM     54  C   UNL A   1      38.594  34.411  39.022  1.00  0.00     0.198 A 
ATOM     55  C   UNL A   1      40.097  36.019  38.066  1.00  0.00     0.198 A 
ATOM     56  F   UNL A   1      41.007  35.649  35.928  1.00  0.00    -0.203 F 
ATOM     57  F   UNL A   1      37.796  34.022  40.025  1.00  0.00    -0.200 F 
ATOM     58  C   UNL A   1      39.287  35.609  39.114  1.00  0.00     0.200 A 
ATOM     59  F   UNL A   1      40.787  37.164  38.160  1.00  0.00    -0.200 F 
ATOM     60  F   UNL A   1      39.176  36.367  40.213  1.00  0.00    -0.200 F 
ENDBRANCH  26  50
BRANCH  38  61
ATOM     61  C   UNL A   1      43.687  28.551  35.426  1.00  0.00     0.064 A 
ATOM     62  C   UNL A   1      45.030  28.925  35.279  1.00  0.00     0.173 A 
ATOM     63  C   UNL A   1      43.378  27.569  36.380  1.00  0.00     0.173 A 
ATOM     64  F   UNL A   1      45.378  29.846  34.367  1.00  0.00    -0.203 F 
ATOM     65  C   UNL A   1      46.025  28.338  36.056  1.00  0.00     0.198 A 
ATOM     66  C   UNL A   1      44.370  27.006  37.176  1.00  0.00     0.198 A 
ATOM     67  F   UNL A   1      42.107  27.178  36.560  1.00  0.00    -0.203 F 
ATOM     68  F   UNL A   1      47.305  28.690  35.880  1.00  0.00    -0.200 F 
ATOM     69  C   UNL A   1      45.692  27.389  37.011  1.00  0.00     0.200 A 
ATOM     70  F   UNL A   1      44.045  26.099  38.109  1.00  0.00    -0.200 F 
ATOM     71  F   UNL A   1      46.648  26.841  37.774  1.00  0.00    -0.200 F 
ENDBRANCH  38  61
ENDBRANCH  12  13
ENDBRANCH   5   7
ENDBRANCH   2   3
ENDBRANCH   1   2
BRANCH   1  72
ATOM     72  C   UNL A   1      31.640  30.644  25.847  1.00  0.00     0.117 C 
BRANCH  72  73
ATOM     73  N   UNL A   1      31.677  29.593  26.850  1.00  0.00    -0.356 N 
ATOM     74  C   UNL A   1      31.480  28.256  26.856  1.00  0.00     0.223 C 
ATOM     75  H   UNL A   1      31.900  29.940  27.744  1.00  0.00     0.163 HD
ATOM     76  O   UNL A   1      31.401  27.757  27.989  1.00  0.00    -0.275 OA
BRANCH  74  77
ATOM     77  C   UNL A   1      31.465  27.325  25.634  1.00  0.00     0.089 C 
ATOM     78  C   UNL A   1      30.950  25.903  25.730  1.00  0.00     0.075 C 
ATOM     79  C   UNL A   1      32.860  27.266  24.982  1.00  0.00     0.075 C 
ATOM     80  C   UNL A   1      31.902  24.990  26.501  1.00  0.00     0.263 C 
ATOM     81  C   UNL A   1      33.816  26.349  25.751  1.00  0.00     0.263 C 
ATOM     82  N   UNL A   1      33.295  25.020  26.069  1.00  0.00    -0.324 N 
ATOM     83  H   UNL A   1      33.883  24.855  26.886  1.00  0.00     0.348 HD
BRANCH  82  84
ATOM     84  C   UNL A   1      33.673  23.856  25.256  1.00  0.00     0.284 C 
ATOM     85  C   UNL A   1      34.282  24.188  23.907  1.00  0.00     0.176 C 
ATOM     86  C   UNL A   1      34.632  22.865  25.892  1.00  0.00     0.292 C 
ATOM     87  C   UNL A   1      35.453  23.281  23.787  1.00  0.00     0.240 C 
ATOM     88  N   UNL A   1      35.626  22.615  24.975  1.00  0.00    -0.245 N 
ATOM     89  O   UNL A   1      34.513  22.389  27.015  1.00  0.00    -0.267 OA
ATOM     90  O   UNL A   1      36.102  23.188  22.760  1.00  0.00    -0.274 OA
BRANCH  88  91
ATOM     91  C   UNL A   1      36.713  21.752  25.184  1.00  0.00     0.056 A 
ATOM     92  C   UNL A   1      36.623  20.388  24.889  1.00  0.00     0.031 A 
ATOM     93  C   UNL A   1      37.920  22.288  25.647  1.00  0.00     0.077 A 
ATOM     94  C   UNL A   1      37.757  19.579  25.001  1.00  0.00     0.052 A 
ATOM     95  C   UNL A   1      39.029  21.470  25.809  1.00  0.00     0.163 A 
ATOM     96  C   UNL A   1      38.952  20.117  25.477  1.00  0.00     0.161 A 
ATOM     97  O   UNL A   1      40.152  22.071  26.314  1.00  0.00    -0.486 OA
ATOM     98  O   UNL A   1      40.017  19.263  25.589  1.00  0.00    -0.486 OA
ATOM     99  C   UNL A   1      41.309  21.257  26.126  1.00  0.00     0.271 C 
ATOM    100  C   UNL A   1      41.017  19.802  26.460  1.00  0.00     0.271 C 
ENDBRANCH  88  91
ENDBRANCH  82  84
ENDBRANCH  74  77
ENDBRANCH  72  73
ENDBRANCH   1  72
TORSDOF 12
ENDMDL
MODEL 3
REMARK VINA RESULT:     -14.3      4.947     11.480
REMARK SMILES O=C(NCCCNC(=O)C1CC[NH+]([C@H]2CC(=O)N(c3ccc4c(c3)OCCO4)C2=O)CC1)c1ccc(-c2c3nc(c(-c4c(F)c(F)c(F)c(F)c4F)c4ccc([nH]4)c(-c4c(F)c(F)c(F)c(F)c4F)c4nc(c(-c5c(F)c(F)c(F)c(F)c5F)c5ccc2[nH]5)C=C4)C=C3)cc1
REMARK SMILES IDX 5 1 4 2 3 3 1 4 2 5 33 7 34 8 95 9 35 10 94 11 36 12 37 13
REMARK SMILES IDX 38 14 88 15 39 16 93 17 87 18 89 19 40 20 92 21 86 22 85 23
REMARK SMILES IDX 41 25 73 26 53 27 72 28 54 29 57 30 71 31 90 32 55 33 56 34
REMARK SMILES IDX 70 36 91 37 58 38 42 39 43 40 51 41 44 42 45 43 49 44 52 45
REMARK SMILES IDX 46 46 47 47 50 48 48 49 74 50 75 51 83 52 76 53 77 54 81 55
REMARK SMILES IDX 84 56 78 57 79 58 82 59 80 60 59 61 60 62 68 63 61 64 62 65
REMARK SMILES IDX 66 66 69 67 63 68 64 69 67 70 65 71 6 72 7 73 8 74 9 76
REMARK SMILES IDX 10 77 11 78 32 79 12 80 31 81 13 82 14 84 15 85 29 86 16 87
REMARK SMILES IDX 18 88 30 89 17 90 19 91 20 92 24 93 21 94 23 95 22 96 25 97
REMARK SMILES IDX 28 98 26 99 27 100
REMARK H PARENT 3 6 89 24 57 35 7 75 13 83
REMARK Flexibility Score: inf
ROOT
ATOM      1  C   UNL A   1      37.941  19.647  24.981  1.00  0.00     0.042 C 
ENDROOT
BRANCH   1   2
ATOM      2  C   UNL A   1      39.113  20.198  25.769  1.00  0.00     0.118 C 
BRANCH   2   3
ATOM      3  N   UNL A   1      40.144  19.191  25.954  1.00  0.00    -0.352 N 
ATOM      4  O   UNL A   1      42.223  18.348  25.874  1.00  0.00    -0.269 OA
ATOM      5  C   UNL A   1      41.506  19.330  26.049  1.00  0.00     0.251 C 
ATOM      6  H   UNL A   1      39.815  18.266  26.023  1.00  0.00     0.163 HD
BRANCH   5   7
ATOM      7  C   UNL A   1      42.117  20.641  26.361  1.00  0.00     0.039 A 
ATOM      8  C   UNL A   1      42.439  21.549  25.350  1.00  0.00     0.014 A 
ATOM      9  C   UNL A   1      42.282  21.008  27.700  1.00  0.00     0.014 A 
ATOM     10  C   UNL A   1      43.038  22.763  25.662  1.00  0.00     0.010 A 
ATOM     11  C   UNL A   1      42.782  22.273  28.018  1.00  0.00     0.010 A 
ATOM     12  C   UNL A   1      43.171  23.156  26.999  1.00  0.00    -0.014 A 
BRANCH  12  13
ATOM     13  C   UNL A   1      43.618  24.532  27.325  1.00  0.00     0.031 A 
ATOM     14  C   UNL A   1      42.642  25.559  27.811  1.00  0.00     0.074 A 
ATOM     15  C   UNL A   1      44.909  24.856  27.125  1.00  0.00     0.049 A 
ATOM     16  N   UNL A   1      42.823  26.837  28.019  1.00  0.00    -0.248 NA
ATOM     17  C   UNL A   1      41.275  25.090  28.082  1.00  0.00     0.031 C 
ATOM     18  C   UNL A   1      45.945  23.935  26.652  1.00  0.00     0.029 A 
ATOM     19  N   UNL A   1      45.570  26.048  27.278  1.00  0.00    -0.354 N 
ATOM     20  C   UNL A   1      41.589  27.334  28.417  1.00  0.00     0.074 A 
ATOM     21  C   UNL A   1      40.662  26.222  28.399  1.00  0.00     0.031 C 
ATOM     22  C   UNL A   1      47.110  24.589  26.562  1.00  0.00     0.029 A 
ATOM     23  C   UNL A   1      46.888  25.991  26.895  1.00  0.00     0.049 A 
ATOM     24  H   UNL A   1      45.143  26.863  27.627  1.00  0.00     0.167 HD
ATOM     25  C   UNL A   1      41.268  28.604  28.764  1.00  0.00     0.037 A 
ATOM     26  C   UNL A   1      47.807  26.967  26.777  1.00  0.00     0.037 A 
ATOM     27  C   UNL A   1      42.210  29.694  28.781  1.00  0.00     0.049 A 
ATOM     28  C   UNL A   1      47.420  28.373  27.128  1.00  0.00     0.074 A 
ATOM     29  C   UNL A   1      42.002  31.009  29.157  1.00  0.00     0.029 A 
ATOM     30  N   UNL A   1      43.540  29.597  28.390  1.00  0.00    -0.354 N 
ATOM     31  N   UNL A   1      46.261  28.830  27.532  1.00  0.00    -0.248 NA
ATOM     32  C   UNL A   1      48.463  29.398  27.006  1.00  0.00     0.031 C 
ATOM     33  C   UNL A   1      43.186  31.720  28.935  1.00  0.00     0.029 A 
ATOM     34  C   UNL A   1      44.154  30.835  28.486  1.00  0.00     0.049 A 
ATOM     35  H   UNL A   1      43.981  28.769  28.090  1.00  0.00     0.167 HD
ATOM     36  C   UNL A   1      46.437  30.189  27.741  1.00  0.00     0.074 A 
ATOM     37  C   UNL A   1      47.819  30.483  27.419  1.00  0.00     0.031 C 
ATOM     38  C   UNL A   1      45.536  31.107  28.169  1.00  0.00     0.037 A 
BRANCH  25  39
ATOM     39  C   UNL A   1      39.833  28.886  29.109  1.00  0.00     0.064 A 
ATOM     40  C   UNL A   1      39.343  28.769  30.419  1.00  0.00     0.173 A 
ATOM     41  C   UNL A   1      38.931  29.282  28.109  1.00  0.00     0.173 A 
ATOM     42  F   UNL A   1      40.159  28.386  31.413  1.00  0.00    -0.203 F 
ATOM     43  C   UNL A   1      37.998  28.992  30.705  1.00  0.00     0.198 A 
ATOM     44  C   UNL A   1      37.595  29.537  28.405  1.00  0.00     0.198 A 
ATOM     45  F   UNL A   1      39.345  29.419  26.839  1.00  0.00    -0.203 F 
ATOM     46  F   UNL A   1      37.540  28.805  31.951  1.00  0.00    -0.200 F 
ATOM     47  C   UNL A   1      37.126  29.379  29.700  1.00  0.00     0.200 A 
ATOM     48  F   UNL A   1      36.757  29.926  27.433  1.00  0.00    -0.200 F 
ATOM     49  F   UNL A   1      35.831  29.587  29.975  1.00  0.00    -0.200 F 
ENDBRANCH  25  39
BRANCH  26  50
ATOM     50  C   UNL A   1      49.165  26.623  26.284  1.00  0.00     0.064 A 
ATOM     51  C   UNL A   1      49.511  26.800  24.939  1.00  0.00     0.173 A 
ATOM     52  C   UNL A   1      50.163  26.178  27.165  1.00  0.00     0.173 A 
ATOM     53  F   UNL A   1      48.588  27.212  24.058  1.00  0.00    -0.203 F 
ATOM     54  C   UNL A   1      50.807  26.547  24.493  1.00  0.00     0.198 A 
ATOM     55  C   UNL A   1      51.465  25.954  26.723  1.00  0.00     0.198 A 
ATOM     56  F   UNL A   1      49.885  26.006  28.466  1.00  0.00    -0.203 F 
ATOM     57  F   UNL A   1      51.110  26.704  23.197  1.00  0.00    -0.200 F 
ATOM     58  C   UNL A   1      51.785  26.134  25.386  1.00  0.00     0.200 A 
ATOM     59  F   UNL A   1      52.411  25.577  27.595  1.00  0.00    -0.200 F 
ATOM     60  F   UNL A   1      53.035  25.913  24.960  1.00  0.00    -0.200 F 
ENDBRANCH  26  50
BRANCH  38  61
ATOM     61  C   UNL A   1      46.021  32.512  28.365  1.00  0.00     0.064 A 
ATOM     62  C   UNL A   1      45.930  33.475  27.351  1.00  0.00     0.173 A 
ATOM     63  C   UNL A   1      46.512  32.917  29.616  1.00  0.00     0.173 A 
ATOM     64  F   UNL A   1      45.484  33.133  26.132  1.00  0.00    -0.203 F 
ATOM     65  C   UNL A   1      46.317  34.793  27.580  1.00  0.00     0.198 A 
ATOM     66  C   UNL A   1      46.871  34.240  29.850  1.00  0.00     0.198 A 
ATOM     67  F   UNL A   1      46.617  32.032  30.619  1.00  0.00    -0.203 F 
ATOM     68  F   UNL A   1      46.249  35.691  26.589  1.00  0.00    -0.200 F 
ATOM     69  C   UNL A   1      46.776  35.176  28.832  1.00  0.00     0.200 A 
ATOM     70  F   UNL A   1      47.300  34.612  31.065  1.00  0.00    -0.200 F 
ATOM     71  F   UNL A   1      47.127  36.449  29.057  1.00  0.00    -0.200 F 
ENDBRANCH  38  61
ENDBRANCH  12  13
ENDBRANCH   5   7
ENDBRANCH   2   3
ENDBRANCH   1   2
BRANCH   1  72
ATOM     72  C   UNL A   1      36.704  20.540  25.060  1.00  0.00     0.117 C 
BRANCH  72  73
ATOM     73  N   UNL A   1      36.843  21.696  24.190  1.00  0.00    -0.356 N 
ATOM     74  C   UNL A   1      35.997  22.580  23.617  1.00  0.00     0.223 C 
ATOM     75  H   UNL A   1      37.783  21.879  23.962  1.00  0.00     0.163 HD
ATOM     76  O   UNL A   1      36.522  23.305  22.758  1.00  0.00    -0.275 OA
BRANCH  74  77
ATOM     77  C   UNL A   1      34.533  22.834  24.006  1.00  0.00     0.089 C 
ATOM     78  C   UNL A   1      33.595  23.604  23.097  1.00  0.00     0.075 C 
ATOM     79  C   UNL A   1      34.449  23.478  25.405  1.00  0.00     0.075 C 
ATOM     80  C   UNL A   1      33.917  25.097  23.058  1.00  0.00     0.263 C 
ATOM     81  C   UNL A   1      34.767  24.976  25.368  1.00  0.00     0.263 C 
ATOM     82  N   UNL A   1      34.048  25.749  24.357  1.00  0.00    -0.324 N 
ATOM     83  H   UNL A   1      34.737  26.495  24.267  1.00  0.00     0.348 HD
BRANCH  82  84
ATOM     84  C   UNL A   1      32.870  26.545  24.724  1.00  0.00     0.284 C 
ATOM     85  C   UNL A   1      32.257  26.199  26.068  1.00  0.00     0.176 C 
ATOM     86  C   UNL A   1      33.048  28.054  24.746  1.00  0.00     0.292 C 
ATOM     87  C   UNL A   1      31.991  27.511  26.713  1.00  0.00     0.240 C 
ATOM     88  N   UNL A   1      32.528  28.507  25.936  1.00  0.00    -0.245 N 
ATOM     89  O   UNL A   1      33.559  28.717  23.852  1.00  0.00    -0.267 OA
ATOM     90  O   UNL A   1      31.377  27.609  27.761  1.00  0.00    -0.274 OA
BRANCH  88  91
ATOM     91  C   UNL A   1      32.506  29.851  26.342  1.00  0.00     0.056 A 
ATOM     92  C   UNL A   1      31.452  30.698  25.988  1.00  0.00     0.031 A 
ATOM     93  C   UNL A   1      33.538  30.324  27.161  1.00  0.00     0.077 A 
ATOM     94  C   UNL A   1      31.403  31.996  26.503  1.00  0.00     0.052 A 
ATOM     95  C   UNL A   1      33.514  31.632  27.625  1.00  0.00     0.163 A 
ATOM     96  C   UNL A   1      32.442  32.466  27.306  1.00  0.00     0.161 A 
ATOM     97  O   UNL A   1      34.589  32.023  28.378  1.00  0.00    -0.486 OA
ATOM     98  O   UNL A   1      32.346  33.757  27.753  1.00  0.00    -0.486 OA
ATOM     99  C   UNL A   1      34.322  33.237  29.081  1.00  0.00     0.271 C 
ATOM    100  C   UNL A   1      33.621  34.247  28.184  1.00  0.00     0.271 C 
ENDBRANCH  88  91
ENDBRANCH  82  84
ENDBRANCH  74  77
ENDBRANCH  72  73
ENDBRANCH   1  72
TORSDOF 12
ENDMDL
