MODEL 1
REMARK VINA RESULT:     -11.3      0.000      0.000
REMARK SMILES CN(CCCC(=O)NCCCNC(=O)c1ccc(-c2c3nc(c(-c4c(F)c(F)c(F)c(F)c4F)c4ccc([nH]4)c(-c4c(F)c(F)c(F)c(F)c4F)c4nc(c(-c5c(F)c(F)c(F)c(F)c5F)c5ccc2[nH]5)C=C4)C=C3)cc1)C(=O)c1ccc(Br)o1
REMARK SMILES IDX 6 1 7 2 8 3 5 5 4 6 3 7 2 8 1 9 78 10 79 11 80 12 81 13
REMARK SMILES IDX 85 14 82 15 83 16 84 17 9 18 10 19 11 20 12 21 13 22 14 24
REMARK SMILES IDX 15 25 16 26 77 27 17 28 76 29 18 30 19 31 20 32 70 33 21 34
REMARK SMILES IDX 75 35 69 36 71 37 22 38 74 39 68 40 67 41 23 43 55 44 35 45
REMARK SMILES IDX 54 46 36 47 39 48 53 49 72 50 37 51 38 52 52 54 73 55 40 56
REMARK SMILES IDX 24 57 25 58 33 59 26 60 27 61 31 62 34 63 28 64 29 65 32 66
REMARK SMILES IDX 30 67 56 68 57 69 65 70 58 71 59 72 63 73 66 74 60 75 61 76
REMARK SMILES IDX 64 77 62 78 41 79 42 80 50 81 43 82 44 83 48 84 51 85 45 86
REMARK SMILES IDX 46 87 49 88 47 89
REMARK H PARENT 8 4 12 23 71 42 39 53
REMARK Flexibility Score: inf
ROOT
ATOM      1  C   UNL A   1      34.030  29.178  26.833  1.00  0.00     0.220 C 
ATOM      2  O   UNL A   1      35.126  29.112  27.394  1.00  0.00    -0.275 OA
ATOM      3  N   UNL A   1      33.248  30.253  27.114  1.00  0.00    -0.356 N 
ATOM      4  H   UNL A   1      33.679  30.946  27.664  1.00  0.00     0.163 HD
ENDROOT
BRANCH   1   5
ATOM      5  C   UNL A   1      33.642  28.159  25.776  1.00  0.00     0.102 C 
BRANCH   5   6
ATOM      6  C   UNL A   1      33.875  28.432  24.296  1.00  0.00     0.031 C 
BRANCH   6   7
ATOM      7  C   UNL A   1      32.794  28.152  23.251  1.00  0.00     0.120 C 
BRANCH   7   8
ATOM      8  N   UNL A   1      32.420  26.796  22.798  1.00  0.00    -0.339 N 
ATOM      9  C   UNL A   1      30.974  26.567  22.746  1.00  0.00     0.147 C 
BRANCH   8  10
ATOM     10  C   UNL A   1      33.143  25.755  22.172  1.00  0.00     0.289 C 
ATOM     11  O   UNL A   1      33.328  25.793  20.953  1.00  0.00    -0.265 OA
BRANCH  10  12
ATOM     12  C   UNL A   1      33.733  24.669  22.919  1.00  0.00     0.193 A 
ATOM     13  C   UNL A   1      33.786  23.307  22.673  1.00  0.00     0.057 A 
ATOM     14  O   UNL A   1      34.619  24.971  23.924  1.00  0.00    -0.444 OA
ATOM     15  C   UNL A   1      34.659  22.745  23.642  1.00  0.00     0.059 A 
ATOM     16  C   UNL A   1      35.155  23.802  24.368  1.00  0.00     0.170 A 
ATOM     17  Br  UNL A   1      36.376  23.664  25.772  1.00  0.00    -0.008 Br
ENDBRANCH  10  12
ENDBRANCH   8  10
ENDBRANCH   7   8
ENDBRANCH   6   7
ENDBRANCH   5   6
ENDBRANCH   1   5
BRANCH   3  18
ATOM     18  C   UNL A   1      31.883  30.541  26.735  1.00  0.00     0.117 C 
BRANCH  18  19
ATOM     19  C   UNL A   1      31.611  32.037  26.779  1.00  0.00     0.042 C 
BRANCH  19  20
ATOM     20  C   UNL A   1      32.785  32.807  27.343  1.00  0.00     0.118 C 
BRANCH  20  21
ATOM     21  N   UNL A   1      32.439  34.190  27.642  1.00  0.00    -0.352 N 
ATOM     22  C   UNL A   1      32.973  35.015  28.604  1.00  0.00     0.251 C 
ATOM     23  H   UNL A   1      31.731  34.586  27.085  1.00  0.00     0.163 HD
ATOM     24  O   UNL A   1      32.461  36.102  28.850  1.00  0.00    -0.269 OA
BRANCH  22  25
ATOM     25  C   UNL A   1      34.153  34.559  29.372  1.00  0.00     0.039 A 
ATOM     26  C   UNL A   1      33.970  33.968  30.624  1.00  0.00     0.014 A 
ATOM     27  C   UNL A   1      35.435  34.670  28.828  1.00  0.00     0.014 A 
ATOM     28  C   UNL A   1      35.066  33.420  31.295  1.00  0.00     0.010 A 
ATOM     29  C   UNL A   1      36.500  34.029  29.442  1.00  0.00     0.010 A 
ATOM     30  C   UNL A   1      36.333  33.408  30.690  1.00  0.00    -0.014 A 
BRANCH  30  31
ATOM     31  C   UNL A   1      37.517  32.794  31.341  1.00  0.00     0.031 A 
ATOM     32  C   UNL A   1      38.211  31.640  30.667  1.00  0.00     0.074 A 
ATOM     33  C   UNL A   1      37.898  33.191  32.572  1.00  0.00     0.049 A 
ATOM     34  N   UNL A   1      39.141  30.846  31.131  1.00  0.00    -0.248 NA
ATOM     35  C   UNL A   1      37.763  31.304  29.304  1.00  0.00     0.031 C 
ATOM     36  C   UNL A   1      37.268  34.254  33.357  1.00  0.00     0.029 A 
ATOM     37  N   UNL A   1      38.897  32.724  33.391  1.00  0.00    -0.354 N 
ATOM     38  C   UNL A   1      39.348  29.893  30.142  1.00  0.00     0.074 A 
ATOM     39  C   UNL A   1      38.423  30.180  29.069  1.00  0.00     0.031 C 
ATOM     40  C   UNL A   1      37.903  34.368  34.535  1.00  0.00     0.029 A 
ATOM     41  C   UNL A   1      38.958  33.362  34.607  1.00  0.00     0.049 A 
ATOM     42  H   UNL A   1      39.512  32.001  33.132  1.00  0.00     0.167 HD
ATOM     43  C   UNL A   1      40.247  28.882  30.121  1.00  0.00     0.037 A 
ATOM     44  C   UNL A   1      39.765  33.148  35.663  1.00  0.00     0.037 A 
ATOM     45  C   UNL A   1      41.225  28.654  31.150  1.00  0.00     0.049 A 
ATOM     46  C   UNL A   1      40.805  32.062  35.581  1.00  0.00     0.074 A 
ATOM     47  C   UNL A   1      42.249  27.725  31.174  1.00  0.00     0.029 A 
ATOM     48  N   UNL A   1      41.308  29.378  32.329  1.00  0.00    -0.354 N 
ATOM     49  N   UNL A   1      41.040  31.214  34.609  1.00  0.00    -0.248 NA
ATOM     50  C   UNL A   1      41.698  31.906  36.739  1.00  0.00     0.031 C 
ATOM     51  C   UNL A   1      42.936  27.868  32.383  1.00  0.00     0.029 A 
ATOM     52  C   UNL A   1      42.362  28.911  33.092  1.00  0.00     0.049 A 
ATOM     53  H   UNL A   1      40.707  30.115  32.584  1.00  0.00     0.167 HD
ATOM     54  C   UNL A   1      42.125  30.453  35.020  1.00  0.00     0.074 A 
ATOM     55  C   UNL A   1      42.510  30.943  36.326  1.00  0.00     0.031 C 
ATOM     56  C   UNL A   1      42.748  29.439  34.374  1.00  0.00     0.037 A 
BRANCH  43  57
ATOM     57  C   UNL A   1      40.237  27.953  28.943  1.00  0.00     0.064 A 
ATOM     58  C   UNL A   1      40.981  28.225  27.785  1.00  0.00     0.173 A 
ATOM     59  C   UNL A   1      39.525  26.746  29.000  1.00  0.00     0.173 A 
ATOM     60  F   UNL A   1      41.668  29.372  27.678  1.00  0.00    -0.203 F 
ATOM     61  C   UNL A   1      40.998  27.329  26.721  1.00  0.00     0.198 A 
ATOM     62  C   UNL A   1      39.568  25.839  27.945  1.00  0.00     0.198 A 
ATOM     63  F   UNL A   1      38.801  26.438  30.086  1.00  0.00    -0.203 F 
ATOM     64  F   UNL A   1      41.688  27.625  25.610  1.00  0.00    -0.200 F 
ATOM     65  C   UNL A   1      40.301  26.132  26.805  1.00  0.00     0.200 A 
ATOM     66  F   UNL A   1      38.903  24.679  28.032  1.00  0.00    -0.200 F 
ATOM     67  F   UNL A   1      40.333  25.264  25.785  1.00  0.00    -0.200 F 
ENDBRANCH  43  57
BRANCH  44  68
ATOM     68  C   UNL A   1      39.645  33.987  36.885  1.00  0.00     0.064 A 
ATOM     69  C   UNL A   1      38.860  33.570  37.969  1.00  0.00     0.173 A 
ATOM     70  C   UNL A   1      40.283  35.232  36.983  1.00  0.00     0.173 A 
ATOM     71  F   UNL A   1      38.214  32.396  37.914  1.00  0.00    -0.203 F 
ATOM     72  C   UNL A   1      38.691  34.378  39.092  1.00  0.00     0.198 A 
ATOM     73  C   UNL A   1      40.136  36.028  38.118  1.00  0.00     0.198 A 
ATOM     74  F   UNL A   1      41.051  35.676  35.977  1.00  0.00    -0.203 F 
ATOM     75  F   UNL A   1      37.890  33.979  40.088  1.00  0.00    -0.200 F 
ATOM     76  C   UNL A   1      39.332  35.606  39.166  1.00  0.00     0.200 A 
ATOM     77  F   UNL A   1      40.768  37.207  38.193  1.00  0.00    -0.200 F 
ATOM     78  F   UNL A   1      39.167  36.386  40.244  1.00  0.00    -0.200 F 
ENDBRANCH  44  68
BRANCH  56  79
ATOM     79  C   UNL A   1      43.945  28.828  35.037  1.00  0.00     0.064 A 
ATOM     80  C   UNL A   1      43.822  27.753  35.928  1.00  0.00     0.173 A 
ATOM     81  C   UNL A   1      45.235  29.282  34.720  1.00  0.00     0.173 A 
ATOM     82  F   UNL A   1      42.609  27.295  36.270  1.00  0.00    -0.203 F 
ATOM     83  C   UNL A   1      44.950  27.164  36.492  1.00  0.00     0.198 A 
ATOM     84  C   UNL A   1      46.360  28.673  35.266  1.00  0.00     0.198 A 
ATOM     85  F   UNL A   1      45.401  30.302  33.865  1.00  0.00    -0.203 F 
ATOM     86  F   UNL A   1      44.811  26.160  37.368  1.00  0.00    -0.200 F 
ATOM     87  C   UNL A   1      46.217  27.618  36.154  1.00  0.00     0.200 A 
ATOM     88  F   UNL A   1      47.584  29.104  34.928  1.00  0.00    -0.200 F 
ATOM     89  F   UNL A   1      47.302  27.040  36.688  1.00  0.00    -0.200 F 
ENDBRANCH  56  79
ENDBRANCH  30  31
ENDBRANCH  22  25
ENDBRANCH  20  21
ENDBRANCH  19  20
ENDBRANCH  18  19
ENDBRANCH   3  18
TORSDOF 15
ENDMDL
MODEL 2
REMARK VINA RESULT:     -11.3      1.719      2.670
REMARK SMILES CN(CCCC(=O)NCCCNC(=O)c1ccc(-c2c3nc(c(-c4c(F)c(F)c(F)c(F)c4F)c4ccc([nH]4)c(-c4c(F)c(F)c(F)c(F)c4F)c4nc(c(-c5c(F)c(F)c(F)c(F)c5F)c5ccc2[nH]5)C=C4)C=C3)cc1)C(=O)c1ccc(Br)o1
REMARK SMILES IDX 6 1 7 2 8 3 5 5 4 6 3 7 2 8 1 9 78 10 79 11 80 12 81 13
REMARK SMILES IDX 85 14 82 15 83 16 84 17 9 18 10 19 11 20 12 21 13 22 14 24
REMARK SMILES IDX 15 25 16 26 77 27 17 28 76 29 18 30 19 31 20 32 70 33 21 34
REMARK SMILES IDX 75 35 69 36 71 37 22 38 74 39 68 40 67 41 23 43 55 44 35 45
REMARK SMILES IDX 54 46 36 47 39 48 53 49 72 50 37 51 38 52 52 54 73 55 40 56
REMARK SMILES IDX 24 57 25 58 33 59 26 60 27 61 31 62 34 63 28 64 29 65 32 66
REMARK SMILES IDX 30 67 56 68 57 69 65 70 58 71 59 72 63 73 66 74 60 75 61 76
REMARK SMILES IDX 64 77 62 78 41 79 42 80 50 81 43 82 44 83 48 84 51 85 45 86
REMARK SMILES IDX 46 87 49 88 47 89
REMARK H PARENT 8 4 12 23 71 42 39 53
REMARK Flexibility Score: inf
ROOT
ATOM      1  C   UNL A   1      33.938  29.143  26.837  1.00  0.00     0.220 C 
ATOM      2  O   UNL A   1      34.980  29.062  27.491  1.00  0.00    -0.275 OA
ATOM      3  N   UNL A   1      33.190  30.266  26.990  1.00  0.00    -0.356 N 
ATOM      4  H   UNL A   1      33.608  30.972  27.534  1.00  0.00     0.163 HD
ENDROOT
BRANCH   1   5
ATOM      5  C   UNL A   1      33.587  28.080  25.812  1.00  0.00     0.102 C 
BRANCH   5   6
ATOM      6  C   UNL A   1      33.914  28.270  24.337  1.00  0.00     0.031 C 
BRANCH   6   7
ATOM      7  C   UNL A   1      32.825  28.575  23.308  1.00  0.00     0.120 C 
BRANCH   7   8
ATOM      8  N   UNL A   1      31.884  27.564  22.781  1.00  0.00    -0.339 N 
ATOM      9  C   UNL A   1      32.514  26.561  21.918  1.00  0.00     0.147 C 
BRANCH   8  10
ATOM     10  C   UNL A   1      30.559  27.209  23.124  1.00  0.00     0.289 C 
ATOM     11  O   UNL A   1      30.355  26.173  23.763  1.00  0.00    -0.265 OA
BRANCH  10  12
ATOM     12  C   UNL A   1      29.430  28.050  22.806  1.00  0.00     0.193 A 
ATOM     13  C   UNL A   1      28.156  28.120  23.346  1.00  0.00     0.057 A 
ATOM     14  O   UNL A   1      29.639  29.157  22.021  1.00  0.00    -0.444 OA
ATOM     15  C   UNL A   1      27.529  29.260  22.777  1.00  0.00     0.059 A 
ATOM     16  C   UNL A   1      28.479  29.868  21.991  1.00  0.00     0.170 A 
ATOM     17  Br  UNL A   1      28.223  31.435  21.010  1.00  0.00    -0.008 Br
ENDBRANCH  10  12
ENDBRANCH   8  10
ENDBRANCH   7   8
ENDBRANCH   6   7
ENDBRANCH   5   6
ENDBRANCH   1   5
BRANCH   3  18
ATOM     18  C   UNL A   1      31.875  30.592  26.482  1.00  0.00     0.117 C 
BRANCH  18  19
ATOM     19  C   UNL A   1      31.534  32.050  26.750  1.00  0.00     0.042 C 
BRANCH  19  20
ATOM     20  C   UNL A   1      32.699  32.797  27.363  1.00  0.00     0.118 C 
BRANCH  20  21
ATOM     21  N   UNL A   1      32.377  34.194  27.621  1.00  0.00    -0.352 N 
ATOM     22  C   UNL A   1      32.931  35.040  28.553  1.00  0.00     0.251 C 
ATOM     23  H   UNL A   1      31.671  34.584  27.056  1.00  0.00     0.163 HD
ATOM     24  O   UNL A   1      32.438  36.142  28.769  1.00  0.00    -0.269 OA
BRANCH  22  25
ATOM     25  C   UNL A   1      34.109  34.589  29.326  1.00  0.00     0.039 A 
ATOM     26  C   UNL A   1      33.926  34.037  30.596  1.00  0.00     0.014 A 
ATOM     27  C   UNL A   1      35.389  34.666  28.772  1.00  0.00     0.014 A 
ATOM     28  C   UNL A   1      35.019  33.493  31.276  1.00  0.00     0.010 A 
ATOM     29  C   UNL A   1      36.449  34.028  29.398  1.00  0.00     0.010 A 
ATOM     30  C   UNL A   1      36.282  33.445  30.664  1.00  0.00    -0.014 A 
BRANCH  30  31
ATOM     31  C   UNL A   1      37.461  32.833  31.326  1.00  0.00     0.031 A 
ATOM     32  C   UNL A   1      38.162  31.680  30.658  1.00  0.00     0.074 A 
ATOM     33  C   UNL A   1      37.830  33.232  32.560  1.00  0.00     0.049 A 
ATOM     34  N   UNL A   1      39.089  30.887  31.130  1.00  0.00    -0.248 NA
ATOM     35  C   UNL A   1      37.726  31.342  29.292  1.00  0.00     0.031 C 
ATOM     36  C   UNL A   1      37.192  34.295  33.338  1.00  0.00     0.029 A 
ATOM     37  N   UNL A   1      38.823  32.767  33.387  1.00  0.00    -0.354 N 
ATOM     38  C   UNL A   1      39.306  29.934  30.144  1.00  0.00     0.074 A 
ATOM     39  C   UNL A   1      38.389  30.219  29.063  1.00  0.00     0.031 C 
ATOM     40  C   UNL A   1      37.817  34.411  34.521  1.00  0.00     0.029 A 
ATOM     41  C   UNL A   1      38.873  33.406  34.603  1.00  0.00     0.049 A 
ATOM     42  H   UNL A   1      39.441  32.044  33.133  1.00  0.00     0.167 HD
ATOM     43  C   UNL A   1      40.206  28.924  30.131  1.00  0.00     0.037 A 
ATOM     44  C   UNL A   1      39.672  33.193  35.666  1.00  0.00     0.037 A 
ATOM     45  C   UNL A   1      41.176  28.699  31.168  1.00  0.00     0.049 A 
ATOM     46  C   UNL A   1      40.714  32.109  35.594  1.00  0.00     0.074 A 
ATOM     47  C   UNL A   1      42.200  27.771  31.202  1.00  0.00     0.029 A 
ATOM     48  N   UNL A   1      41.247  29.424  32.348  1.00  0.00    -0.354 N 
ATOM     49  N   UNL A   1      40.958  31.261  34.624  1.00  0.00    -0.248 NA
ATOM     50  C   UNL A   1      41.597  31.955  36.759  1.00  0.00     0.031 C 
ATOM     51  C   UNL A   1      42.877  27.915  32.417  1.00  0.00     0.029 A 
ATOM     52  C   UNL A   1      42.296  28.958  33.120  1.00  0.00     0.049 A 
ATOM     53  H   UNL A   1      40.643  30.160  32.597  1.00  0.00     0.167 HD
ATOM     54  C   UNL A   1      42.041  30.501  35.044  1.00  0.00     0.074 A 
ATOM     55  C   UNL A   1      42.414  30.992  36.354  1.00  0.00     0.031 C 
ATOM     56  C   UNL A   1      42.671  29.488  34.405  1.00  0.00     0.037 A 
BRANCH  43  57
ATOM     57  C   UNL A   1      40.207  27.995  28.954  1.00  0.00     0.064 A 
ATOM     58  C   UNL A   1      40.937  28.281  27.791  1.00  0.00     0.173 A 
ATOM     59  C   UNL A   1      39.521  26.773  29.017  1.00  0.00     0.173 A 
ATOM     60  F   UNL A   1      41.600  29.442  27.678  1.00  0.00    -0.203 F 
ATOM     61  C   UNL A   1      40.966  27.384  26.727  1.00  0.00     0.198 A 
ATOM     62  C   UNL A   1      39.574  25.866  27.962  1.00  0.00     0.198 A 
ATOM     63  F   UNL A   1      38.810  26.451  30.108  1.00  0.00    -0.203 F 
ATOM     64  F   UNL A   1      41.641  27.694  25.611  1.00  0.00    -0.200 F 
ATOM     65  C   UNL A   1      40.294  26.174  26.816  1.00  0.00     0.200 A 
ATOM     66  F   UNL A   1      38.934  24.693  28.054  1.00  0.00    -0.200 F 
ATOM     67  F   UNL A   1      40.337  25.305  25.797  1.00  0.00    -0.200 F 
ENDBRANCH  43  57
BRANCH  44  68
ATOM     68  C   UNL A   1      39.540  34.034  36.886  1.00  0.00     0.064 A 
ATOM     69  C   UNL A   1      40.192  35.272  36.980  1.00  0.00     0.173 A 
ATOM     70  C   UNL A   1      38.788  33.607  37.991  1.00  0.00     0.173 A 
ATOM     71  F   UNL A   1      40.938  35.713  35.957  1.00  0.00    -0.203 F 
ATOM     72  C   UNL A   1      40.124  36.037  38.143  1.00  0.00     0.198 A 
ATOM     73  C   UNL A   1      38.698  34.386  39.143  1.00  0.00     0.198 A 
ATOM     74  F   UNL A   1      38.140  32.434  37.951  1.00  0.00    -0.203 F 
ATOM     75  F   UNL A   1      40.802  37.188  38.224  1.00  0.00    -0.200 F 
ATOM     76  C   UNL A   1      39.374  35.594  39.222  1.00  0.00     0.200 A 
ATOM     77  F   UNL A   1      37.962  33.963  40.180  1.00  0.00    -0.200 F 
ATOM     78  F   UNL A   1      39.312  36.328  40.343  1.00  0.00    -0.200 F 
ENDBRANCH  44  68
BRANCH  56  79
ATOM     79  C   UNL A   1      43.862  28.878  35.078  1.00  0.00     0.064 A 
ATOM     80  C   UNL A   1      43.736  27.789  35.951  1.00  0.00     0.173 A 
ATOM     81  C   UNL A   1      45.153  29.350  34.790  1.00  0.00     0.173 A 
ATOM     82  F   UNL A   1      42.522  27.314  36.265  1.00  0.00    -0.203 F 
ATOM     83  C   UNL A   1      44.861  27.203  36.525  1.00  0.00     0.198 A 
ATOM     84  C   UNL A   1      46.275  28.745  35.345  1.00  0.00     0.198 A 
ATOM     85  F   UNL A   1      45.323  30.386  33.953  1.00  0.00    -0.203 F 
ATOM     86  F   UNL A   1      44.718  26.185  37.383  1.00  0.00    -0.200 F 
ATOM     87  C   UNL A   1      46.128  27.675  36.214  1.00  0.00     0.200 A 
ATOM     88  F   UNL A   1      47.499  29.194  35.034  1.00  0.00    -0.200 F 
ATOM     89  F   UNL A   1      47.210  27.100  36.758  1.00  0.00    -0.200 F 
ENDBRANCH  56  79
ENDBRANCH  30  31
ENDBRANCH  22  25
ENDBRANCH  20  21
ENDBRANCH  19  20
ENDBRANCH  18  19
ENDBRANCH   3  18
TORSDOF 15
ENDMDL
MODEL 3
REMARK VINA RESULT:     -11.2      6.125     11.241
REMARK SMILES CN(CCCC(=O)NCCCNC(=O)c1ccc(-c2c3nc(c(-c4c(F)c(F)c(F)c(F)c4F)c4ccc([nH]4)c(-c4c(F)c(F)c(F)c(F)c4F)c4nc(c(-c5c(F)c(F)c(F)c(F)c5F)c5ccc2[nH]5)C=C4)C=C3)cc1)C(=O)c1ccc(Br)o1
REMARK SMILES IDX 6 1 7 2 8 3 5 5 4 6 3 7 2 8 1 9 78 10 79 11 80 12 81 13
REMARK SMILES IDX 85 14 82 15 83 16 84 17 9 18 10 19 11 20 12 21 13 22 14 24
REMARK SMILES IDX 15 25 16 26 77 27 17 28 76 29 18 30 19 31 20 32 70 33 21 34
REMARK SMILES IDX 75 35 69 36 71 37 22 38 74 39 68 40 67 41 23 43 55 44 35 45
REMARK SMILES IDX 54 46 36 47 39 48 53 49 72 50 37 51 38 52 52 54 73 55 40 56
REMARK SMILES IDX 24 57 25 58 33 59 26 60 27 61 31 62 34 63 28 64 29 65 32 66
REMARK SMILES IDX 30 67 56 68 57 69 65 70 58 71 59 72 63 73 66 74 60 75 61 76
REMARK SMILES IDX 64 77 62 78 41 79 42 80 50 81 43 82 44 83 48 84 51 85 45 86
REMARK SMILES IDX 46 87 49 88 47 89
REMARK H PARENT 8 4 12 23 71 42 39 53
REMARK Flexibility Score: inf
ROOT
ATOM      1  C   UNL A   1      37.025  23.419  25.668  1.00  0.00     0.220 C 
ATOM      2  O   UNL A   1      37.499  24.156  26.534  1.00  0.00    -0.275 OA
ATOM      3  N   UNL A   1      37.413  22.117  25.675  1.00  0.00    -0.356 N 
ATOM      4  H   UNL A   1      37.961  21.852  26.448  1.00  0.00     0.163 HD
ENDROOT
BRANCH   1   5
ATOM      5  C   UNL A   1      35.954  23.930  24.721  1.00  0.00     0.102 C 
BRANCH   5   6
ATOM      6  C   UNL A   1      34.779  24.754  25.233  1.00  0.00     0.031 C 
BRANCH   6   7
ATOM      7  C   UNL A   1      33.398  24.132  25.447  1.00  0.00     0.120 C 
BRANCH   7   8
ATOM      8  N   UNL A   1      33.164  22.903  26.233  1.00  0.00    -0.339 N 
ATOM      9  C   UNL A   1      31.947  22.945  27.050  1.00  0.00     0.147 C 
BRANCH   8  10
ATOM     10  C   UNL A   1      33.722  21.605  26.183  1.00  0.00     0.289 C 
ATOM     11  O   UNL A   1      34.596  21.290  26.996  1.00  0.00    -0.265 OA
BRANCH  10  12
ATOM     12  C   UNL A   1      33.263  20.604  25.250  1.00  0.00     0.193 A 
ATOM     13  C   UNL A   1      32.365  20.671  24.198  1.00  0.00     0.057 A 
ATOM     14  O   UNL A   1      33.962  19.425  25.160  1.00  0.00    -0.444 OA
ATOM     15  C   UNL A   1      32.446  19.434  23.505  1.00  0.00     0.059 A 
ATOM     16  C   UNL A   1      33.446  18.717  24.119  1.00  0.00     0.170 A 
ATOM     17  Br  UNL A   1      34.013  17.012  23.614  1.00  0.00    -0.008 Br
ENDBRANCH  10  12
ENDBRANCH   8  10
ENDBRANCH   7   8
ENDBRANCH   6   7
ENDBRANCH   5   6
ENDBRANCH   1   5
BRANCH   3  18
ATOM     18  C   UNL A   1      37.150  21.057  24.726  1.00  0.00     0.117 C 
BRANCH  18  19
ATOM     19  C   UNL A   1      38.026  19.845  25.009  1.00  0.00     0.042 C 
BRANCH  19  20
ATOM     20  C   UNL A   1      39.295  20.226  25.740  1.00  0.00     0.118 C 
BRANCH  20  21
ATOM     21  N   UNL A   1      40.208  19.098  25.874  1.00  0.00    -0.352 N 
ATOM     22  C   UNL A   1      41.562  19.119  26.113  1.00  0.00     0.251 C 
ATOM     23  H   UNL A   1      39.803  18.205  25.782  1.00  0.00     0.163 HD
ATOM     24  O   UNL A   1      42.227  18.092  26.031  1.00  0.00    -0.269 OA
BRANCH  22  25
ATOM     25  C   UNL A   1      42.218  20.406  26.431  1.00  0.00     0.039 A 
ATOM     26  C   UNL A   1      42.734  21.187  25.395  1.00  0.00     0.014 A 
ATOM     27  C   UNL A   1      42.276  20.862  27.750  1.00  0.00     0.014 A 
ATOM     28  C   UNL A   1      43.239  22.460  25.676  1.00  0.00     0.010 A 
ATOM     29  C   UNL A   1      42.674  22.165  28.011  1.00  0.00     0.010 A 
ATOM     30  C   UNL A   1      43.173  22.976  26.980  1.00  0.00    -0.014 A 
BRANCH  30  31
ATOM     31  C   UNL A   1      43.651  24.340  27.318  1.00  0.00     0.031 A 
ATOM     32  C   UNL A   1      42.664  25.362  27.817  1.00  0.00     0.074 A 
ATOM     33  C   UNL A   1      44.930  24.692  27.076  1.00  0.00     0.049 A 
ATOM     34  N   UNL A   1      42.821  26.647  28.001  1.00  0.00    -0.248 NA
ATOM     35  C   UNL A   1      41.300  24.880  28.100  1.00  0.00     0.031 C 
ATOM     36  C   UNL A   1      45.967  23.812  26.535  1.00  0.00     0.029 A 
ATOM     37  N   UNL A   1      45.569  25.897  27.232  1.00  0.00    -0.354 N 
ATOM     38  C   UNL A   1      41.572  27.130  28.368  1.00  0.00     0.074 A 
ATOM     39  C   UNL A   1      40.656  26.011  28.344  1.00  0.00     0.031 C 
ATOM     40  C   UNL A   1      47.114  24.501  26.418  1.00  0.00     0.029 A 
ATOM     41  C   UNL A   1      46.885  25.881  26.837  1.00  0.00     0.049 A 
ATOM     42  H   UNL A   1      45.125  26.699  27.594  1.00  0.00     0.167 HD
ATOM     43  C   UNL A   1      41.225  28.390  28.717  1.00  0.00     0.037 A 
ATOM     44  C   UNL A   1      47.797  26.871  26.805  1.00  0.00     0.037 A 
ATOM     45  C   UNL A   1      42.157  29.479  28.826  1.00  0.00     0.049 A 
ATOM     46  C   UNL A   1      47.400  28.247  27.270  1.00  0.00     0.074 A 
ATOM     47  C   UNL A   1      41.927  30.767  29.274  1.00  0.00     0.029 A 
ATOM     48  N   UNL A   1      43.501  29.399  28.497  1.00  0.00    -0.354 N 
ATOM     49  N   UNL A   1      46.231  28.674  27.686  1.00  0.00    -0.248 NA
ATOM     50  C   UNL A   1      48.447  29.279  27.268  1.00  0.00     0.031 C 
ATOM     51  C   UNL A   1      43.128  31.477  29.190  1.00  0.00     0.029 A 
ATOM     52  C   UNL A   1      44.113  30.619  28.726  1.00  0.00     0.049 A 
ATOM     53  H   UNL A   1      43.952  28.595  28.154  1.00  0.00     0.167 HD
ATOM     54  C   UNL A   1      46.412  30.007  28.029  1.00  0.00     0.074 A 
ATOM     55  C   UNL A   1      47.803  30.319  27.780  1.00  0.00     0.031 C 
ATOM     56  C   UNL A   1      45.507  30.894  28.506  1.00  0.00     0.037 A 
BRANCH  43  57
ATOM     57  C   UNL A   1      39.784  28.664  29.030  1.00  0.00     0.064 A 
ATOM     58  C   UNL A   1      39.261  28.471  30.317  1.00  0.00     0.173 A 
ATOM     59  C   UNL A   1      38.933  29.186  28.045  1.00  0.00     0.173 A 
ATOM     60  F   UNL A   1      40.031  27.962  31.290  1.00  0.00    -0.203 F 
ATOM     61  C   UNL A   1      37.933  28.777  30.601  1.00  0.00     0.198 A 
ATOM     62  C   UNL A   1      37.613  29.516  28.340  1.00  0.00     0.198 A 
ATOM     63  F   UNL A   1      39.386  29.392  26.799  1.00  0.00    -0.203 F 
ATOM     64  F   UNL A   1      37.445  28.551  31.829  1.00  0.00    -0.200 F 
ATOM     65  C   UNL A   1      37.113  29.308  29.616  1.00  0.00     0.200 A 
ATOM     66  F   UNL A   1      36.826  30.040  27.391  1.00  0.00    -0.200 F 
ATOM     67  F   UNL A   1      35.840  29.616  29.897  1.00  0.00    -0.200 F 
ENDBRANCH  43  57
BRANCH  44  68
ATOM     68  C   UNL A   1      49.183  26.602  26.338  1.00  0.00     0.064 A 
ATOM     69  C   UNL A   1      50.151  26.094  27.216  1.00  0.00     0.173 A 
ATOM     70  C   UNL A   1      49.577  26.875  25.020  1.00  0.00     0.173 A 
ATOM     71  F   UNL A   1      49.827  25.836  28.491  1.00  0.00    -0.203 F 
ATOM     72  C   UNL A   1      51.468  25.898  26.803  1.00  0.00     0.198 A 
ATOM     73  C   UNL A   1      50.887  26.651  24.600  1.00  0.00     0.198 A 
ATOM     74  F   UNL A   1      48.688  27.356  24.139  1.00  0.00    -0.203 F 
ATOM     75  F   UNL A   1      52.384  25.464  27.678  1.00  0.00    -0.200 F 
ATOM     76  C   UNL A   1      51.833  26.174  25.494  1.00  0.00     0.200 A 
ATOM     77  F   UNL A   1      51.234  26.906  23.332  1.00  0.00    -0.200 F 
ATOM     78  F   UNL A   1      53.101  25.989  25.098  1.00  0.00    -0.200 F 
ENDBRANCH  44  68
BRANCH  56  79
ATOM     79  C   UNL A   1      45.999  32.268  28.848  1.00  0.00     0.064 A 
ATOM     80  C   UNL A   1      46.526  32.566  30.112  1.00  0.00     0.173 A 
ATOM     81  C   UNL A   1      46.003  33.278  27.873  1.00  0.00     0.173 A 
ATOM     82  F   UNL A   1      46.530  31.636  31.077  1.00  0.00    -0.203 F 
ATOM     83  C   UNL A   1      47.028  33.834  30.393  1.00  0.00     0.198 A 
ATOM     84  C   UNL A   1      46.529  34.535  28.150  1.00  0.00     0.198 A 
ATOM     85  F   UNL A   1      45.516  33.036  26.647  1.00  0.00    -0.203 F 
ATOM     86  F   UNL A   1      47.496  34.109  31.617  1.00  0.00    -0.200 F 
ATOM     87  C   UNL A   1      47.036  34.813  29.410  1.00  0.00     0.200 A 
ATOM     88  F   UNL A   1      46.549  35.476  27.196  1.00  0.00    -0.200 F 
ATOM     89  F   UNL A   1      47.532  36.029  29.680  1.00  0.00    -0.200 F 
ENDBRANCH  56  79
ENDBRANCH  30  31
ENDBRANCH  22  25
ENDBRANCH  20  21
ENDBRANCH  19  20
ENDBRANCH  18  19
ENDBRANCH   3  18
TORSDOF 15
ENDMDL
