MODEL 1
REMARK VINA RESULT:     -10.6      0.000      0.000
REMARK SMILES O=C(C[C@@H](c1ccc(Cl)c(Cl)c1)N1Cc2ccccc2C1=O)NCCCNC(=O)c1ccc(-c2c3nc(c(-c4c(F)c(F)c(F)c(F)c4F)c4ccc([nH]4)c(-c4c(F)c(F)c(F)c(F)c4F)c4nc(c(-c5c(F)c(F)c(F)c(F)c5F)c5ccc2[nH]5)C=C4)C=C3)cc1
REMARK SMILES IDX 25 1 24 2 23 3 1 4 2 5 3 7 4 8 5 9 6 10 12 11 7 12 10 13
REMARK SMILES IDX 8 14 11 15 9 16 13 17 14 18 21 19 15 20 20 21 22 22 16 23
REMARK SMILES IDX 19 24 17 25 18 26 26 27 27 28 28 29 29 31 30 32 31 33 92 34
REMARK SMILES IDX 32 35 91 36 33 37 34 38 35 39 85 40 36 41 90 42 84 43 86 44
REMARK SMILES IDX 37 45 89 46 83 47 82 48 38 50 70 51 50 52 69 53 51 54 54 55
REMARK SMILES IDX 68 56 87 57 52 58 53 59 67 61 88 62 55 63 39 64 40 65 48 66
REMARK SMILES IDX 41 67 42 68 46 69 49 70 43 71 44 72 47 73 45 74 71 75 72 76
REMARK SMILES IDX 80 77 73 78 74 79 78 80 81 81 75 82 76 83 79 84 77 85 56 86
REMARK SMILES IDX 57 87 65 88 58 89 59 90 63 91 66 92 60 93 61 94 64 95 62 96
REMARK H PARENT 23 6 27 30 86 49 54 60
REMARK Flexibility Score: inf
ROOT
ATOM      1  C   UNL A   1      44.282  19.478  24.444  1.00  0.00     0.042 C 
ENDROOT
BRANCH   1   2
ATOM      2  C   UNL A   1      45.707  19.953  24.684  1.00  0.00     0.117 C 
BRANCH   2   3
ATOM      3  N   UNL A   1      45.901  21.305  24.209  1.00  0.00    -0.356 N 
ATOM      4  O   UNL A   1      45.985  22.314  26.267  1.00  0.00    -0.275 OA
ATOM      5  C   UNL A   1      46.034  22.388  25.045  1.00  0.00     0.222 C 
ATOM      6  H   UNL A   1      45.939  21.458  23.237  1.00  0.00     0.163 HD
BRANCH   5   7
ATOM      7  C   UNL A   1      46.266  23.694  24.318  1.00  0.00     0.130 C 
BRANCH   7   8
ATOM      8  C   UNL A   1      46.639  24.840  25.278  1.00  0.00     0.125 C 
BRANCH   8   9
ATOM      9  C   UNL A   1      47.915  25.557  24.833  1.00  0.00    -0.023 A 
ATOM     10  C   UNL A   1      49.038  25.631  25.671  1.00  0.00     0.007 A 
ATOM     11  C   UNL A   1      47.951  26.221  23.594  1.00  0.00     0.028 A 
ATOM     12  C   UNL A   1      50.161  26.368  25.287  1.00  0.00     0.022 A 
ATOM     13  C   UNL A   1      49.072  26.969  23.214  1.00  0.00     0.060 A 
ATOM     14  C   UNL A   1      50.179  27.045  24.064  1.00  0.00     0.059 A 
ATOM     15  Cl  UNL A   1      49.003  27.804  21.705  1.00  0.00    -0.083 Cl
ATOM     16  Cl  UNL A   1      51.584  27.973  23.683  1.00  0.00    -0.083 Cl
ENDBRANCH   8   9
BRANCH   8  17
ATOM     17  N   UNL A   1      45.561  25.814  25.506  1.00  0.00    -0.327 N 
ATOM     18  C   UNL A   1      44.211  25.587  25.001  1.00  0.00     0.157 C 
ATOM     19  C   UNL A   1      45.666  27.026  26.172  1.00  0.00     0.255 C 
ATOM     20  C   UNL A   1      43.494  26.832  25.397  1.00  0.00    -0.016 A 
ATOM     21  C   UNL A   1      44.364  27.687  26.071  1.00  0.00     0.045 A 
ATOM     22  O   UNL A   1      46.621  27.505  26.757  1.00  0.00    -0.269 OA
ATOM     23  C   UNL A   1      42.179  27.207  25.189  1.00  0.00     0.006 A 
ATOM     24  C   UNL A   1      43.987  28.933  26.532  1.00  0.00     0.014 A 
ATOM     25  C   UNL A   1      41.768  28.463  25.654  1.00  0.00     0.000 A 
ATOM     26  C   UNL A   1      42.666  29.323  26.313  1.00  0.00     0.001 A 
ENDBRANCH   8  17
ENDBRANCH   7   8
ENDBRANCH   5   7
ENDBRANCH   2   3
ENDBRANCH   1   2
BRANCH   1  27
ATOM     27  C   UNL A   1      43.575  18.944  25.686  1.00  0.00     0.118 C 
BRANCH  27  28
ATOM     28  N   UNL A   1      42.126  19.053  25.624  1.00  0.00    -0.352 N 
ATOM     29  C   UNL A   1      41.306  20.029  26.142  1.00  0.00     0.251 C 
ATOM     30  H   UNL A   1      41.666  18.325  25.145  1.00  0.00     0.163 HD
ATOM     31  O   UNL A   1      40.089  19.892  26.128  1.00  0.00    -0.269 OA
BRANCH  29  32
ATOM     32  C   UNL A   1      41.906  21.228  26.768  1.00  0.00     0.039 A 
ATOM     33  C   UNL A   1      42.293  22.292  25.949  1.00  0.00     0.014 A 
ATOM     34  C   UNL A   1      42.041  21.321  28.155  1.00  0.00     0.014 A 
ATOM     35  C   UNL A   1      42.728  23.487  26.528  1.00  0.00     0.010 A 
ATOM     36  C   UNL A   1      42.397  22.537  28.730  1.00  0.00     0.010 A 
ATOM     37  C   UNL A   1      42.731  23.637  27.924  1.00  0.00    -0.014 A 
BRANCH  37  38
ATOM     38  C   UNL A   1      43.057  24.938  28.568  1.00  0.00     0.031 A 
ATOM     39  C   UNL A   1      41.991  25.982  28.738  1.00  0.00     0.074 A 
ATOM     40  C   UNL A   1      44.330  25.213  28.917  1.00  0.00     0.049 A 
ATOM     41  N   UNL A   1      42.100  27.221  29.147  1.00  0.00    -0.248 NA
ATOM     42  C   UNL A   1      40.621  25.588  28.372  1.00  0.00     0.031 C 
ATOM     43  C   UNL A   1      45.464  24.296  28.778  1.00  0.00     0.029 A 
ATOM     44  N   UNL A   1      44.890  26.353  29.440  1.00  0.00    -0.354 N 
ATOM     45  C   UNL A   1      40.822  27.757  29.071  1.00  0.00     0.074 A 
ATOM     46  C   UNL A   1      39.962  26.727  28.528  1.00  0.00     0.031 C 
ATOM     47  C   UNL A   1      46.577  24.903  29.217  1.00  0.00     0.029 A 
ATOM     48  C   UNL A   1      46.252  26.269  29.616  1.00  0.00     0.049 A 
ATOM     49  H   UNL A   1      44.366  27.155  29.668  1.00  0.00     0.167 HD
ATOM     50  C   UNL A   1      40.401  28.991  29.439  1.00  0.00     0.037 A 
ATOM     51  C   UNL A   1      47.140  27.193  30.030  1.00  0.00     0.037 A 
ATOM     52  C   UNL A   1      41.257  30.007  29.992  1.00  0.00     0.049 A 
ATOM     53  C   UNL A   1      46.652  28.572  30.393  1.00  0.00     0.074 A 
ATOM     54  C   UNL A   1      40.916  31.271  30.441  1.00  0.00     0.029 A 
ATOM     55  N   UNL A   1      42.628  29.878  30.166  1.00  0.00    -0.354 N 
ATOM     56  N   UNL A   1      45.432  29.051  30.370  1.00  0.00    -0.248 NA
ATOM     57  C   UNL A   1      47.665  29.539  30.842  1.00  0.00     0.031 C 
ATOM     58  C   UNL A   1      42.087  31.929  30.826  1.00  0.00     0.029 A 
ATOM     59  C   UNL A   1      43.149  31.051  30.688  1.00  0.00     0.049 A 
ATOM     60  H   UNL A   1      43.152  29.073  29.951  1.00  0.00     0.167 HD
ATOM     61  C   UNL A   1      45.524  30.355  30.840  1.00  0.00     0.074 A 
ATOM     62  C   UNL A   1      46.919  30.593  31.142  1.00  0.00     0.031 C 
ATOM     63  C   UNL A   1      44.537  31.269  31.009  1.00  0.00     0.037 A 
BRANCH  50  64
ATOM     64  C   UNL A   1      38.946  29.317  29.246  1.00  0.00     0.064 A 
ATOM     65  C   UNL A   1      38.402  29.540  27.973  1.00  0.00     0.173 A 
ATOM     66  C   UNL A   1      38.077  29.363  30.346  1.00  0.00     0.173 A 
ATOM     67  F   UNL A   1      39.190  29.515  26.887  1.00  0.00    -0.203 F 
ATOM     68  C   UNL A   1      37.050  29.832  27.811  1.00  0.00     0.198 A 
ATOM     69  C   UNL A   1      36.719  29.618  30.178  1.00  0.00     0.198 A 
ATOM     70  F   UNL A   1      38.541  29.149  31.587  1.00  0.00    -0.203 F 
ATOM     71  F   UNL A   1      36.564  30.095  26.591  1.00  0.00    -0.200 F 
ATOM     72  C   UNL A   1      36.208  29.862  28.913  1.00  0.00     0.200 A 
ATOM     73  F   UNL A   1      35.903  29.630  31.242  1.00  0.00    -0.200 F 
ATOM     74  F   UNL A   1      34.905  30.132  28.755  1.00  0.00    -0.200 F 
ENDBRANCH  50  64
BRANCH  51  75
ATOM     75  C   UNL A   1      48.583  26.849  30.130  1.00  0.00     0.064 A 
ATOM     76  C   UNL A   1      49.490  27.246  29.137  1.00  0.00     0.173 A 
ATOM     77  C   UNL A   1      49.086  26.105  31.208  1.00  0.00     0.173 A 
ATOM     78  F   UNL A   1      49.057  27.940  28.074  1.00  0.00    -0.203 F 
ATOM     79  C   UNL A   1      50.836  26.891  29.205  1.00  0.00     0.198 A 
ATOM     80  C   UNL A   1      50.438  25.780  31.293  1.00  0.00     0.198 A 
ATOM     81  F   UNL A   1      48.263  25.702  32.188  1.00  0.00    -0.203 F 
ATOM     82  F   UNL A   1      51.669  27.239  28.214  1.00  0.00    -0.200 F 
ATOM     83  C   UNL A   1      51.310  26.164  30.286  1.00  0.00     0.200 A 
ATOM     84  F   UNL A   1      50.895  25.091  32.347  1.00  0.00    -0.200 F 
ATOM     85  F   UNL A   1      52.605  25.826  30.353  1.00  0.00    -0.200 F 
ENDBRANCH  51  75
BRANCH  63  86
ATOM     86  C   UNL A   1      44.908  32.595  31.608  1.00  0.00     0.064 A 
ATOM     87  C   UNL A   1      45.252  33.700  30.816  1.00  0.00     0.173 A 
ATOM     88  C   UNL A   1      44.844  32.780  32.999  1.00  0.00     0.173 A 
ATOM     89  F   UNL A   1      45.342  33.574  29.484  1.00  0.00    -0.203 F 
ATOM     90  C   UNL A   1      45.534  34.935  31.395  1.00  0.00     0.198 A 
ATOM     91  C   UNL A   1      45.092  34.023  33.571  1.00  0.00     0.198 A 
ATOM     92  F   UNL A   1      44.512  31.758  33.802  1.00  0.00    -0.203 F 
ATOM     93  F   UNL A   1      45.899  35.967  30.622  1.00  0.00    -0.200 F 
ATOM     94  C   UNL A   1      45.442  35.100  32.770  1.00  0.00     0.200 A 
ATOM     95  F   UNL A   1      44.983  34.184  34.897  1.00  0.00    -0.200 F 
ATOM     96  F   UNL A   1      45.693  36.294  33.322  1.00  0.00    -0.200 F 
ENDBRANCH  63  86
ENDBRANCH  37  38
ENDBRANCH  29  32
ENDBRANCH  27  28
ENDBRANCH   1  27
TORSDOF 13
ENDMDL
MODEL 2
REMARK VINA RESULT:     -10.6      0.589      7.292
REMARK SMILES O=C(C[C@@H](c1ccc(Cl)c(Cl)c1)N1Cc2ccccc2C1=O)NCCCNC(=O)c1ccc(-c2c3nc(c(-c4c(F)c(F)c(F)c(F)c4F)c4ccc([nH]4)c(-c4c(F)c(F)c(F)c(F)c4F)c4nc(c(-c5c(F)c(F)c(F)c(F)c5F)c5ccc2[nH]5)C=C4)C=C3)cc1
REMARK SMILES IDX 25 1 24 2 23 3 1 4 2 5 3 7 4 8 5 9 6 10 12 11 7 12 10 13
REMARK SMILES IDX 8 14 11 15 9 16 13 17 14 18 21 19 15 20 20 21 22 22 16 23
REMARK SMILES IDX 19 24 17 25 18 26 26 27 27 28 28 29 29 31 30 32 31 33 92 34
REMARK SMILES IDX 32 35 91 36 33 37 34 38 35 39 85 40 36 41 90 42 84 43 86 44
REMARK SMILES IDX 37 45 89 46 83 47 82 48 38 50 70 51 50 52 69 53 51 54 54 55
REMARK SMILES IDX 68 56 87 57 52 58 53 59 67 61 88 62 55 63 39 64 40 65 48 66
REMARK SMILES IDX 41 67 42 68 46 69 49 70 43 71 44 72 47 73 45 74 71 75 72 76
REMARK SMILES IDX 80 77 73 78 74 79 78 80 81 81 75 82 76 83 79 84 77 85 56 86
REMARK SMILES IDX 57 87 65 88 58 89 59 90 63 91 66 92 60 93 61 94 64 95 62 96
REMARK H PARENT 23 6 27 30 86 49 54 60
REMARK Flexibility Score: inf
ROOT
ATOM      1  C   UNL A   1      44.566  19.526  24.435  1.00  0.00     0.042 C 
ENDROOT
BRANCH   1   2
ATOM      2  C   UNL A   1      45.989  20.018  24.658  1.00  0.00     0.117 C 
BRANCH   2   3
ATOM      3  N   UNL A   1      46.153  21.382  24.205  1.00  0.00    -0.356 N 
ATOM      4  O   UNL A   1      46.070  22.372  26.272  1.00  0.00    -0.275 OA
ATOM      5  C   UNL A   1      46.189  22.461  25.056  1.00  0.00     0.222 C 
ATOM      6  H   UNL A   1      46.243  21.547  23.238  1.00  0.00     0.163 HD
BRANCH   5   7
ATOM      7  C   UNL A   1      46.409  23.783  24.354  1.00  0.00     0.130 C 
BRANCH   7   8
ATOM      8  C   UNL A   1      46.779  24.911  25.336  1.00  0.00     0.125 C 
BRANCH   8   9
ATOM      9  C   UNL A   1      48.061  25.631  24.912  1.00  0.00    -0.023 A 
ATOM     10  C   UNL A   1      49.171  25.704  25.768  1.00  0.00     0.007 A 
ATOM     11  C   UNL A   1      48.116  26.298  23.675  1.00  0.00     0.028 A 
ATOM     12  C   UNL A   1      50.300  26.443  25.402  1.00  0.00     0.022 A 
ATOM     13  C   UNL A   1      49.242  27.047  23.314  1.00  0.00     0.060 A 
ATOM     14  C   UNL A   1      50.336  27.122  24.182  1.00  0.00     0.059 A 
ATOM     15  Cl  UNL A   1      49.195  27.884  21.805  1.00  0.00    -0.083 Cl
ATOM     16  Cl  UNL A   1      51.745  28.052  23.824  1.00  0.00    -0.083 Cl
ENDBRANCH   8   9
BRANCH   8  17
ATOM     17  N   UNL A   1      45.704  25.886  25.572  1.00  0.00    -0.327 N 
ATOM     18  C   UNL A   1      44.383  25.723  24.971  1.00  0.00     0.157 C 
ATOM     19  C   UNL A   1      45.784  27.043  26.332  1.00  0.00     0.255 C 
ATOM     20  C   UNL A   1      43.661  26.949  25.416  1.00  0.00    -0.016 A 
ATOM     21  C   UNL A   1      44.500  27.734  26.203  1.00  0.00     0.045 A 
ATOM     22  O   UNL A   1      46.708  27.459  27.007  1.00  0.00    -0.269 OA
ATOM     23  C   UNL A   1      42.367  27.362  25.158  1.00  0.00     0.006 A 
ATOM     24  C   UNL A   1      44.114  28.950  26.733  1.00  0.00     0.014 A 
ATOM     25  C   UNL A   1      41.946  28.588  25.691  1.00  0.00     0.000 A 
ATOM     26  C   UNL A   1      42.815  29.379  26.465  1.00  0.00     0.001 A 
ENDBRANCH   8  17
ENDBRANCH   7   8
ENDBRANCH   5   7
ENDBRANCH   2   3
ENDBRANCH   1   2
BRANCH   1  27
ATOM     27  C   UNL A   1      43.913  18.902  25.665  1.00  0.00     0.118 C 
BRANCH  27  28
ATOM     28  N   UNL A   1      42.458  18.910  25.619  1.00  0.00    -0.352 N 
ATOM     29  C   UNL A   1      41.580  19.843  26.118  1.00  0.00     0.251 C 
ATOM     30  H   UNL A   1      42.045  18.137  25.169  1.00  0.00     0.163 HD
ATOM     31  O   UNL A   1      40.374  19.623  26.124  1.00  0.00    -0.269 OA
BRANCH  29  32
ATOM     32  C   UNL A   1      42.102  21.100  26.699  1.00  0.00     0.039 A 
ATOM     33  C   UNL A   1      42.404  22.162  25.843  1.00  0.00     0.014 A 
ATOM     34  C   UNL A   1      42.247  21.244  28.080  1.00  0.00     0.014 A 
ATOM     35  C   UNL A   1      42.762  23.401  26.380  1.00  0.00     0.010 A 
ATOM     36  C   UNL A   1      42.525  22.499  28.614  1.00  0.00     0.010 A 
ATOM     37  C   UNL A   1      42.772  23.594  27.770  1.00  0.00    -0.014 A 
BRANCH  37  38
ATOM     38  C   UNL A   1      43.015  24.934  28.370  1.00  0.00     0.031 A 
ATOM     39  C   UNL A   1      44.364  25.269  28.942  1.00  0.00     0.074 A 
ATOM     40  C   UNL A   1      42.000  25.813  28.482  1.00  0.00     0.049 A 
ATOM     41  N   UNL A   1      44.737  26.321  29.626  1.00  0.00    -0.248 NA
ATOM     42  C   UNL A   1      45.429  24.273  28.742  1.00  0.00     0.031 C 
ATOM     43  C   UNL A   1      40.636  25.598  27.994  1.00  0.00     0.029 A 
ATOM     44  N   UNL A   1      41.950  27.057  29.063  1.00  0.00    -0.354 N 
ATOM     45  C   UNL A   1      46.069  26.107  29.950  1.00  0.00     0.074 A 
ATOM     46  C   UNL A   1      46.426  24.802  29.435  1.00  0.00     0.031 C 
ATOM     47  C   UNL A   1      39.890  26.676  28.283  1.00  0.00     0.029 A 
ATOM     48  C   UNL A   1      40.703  27.635  29.024  1.00  0.00     0.049 A 
ATOM     49  H   UNL A   1      42.734  27.493  29.469  1.00  0.00     0.167 HD
ATOM     50  C   UNL A   1      46.923  26.932  30.602  1.00  0.00     0.037 A 
ATOM     51  C   UNL A   1      40.259  28.795  29.547  1.00  0.00     0.037 A 
ATOM     52  C   UNL A   1      46.568  28.235  31.100  1.00  0.00     0.049 A 
ATOM     53  C   UNL A   1      41.218  29.676  30.304  1.00  0.00     0.074 A 
ATOM     54  C   UNL A   1      47.374  29.166  31.732  1.00  0.00     0.029 A 
ATOM     55  N   UNL A   1      45.298  28.789  31.030  1.00  0.00    -0.354 N 
ATOM     56  N   UNL A   1      42.491  29.489  30.558  1.00  0.00    -0.248 NA
ATOM     57  C   UNL A   1      40.680  30.931  30.849  1.00  0.00     0.031 C 
ATOM     58  C   UNL A   1      46.579  30.255  32.099  1.00  0.00     0.029 A 
ATOM     59  C   UNL A   1      45.294  30.037  31.632  1.00  0.00     0.049 A 
ATOM     60  H   UNL A   1      44.515  28.360  30.613  1.00  0.00     0.167 HD
ATOM     61  C   UNL A   1      42.914  30.616  31.249  1.00  0.00     0.074 A 
ATOM     62  C   UNL A   1      41.763  31.485  31.375  1.00  0.00     0.031 C 
ATOM     63  C   UNL A   1      44.147  30.905  31.730  1.00  0.00     0.037 A 
BRANCH  50  64
ATOM     64  C   UNL A   1      48.328  26.446  30.826  1.00  0.00     0.064 A 
ATOM     65  C   UNL A   1      48.678  25.695  31.957  1.00  0.00     0.173 A 
ATOM     66  C   UNL A   1      49.327  26.699  29.873  1.00  0.00     0.173 A 
ATOM     67  F   UNL A   1      47.764  25.430  32.903  1.00  0.00    -0.203 F 
ATOM     68  C   UNL A   1      49.983  25.244  32.143  1.00  0.00     0.198 A 
ATOM     69  C   UNL A   1      50.621  26.216  30.044  1.00  0.00     0.198 A 
ATOM     70  F   UNL A   1      49.046  27.406  28.767  1.00  0.00    -0.203 F 
ATOM     71  F   UNL A   1      50.306  24.576  33.258  1.00  0.00    -0.200 F 
ATOM     72  C   UNL A   1      50.951  25.498  31.183  1.00  0.00     0.200 A 
ATOM     73  F   UNL A   1      51.551  26.447  29.107  1.00  0.00    -0.200 F 
ATOM     74  F   UNL A   1      52.203  25.055  31.359  1.00  0.00    -0.200 F 
ENDBRANCH  50  64
BRANCH  51  75
ATOM     75  C   UNL A   1      38.838  29.198  29.368  1.00  0.00     0.064 A 
ATOM     76  C   UNL A   1      38.350  29.579  28.111  1.00  0.00     0.173 A 
ATOM     77  C   UNL A   1      37.943  29.225  30.448  1.00  0.00     0.173 A 
ATOM     78  F   UNL A   1      39.170  29.592  27.050  1.00  0.00    -0.203 F 
ATOM     79  C   UNL A   1      37.030  29.996  27.945  1.00  0.00     0.198 A 
ATOM     80  C   UNL A   1      36.615  29.608  30.276  1.00  0.00     0.198 A 
ATOM     81  F   UNL A   1      38.357  28.865  31.673  1.00  0.00    -0.203 F 
ATOM     82  F   UNL A   1      36.605  30.407  26.743  1.00  0.00    -0.200 F 
ATOM     83  C   UNL A   1      36.162  30.005  29.027  1.00  0.00     0.200 A 
ATOM     84  F   UNL A   1      35.776  29.599  31.320  1.00  0.00    -0.200 F 
ATOM     85  F   UNL A   1      34.893  30.402  28.867  1.00  0.00    -0.200 F 
ENDBRANCH  51  75
BRANCH  63  86
ATOM     86  C   UNL A   1      44.348  32.243  32.384  1.00  0.00     0.064 A 
ATOM     87  C   UNL A   1      44.194  32.426  33.766  1.00  0.00     0.173 A 
ATOM     88  C   UNL A   1      44.773  33.341  31.619  1.00  0.00     0.173 A 
ATOM     89  F   UNL A   1      43.776  31.414  34.540  1.00  0.00    -0.203 F 
ATOM     90  C   UNL A   1      44.444  33.664  34.354  1.00  0.00     0.198 A 
ATOM     91  C   UNL A   1      45.055  34.566  32.215  1.00  0.00     0.198 A 
ATOM     92  F   UNL A   1      44.942  33.218  30.294  1.00  0.00    -0.203 F 
ATOM     93  F   UNL A   1      44.254  33.828  35.671  1.00  0.00    -0.200 F 
ATOM     94  C   UNL A   1      44.885  34.729  33.582  1.00  0.00     0.200 A 
ATOM     95  F   UNL A   1      45.499  35.587  31.469  1.00  0.00    -0.200 F 
ATOM     96  F   UNL A   1      45.145  35.913  34.154  1.00  0.00    -0.200 F 
ENDBRANCH  63  86
ENDBRANCH  37  38
ENDBRANCH  29  32
ENDBRANCH  27  28
ENDBRANCH   1  27
TORSDOF 13
ENDMDL
MODEL 3
REMARK VINA RESULT:     -10.2      5.371      8.757
REMARK SMILES O=C(C[C@@H](c1ccc(Cl)c(Cl)c1)N1Cc2ccccc2C1=O)NCCCNC(=O)c1ccc(-c2c3nc(c(-c4c(F)c(F)c(F)c(F)c4F)c4ccc([nH]4)c(-c4c(F)c(F)c(F)c(F)c4F)c4nc(c(-c5c(F)c(F)c(F)c(F)c5F)c5ccc2[nH]5)C=C4)C=C3)cc1
REMARK SMILES IDX 25 1 24 2 23 3 1 4 2 5 3 7 4 8 5 9 6 10 12 11 7 12 10 13
REMARK SMILES IDX 8 14 11 15 9 16 13 17 14 18 21 19 15 20 20 21 22 22 16 23
REMARK SMILES IDX 19 24 17 25 18 26 26 27 27 28 28 29 29 31 30 32 31 33 92 34
REMARK SMILES IDX 32 35 91 36 33 37 34 38 35 39 85 40 36 41 90 42 84 43 86 44
REMARK SMILES IDX 37 45 89 46 83 47 82 48 38 50 70 51 50 52 69 53 51 54 54 55
REMARK SMILES IDX 68 56 87 57 52 58 53 59 67 61 88 62 55 63 39 64 40 65 48 66
REMARK SMILES IDX 41 67 42 68 46 69 49 70 43 71 44 72 47 73 45 74 71 75 72 76
REMARK SMILES IDX 80 77 73 78 74 79 78 80 81 81 75 82 76 83 79 84 77 85 56 86
REMARK SMILES IDX 57 87 65 88 58 89 59 90 63 91 66 92 60 93 61 94 64 95 62 96
REMARK H PARENT 23 6 27 30 86 49 54 60
REMARK Flexibility Score: inf
ROOT
ATOM      1  C   UNL A   1      35.075  23.213  24.936  1.00  0.00     0.042 C 
ENDROOT
BRANCH   1   2
ATOM      2  C   UNL A   1      33.582  22.935  25.044  1.00  0.00     0.117 C 
BRANCH   2   3
ATOM      3  N   UNL A   1      32.830  24.154  25.244  1.00  0.00    -0.356 N 
ATOM      4  O   UNL A   1      31.385  23.881  23.484  1.00  0.00    -0.275 OA
ATOM      5  C   UNL A   1      31.776  24.530  24.446  1.00  0.00     0.222 C 
ATOM      6  H   UNL A   1      33.086  24.745  25.989  1.00  0.00     0.163 HD
BRANCH   5   7
ATOM      7  C   UNL A   1      31.120  25.825  24.874  1.00  0.00     0.130 C 
BRANCH   7   8
ATOM      8  C   UNL A   1      31.795  27.058  24.244  1.00  0.00     0.125 C 
BRANCH   8   9
ATOM      9  C   UNL A   1      30.798  27.900  23.445  1.00  0.00    -0.023 A 
ATOM     10  C   UNL A   1      31.235  28.887  22.547  1.00  0.00     0.007 A 
ATOM     11  C   UNL A   1      29.418  27.744  23.658  1.00  0.00     0.028 A 
ATOM     12  C   UNL A   1      30.313  29.710  21.895  1.00  0.00     0.022 A 
ATOM     13  C   UNL A   1      28.494  28.576  23.012  1.00  0.00     0.060 A 
ATOM     14  C   UNL A   1      28.943  29.563  22.131  1.00  0.00     0.059 A 
ATOM     15  Cl  UNL A   1      26.822  28.354  23.384  1.00  0.00    -0.083 Cl
ATOM     16  Cl  UNL A   1      27.870  30.649  21.324  1.00  0.00    -0.083 Cl
ENDBRANCH   8   9
BRANCH   8  17
ATOM     17  N   UNL A   1      32.524  27.905  25.200  1.00  0.00    -0.327 N 
ATOM     18  C   UNL A   1      32.001  29.202  25.619  1.00  0.00     0.157 C 
ATOM     19  C   UNL A   1      33.747  27.626  25.791  1.00  0.00     0.255 C 
ATOM     20  C   UNL A   1      33.076  29.720  26.513  1.00  0.00    -0.016 A 
ATOM     21  C   UNL A   1      34.112  28.793  26.595  1.00  0.00     0.045 A 
ATOM     22  O   UNL A   1      34.432  26.623  25.708  1.00  0.00    -0.269 OA
ATOM     23  C   UNL A   1      33.156  30.912  27.209  1.00  0.00     0.006 A 
ATOM     24  C   UNL A   1      35.262  29.014  27.329  1.00  0.00     0.014 A 
ATOM     25  C   UNL A   1      34.308  31.157  27.969  1.00  0.00     0.000 A 
ATOM     26  C   UNL A   1      35.356  30.220  28.022  1.00  0.00     0.001 A 
ENDBRANCH   8  17
ENDBRANCH   7   8
ENDBRANCH   5   7
ENDBRANCH   2   3
ENDBRANCH   1   2
BRANCH   1  27
ATOM     27  C   UNL A   1      35.897  22.726  26.125  1.00  0.00     0.118 C 
BRANCH  27  28
ATOM     28  N   UNL A   1      36.870  21.701  25.780  1.00  0.00    -0.352 N 
ATOM     29  C   UNL A   1      38.242  21.743  25.866  1.00  0.00     0.251 C 
ATOM     30  H   UNL A   1      36.493  20.858  25.435  1.00  0.00     0.163 HD
ATOM     31  O   UNL A   1      38.924  20.842  25.393  1.00  0.00    -0.269 OA
BRANCH  29  32
ATOM     32  C   UNL A   1      38.898  22.914  26.489  1.00  0.00     0.039 A 
ATOM     33  C   UNL A   1      39.972  22.701  27.356  1.00  0.00     0.014 A 
ATOM     34  C   UNL A   1      38.486  24.213  26.183  1.00  0.00     0.014 A 
ATOM     35  C   UNL A   1      40.695  23.794  27.842  1.00  0.00     0.010 A 
ATOM     36  C   UNL A   1      39.255  25.294  26.602  1.00  0.00     0.010 A 
ATOM     37  C   UNL A   1      40.376  25.096  27.426  1.00  0.00    -0.014 A 
BRANCH  37  38
ATOM     38  C   UNL A   1      41.207  26.266  27.816  1.00  0.00     0.031 A 
ATOM     39  C   UNL A   1      40.598  27.394  28.599  1.00  0.00     0.074 A 
ATOM     40  C   UNL A   1      42.483  26.354  27.389  1.00  0.00     0.049 A 
ATOM     41  N   UNL A   1      41.112  28.556  28.916  1.00  0.00    -0.248 NA
ATOM     42  C   UNL A   1      39.215  27.202  29.062  1.00  0.00     0.031 C 
ATOM     43  C   UNL A   1      43.184  25.340  26.598  1.00  0.00     0.029 A 
ATOM     44  N   UNL A   1      43.412  27.355  27.540  1.00  0.00    -0.354 N 
ATOM     45  C   UNL A   1      40.114  29.236  29.599  1.00  0.00     0.074 A 
ATOM     46  C   UNL A   1      38.946  28.380  29.605  1.00  0.00     0.031 C 
ATOM     47  C   UNL A   1      44.432  25.763  26.347  1.00  0.00     0.029 A 
ATOM     48  C   UNL A   1      44.607  27.100  26.908  1.00  0.00     0.049 A 
ATOM     49  H   UNL A   1      43.239  28.177  28.053  1.00  0.00     0.167 HD
ATOM     50  C   UNL A   1      40.171  30.456  30.184  1.00  0.00     0.037 A 
ATOM     51  C   UNL A   1      45.708  27.864  26.776  1.00  0.00     0.037 A 
ATOM     52  C   UNL A   1      41.339  31.298  30.188  1.00  0.00     0.049 A 
ATOM     53  C   UNL A   1      45.732  29.234  27.400  1.00  0.00     0.074 A 
ATOM     54  C   UNL A   1      41.512  32.530  30.795  1.00  0.00     0.029 A 
ATOM     55  N   UNL A   1      42.532  30.998  29.547  1.00  0.00    -0.354 N 
ATOM     56  N   UNL A   1      44.801  29.846  28.092  1.00  0.00    -0.248 NA
ATOM     57  C   UNL A   1      46.961  30.023  27.227  1.00  0.00     0.031 C 
ATOM     58  C   UNL A   1      42.785  33.003  30.469  1.00  0.00     0.029 A 
ATOM     59  C   UNL A   1      43.435  32.035  29.721  1.00  0.00     0.049 A 
ATOM     60  H   UNL A   1      42.712  30.171  29.044  1.00  0.00     0.167 HD
ATOM     61  C   UNL A   1      45.344  31.066  28.471  1.00  0.00     0.074 A 
ATOM     62  C   UNL A   1      46.688  31.109  27.935  1.00  0.00     0.031 C 
ATOM     63  C   UNL A   1      44.780  32.057  29.203  1.00  0.00     0.037 A 
BRANCH  50  64
ATOM     64  C   UNL A   1      38.930  30.963  30.863  1.00  0.00     0.064 A 
ATOM     65  C   UNL A   1      38.692  30.741  32.228  1.00  0.00     0.173 A 
ATOM     66  C   UNL A   1      37.987  31.718  30.149  1.00  0.00     0.173 A 
ATOM     67  F   UNL A   1      39.557  30.019  32.956  1.00  0.00    -0.203 F 
ATOM     68  C   UNL A   1      37.541  31.226  32.844  1.00  0.00     0.198 A 
ATOM     69  C   UNL A   1      36.856  32.233  30.776  1.00  0.00     0.198 A 
ATOM     70  F   UNL A   1      38.167  31.968  28.843  1.00  0.00    -0.203 F 
ATOM     71  F   UNL A   1      37.309  30.955  34.135  1.00  0.00    -0.200 F 
ATOM     72  C   UNL A   1      36.628  31.979  32.120  1.00  0.00     0.200 A 
ATOM     73  F   UNL A   1      35.984  32.975  30.079  1.00  0.00    -0.200 F 
ATOM     74  F   UNL A   1      35.527  32.453  32.716  1.00  0.00    -0.200 F 
ENDBRANCH  50  64
BRANCH  51  75
ATOM     75  C   UNL A   1      46.885  27.351  26.025  1.00  0.00     0.064 A 
ATOM     76  C   UNL A   1      47.903  26.641  26.678  1.00  0.00     0.173 A 
ATOM     77  C   UNL A   1      47.027  27.571  24.647  1.00  0.00     0.173 A 
ATOM     78  F   UNL A   1      47.826  26.424  27.999  1.00  0.00    -0.203 F 
ATOM     79  C   UNL A   1      49.028  26.194  25.987  1.00  0.00     0.198 A 
ATOM     80  C   UNL A   1      48.136  27.093  23.950  1.00  0.00     0.198 A 
ATOM     81  F   UNL A   1      46.082  28.240  23.972  1.00  0.00    -0.203 F 
ATOM     82  F   UNL A   1      50.010  25.565  26.647  1.00  0.00    -0.200 F 
ATOM     83  C   UNL A   1      49.141  26.415  24.623  1.00  0.00     0.200 A 
ATOM     84  F   UNL A   1      48.233  27.294  22.630  1.00  0.00    -0.200 F 
ATOM     85  F   UNL A   1      50.220  25.981  23.959  1.00  0.00    -0.200 F 
ENDBRANCH  51  75
BRANCH  63  86
ATOM     86  C   UNL A   1      45.627  33.254  29.532  1.00  0.00     0.064 A 
ATOM     87  C   UNL A   1      46.463  33.288  30.657  1.00  0.00     0.173 A 
ATOM     88  C   UNL A   1      45.653  34.355  28.661  1.00  0.00     0.173 A 
ATOM     89  F   UNL A   1      46.464  32.268  31.529  1.00  0.00    -0.203 F 
ATOM     90  C   UNL A   1      47.282  34.386  30.906  1.00  0.00     0.198 A 
ATOM     91  C   UNL A   1      46.498  35.435  28.894  1.00  0.00     0.198 A 
ATOM     92  F   UNL A   1      44.878  34.371  27.566  1.00  0.00    -0.203 F 
ATOM     93  F   UNL A   1      48.044  34.415  32.008  1.00  0.00    -0.200 F 
ATOM     94  C   UNL A   1      47.309  35.453  30.019  1.00  0.00     0.200 A 
ATOM     95  F   UNL A   1      46.536  36.456  28.026  1.00  0.00    -0.200 F 
ATOM     96  F   UNL A   1      48.114  36.500  30.250  1.00  0.00    -0.200 F 
ENDBRANCH  63  86
ENDBRANCH  37  38
ENDBRANCH  29  32
ENDBRANCH  27  28
ENDBRANCH   1  27
TORSDOF 13
ENDMDL
