MODEL 1
REMARK VINA RESULT:     -11.4      0.000      0.000
REMARK SMILES C#CC[N@@H+](CC(=O)NCCCNC(=O)c1ccc(-c2c3nc(c(-c4c(F)c(F)c(F)c(F)c4F)c4ccc([nH]4)c(-c4c(F)c(F)c(F)c(F)c4F)c4nc(c(-c5c(F)c(F)c(F)c(F)c5F)c5ccc2[nH]5)C=C4)C=C3)cc1)[C@@H](C)c1ccc(C#N)cc1
REMARK SMILES IDX 9 1 8 2 6 3 7 4 5 6 4 7 3 9 2 10 1 11 78 12 79 13 80 14
REMARK SMILES IDX 81 15 87 16 82 17 86 18 83 19 84 20 85 21 10 22 11 23 12 24
REMARK SMILES IDX 13 25 14 27 15 28 16 29 77 30 17 31 76 32 18 33 19 34 20 35
REMARK SMILES IDX 70 36 21 37 75 38 69 39 71 40 22 41 74 42 68 43 67 44 23 46
REMARK SMILES IDX 55 47 35 48 54 49 36 50 39 51 53 52 72 53 37 54 38 55 52 57
REMARK SMILES IDX 73 58 40 59 24 60 25 61 33 62 26 63 27 64 31 65 34 66 28 67
REMARK SMILES IDX 29 68 32 69 30 70 56 71 57 72 65 73 58 74 59 75 63 76 66 77
REMARK SMILES IDX 60 78 61 79 64 80 62 81 41 82 42 83 50 84 43 85 44 86 48 87
REMARK SMILES IDX 51 88 45 89 46 90 49 91 47 92
REMARK H PARENT 8 5 4 8 12 26 71 45 39 56
REMARK Flexibility Score: inf
ROOT
ATOM      1  C   UNL A   1      31.323  31.040  25.758  1.00  0.00     0.118 C 
ENDROOT
BRANCH   1   2
ATOM      2  N   UNL A   1      32.411  30.176  26.222  1.00  0.00    -0.351 N 
ATOM      3  C   UNL A   1      32.971  29.020  25.749  1.00  0.00     0.275 C 
ATOM      4  O   UNL A   1      34.119  28.789  26.153  1.00  0.00    -0.269 OA
ATOM      5  H   UNL A   1      32.830  30.494  27.054  1.00  0.00     0.163 HD
BRANCH   3   6
ATOM      6  C   UNL A   1      32.296  28.028  24.769  1.00  0.00     0.364 C 
BRANCH   6   7
ATOM      7  N   UNL A   1      30.875  27.645  25.042  1.00  0.00    -0.311 N 
ATOM      8  H   UNL A   1      30.320  28.452  25.326  1.00  0.00     0.349 HD
BRANCH   7   9
ATOM      9  C   UNL A   1      30.915  26.702  26.158  1.00  0.00     0.354 C 
BRANCH   9  10
ATOM     10  C   UNL A   1      32.000  25.647  26.010  1.00  0.00    -0.047 C 
ATOM     11  C   UNL A   1      32.930  24.743  25.883  1.00  0.00     0.010 C 
ENDBRANCH   9  10
ENDBRANCH   7   9
BRANCH   7  12
ATOM     12  C   UNL A   1      30.070  27.256  23.817  1.00  0.00     0.213 C 
ATOM     13  C   UNL A   1      28.999  26.171  24.051  1.00  0.00     0.081 C 
BRANCH  12  14
ATOM     14  C   UNL A   1      29.465  28.450  23.007  1.00  0.00     0.009 A 
ATOM     15  C   UNL A   1      28.113  28.853  23.135  1.00  0.00     0.011 A 
ATOM     16  C   UNL A   1      30.279  29.230  22.161  1.00  0.00     0.011 A 
ATOM     17  C   UNL A   1      27.634  30.039  22.565  1.00  0.00     0.020 A 
ATOM     18  C   UNL A   1      29.806  30.436  21.606  1.00  0.00     0.020 A 
ATOM     19  C   UNL A   1      28.494  30.862  21.842  1.00  0.00     0.052 A 
BRANCH  19  20
ATOM     20  C   UNL A   1      28.056  32.168  21.447  1.00  0.00     0.099 C 
ATOM     21  N   UNL A   1      27.679  33.204  21.076  1.00  0.00    -0.192 NA
ENDBRANCH  19  20
ENDBRANCH  12  14
ENDBRANCH   7  12
ENDBRANCH   6   7
ENDBRANCH   3   6
ENDBRANCH   1   2
BRANCH   1  22
ATOM     22  C   UNL A   1      31.225  32.427  26.430  1.00  0.00     0.042 C 
BRANCH  22  23
ATOM     23  C   UNL A   1      32.377  32.754  27.361  1.00  0.00     0.118 C 
BRANCH  23  24
ATOM     24  N   UNL A   1      32.450  34.188  27.540  1.00  0.00    -0.352 N 
ATOM     25  C   UNL A   1      33.023  34.865  28.590  1.00  0.00     0.251 C 
ATOM     26  H   UNL A   1      32.047  34.740  26.831  1.00  0.00     0.163 HD
ATOM     27  O   UNL A   1      32.574  35.960  28.914  1.00  0.00    -0.269 OA
BRANCH  25  28
ATOM     28  C   UNL A   1      34.176  34.285  29.324  1.00  0.00     0.039 A 
ATOM     29  C   UNL A   1      35.466  34.495  28.830  1.00  0.00     0.014 A 
ATOM     30  C   UNL A   1      33.992  33.468  30.444  1.00  0.00     0.014 A 
ATOM     31  C   UNL A   1      36.560  33.896  29.459  1.00  0.00     0.010 A 
ATOM     32  C   UNL A   1      35.091  32.962  31.134  1.00  0.00     0.010 A 
ATOM     33  C   UNL A   1      36.385  33.138  30.628  1.00  0.00    -0.014 A 
BRANCH  33  34
ATOM     34  C   UNL A   1      37.540  32.490  31.303  1.00  0.00     0.031 A 
ATOM     35  C   UNL A   1      38.253  31.337  30.645  1.00  0.00     0.074 A 
ATOM     36  C   UNL A   1      37.924  32.918  32.521  1.00  0.00     0.049 A 
ATOM     37  N   UNL A   1      39.256  30.622  31.089  1.00  0.00    -0.248 NA
ATOM     38  C   UNL A   1      37.759  30.911  29.325  1.00  0.00     0.031 C 
ATOM     39  C   UNL A   1      37.284  33.994  33.279  1.00  0.00     0.029 A 
ATOM     40  N   UNL A   1      38.942  32.496  33.341  1.00  0.00    -0.354 N 
ATOM     41  C   UNL A   1      39.497  29.660  30.116  1.00  0.00     0.074 A 
ATOM     42  C   UNL A   1      38.504  29.843  29.083  1.00  0.00     0.031 C 
ATOM     43  C   UNL A   1      37.939  34.167  34.436  1.00  0.00     0.029 A 
ATOM     44  C   UNL A   1      39.011  33.181  34.529  1.00  0.00     0.049 A 
ATOM     45  H   UNL A   1      39.563  31.770  33.099  1.00  0.00     0.167 HD
ATOM     46  C   UNL A   1      40.474  28.721  30.080  1.00  0.00     0.037 A 
ATOM     47  C   UNL A   1      39.833  33.020  35.583  1.00  0.00     0.037 A 
ATOM     48  C   UNL A   1      41.474  28.561  31.102  1.00  0.00     0.049 A 
ATOM     49  C   UNL A   1      40.898  31.957  35.521  1.00  0.00     0.074 A 
ATOM     50  C   UNL A   1      42.549  27.689  31.125  1.00  0.00     0.029 A 
ATOM     51  N   UNL A   1      41.515  29.278  32.289  1.00  0.00    -0.354 N 
ATOM     52  N   UNL A   1      41.169  31.110  34.558  1.00  0.00    -0.248 NA
ATOM     53  C   UNL A   1      41.778  31.833  36.691  1.00  0.00     0.031 C 
ATOM     54  C   UNL A   1      43.190  27.821  32.359  1.00  0.00     0.029 A 
ATOM     55  C   UNL A   1      42.570  28.837  33.070  1.00  0.00     0.049 A 
ATOM     56  H   UNL A   1      40.886  29.994  32.539  1.00  0.00     0.167 HD
ATOM     57  C   UNL A   1      42.266  30.377  34.990  1.00  0.00     0.074 A 
ATOM     58  C   UNL A   1      42.624  30.894  36.294  1.00  0.00     0.031 C 
ATOM     59  C   UNL A   1      42.918  29.366  34.365  1.00  0.00     0.037 A 
BRANCH  46  60
ATOM     60  C   UNL A   1      40.506  27.781  28.907  1.00  0.00     0.064 A 
ATOM     61  C   UNL A   1      41.310  28.020  27.782  1.00  0.00     0.173 A 
ATOM     62  C   UNL A   1      39.766  26.587  28.939  1.00  0.00     0.173 A 
ATOM     63  F   UNL A   1      42.031  29.147  27.694  1.00  0.00    -0.203 F 
ATOM     64  C   UNL A   1      41.351  27.115  26.724  1.00  0.00     0.198 A 
ATOM     65  C   UNL A   1      39.838  25.668  27.896  1.00  0.00     0.198 A 
ATOM     66  F   UNL A   1      38.984  26.305  29.991  1.00  0.00    -0.203 F 
ATOM     67  F   UNL A   1      42.089  27.389  25.638  1.00  0.00    -0.200 F 
ATOM     68  C   UNL A   1      40.625  25.936  26.786  1.00  0.00     0.200 A 
ATOM     69  F   UNL A   1      39.149  24.521  27.967  1.00  0.00    -0.200 F 
ATOM     70  F   UNL A   1      40.678  25.059  25.775  1.00  0.00    -0.200 F 
ENDBRANCH  46  60
BRANCH  47  71
ATOM     71  C   UNL A   1      39.678  33.878  36.790  1.00  0.00     0.064 A 
ATOM     72  C   UNL A   1      38.887  33.474  37.874  1.00  0.00     0.173 A 
ATOM     73  C   UNL A   1      40.299  35.134  36.871  1.00  0.00     0.173 A 
ATOM     74  F   UNL A   1      38.258  32.291  37.840  1.00  0.00    -0.203 F 
ATOM     75  C   UNL A   1      38.693  34.307  38.975  1.00  0.00     0.198 A 
ATOM     76  C   UNL A   1      40.139  35.947  37.990  1.00  0.00     0.198 A 
ATOM     77  F   UNL A   1      41.076  35.566  35.867  1.00  0.00    -0.203 F 
ATOM     78  F   UNL A   1      37.879  33.922  39.967  1.00  0.00    -0.200 F 
ATOM     79  C   UNL A   1      39.324  35.540  39.035  1.00  0.00     0.200 A 
ATOM     80  F   UNL A   1      40.768  37.128  38.053  1.00  0.00    -0.200 F 
ATOM     81  F   UNL A   1      39.138  36.339  40.095  1.00  0.00    -0.200 F 
ENDBRANCH  47  71
BRANCH  59  82
ATOM     82  C   UNL A   1      44.116  28.780  35.060  1.00  0.00     0.064 A 
ATOM     83  C   UNL A   1      44.007  27.687  35.932  1.00  0.00     0.173 A 
ATOM     84  C   UNL A   1      45.398  29.299  34.817  1.00  0.00     0.173 A 
ATOM     85  F   UNL A   1      42.805  27.159  36.208  1.00  0.00    -0.203 F 
ATOM     86  C   UNL A   1      45.132  27.159  36.561  1.00  0.00     0.198 A 
ATOM     87  C   UNL A   1      46.523  28.742  35.415  1.00  0.00     0.198 A 
ATOM     88  F   UNL A   1      45.561  30.338  33.984  1.00  0.00    -0.203 F 
ATOM     89  F   UNL A   1      44.997  26.154  37.438  1.00  0.00    -0.200 F 
ATOM     90  C   UNL A   1      46.389  27.681  36.295  1.00  0.00     0.200 A 
ATOM     91  F   UNL A   1      47.739  29.234  35.138  1.00  0.00    -0.200 F 
ATOM     92  F   UNL A   1      47.471  27.164  36.894  1.00  0.00    -0.200 F 
ENDBRANCH  59  82
ENDBRANCH  33  34
ENDBRANCH  25  28
ENDBRANCH  23  24
ENDBRANCH  22  23
ENDBRANCH   1  22
TORSDOF 16
ENDMDL
MODEL 2
REMARK VINA RESULT:     -11.2      2.737      8.735
REMARK SMILES C#CC[N@@H+](CC(=O)NCCCNC(=O)c1ccc(-c2c3nc(c(-c4c(F)c(F)c(F)c(F)c4F)c4ccc([nH]4)c(-c4c(F)c(F)c(F)c(F)c4F)c4nc(c(-c5c(F)c(F)c(F)c(F)c5F)c5ccc2[nH]5)C=C4)C=C3)cc1)[C@@H](C)c1ccc(C#N)cc1
REMARK SMILES IDX 9 1 8 2 6 3 7 4 5 6 4 7 3 9 2 10 1 11 78 12 79 13 80 14
REMARK SMILES IDX 81 15 87 16 82 17 86 18 83 19 84 20 85 21 10 22 11 23 12 24
REMARK SMILES IDX 13 25 14 27 15 28 16 29 77 30 17 31 76 32 18 33 19 34 20 35
REMARK SMILES IDX 70 36 21 37 75 38 69 39 71 40 22 41 74 42 68 43 67 44 23 46
REMARK SMILES IDX 55 47 35 48 54 49 36 50 39 51 53 52 72 53 37 54 38 55 52 57
REMARK SMILES IDX 73 58 40 59 24 60 25 61 33 62 26 63 27 64 31 65 34 66 28 67
REMARK SMILES IDX 29 68 32 69 30 70 56 71 57 72 65 73 58 74 59 75 63 76 66 77
REMARK SMILES IDX 60 78 61 79 64 80 62 81 41 82 42 83 50 84 43 85 44 86 48 87
REMARK SMILES IDX 51 88 45 89 46 90 49 91 47 92
REMARK H PARENT 8 5 4 8 12 26 71 45 39 56
REMARK Flexibility Score: inf
ROOT
ATOM      1  C   UNL A   1      32.792  28.102  22.989  1.00  0.00     0.118 C 
ENDROOT
BRANCH   1   2
ATOM      2  N   UNL A   1      33.199  27.187  21.919  1.00  0.00    -0.351 N 
ATOM      3  C   UNL A   1      32.754  25.963  21.498  1.00  0.00     0.275 C 
ATOM      4  O   UNL A   1      33.049  25.670  20.331  1.00  0.00    -0.269 OA
ATOM      5  H   UNL A   1      33.956  27.525  21.388  1.00  0.00     0.163 HD
BRANCH   3   6
ATOM      6  C   UNL A   1      31.927  24.965  22.347  1.00  0.00     0.364 C 
BRANCH   6   7
ATOM      7  N   UNL A   1      32.679  24.032  23.245  1.00  0.00    -0.311 N 
ATOM      8  H   UNL A   1      33.445  23.576  22.750  1.00  0.00     0.349 HD
BRANCH   7   9
ATOM      9  C   UNL A   1      31.724  23.005  23.657  1.00  0.00     0.354 C 
BRANCH   9  10
ATOM     10  C   UNL A   1      32.390  21.703  24.071  1.00  0.00    -0.047 C 
ATOM     11  C   UNL A   1      32.961  20.586  24.427  1.00  0.00     0.010 C 
ENDBRANCH   9  10
ENDBRANCH   7   9
BRANCH   7  12
ATOM     12  C   UNL A   1      33.501  24.708  24.326  1.00  0.00     0.213 C 
ATOM     13  C   UNL A   1      32.771  24.925  25.668  1.00  0.00     0.081 C 
BRANCH  12  14
ATOM     14  C   UNL A   1      34.918  24.093  24.572  1.00  0.00     0.009 A 
ATOM     15  C   UNL A   1      35.598  24.215  25.809  1.00  0.00     0.011 A 
ATOM     16  C   UNL A   1      35.547  23.317  23.579  1.00  0.00     0.011 A 
ATOM     17  C   UNL A   1      36.768  23.496  26.087  1.00  0.00     0.020 A 
ATOM     18  C   UNL A   1      36.710  22.575  23.864  1.00  0.00     0.020 A 
ATOM     19  C   UNL A   1      37.298  22.632  25.133  1.00  0.00     0.052 A 
BRANCH  19  20
ATOM     20  C   UNL A   1      38.363  21.745  25.497  1.00  0.00     0.099 C 
ATOM     21  N   UNL A   1      39.209  20.987  25.750  1.00  0.00    -0.192 NA
ENDBRANCH  19  20
ENDBRANCH  12  14
ENDBRANCH   7  12
ENDBRANCH   6   7
ENDBRANCH   3   6
ENDBRANCH   1   2
BRANCH   1  22
ATOM     22  C   UNL A   1      33.933  28.696  23.843  1.00  0.00     0.042 C 
BRANCH  22  23
ATOM     23  C   UNL A   1      33.614  28.806  25.323  1.00  0.00     0.118 C 
BRANCH  23  24
ATOM     24  N   UNL A   1      33.263  30.175  25.632  1.00  0.00    -0.352 N 
ATOM     25  C   UNL A   1      33.515  30.852  26.801  1.00  0.00     0.251 C 
ATOM     26  H   UNL A   1      32.793  30.677  24.928  1.00  0.00     0.163 HD
ATOM     27  O   UNL A   1      32.747  31.740  27.158  1.00  0.00    -0.269 OA
BRANCH  25  28
ATOM     28  C   UNL A   1      34.705  30.520  27.625  1.00  0.00     0.039 A 
ATOM     29  C   UNL A   1      35.773  31.421  27.661  1.00  0.00     0.014 A 
ATOM     30  C   UNL A   1      34.813  29.297  28.293  1.00  0.00     0.014 A 
ATOM     31  C   UNL A   1      36.934  31.098  28.366  1.00  0.00     0.010 A 
ATOM     32  C   UNL A   1      35.926  29.023  29.085  1.00  0.00     0.010 A 
ATOM     33  C   UNL A   1      37.016  29.903  29.100  1.00  0.00    -0.014 A 
BRANCH  33  34
ATOM     34  C   UNL A   1      38.248  29.545  29.848  1.00  0.00     0.031 A 
ATOM     35  C   UNL A   1      38.514  30.146  31.204  1.00  0.00     0.074 A 
ATOM     36  C   UNL A   1      39.143  28.704  29.294  1.00  0.00     0.049 A 
ATOM     37  N   UNL A   1      39.545  29.985  31.995  1.00  0.00    -0.248 NA
ATOM     38  C   UNL A   1      37.501  31.075  31.733  1.00  0.00     0.031 C 
ATOM     39  C   UNL A   1      39.019  28.092  27.970  1.00  0.00     0.029 A 
ATOM     40  N   UNL A   1      40.337  28.222  29.771  1.00  0.00    -0.354 N 
ATOM     41  C   UNL A   1      39.312  30.799  33.096  1.00  0.00     0.074 A 
ATOM     42  C   UNL A   1      38.072  31.497  32.851  1.00  0.00     0.031 C 
ATOM     43  C   UNL A   1      40.076  27.297  27.752  1.00  0.00     0.029 A 
ATOM     44  C   UNL A   1      40.980  27.382  28.895  1.00  0.00     0.049 A 
ATOM     45  H   UNL A   1      40.698  28.457  30.656  1.00  0.00     0.167 HD
ATOM     46  C   UNL A   1      40.057  30.935  34.219  1.00  0.00     0.037 A 
ATOM     47  C   UNL A   1      42.172  26.764  28.993  1.00  0.00     0.037 A 
ATOM     48  C   UNL A   1      41.281  30.217  34.465  1.00  0.00     0.049 A 
ATOM     49  C   UNL A   1      42.987  26.947  30.246  1.00  0.00     0.074 A 
ATOM     50  C   UNL A   1      42.071  30.228  35.601  1.00  0.00     0.029 A 
ATOM     51  N   UNL A   1      41.897  29.370  33.556  1.00  0.00    -0.354 N 
ATOM     52  N   UNL A   1      42.713  27.654  31.317  1.00  0.00    -0.248 NA
ATOM     53  C   UNL A   1      44.273  26.240  30.310  1.00  0.00     0.031 C 
ATOM     54  C   UNL A   1      43.207  29.455  35.348  1.00  0.00     0.029 A 
ATOM     55  C   UNL A   1      43.082  28.889  34.089  1.00  0.00     0.049 A 
ATOM     56  H   UNL A   1      41.545  29.145  32.664  1.00  0.00     0.167 HD
ATOM     57  C   UNL A   1      43.774  27.451  32.191  1.00  0.00     0.074 A 
ATOM     58  C   UNL A   1      44.685  26.539  31.533  1.00  0.00     0.031 C 
ATOM     59  C   UNL A   1      43.976  27.975  33.425  1.00  0.00     0.037 A 
BRANCH  46  60
ATOM     60  C   UNL A   1      39.586  31.905  35.267  1.00  0.00     0.064 A 
ATOM     61  C   UNL A   1      39.985  33.251  35.269  1.00  0.00     0.173 A 
ATOM     62  C   UNL A   1      38.669  31.494  36.248  1.00  0.00     0.173 A 
ATOM     63  F   UNL A   1      40.865  33.696  34.360  1.00  0.00    -0.203 F 
ATOM     64  C   UNL A   1      39.505  34.139  36.228  1.00  0.00     0.198 A 
ATOM     65  C   UNL A   1      38.164  32.394  37.182  1.00  0.00     0.198 A 
ATOM     66  F   UNL A   1      38.250  30.221  36.290  1.00  0.00    -0.203 F 
ATOM     67  F   UNL A   1      39.939  35.408  36.239  1.00  0.00    -0.200 F 
ATOM     68  C   UNL A   1      38.588  33.714  37.176  1.00  0.00     0.200 A 
ATOM     69  F   UNL A   1      37.263  31.984  38.086  1.00  0.00    -0.200 F 
ATOM     70  F   UNL A   1      38.115  34.574  38.088  1.00  0.00    -0.200 F 
ENDBRANCH  46  60
BRANCH  47  71
ATOM     71  C   UNL A   1      42.674  25.923  27.872  1.00  0.00     0.064 A 
ATOM     72  C   UNL A   1      43.565  26.435  26.919  1.00  0.00     0.173 A 
ATOM     73  C   UNL A   1      42.250  24.594  27.717  1.00  0.00     0.173 A 
ATOM     74  F   UNL A   1      43.987  27.704  27.011  1.00  0.00    -0.203 F 
ATOM     75  C   UNL A   1      43.982  25.665  25.835  1.00  0.00     0.198 A 
ATOM     76  C   UNL A   1      42.701  23.812  26.657  1.00  0.00     0.198 A 
ATOM     77  F   UNL A   1      41.406  24.050  28.605  1.00  0.00    -0.203 F 
ATOM     78  F   UNL A   1      44.783  26.202  24.904  1.00  0.00    -0.200 F 
ATOM     79  C   UNL A   1      43.555  24.352  25.708  1.00  0.00     0.200 A 
ATOM     80  F   UNL A   1      42.303  22.537  26.551  1.00  0.00    -0.200 F 
ATOM     81  F   UNL A   1      43.959  23.612  24.666  1.00  0.00    -0.200 F 
ENDBRANCH  47  71
BRANCH  59  82
ATOM     82  C   UNL A   1      45.208  27.538  34.168  1.00  0.00     0.064 A 
ATOM     83  C   UNL A   1      45.218  26.397  34.983  1.00  0.00     0.173 A 
ATOM     84  C   UNL A   1      46.408  28.253  34.028  1.00  0.00     0.173 A 
ATOM     85  F   UNL A   1      44.096  25.683  35.161  1.00  0.00    -0.203 F 
ATOM     86  C   UNL A   1      46.373  26.010  35.659  1.00  0.00     0.198 A 
ATOM     87  C   UNL A   1      47.570  27.840  34.672  1.00  0.00     0.198 A 
ATOM     88  F   UNL A   1      46.459  29.347  33.252  1.00  0.00    -0.203 F 
ATOM     89  F   UNL A   1      46.342  24.952  36.481  1.00  0.00    -0.200 F 
ATOM     90  C   UNL A   1      47.549  26.726  35.495  1.00  0.00     0.200 A 
ATOM     91  F   UNL A   1      48.711  28.520  34.493  1.00  0.00    -0.200 F 
ATOM     92  F   UNL A   1      48.662  26.345  36.138  1.00  0.00    -0.200 F 
ENDBRANCH  59  82
ENDBRANCH  33  34
ENDBRANCH  25  28
ENDBRANCH  23  24
ENDBRANCH  22  23
ENDBRANCH   1  22
TORSDOF 16
ENDMDL
MODEL 3
REMARK VINA RESULT:     -11.2      3.660      9.296
REMARK SMILES C#CC[N@@H+](CC(=O)NCCCNC(=O)c1ccc(-c2c3nc(c(-c4c(F)c(F)c(F)c(F)c4F)c4ccc([nH]4)c(-c4c(F)c(F)c(F)c(F)c4F)c4nc(c(-c5c(F)c(F)c(F)c(F)c5F)c5ccc2[nH]5)C=C4)C=C3)cc1)[C@@H](C)c1ccc(C#N)cc1
REMARK SMILES IDX 9 1 8 2 6 3 7 4 5 6 4 7 3 9 2 10 1 11 78 12 79 13 80 14
REMARK SMILES IDX 81 15 87 16 82 17 86 18 83 19 84 20 85 21 10 22 11 23 12 24
REMARK SMILES IDX 13 25 14 27 15 28 16 29 77 30 17 31 76 32 18 33 19 34 20 35
REMARK SMILES IDX 70 36 21 37 75 38 69 39 71 40 22 41 74 42 68 43 67 44 23 46
REMARK SMILES IDX 55 47 35 48 54 49 36 50 39 51 53 52 72 53 37 54 38 55 52 57
REMARK SMILES IDX 73 58 40 59 24 60 25 61 33 62 26 63 27 64 31 65 34 66 28 67
REMARK SMILES IDX 29 68 32 69 30 70 56 71 57 72 65 73 58 74 59 75 63 76 66 77
REMARK SMILES IDX 60 78 61 79 64 80 62 81 41 82 42 83 50 84 43 85 44 86 48 87
REMARK SMILES IDX 51 88 45 89 46 90 49 91 47 92
REMARK H PARENT 8 5 4 8 12 26 71 45 39 56
REMARK Flexibility Score: inf
ROOT
ATOM      1  C   UNL A   1      31.312  27.227  26.172  1.00  0.00     0.118 C 
ENDROOT
BRANCH   1   2
ATOM      2  N   UNL A   1      30.679  25.938  26.461  1.00  0.00    -0.351 N 
ATOM      3  C   UNL A   1      31.123  24.643  26.462  1.00  0.00     0.275 C 
ATOM      4  O   UNL A   1      30.448  23.858  27.143  1.00  0.00    -0.269 OA
ATOM      5  H   UNL A   1      29.729  26.020  26.707  1.00  0.00     0.163 HD
BRANCH   3   6
ATOM      6  C   UNL A   1      32.372  24.118  25.711  1.00  0.00     0.364 C 
BRANCH   6   7
ATOM      7  N   UNL A   1      32.308  24.068  24.216  1.00  0.00    -0.311 N 
ATOM      8  H   UNL A   1      31.605  24.710  23.851  1.00  0.00     0.349 HD
BRANCH   7   9
ATOM      9  C   UNL A   1      31.904  22.706  23.872  1.00  0.00     0.354 C 
BRANCH   9  10
ATOM     10  C   UNL A   1      32.747  21.642  24.557  1.00  0.00    -0.047 C 
ATOM     11  C   UNL A   1      33.470  20.730  25.145  1.00  0.00     0.010 C 
ENDBRANCH   9  10
ENDBRANCH   7   9
BRANCH   7  12
ATOM     12  C   UNL A   1      33.514  24.648  23.503  1.00  0.00     0.213 C 
ATOM     13  C   UNL A   1      33.546  26.188  23.412  1.00  0.00     0.081 C 
BRANCH  12  14
ATOM     14  C   UNL A   1      34.900  24.104  23.981  1.00  0.00     0.009 A 
ATOM     15  C   UNL A   1      35.431  24.387  25.264  1.00  0.00     0.011 A 
ATOM     16  C   UNL A   1      35.651  23.232  23.166  1.00  0.00     0.011 A 
ATOM     17  C   UNL A   1      36.568  23.736  25.758  1.00  0.00     0.020 A 
ATOM     18  C   UNL A   1      36.781  22.559  23.669  1.00  0.00     0.020 A 
ATOM     19  C   UNL A   1      37.216  22.780  24.981  1.00  0.00     0.052 A 
BRANCH  19  20
ATOM     20  C   UNL A   1      38.242  21.969  25.568  1.00  0.00     0.099 C 
ATOM     21  N   UNL A   1      39.067  21.272  26.000  1.00  0.00    -0.192 NA
ENDBRANCH  19  20
ENDBRANCH  12  14
ENDBRANCH   7  12
ENDBRANCH   6   7
ENDBRANCH   3   6
ENDBRANCH   1   2
BRANCH   1  22
ATOM     22  C   UNL A   1      32.323  27.737  27.222  1.00  0.00     0.042 C 
BRANCH  22  23
ATOM     23  C   UNL A   1      33.592  28.326  26.634  1.00  0.00     0.118 C 
BRANCH  23  24
ATOM     24  N   UNL A   1      33.562  29.764  26.785  1.00  0.00    -0.352 N 
ATOM     25  C   UNL A   1      34.310  30.523  27.654  1.00  0.00     0.251 C 
ATOM     26  H   UNL A   1      32.938  30.254  26.202  1.00  0.00     0.163 HD
ATOM     27  O   UNL A   1      33.848  31.578  28.079  1.00  0.00    -0.269 OA
BRANCH  25  28
ATOM     28  C   UNL A   1      35.663  30.079  28.072  1.00  0.00     0.039 A 
ATOM     29  C   UNL A   1      35.850  29.623  29.380  1.00  0.00     0.014 A 
ATOM     30  C   UNL A   1      36.763  30.184  27.216  1.00  0.00     0.014 A 
ATOM     31  C   UNL A   1      37.128  29.273  29.820  1.00  0.00     0.010 A 
ATOM     32  C   UNL A   1      38.017  29.732  27.621  1.00  0.00     0.010 A 
ATOM     33  C   UNL A   1      38.222  29.307  28.939  1.00  0.00    -0.014 A 
BRANCH  33  34
ATOM     34  C   UNL A   1      39.588  28.943  29.397  1.00  0.00     0.031 A 
ATOM     35  C   UNL A   1      40.348  29.859  30.321  1.00  0.00     0.074 A 
ATOM     36  C   UNL A   1      40.157  27.805  28.955  1.00  0.00     0.049 A 
ATOM     37  N   UNL A   1      41.559  29.733  30.802  1.00  0.00    -0.248 NA
ATOM     38  C   UNL A   1      39.669  31.096  30.742  1.00  0.00     0.031 C 
ATOM     39  C   UNL A   1      39.540  26.859  28.023  1.00  0.00     0.029 A 
ATOM     40  N   UNL A   1      41.385  27.251  29.224  1.00  0.00    -0.354 N 
ATOM     41  C   UNL A   1      41.789  30.874  31.560  1.00  0.00     0.074 A 
ATOM     42  C   UNL A   1      40.617  31.709  31.435  1.00  0.00     0.031 C 
ATOM     43  C   UNL A   1      40.377  25.832  27.820  1.00  0.00     0.029 A 
ATOM     44  C   UNL A   1      41.611  26.068  28.562  1.00  0.00     0.049 A 
ATOM     45  H   UNL A   1      42.040  27.664  29.832  1.00  0.00     0.167 HD
ATOM     46  C   UNL A   1      42.873  31.186  32.311  1.00  0.00     0.037 A 
ATOM     47  C   UNL A   1      42.698  25.274  28.542  1.00  0.00     0.037 A 
ATOM     48  C   UNL A   1      44.027  30.336  32.450  1.00  0.00     0.049 A 
ATOM     49  C   UNL A   1      43.895  25.655  29.373  1.00  0.00     0.074 A 
ATOM     50  C   UNL A   1      45.144  30.527  33.243  1.00  0.00     0.029 A 
ATOM     51  N   UNL A   1      44.217  29.143  31.769  1.00  0.00    -0.354 N 
ATOM     52  N   UNL A   1      44.065  26.695  30.154  1.00  0.00    -0.248 NA
ATOM     53  C   UNL A   1      45.049  24.746  29.328  1.00  0.00     0.031 C 
ATOM     54  C   UNL A   1      46.046  29.492  32.980  1.00  0.00     0.029 A 
ATOM     55  C   UNL A   1      45.454  28.609  32.090  1.00  0.00     0.049 A 
ATOM     56  H   UNL A   1      43.569  28.736  31.149  1.00  0.00     0.167 HD
ATOM     57  C   UNL A   1      45.327  26.550  30.715  1.00  0.00     0.074 A 
ATOM     58  C   UNL A   1      45.870  25.310  30.201  1.00  0.00     0.031 C 
ATOM     59  C   UNL A   1      45.979  27.370  31.576  1.00  0.00     0.037 A 
BRANCH  46  60
ATOM     60  C   UNL A   1      42.877  32.505  33.032  1.00  0.00     0.064 A 
ATOM     61  C   UNL A   1      42.367  32.646  34.331  1.00  0.00     0.173 A 
ATOM     62  C   UNL A   1      43.459  33.635  32.433  1.00  0.00     0.173 A 
ATOM     63  F   UNL A   1      41.792  31.603  34.948  1.00  0.00    -0.203 F 
ATOM     64  C   UNL A   1      42.416  33.871  34.992  1.00  0.00     0.198 A 
ATOM     65  C   UNL A   1      43.539  34.848  33.111  1.00  0.00     0.198 A 
ATOM     66  F   UNL A   1      43.967  33.557  31.194  1.00  0.00    -0.203 F 
ATOM     67  F   UNL A   1      41.877  33.993  36.215  1.00  0.00    -0.200 F 
ATOM     68  C   UNL A   1      43.010  34.967  34.387  1.00  0.00     0.200 A 
ATOM     69  F   UNL A   1      44.131  35.900  32.530  1.00  0.00    -0.200 F 
ATOM     70  F   UNL A   1      43.071  36.140  35.031  1.00  0.00    -0.200 F 
ENDBRANCH  46  60
BRANCH  47  71
ATOM     71  C   UNL A   1      42.711  24.045  27.702  1.00  0.00     0.064 A 
ATOM     72  C   UNL A   1      43.021  24.101  26.336  1.00  0.00     0.173 A 
ATOM     73  C   UNL A   1      42.386  22.793  28.244  1.00  0.00     0.173 A 
ATOM     74  F   UNL A   1      43.322  25.276  25.764  1.00  0.00    -0.203 F 
ATOM     75  C   UNL A   1      42.970  22.959  25.538  1.00  0.00     0.198 A 
ATOM     76  C   UNL A   1      42.377  21.645  27.455  1.00  0.00     0.198 A 
ATOM     77  F   UNL A   1      42.091  22.681  29.547  1.00  0.00    -0.203 F 
ATOM     78  F   UNL A   1      43.207  23.053  24.223  1.00  0.00    -0.200 F 
ATOM     79  C   UNL A   1      42.654  21.731  26.100  1.00  0.00     0.200 A 
ATOM     80  F   UNL A   1      42.092  20.457  28.006  1.00  0.00    -0.200 F 
ATOM     81  F   UNL A   1      42.607  20.633  25.332  1.00  0.00    -0.200 F 
ENDBRANCH  47  71
BRANCH  59  82
ATOM     82  C   UNL A   1      47.334  26.932  32.056  1.00  0.00     0.064 A 
ATOM     83  C   UNL A   1      47.493  26.100  33.175  1.00  0.00     0.173 A 
ATOM     84  C   UNL A   1      48.490  27.319  31.360  1.00  0.00     0.173 A 
ATOM     85  F   UNL A   1      46.423  25.709  33.883  1.00  0.00    -0.203 F 
ATOM     86  C   UNL A   1      48.759  25.704  33.599  1.00  0.00     0.198 A 
ATOM     87  C   UNL A   1      49.750  26.887  31.762  1.00  0.00     0.198 A 
ATOM     88  F   UNL A   1      48.397  28.105  30.277  1.00  0.00    -0.203 F 
ATOM     89  F   UNL A   1      48.890  24.961  34.706  1.00  0.00    -0.200 F 
ATOM     90  C   UNL A   1      49.885  26.090  32.887  1.00  0.00     0.200 A 
ATOM     91  F   UNL A   1      50.834  27.243  31.059  1.00  0.00    -0.200 F 
ATOM     92  F   UNL A   1      51.101  25.698  33.291  1.00  0.00    -0.200 F 
ENDBRANCH  59  82
ENDBRANCH  33  34
ENDBRANCH  25  28
ENDBRANCH  23  24
ENDBRANCH  22  23
ENDBRANCH   1  22
TORSDOF 16
ENDMDL
