MODEL 1
REMARK VINA RESULT:     -10.8      0.000      0.000
REMARK SMILES O=C(NCCCNC(=O)c1ccccc1C(=O)Nc1ccc(Cl)cn1)c1ccc(-c2c3nc(c(-c4c(F)c(F)c(F)c(F)c4F)c4ccc([nH]4)c(-c4c(F)c(F)c(F)c(F)c4F)c4nc(c(-c5c(F)c(F)c(F)c(F)c5F)c5ccc2[nH]5)C=C4)C=C3)cc1
REMARK SMILES IDX 5 1 4 2 3 3 1 4 2 5 26 7 27 8 88 9 28 10 87 11 29 12 30 13
REMARK SMILES IDX 31 14 81 15 32 16 86 17 80 18 82 19 33 20 85 21 79 22 78 23
REMARK SMILES IDX 34 25 66 26 46 27 65 28 47 29 50 30 64 31 83 32 48 33 49 34
REMARK SMILES IDX 63 36 84 37 51 38 35 39 36 40 44 41 37 42 38 43 42 44 45 45
REMARK SMILES IDX 39 46 40 47 43 48 41 49 67 50 68 51 76 52 69 53 70 54 74 55
REMARK SMILES IDX 77 56 71 57 72 58 75 59 73 60 52 61 53 62 61 63 54 64 55 65
REMARK SMILES IDX 59 66 62 67 56 68 57 69 60 70 58 71 6 72 7 73 8 74 9 76
REMARK SMILES IDX 10 77 11 78 15 79 12 80 14 81 13 82 16 83 17 84 18 85 19 87
REMARK SMILES IDX 20 88 25 89 21 90 24 91 22 92 23 93
REMARK H PARENT 3 6 82 24 50 35 7 75 18 86
REMARK Flexibility Score: inf
ROOT
ATOM      1  C   UNL A   1      40.856  20.418  26.185  1.00  0.00     0.042 C 
ENDROOT
BRANCH   1   2
ATOM      2  C   UNL A   1      40.018  21.515  26.836  1.00  0.00     0.118 C 
BRANCH   2   3
ATOM      3  N   UNL A   1      38.983  22.064  25.971  1.00  0.00    -0.352 N 
ATOM      4  O   UNL A   1      37.578  23.672  25.191  1.00  0.00    -0.269 OA
ATOM      5  C   UNL A   1      38.528  23.362  25.900  1.00  0.00     0.251 C 
ATOM      6  H   UNL A   1      38.552  21.425  25.358  1.00  0.00     0.163 HD
BRANCH   5   7
ATOM      7  C   UNL A   1      39.198  24.382  26.731  1.00  0.00     0.039 A 
ATOM      8  C   UNL A   1      38.913  24.454  28.096  1.00  0.00     0.014 A 
ATOM      9  C   UNL A   1      40.028  25.327  26.126  1.00  0.00     0.014 A 
ATOM     10  C   UNL A   1      39.295  25.579  28.812  1.00  0.00     0.010 A 
ATOM     11  C   UNL A   1      40.501  26.406  26.878  1.00  0.00     0.010 A 
ATOM     12  C   UNL A   1      40.098  26.567  28.214  1.00  0.00    -0.014 A 
BRANCH  12  13
ATOM     13  C   UNL A   1      40.528  27.735  29.023  1.00  0.00     0.031 A 
ATOM     14  C   UNL A   1      41.936  27.856  29.539  1.00  0.00     0.074 A 
ATOM     15  C   UNL A   1      39.638  28.720  29.251  1.00  0.00     0.049 A 
ATOM     16  N   UNL A   1      42.471  28.811  30.260  1.00  0.00    -0.248 NA
ATOM     17  C   UNL A   1      42.866  26.765  29.212  1.00  0.00     0.031 C 
ATOM     18  C   UNL A   1      38.247  28.714  28.794  1.00  0.00     0.029 A 
ATOM     19  N   UNL A   1      39.770  29.922  29.896  1.00  0.00    -0.354 N 
ATOM     20  C   UNL A   1      43.785  28.427  30.492  1.00  0.00     0.074 A 
ATOM     21  C   UNL A   1      43.966  27.141  29.851  1.00  0.00     0.031 C 
ATOM     22  C   UNL A   1      37.670  29.879  29.121  1.00  0.00     0.029 A 
ATOM     23  C   UNL A   1      38.627  30.680  29.877  1.00  0.00     0.049 A 
ATOM     24  H   UNL A   1      40.605  30.213  30.330  1.00  0.00     0.167 HD
ATOM     25  C   UNL A   1      44.751  29.092  31.172  1.00  0.00     0.037 A 
ATOM     26  C   UNL A   1      38.364  31.879  30.426  1.00  0.00     0.037 A 
ATOM     27  C   UNL A   1      44.568  30.382  31.789  1.00  0.00     0.049 A 
ATOM     28  C   UNL A   1      39.444  32.577  31.199  1.00  0.00     0.074 A 
ATOM     29  C   UNL A   1      45.492  31.148  32.480  1.00  0.00     0.029 A 
ATOM     30  N   UNL A   1      43.380  31.099  31.786  1.00  0.00    -0.354 N 
ATOM     31  N   UNL A   1      40.683  32.203  31.407  1.00  0.00    -0.248 NA
ATOM     32  C   UNL A   1      39.086  33.856  31.822  1.00  0.00     0.031 C 
ATOM     33  C   UNL A   1      44.852  32.307  32.932  1.00  0.00     0.029 A 
ATOM     34  C   UNL A   1      43.543  32.288  32.482  1.00  0.00     0.049 A 
ATOM     35  H   UNL A   1      42.545  30.807  31.355  1.00  0.00     0.167 HD
ATOM     36  C   UNL A   1      41.257  33.205  32.174  1.00  0.00     0.074 A 
ATOM     37  C   UNL A   1      40.236  34.213  32.376  1.00  0.00     0.031 C 
ATOM     38  C   UNL A   1      42.515  33.280  32.673  1.00  0.00     0.037 A 
BRANCH  25  39
ATOM     39  C   UNL A   1      46.094  28.433  31.308  1.00  0.00     0.064 A 
ATOM     40  C   UNL A   1      46.309  27.371  32.198  1.00  0.00     0.173 A 
ATOM     41  C   UNL A   1      47.165  28.829  30.490  1.00  0.00     0.173 A 
ATOM     42  F   UNL A   1      45.322  26.960  33.008  1.00  0.00    -0.203 F 
ATOM     43  C   UNL A   1      47.549  26.742  32.278  1.00  0.00     0.198 A 
ATOM     44  C   UNL A   1      48.396  28.182  30.555  1.00  0.00     0.198 A 
ATOM     45  F   UNL A   1      47.012  29.834  29.616  1.00  0.00    -0.203 F 
ATOM     46  F   UNL A   1      47.741  25.752  33.162  1.00  0.00    -0.200 F 
ATOM     47  C   UNL A   1      48.589  27.142  31.452  1.00  0.00     0.200 A 
ATOM     48  F   UNL A   1      49.395  28.561  29.747  1.00  0.00    -0.200 F 
ATOM     49  F   UNL A   1      49.779  26.528  31.524  1.00  0.00    -0.200 F 
ENDBRANCH  25  39
BRANCH  26  50
ATOM     50  C   UNL A   1      37.016  32.480  30.266  1.00  0.00     0.064 A 
ATOM     51  C   UNL A   1      36.034  32.319  31.251  1.00  0.00     0.173 A 
ATOM     52  C   UNL A   1      36.694  33.252  29.139  1.00  0.00     0.173 A 
ATOM     53  F   UNL A   1      36.291  31.575  32.337  1.00  0.00    -0.203 F 
ATOM     54  C   UNL A   1      34.777  32.901  31.112  1.00  0.00     0.198 A 
ATOM     55  C   UNL A   1      35.447  33.858  29.015  1.00  0.00     0.198 A 
ATOM     56  F   UNL A   1      37.604  33.440  28.171  1.00  0.00    -0.203 F 
ATOM     57  F   UNL A   1      33.843  32.704  32.052  1.00  0.00    -0.200 F 
ATOM     58  C   UNL A   1      34.487  33.677  29.998  1.00  0.00     0.200 A 
ATOM     59  F   UNL A   1      35.179  34.623  27.948  1.00  0.00    -0.200 F 
ATOM     60  F   UNL A   1      33.282  34.247  29.872  1.00  0.00    -0.200 F 
ENDBRANCH  26  50
BRANCH  38  61
ATOM     61  C   UNL A   1      42.859  34.505  33.464  1.00  0.00     0.064 A 
ATOM     62  C   UNL A   1      42.780  34.520  34.865  1.00  0.00     0.173 A 
ATOM     63  C   UNL A   1      43.288  35.672  32.815  1.00  0.00     0.173 A 
ATOM     64  F   UNL A   1      42.357  33.434  35.528  1.00  0.00    -0.203 F 
ATOM     65  C   UNL A   1      43.095  35.668  35.585  1.00  0.00     0.198 A 
ATOM     66  C   UNL A   1      43.629  36.810  33.541  1.00  0.00     0.198 A 
ATOM     67  F   UNL A   1      43.383  35.707  31.478  1.00  0.00    -0.203 F 
ATOM     68  F   UNL A   1      42.965  35.677  36.920  1.00  0.00    -0.200 F 
ATOM     69  C   UNL A   1      43.525  36.810  34.924  1.00  0.00     0.200 A 
ATOM     70  F   UNL A   1      44.052  37.909  32.902  1.00  0.00    -0.200 F 
ATOM     71  F   UNL A   1      43.828  37.914  35.621  1.00  0.00    -0.200 F 
ENDBRANCH  38  61
ENDBRANCH  12  13
ENDBRANCH   5   7
ENDBRANCH   2   3
ENDBRANCH   1   2
BRANCH   1  72
ATOM     72  C   UNL A   1      42.322  20.787  26.050  1.00  0.00     0.118 C 
BRANCH  72  73
ATOM     73  N   UNL A   1      42.488  22.046  25.349  1.00  0.00    -0.352 N 
ATOM     74  C   UNL A   1      43.041  23.221  25.758  1.00  0.00     0.252 C 
ATOM     75  H   UNL A   1      42.144  22.053  24.427  1.00  0.00     0.163 HD
ATOM     76  O   UNL A   1      42.992  24.194  25.007  1.00  0.00    -0.269 OA
BRANCH  74  77
ATOM     77  C   UNL A   1      43.611  23.387  27.103  1.00  0.00     0.052 A 
ATOM     78  C   UNL A   1      42.696  23.042  28.123  1.00  0.00     0.014 A 
ATOM     79  C   UNL A   1      44.901  23.825  27.435  1.00  0.00     0.052 A 
ATOM     80  C   UNL A   1      43.074  23.044  29.461  1.00  0.00     0.001 A 
ATOM     81  C   UNL A   1      45.266  23.792  28.801  1.00  0.00     0.014 A 
ATOM     82  C   UNL A   1      44.370  23.398  29.799  1.00  0.00     0.001 A 
BRANCH  79  83
ATOM     83  C   UNL A   1      46.015  24.204  26.519  1.00  0.00     0.257 C 
ATOM     84  O   UNL A   1      46.772  23.296  26.160  1.00  0.00    -0.269 OA
ATOM     85  N   UNL A   1      46.217  25.430  25.950  1.00  0.00    -0.307 N 
ATOM     86  H   UNL A   1      46.894  25.411  25.235  1.00  0.00     0.171 HD
BRANCH  85  87
ATOM     87  C   UNL A   1      45.686  26.690  26.150  1.00  0.00     0.132 A 
ATOM     88  C   UNL A   1      46.334  27.693  26.852  1.00  0.00     0.049 A 
ATOM     89  N   UNL A   1      44.454  26.838  25.613  1.00  0.00    -0.238 NA
ATOM     90  C   UNL A   1      45.638  28.877  27.107  1.00  0.00     0.026 A 
ATOM     91  C   UNL A   1      43.792  27.983  25.902  1.00  0.00     0.134 A 
ATOM     92  C   UNL A   1      44.331  29.012  26.653  1.00  0.00     0.059 A 
ATOM     93  Cl  UNL A   1      43.404  30.405  27.027  1.00  0.00    -0.083 Cl
ENDBRANCH  85  87
ENDBRANCH  79  83
ENDBRANCH  74  77
ENDBRANCH  72  73
ENDBRANCH   1  72
TORSDOF 12
ENDMDL
MODEL 2
REMARK VINA RESULT:     -10.7      5.016     10.488
REMARK SMILES O=C(NCCCNC(=O)c1ccccc1C(=O)Nc1ccc(Cl)cn1)c1ccc(-c2c3nc(c(-c4c(F)c(F)c(F)c(F)c4F)c4ccc([nH]4)c(-c4c(F)c(F)c(F)c(F)c4F)c4nc(c(-c5c(F)c(F)c(F)c(F)c5F)c5ccc2[nH]5)C=C4)C=C3)cc1
REMARK SMILES IDX 5 1 4 2 3 3 1 4 2 5 26 7 27 8 88 9 28 10 87 11 29 12 30 13
REMARK SMILES IDX 31 14 81 15 32 16 86 17 80 18 82 19 33 20 85 21 79 22 78 23
REMARK SMILES IDX 34 25 66 26 46 27 65 28 47 29 50 30 64 31 83 32 48 33 49 34
REMARK SMILES IDX 63 36 84 37 51 38 35 39 36 40 44 41 37 42 38 43 42 44 45 45
REMARK SMILES IDX 39 46 40 47 43 48 41 49 67 50 68 51 76 52 69 53 70 54 74 55
REMARK SMILES IDX 77 56 71 57 72 58 75 59 73 60 52 61 53 62 61 63 54 64 55 65
REMARK SMILES IDX 59 66 62 67 56 68 57 69 60 70 58 71 6 72 7 73 8 74 9 76
REMARK SMILES IDX 10 77 11 78 15 79 12 80 14 81 13 82 16 83 17 84 18 85 19 87
REMARK SMILES IDX 20 88 25 89 21 90 24 91 22 92 23 93
REMARK H PARENT 3 6 82 24 50 35 7 75 18 86
REMARK Flexibility Score: inf
ROOT
ATOM      1  C   UNL A   1      31.799  31.733  26.682  1.00  0.00     0.042 C 
ENDROOT
BRANCH   1   2
ATOM      2  C   UNL A   1      32.914  32.581  27.288  1.00  0.00     0.118 C 
BRANCH   2   3
ATOM      3  N   UNL A   1      32.518  33.948  27.599  1.00  0.00    -0.352 N 
ATOM      4  O   UNL A   1      32.537  35.888  28.783  1.00  0.00    -0.269 OA
ATOM      5  C   UNL A   1      33.030  34.788  28.561  1.00  0.00     0.251 C 
ATOM      6  H   UNL A   1      31.791  34.319  27.049  1.00  0.00     0.163 HD
BRANCH   5   7
ATOM      7  C   UNL A   1      34.183  34.318  29.356  1.00  0.00     0.039 A 
ATOM      8  C   UNL A   1      35.480  34.556  28.897  1.00  0.00     0.014 A 
ATOM      9  C   UNL A   1      33.963  33.552  30.502  1.00  0.00     0.014 A 
ATOM     10  C   UNL A   1      36.540  33.866  29.466  1.00  0.00     0.010 A 
ATOM     11  C   UNL A   1      35.048  32.944  31.139  1.00  0.00     0.010 A 
ATOM     12  C   UNL A   1      36.339  33.055  30.598  1.00  0.00    -0.014 A 
BRANCH  12  13
ATOM     13  C   UNL A   1      37.504  32.370  31.212  1.00  0.00     0.031 A 
ATOM     14  C   UNL A   1      37.963  32.698  32.605  1.00  0.00     0.074 A 
ATOM     15  C   UNL A   1      38.122  31.402  30.507  1.00  0.00     0.049 A 
ATOM     16  N   UNL A   1      38.962  32.191  33.286  1.00  0.00    -0.248 NA
ATOM     17  C   UNL A   1      37.211  33.732  33.333  1.00  0.00     0.031 C 
ATOM     18  C   UNL A   1      37.760  30.993  29.148  1.00  0.00     0.029 A 
ATOM     19  N   UNL A   1      39.161  30.572  30.837  1.00  0.00    -0.354 N 
ATOM     20  C   UNL A   1      38.974  32.858  34.504  1.00  0.00     0.074 A 
ATOM     21  C   UNL A   1      37.894  33.821  34.467  1.00  0.00     0.031 C 
ATOM     22  C   UNL A   1      38.523  29.955  28.782  1.00  0.00     0.029 A 
ATOM     23  C   UNL A   1      39.478  29.675  29.848  1.00  0.00     0.049 A 
ATOM     24  H   UNL A   1      39.634  30.615  31.700  1.00  0.00     0.167 HD
ATOM     25  C   UNL A   1      39.808  32.675  35.557  1.00  0.00     0.037 A 
ATOM     26  C   UNL A   1      40.445  28.742  29.792  1.00  0.00     0.037 A 
ATOM     27  C   UNL A   1      40.869  31.699  35.594  1.00  0.00     0.049 A 
ATOM     28  C   UNL A   1      41.372  28.584  30.961  1.00  0.00     0.074 A 
ATOM     29  C   UNL A   1      41.752  31.422  36.623  1.00  0.00     0.029 A 
ATOM     30  N   UNL A   1      41.187  30.838  34.554  1.00  0.00    -0.354 N 
ATOM     31  N   UNL A   1      41.370  29.219  32.107  1.00  0.00    -0.248 NA
ATOM     32  C   UNL A   1      42.442  27.590  30.823  1.00  0.00     0.031 C 
ATOM     33  C   UNL A   1      42.631  30.423  36.191  1.00  0.00     0.029 A 
ATOM     34  C   UNL A   1      42.267  30.043  34.910  1.00  0.00     0.049 A 
ATOM     35  H   UNL A   1      40.717  30.797  33.691  1.00  0.00     0.167 HD
ATOM     36  C   UNL A   1      42.427  28.694  32.833  1.00  0.00     0.074 A 
ATOM     37  C   UNL A   1      43.036  27.673  32.005  1.00  0.00     0.031 C 
ATOM     38  C   UNL A   1      42.861  29.032  34.072  1.00  0.00     0.037 A 
BRANCH  25  39
ATOM     39  C   UNL A   1      39.628  33.560  36.757  1.00  0.00     0.064 A 
ATOM     40  C   UNL A   1      40.241  34.819  36.845  1.00  0.00     0.173 A 
ATOM     41  C   UNL A   1      38.780  33.170  37.806  1.00  0.00     0.173 A 
ATOM     42  F   UNL A   1      41.067  35.236  35.874  1.00  0.00    -0.203 F 
ATOM     43  C   UNL A   1      40.026  35.646  37.945  1.00  0.00     0.198 A 
ATOM     44  C   UNL A   1      38.548  34.010  38.892  1.00  0.00     0.198 A 
ATOM     45  F   UNL A   1      38.163  31.981  37.769  1.00  0.00    -0.203 F 
ATOM     46  F   UNL A   1      40.650  36.830  38.024  1.00  0.00    -0.200 F 
ATOM     47  C   UNL A   1      39.174  35.245  38.964  1.00  0.00     0.200 A 
ATOM     48  F   UNL A   1      37.714  33.626  39.869  1.00  0.00    -0.200 F 
ATOM     49  F   UNL A   1      38.961  36.047  40.017  1.00  0.00    -0.200 F 
ENDBRANCH  25  39
BRANCH  26  50
ATOM     50  C   UNL A   1      40.581  27.900  28.577  1.00  0.00     0.064 A 
ATOM     51  C   UNL A   1      39.914  26.673  28.474  1.00  0.00     0.173 A 
ATOM     52  C   UNL A   1      41.356  28.319  27.485  1.00  0.00     0.173 A 
ATOM     53  F   UNL A   1      39.176  26.223  29.500  1.00  0.00    -0.203 F 
ATOM     54  C   UNL A   1      40.023  25.892  27.326  1.00  0.00     0.198 A 
ATOM     55  C   UNL A   1      41.439  27.551  26.327  1.00  0.00     0.198 A 
ATOM     56  F   UNL A   1      42.009  29.489  27.534  1.00  0.00    -0.203 F 
ATOM     57  F   UNL A   1      39.402  24.706  27.264  1.00  0.00    -0.200 F 
ATOM     58  C   UNL A   1      40.778  26.336  26.250  1.00  0.00     0.200 A 
ATOM     59  F   UNL A   1      42.154  27.993  25.283  1.00  0.00    -0.200 F 
ATOM     60  F   UNL A   1      40.871  25.590  25.141  1.00  0.00    -0.200 F 
ENDBRANCH  26  50
BRANCH  38  61
ATOM     61  C   UNL A   1      44.034  28.272  34.611  1.00  0.00     0.064 A 
ATOM     62  C   UNL A   1      45.347  28.739  34.451  1.00  0.00     0.173 A 
ATOM     63  C   UNL A   1      43.842  27.072  35.311  1.00  0.00     0.173 A 
ATOM     64  F   UNL A   1      45.582  29.872  33.772  1.00  0.00    -0.203 F 
ATOM     65  C   UNL A   1      46.427  28.018  34.950  1.00  0.00     0.198 A 
ATOM     66  C   UNL A   1      44.924  26.368  35.833  1.00  0.00     0.198 A 
ATOM     67  F   UNL A   1      42.606  26.586  35.494  1.00  0.00    -0.203 F 
ATOM     68  F   UNL A   1      47.677  28.457  34.742  1.00  0.00    -0.200 F 
ATOM     69  C   UNL A   1      46.215  26.837  35.645  1.00  0.00     0.200 A 
ATOM     70  F   UNL A   1      44.716  25.231  36.512  1.00  0.00    -0.200 F 
ATOM     71  F   UNL A   1      47.257  26.145  36.125  1.00  0.00    -0.200 F 
ENDBRANCH  38  61
ENDBRANCH  12  13
ENDBRANCH   5   7
ENDBRANCH   2   3
ENDBRANCH   1   2
BRANCH   1  72
ATOM     72  C   UNL A   1      32.016  30.241  26.863  1.00  0.00     0.118 C 
BRANCH  72  73
ATOM     73  N   UNL A   1      33.072  29.752  25.998  1.00  0.00    -0.352 N 
ATOM     74  C   UNL A   1      33.019  28.921  24.921  1.00  0.00     0.252 C 
ATOM     75  H   UNL A   1      33.974  30.072  26.226  1.00  0.00     0.163 HD
ATOM     76  O   UNL A   1      34.072  28.573  24.387  1.00  0.00    -0.269 OA
BRANCH  74  77
ATOM     77  C   UNL A   1      31.752  28.353  24.435  1.00  0.00     0.052 A 
ATOM     78  C   UNL A   1      31.293  28.987  23.259  1.00  0.00     0.014 A 
ATOM     79  C   UNL A   1      31.015  27.303  25.001  1.00  0.00     0.052 A 
ATOM     80  C   UNL A   1      30.161  28.535  22.592  1.00  0.00     0.001 A 
ATOM     81  C   UNL A   1      29.882  26.847  24.288  1.00  0.00     0.014 A 
ATOM     82  C   UNL A   1      29.466  27.447  23.096  1.00  0.00     0.001 A 
BRANCH  79  83
ATOM     83  C   UNL A   1      31.338  26.490  26.209  1.00  0.00     0.257 C 
ATOM     84  O   UNL A   1      30.739  26.781  27.251  1.00  0.00    -0.269 OA
ATOM     85  N   UNL A   1      32.143  25.387  26.255  1.00  0.00    -0.307 N 
ATOM     86  H   UNL A   1      32.067  24.895  27.105  1.00  0.00     0.171 HD
BRANCH  85  87
ATOM     87  C   UNL A   1      33.039  24.806  25.378  1.00  0.00     0.132 A 
ATOM     88  C   UNL A   1      32.662  23.965  24.342  1.00  0.00     0.049 A 
ATOM     89  N   UNL A   1      34.325  25.119  25.648  1.00  0.00    -0.238 NA
ATOM     90  C   UNL A   1      33.668  23.329  23.609  1.00  0.00     0.026 A 
ATOM     91  C   UNL A   1      35.278  24.465  24.943  1.00  0.00     0.134 A 
ATOM     92  C   UNL A   1      34.999  23.556  23.938  1.00  0.00     0.059 A 
ATOM     93  Cl  UNL A   1      36.262  22.722  23.132  1.00  0.00    -0.083 Cl
ENDBRANCH  85  87
ENDBRANCH  79  83
ENDBRANCH  74  77
ENDBRANCH  72  73
ENDBRANCH   1  72
TORSDOF 12
ENDMDL
MODEL 3
REMARK VINA RESULT:     -10.7      5.051      9.839
REMARK SMILES O=C(NCCCNC(=O)c1ccccc1C(=O)Nc1ccc(Cl)cn1)c1ccc(-c2c3nc(c(-c4c(F)c(F)c(F)c(F)c4F)c4ccc([nH]4)c(-c4c(F)c(F)c(F)c(F)c4F)c4nc(c(-c5c(F)c(F)c(F)c(F)c5F)c5ccc2[nH]5)C=C4)C=C3)cc1
REMARK SMILES IDX 5 1 4 2 3 3 1 4 2 5 26 7 27 8 88 9 28 10 87 11 29 12 30 13
REMARK SMILES IDX 31 14 81 15 32 16 86 17 80 18 82 19 33 20 85 21 79 22 78 23
REMARK SMILES IDX 34 25 66 26 46 27 65 28 47 29 50 30 64 31 83 32 48 33 49 34
REMARK SMILES IDX 63 36 84 37 51 38 35 39 36 40 44 41 37 42 38 43 42 44 45 45
REMARK SMILES IDX 39 46 40 47 43 48 41 49 67 50 68 51 76 52 69 53 70 54 74 55
REMARK SMILES IDX 77 56 71 57 72 58 75 59 73 60 52 61 53 62 61 63 54 64 55 65
REMARK SMILES IDX 59 66 62 67 56 68 57 69 60 70 58 71 6 72 7 73 8 74 9 76
REMARK SMILES IDX 10 77 11 78 15 79 12 80 14 81 13 82 16 83 17 84 18 85 19 87
REMARK SMILES IDX 20 88 25 89 21 90 24 91 22 92 23 93
REMARK H PARENT 3 6 82 24 50 35 7 75 18 86
REMARK Flexibility Score: inf
ROOT
ATOM      1  C   UNL A   1      31.726  31.986  26.622  1.00  0.00     0.042 C 
ENDROOT
BRANCH   1   2
ATOM      2  C   UNL A   1      32.803  32.772  27.365  1.00  0.00     0.118 C 
BRANCH   2   3
ATOM      3  N   UNL A   1      32.435  34.150  27.661  1.00  0.00    -0.352 N 
ATOM      4  O   UNL A   1      32.496  36.103  28.821  1.00  0.00    -0.269 OA
ATOM      5  C   UNL A   1      32.968  34.992  28.611  1.00  0.00     0.251 C 
ATOM      6  H   UNL A   1      31.712  34.528  27.110  1.00  0.00     0.163 HD
BRANCH   5   7
ATOM      7  C   UNL A   1      34.115  34.510  29.406  1.00  0.00     0.039 A 
ATOM      8  C   UNL A   1      35.407  34.620  28.888  1.00  0.00     0.014 A 
ATOM      9  C   UNL A   1      33.887  33.857  30.619  1.00  0.00     0.014 A 
ATOM     10  C   UNL A   1      36.439  33.907  29.481  1.00  0.00     0.010 A 
ATOM     11  C   UNL A   1      34.952  33.229  31.270  1.00  0.00     0.010 A 
ATOM     12  C   UNL A   1      36.226  33.207  30.682  1.00  0.00    -0.014 A 
BRANCH  12  13
ATOM     13  C   UNL A   1      37.366  32.495  31.314  1.00  0.00     0.031 A 
ATOM     14  C   UNL A   1      38.115  31.413  30.587  1.00  0.00     0.074 A 
ATOM     15  C   UNL A   1      37.751  32.872  32.548  1.00  0.00     0.049 A 
ATOM     16  N   UNL A   1      39.131  30.694  30.999  1.00  0.00    -0.248 NA
ATOM     17  C   UNL A   1      37.667  31.085  29.225  1.00  0.00     0.031 C 
ATOM     18  C   UNL A   1      37.104  33.915  33.346  1.00  0.00     0.029 A 
ATOM     19  N   UNL A   1      38.789  32.447  33.336  1.00  0.00    -0.354 N 
ATOM     20  C   UNL A   1      39.427  29.818  29.962  1.00  0.00     0.074 A 
ATOM     21  C   UNL A   1      38.472  30.079  28.906  1.00  0.00     0.031 C 
ATOM     22  C   UNL A   1      37.790  34.089  34.484  1.00  0.00     0.029 A 
ATOM     23  C   UNL A   1      38.879  33.119  34.529  1.00  0.00     0.049 A 
ATOM     24  H   UNL A   1      39.409  31.730  33.072  1.00  0.00     0.167 HD
ATOM     25  C   UNL A   1      40.410  28.887  29.898  1.00  0.00     0.037 A 
ATOM     26  C   UNL A   1      39.728  32.961  35.560  1.00  0.00     0.037 A 
ATOM     27  C   UNL A   1      41.370  28.647  30.947  1.00  0.00     0.049 A 
ATOM     28  C   UNL A   1      40.786  31.901  35.473  1.00  0.00     0.074 A 
ATOM     29  C   UNL A   1      42.418  27.743  30.968  1.00  0.00     0.029 A 
ATOM     30  N   UNL A   1      41.401  29.319  32.160  1.00  0.00    -0.354 N 
ATOM     31  N   UNL A   1      41.056  31.083  34.486  1.00  0.00    -0.248 NA
ATOM     32  C   UNL A   1      41.649  31.736  36.648  1.00  0.00     0.031 C 
ATOM     33  C   UNL A   1      43.056  27.838  32.209  1.00  0.00     0.029 A 
ATOM     34  C   UNL A   1      42.437  28.834  32.944  1.00  0.00     0.049 A 
ATOM     35  H   UNL A   1      40.779  30.034  32.425  1.00  0.00     0.167 HD
ATOM     36  C   UNL A   1      42.127  30.314  34.913  1.00  0.00     0.074 A 
ATOM     37  C   UNL A   1      42.471  30.779  36.241  1.00  0.00     0.031 C 
ATOM     38  C   UNL A   1      42.764  29.308  34.266  1.00  0.00     0.037 A 
BRANCH  25  39
ATOM     39  C   UNL A   1      40.493  28.037  28.663  1.00  0.00     0.064 A 
ATOM     40  C   UNL A   1      41.263  28.418  27.555  1.00  0.00     0.173 A 
ATOM     41  C   UNL A   1      39.842  26.793  28.613  1.00  0.00     0.173 A 
ATOM     42  F   UNL A   1      41.897  29.599  27.548  1.00  0.00    -0.203 F 
ATOM     43  C   UNL A   1      41.365  27.595  26.436  1.00  0.00     0.198 A 
ATOM     44  C   UNL A   1      39.967  25.962  27.502  1.00  0.00     0.198 A 
ATOM     45  F   UNL A   1      39.099  26.376  29.648  1.00  0.00    -0.203 F 
ATOM     46  F   UNL A   1      42.079  27.995  25.373  1.00  0.00    -0.200 F 
ATOM     47  C   UNL A   1      40.724  26.365  26.412  1.00  0.00     0.200 A 
ATOM     48  F   UNL A   1      39.357  24.768  27.488  1.00  0.00    -0.200 F 
ATOM     49  F   UNL A   1      40.832  25.570  25.338  1.00  0.00    -0.200 F 
ENDBRANCH  25  39
BRANCH  26  50
ATOM     50  C   UNL A   1      39.595  33.826  36.759  1.00  0.00     0.064 A 
ATOM     51  C   UNL A   1      40.197  35.089  36.806  1.00  0.00     0.173 A 
ATOM     52  C   UNL A   1      38.838  33.419  37.868  1.00  0.00     0.173 A 
ATOM     53  F   UNL A   1      40.944  35.513  35.776  1.00  0.00    -0.203 F 
ATOM     54  C   UNL A   1      40.055  35.910  37.921  1.00  0.00     0.198 A 
ATOM     55  C   UNL A   1      38.672  34.253  38.970  1.00  0.00     0.198 A 
ATOM     56  F   UNL A   1      38.237  32.219  37.868  1.00  0.00    -0.203 F 
ATOM     57  F   UNL A   1      40.669  37.101  37.956  1.00  0.00    -0.200 F 
ATOM     58  C   UNL A   1      39.285  35.496  38.999  1.00  0.00     0.200 A 
ATOM     59  F   UNL A   1      37.911  33.856  39.999  1.00  0.00    -0.200 F 
ATOM     60  F   UNL A   1      39.138  36.292  40.066  1.00  0.00    -0.200 F 
ENDBRANCH  26  50
BRANCH  38  61
ATOM     61  C   UNL A   1      43.912  28.661  34.980  1.00  0.00     0.064 A 
ATOM     62  C   UNL A   1      43.727  27.537  35.798  1.00  0.00     0.173 A 
ATOM     63  C   UNL A   1      45.214  29.162  34.831  1.00  0.00     0.173 A 
ATOM     64  F   UNL A   1      42.497  27.035  35.987  1.00  0.00    -0.203 F 
ATOM     65  C   UNL A   1      44.801  26.953  36.462  1.00  0.00     0.198 A 
ATOM     66  C   UNL A   1      46.290  28.557  35.475  1.00  0.00     0.198 A 
ATOM     67  F   UNL A   1      45.443  30.232  34.056  1.00  0.00    -0.203 F 
ATOM     68  F   UNL A   1      44.595  25.910  37.279  1.00  0.00    -0.200 F 
ATOM     69  C   UNL A   1      46.082  27.459  36.295  1.00  0.00     0.200 A 
ATOM     70  F   UNL A   1      47.528  29.041  35.305  1.00  0.00    -0.200 F 
ATOM     71  F   UNL A   1      47.115  26.893  36.935  1.00  0.00    -0.200 F 
ENDBRANCH  38  61
ENDBRANCH  12  13
ENDBRANCH   5   7
ENDBRANCH   2   3
ENDBRANCH   1   2
BRANCH   1  72
ATOM     72  C   UNL A   1      31.882  30.482  26.758  1.00  0.00     0.118 C 
BRANCH  72  73
ATOM     73  N   UNL A   1      32.989  29.991  25.960  1.00  0.00    -0.352 N 
ATOM     74  C   UNL A   1      33.007  29.122  24.913  1.00  0.00     0.252 C 
ATOM     75  H   UNL A   1      33.871  30.342  26.218  1.00  0.00     0.163 HD
ATOM     76  O   UNL A   1      34.092  28.784  24.440  1.00  0.00    -0.269 OA
BRANCH  74  77
ATOM     77  C   UNL A   1      31.779  28.504  24.390  1.00  0.00     0.052 A 
ATOM     78  C   UNL A   1      31.325  29.126  23.205  1.00  0.00     0.014 A 
ATOM     79  C   UNL A   1      31.072  27.421  24.930  1.00  0.00     0.052 A 
ATOM     80  C   UNL A   1      30.231  28.631  22.505  1.00  0.00     0.001 A 
ATOM     81  C   UNL A   1      29.979  26.922  24.185  1.00  0.00     0.014 A 
ATOM     82  C   UNL A   1      29.570  27.511  22.985  1.00  0.00     0.001 A 
BRANCH  79  83
ATOM     83  C   UNL A   1      31.396  26.614  26.142  1.00  0.00     0.257 C 
ATOM     84  O   UNL A   1      30.790  26.903  27.180  1.00  0.00    -0.269 OA
ATOM     85  N   UNL A   1      32.212  25.519  26.195  1.00  0.00    -0.307 N 
ATOM     86  H   UNL A   1      32.137  25.029  27.046  1.00  0.00     0.171 HD
BRANCH  85  87
ATOM     87  C   UNL A   1      33.117  24.943  25.323  1.00  0.00     0.132 A 
ATOM     88  C   UNL A   1      32.747  24.246  24.184  1.00  0.00     0.049 A 
ATOM     89  N   UNL A   1      34.402  25.106  25.709  1.00  0.00    -0.238 NA
ATOM     90  C   UNL A   1      33.745  23.592  23.457  1.00  0.00     0.026 A 
ATOM     91  C   UNL A   1      35.344  24.435  25.004  1.00  0.00     0.134 A 
ATOM     92  C   UNL A   1      35.063  23.659  23.894  1.00  0.00     0.059 A 
ATOM     93  Cl  UNL A   1      36.305  22.791  23.092  1.00  0.00    -0.083 Cl
ENDBRANCH  85  87
ENDBRANCH  79  83
ENDBRANCH  74  77
ENDBRANCH  72  73
ENDBRANCH   1  72
TORSDOF 12
ENDMDL
