MODEL 1
REMARK VINA RESULT:     -13.0      0.000      0.000
REMARK SMILES CCC[NH+]1CCN(c2cc(C(=O)NCCCNC(=O)c3ccc(-c4c5nc(c(-c6c(F)c(F)c(F)c(F)c6F)c6ccc([nH]6)c(-c6c(F)c(F)c(F)c(F)c6F)c6nc(c(-c7c(F)c(F)c(F)c(F)c7F)c7ccc4[nH]7)C=C6)C=C5)cc3)c3cc(NC(=O)c4ccc(F)cc4)ccc3n2)CC1
REMARK SMILES IDX 14 1 13 2 11 3 12 4 10 6 8 7 9 8 99 9 98 10 83 11 97 12
REMARK SMILES IDX 84 13 96 14 85 15 7 16 4 17 5 18 101 19 6 21 100 22 3 23
REMARK SMILES IDX 2 24 1 25 86 26 87 27 88 29 89 30 90 31 95 32 91 33 94 34
REMARK SMILES IDX 92 35 93 36 15 37 16 38 17 39 18 40 19 42 20 43 21 44 82 45
REMARK SMILES IDX 22 46 81 47 23 48 24 49 25 50 75 51 26 52 80 53 74 54 76 55
REMARK SMILES IDX 27 56 79 57 73 58 72 59 28 61 60 62 40 63 59 64 41 65 44 66
REMARK SMILES IDX 58 67 77 68 42 69 43 70 57 72 78 73 45 74 29 75 30 76 38 77
REMARK SMILES IDX 31 78 32 79 36 80 39 81 33 82 34 83 37 84 35 85 61 86 62 87
REMARK SMILES IDX 70 88 63 89 64 90 68 91 71 92 65 93 66 94 69 95 67 96 46 97
REMARK SMILES IDX 47 98 55 99 48 100 49 101 53 102 56 103 50 104 51 105 54 106
REMARK SMILES IDX 52 107
REMARK H PARENT 13 5 4 20 86 28 17 41 76 60 44 71
REMARK Flexibility Score: inf
ROOT
ATOM      1  C   UNL A   1      31.778  30.091  27.108  1.00  0.00     0.118 C 
ENDROOT
BRANCH   1   2
ATOM      2  N   UNL A   1      32.973  29.308  26.889  1.00  0.00    -0.352 N 
ATOM      3  C   UNL A   1      33.264  28.355  25.932  1.00  0.00     0.252 C 
ATOM      4  O   UNL A   1      34.460  28.067  25.814  1.00  0.00    -0.269 OA
ATOM      5  H   UNL A   1      33.701  29.484  27.528  1.00  0.00     0.163 HD
BRANCH   3   6
ATOM      6  C   UNL A   1      32.276  27.580  25.094  1.00  0.00     0.052 A 
ATOM      7  C   UNL A   1      30.513  27.852  23.454  1.00  0.00     0.130 A 
ATOM      8  C   UNL A   1      31.521  28.389  24.245  1.00  0.00     0.061 A 
ATOM      9  N   UNL A   1      30.258  26.533  23.438  1.00  0.00    -0.231 NA
ATOM     10  C   UNL A   1      30.948  25.726  24.251  1.00  0.00     0.074 A 
ATOM     11  C   UNL A   1      31.926  26.213  25.135  1.00  0.00     0.015 A 
ATOM     12  C   UNL A   1      30.646  24.362  24.257  1.00  0.00     0.031 A 
ATOM     13  C   UNL A   1      32.401  25.313  26.085  1.00  0.00     0.037 A 
ATOM     14  C   UNL A   1      31.185  23.479  25.204  1.00  0.00     0.028 A 
ATOM     15  C   UNL A   1      31.999  23.990  26.196  1.00  0.00     0.042 A 
BRANCH   7  16
ATOM     16  N   UNL A   1      29.765  28.687  22.660  1.00  0.00    -0.345 N 
ATOM     17  N   UNL A   1      28.094  31.059  22.284  1.00  0.00    -0.332 N 
ATOM     18  C   UNL A   1      27.684  29.910  23.124  1.00  0.00     0.284 C 
ATOM     19  C   UNL A   1      29.574  31.162  22.372  1.00  0.00     0.284 C 
ATOM     20  H   UNL A   1      27.645  31.908  22.629  1.00  0.00     0.348 HD
ATOM     21  C   UNL A   1      28.311  28.565  22.707  1.00  0.00     0.179 C 
ATOM     22  C   UNL A   1      30.360  29.872  22.040  1.00  0.00     0.179 C 
BRANCH  17  23
ATOM     23  C   UNL A   1      27.652  30.929  20.884  1.00  0.00     0.262 C 
BRANCH  23  24
ATOM     24  C   UNL A   1      28.068  32.106  19.988  1.00  0.00     0.058 C 
ATOM     25  C   UNL A   1      27.626  33.452  20.540  1.00  0.00     0.010 C 
ENDBRANCH  23  24
ENDBRANCH  17  23
ENDBRANCH   7  16
BRANCH  15  26
ATOM     26  N   UNL A   1      32.382  23.206  27.296  1.00  0.00    -0.322 N 
ATOM     27  C   UNL A   1      33.419  22.289  27.430  1.00  0.00     0.255 C 
ATOM     28  H   UNL A   1      31.829  23.324  28.102  1.00  0.00     0.170 HD
ATOM     29  O   UNL A   1      33.376  21.479  28.355  1.00  0.00    -0.269 OA
BRANCH  27  30
ATOM     30  C   UNL A   1      34.594  22.253  26.490  1.00  0.00     0.040 A 
ATOM     31  C   UNL A   1      34.747  21.125  25.678  1.00  0.00     0.017 A 
ATOM     32  C   UNL A   1      35.485  23.325  26.321  1.00  0.00     0.017 A 
ATOM     33  C   UNL A   1      35.674  21.121  24.628  1.00  0.00     0.040 A 
ATOM     34  C   UNL A   1      36.362  23.350  25.228  1.00  0.00     0.040 A 
ATOM     35  C   UNL A   1      36.433  22.255  24.378  1.00  0.00     0.123 A 
ATOM     36  F   UNL A   1      37.234  22.292  23.306  1.00  0.00    -0.207 F 
ENDBRANCH  27  30
ENDBRANCH  15  26
ENDBRANCH   3   6
ENDBRANCH   1   2
BRANCH   1  37
ATOM     37  C   UNL A   1      31.764  31.551  26.712  1.00  0.00     0.042 C 
BRANCH  37  38
ATOM     38  C   UNL A   1      32.932  32.390  27.215  1.00  0.00     0.118 C 
BRANCH  38  39
ATOM     39  N   UNL A   1      32.611  33.762  27.627  1.00  0.00    -0.352 N 
ATOM     40  C   UNL A   1      33.117  34.603  28.594  1.00  0.00     0.251 C 
ATOM     41  H   UNL A   1      31.883  34.166  27.101  1.00  0.00     0.163 HD
ATOM     42  O   UNL A   1      32.675  35.744  28.743  1.00  0.00    -0.269 OA
BRANCH  40  43
ATOM     43  C   UNL A   1      34.216  34.162  29.451  1.00  0.00     0.039 A 
ATOM     44  C   UNL A   1      34.002  33.359  30.578  1.00  0.00     0.014 A 
ATOM     45  C   UNL A   1      35.492  34.580  29.107  1.00  0.00     0.014 A 
ATOM     46  C   UNL A   1      35.104  32.895  31.299  1.00  0.00     0.010 A 
ATOM     47  C   UNL A   1      36.573  33.975  29.694  1.00  0.00     0.010 A 
ATOM     48  C   UNL A   1      36.393  33.165  30.823  1.00  0.00    -0.014 A 
BRANCH  48  49
ATOM     49  C   UNL A   1      37.633  32.691  31.469  1.00  0.00     0.031 A 
ATOM     50  C   UNL A   1      38.381  31.566  30.807  1.00  0.00     0.074 A 
ATOM     51  C   UNL A   1      37.913  33.100  32.716  1.00  0.00     0.049 A 
ATOM     52  N   UNL A   1      39.274  30.755  31.305  1.00  0.00    -0.248 NA
ATOM     53  C   UNL A   1      37.979  31.241  29.424  1.00  0.00     0.031 C 
ATOM     54  C   UNL A   1      37.166  34.114  33.465  1.00  0.00     0.029 A 
ATOM     55  N   UNL A   1      38.872  32.676  33.594  1.00  0.00    -0.354 N 
ATOM     56  C   UNL A   1      39.486  29.795  30.322  1.00  0.00     0.074 A 
ATOM     57  C   UNL A   1      38.560  30.066  29.249  1.00  0.00     0.031 C 
ATOM     58  C   UNL A   1      37.707  34.245  34.686  1.00  0.00     0.029 A 
ATOM     59  C   UNL A   1      38.802  33.293  34.817  1.00  0.00     0.049 A 
ATOM     60  H   UNL A   1      39.545  31.993  33.370  1.00  0.00     0.167 HD
ATOM     61  C   UNL A   1      40.402  28.799  30.311  1.00  0.00     0.037 A 
ATOM     62  C   UNL A   1      39.544  33.095  35.921  1.00  0.00     0.037 A 
ATOM     63  C   UNL A   1      41.342  28.609  31.382  1.00  0.00     0.049 A 
ATOM     64  C   UNL A   1      40.627  32.054  35.857  1.00  0.00     0.074 A 
ATOM     65  C   UNL A   1      42.400  27.727  31.465  1.00  0.00     0.029 A 
ATOM     66  N   UNL A   1      41.331  29.341  32.566  1.00  0.00    -0.354 N 
ATOM     67  N   UNL A   1      40.898  31.205  34.892  1.00  0.00    -0.248 NA
ATOM     68  C   UNL A   1      41.515  31.953  37.018  1.00  0.00     0.031 C 
ATOM     69  C   UNL A   1      43.001  27.892  32.719  1.00  0.00     0.029 A 
ATOM     70  C   UNL A   1      42.354  28.919  33.394  1.00  0.00     0.049 A 
ATOM     71  H   UNL A   1      40.689  30.055  32.782  1.00  0.00     0.167 HD
ATOM     72  C   UNL A   1      42.000  30.480  35.316  1.00  0.00     0.074 A 
ATOM     73  C   UNL A   1      42.357  31.007  36.623  1.00  0.00     0.031 C 
ATOM     74  C   UNL A   1      42.662  29.473  34.692  1.00  0.00     0.037 A 
BRANCH  61  75
ATOM     75  C   UNL A   1      40.422  27.881  29.118  1.00  0.00     0.064 A 
ATOM     76  C   UNL A   1      41.167  28.175  27.961  1.00  0.00     0.173 A 
ATOM     77  C   UNL A   1      39.657  26.703  29.109  1.00  0.00     0.173 A 
ATOM     78  F   UNL A   1      41.912  29.289  27.903  1.00  0.00    -0.203 F 
ATOM     79  C   UNL A   1      41.093  27.368  26.828  1.00  0.00     0.198 A 
ATOM     80  C   UNL A   1      39.623  25.874  27.989  1.00  0.00     0.198 A 
ATOM     81  F   UNL A   1      38.928  26.360  30.182  1.00  0.00    -0.203 F 
ATOM     82  F   UNL A   1      41.740  27.727  25.710  1.00  0.00    -0.200 F 
ATOM     83  C   UNL A   1      40.325  26.216  26.843  1.00  0.00     0.200 A 
ATOM     84  F   UNL A   1      38.891  24.751  28.011  1.00  0.00    -0.200 F 
ATOM     85  F   UNL A   1      40.249  25.444  25.751  1.00  0.00    -0.200 F 
ENDBRANCH  61  75
BRANCH  62  86
ATOM     86  C   UNL A   1      39.322  33.952  37.113  1.00  0.00     0.064 A 
ATOM     87  C   UNL A   1      38.633  33.456  38.228  1.00  0.00     0.173 A 
ATOM     88  C   UNL A   1      39.871  35.240  37.207  1.00  0.00     0.173 A 
ATOM     89  F   UNL A   1      38.088  32.232  38.187  1.00  0.00    -0.203 F 
ATOM     90  C   UNL A   1      38.496  34.216  39.389  1.00  0.00     0.198 A 
ATOM     91  C   UNL A   1      39.755  35.989  38.376  1.00  0.00     0.198 A 
ATOM     92  F   UNL A   1      40.560  35.753  36.176  1.00  0.00    -0.203 F 
ATOM     93  F   UNL A   1      37.819  33.722  40.433  1.00  0.00    -0.200 F 
ATOM     94  C   UNL A   1      39.066  35.478  39.466  1.00  0.00     0.200 A 
ATOM     95  F   UNL A   1      40.330  37.197  38.456  1.00  0.00    -0.200 F 
ATOM     96  F   UNL A   1      38.957  36.198  40.591  1.00  0.00    -0.200 F 
ENDBRANCH  62  86
BRANCH  74  97
ATOM     97  C   UNL A   1      43.845  28.898  35.411  1.00  0.00     0.064 A 
ATOM     98  C   UNL A   1      45.132  29.432  35.252  1.00  0.00     0.173 A 
ATOM     99  C   UNL A   1      43.676  27.832  36.307  1.00  0.00     0.173 A 
ATOM    100  F   UNL A   1      45.341  30.443  34.395  1.00  0.00    -0.203 F 
ATOM    101  C   UNL A   1      46.213  28.899  35.943  1.00  0.00     0.198 A 
ATOM    102  C   UNL A   1      44.754  27.327  37.025  1.00  0.00     0.198 A 
ATOM    103  F   UNL A   1      42.461  27.295  36.500  1.00  0.00    -0.203 F 
ATOM    104  F   UNL A   1      47.443  29.388  35.737  1.00  0.00    -0.200 F 
ATOM    105  C   UNL A   1      46.022  27.854  36.836  1.00  0.00     0.200 A 
ATOM    106  F   UNL A   1      44.565  26.330  37.900  1.00  0.00    -0.200 F 
ATOM    107  F   UNL A   1      47.064  27.349  37.510  1.00  0.00    -0.200 F 
ENDBRANCH  74  97
ENDBRANCH  48  49
ENDBRANCH  40  43
ENDBRANCH  38  39
ENDBRANCH  37  38
ENDBRANCH   1  37
TORSDOF 15
ENDMDL
MODEL 2
REMARK VINA RESULT:     -12.5      5.498     10.655
REMARK SMILES CCC[NH+]1CCN(c2cc(C(=O)NCCCNC(=O)c3ccc(-c4c5nc(c(-c6c(F)c(F)c(F)c(F)c6F)c6ccc([nH]6)c(-c6c(F)c(F)c(F)c(F)c6F)c6nc(c(-c7c(F)c(F)c(F)c(F)c7F)c7ccc4[nH]7)C=C6)C=C5)cc3)c3cc(NC(=O)c4ccc(F)cc4)ccc3n2)CC1
REMARK SMILES IDX 14 1 13 2 11 3 12 4 10 6 8 7 9 8 99 9 98 10 83 11 97 12
REMARK SMILES IDX 84 13 96 14 85 15 7 16 4 17 5 18 101 19 6 21 100 22 3 23
REMARK SMILES IDX 2 24 1 25 86 26 87 27 88 29 89 30 90 31 95 32 91 33 94 34
REMARK SMILES IDX 92 35 93 36 15 37 16 38 17 39 18 40 19 42 20 43 21 44 82 45
REMARK SMILES IDX 22 46 81 47 23 48 24 49 25 50 75 51 26 52 80 53 74 54 76 55
REMARK SMILES IDX 27 56 79 57 73 58 72 59 28 61 60 62 40 63 59 64 41 65 44 66
REMARK SMILES IDX 58 67 77 68 42 69 43 70 57 72 78 73 45 74 29 75 30 76 38 77
REMARK SMILES IDX 31 78 32 79 36 80 39 81 33 82 34 83 37 84 35 85 61 86 62 87
REMARK SMILES IDX 70 88 63 89 64 90 68 91 71 92 65 93 66 94 69 95 67 96 46 97
REMARK SMILES IDX 47 98 55 99 48 100 49 101 53 102 56 103 50 104 51 105 54 106
REMARK SMILES IDX 52 107
REMARK H PARENT 13 5 4 20 86 28 17 41 76 60 44 71
REMARK Flexibility Score: inf
ROOT
ATOM      1  C   UNL A   1      37.565  34.558  32.424  1.00  0.00     0.118 C 
ENDROOT
BRANCH   1   2
ATOM      2  N   UNL A   1      38.636  34.545  31.453  1.00  0.00    -0.352 N 
ATOM      3  C   UNL A   1      38.707  33.974  30.197  1.00  0.00     0.252 C 
ATOM      4  O   UNL A   1      39.635  34.370  29.484  1.00  0.00    -0.269 OA
ATOM      5  H   UNL A   1      39.450  35.022  31.734  1.00  0.00     0.163 HD
BRANCH   3   6
ATOM      6  C   UNL A   1      37.834  32.870  29.651  1.00  0.00     0.052 A 
ATOM      7  C   UNL A   1      37.877  30.552  28.949  1.00  0.00     0.130 A 
ATOM      8  C   UNL A   1      38.507  31.657  29.506  1.00  0.00     0.061 A 
ATOM      9  N   UNL A   1      36.587  30.591  28.574  1.00  0.00    -0.231 NA
ATOM     10  C   UNL A   1      35.913  31.740  28.680  1.00  0.00     0.074 A 
ATOM     11  C   UNL A   1      36.512  32.918  29.160  1.00  0.00     0.015 A 
ATOM     12  C   UNL A   1      34.585  31.782  28.247  1.00  0.00     0.031 A 
ATOM     13  C   UNL A   1      35.778  34.091  29.001  1.00  0.00     0.037 A 
ATOM     14  C   UNL A   1      33.865  32.982  28.148  1.00  0.00     0.028 A 
ATOM     15  C   UNL A   1      34.513  34.166  28.437  1.00  0.00     0.042 A 
BRANCH   7  16
ATOM     16  N   UNL A   1      38.583  29.385  28.788  1.00  0.00    -0.345 N 
ATOM     17  N   UNL A   1      40.973  27.750  29.213  1.00  0.00    -0.332 N 
ATOM     18  C   UNL A   1      40.982  28.997  28.413  1.00  0.00     0.284 C 
ATOM     19  C   UNL A   1      39.952  27.919  30.280  1.00  0.00     0.284 C 
ATOM     20  H   UNL A   1      41.899  27.596  29.611  1.00  0.00     0.348 HD
ATOM     21  C   UNL A   1      39.626  29.345  27.768  1.00  0.00     0.179 C 
ATOM     22  C   UNL A   1      38.540  28.330  29.802  1.00  0.00     0.179 C 
BRANCH  17  23
ATOM     23  C   UNL A   1      40.697  26.552  28.399  1.00  0.00     0.262 C 
BRANCH  23  24
ATOM     24  C   UNL A   1      41.865  25.555  28.343  1.00  0.00     0.058 C 
ATOM     25  C   UNL A   1      42.956  25.867  29.355  1.00  0.00     0.010 C 
ENDBRANCH  23  24
ENDBRANCH  17  23
ENDBRANCH   7  16
BRANCH  15  26
ATOM     26  N   UNL A   1      33.925  35.407  28.140  1.00  0.00    -0.322 N 
ATOM     27  C   UNL A   1      33.246  36.299  28.962  1.00  0.00     0.255 C 
ATOM     28  H   UNL A   1      34.007  35.690  27.201  1.00  0.00     0.170 HD
ATOM     29  O   UNL A   1      32.533  37.156  28.441  1.00  0.00    -0.269 OA
BRANCH  27  30
ATOM     30  C   UNL A   1      33.354  36.261  30.462  1.00  0.00     0.040 A 
ATOM     31  C   UNL A   1      33.328  35.011  31.089  1.00  0.00     0.017 A 
ATOM     32  C   UNL A   1      33.571  37.401  31.253  1.00  0.00     0.017 A 
ATOM     33  C   UNL A   1      33.652  34.885  32.446  1.00  0.00     0.040 A 
ATOM     34  C   UNL A   1      33.963  37.268  32.592  1.00  0.00     0.040 A 
ATOM     35  C   UNL A   1      34.020  36.008  33.171  1.00  0.00     0.123 A 
ATOM     36  F   UNL A   1      34.440  35.871  34.434  1.00  0.00    -0.207 F 
ENDBRANCH  27  30
ENDBRANCH  15  26
ENDBRANCH   3   6
ENDBRANCH   1   2
BRANCH   1  37
ATOM     37  C   UNL A   1      37.862  34.183  33.860  1.00  0.00     0.042 C 
BRANCH  37  38
ATOM     38  C   UNL A   1      36.825  33.305  34.548  1.00  0.00     0.118 C 
BRANCH  38  39
ATOM     39  N   UNL A   1      37.199  32.778  35.867  1.00  0.00    -0.352 N 
ATOM     40  C   UNL A   1      38.146  31.871  36.291  1.00  0.00     0.251 C 
ATOM     41  H   UNL A   1      36.662  33.153  36.602  1.00  0.00     0.163 HD
ATOM     42  O   UNL A   1      38.276  31.594  37.485  1.00  0.00    -0.269 OA
BRANCH  40  43
ATOM     43  C   UNL A   1      39.040  31.236  35.324  1.00  0.00     0.039 A 
ATOM     44  C   UNL A   1      38.554  30.500  34.235  1.00  0.00     0.014 A 
ATOM     45  C   UNL A   1      40.402  31.383  35.532  1.00  0.00     0.014 A 
ATOM     46  C   UNL A   1      39.458  30.000  33.298  1.00  0.00     0.010 A 
ATOM     47  C   UNL A   1      41.270  31.059  34.521  1.00  0.00     0.010 A 
ATOM     48  C   UNL A   1      40.816  30.325  33.418  1.00  0.00    -0.014 A 
BRANCH  48  49
ATOM     49  C   UNL A   1      41.860  29.896  32.467  1.00  0.00     0.031 A 
ATOM     50  C   UNL A   1      42.592  28.615  32.762  1.00  0.00     0.074 A 
ATOM     51  C   UNL A   1      42.279  30.760  31.529  1.00  0.00     0.049 A 
ATOM     52  N   UNL A   1      43.738  28.189  32.307  1.00  0.00    -0.248 NA
ATOM     53  C   UNL A   1      42.000  27.752  33.804  1.00  0.00     0.031 C 
ATOM     54  C   UNL A   1      41.684  32.070  31.255  1.00  0.00     0.029 A 
ATOM     55  N   UNL A   1      43.339  30.688  30.667  1.00  0.00    -0.354 N 
ATOM     56  C   UNL A   1      44.028  27.051  33.051  1.00  0.00     0.074 A 
ATOM     57  C   UNL A   1      42.994  26.914  34.048  1.00  0.00     0.031 C 
ATOM     58  C   UNL A   1      42.378  32.672  30.277  1.00  0.00     0.029 A 
ATOM     59  C   UNL A   1      43.489  31.811  29.894  1.00  0.00     0.049 A 
ATOM     60  H   UNL A   1      43.935  29.906  30.609  1.00  0.00     0.167 HD
ATOM     61  C   UNL A   1      45.052  26.182  32.884  1.00  0.00     0.037 A 
ATOM     62  C   UNL A   1      44.435  32.105  28.985  1.00  0.00     0.037 A 
ATOM     63  C   UNL A   1      46.023  26.333  31.835  1.00  0.00     0.049 A 
ATOM     64  C   UNL A   1      45.509  31.082  28.739  1.00  0.00     0.074 A 
ATOM     65  C   UNL A   1      47.044  25.481  31.464  1.00  0.00     0.029 A 
ATOM     66  N   UNL A   1      46.076  27.427  30.974  1.00  0.00    -0.354 N 
ATOM     67  N   UNL A   1      45.734  29.955  29.373  1.00  0.00    -0.248 NA
ATOM     68  C   UNL A   1      46.444  31.358  27.645  1.00  0.00     0.031 C 
ATOM     69  C   UNL A   1      47.744  26.081  30.410  1.00  0.00     0.029 A 
ATOM     70  C   UNL A   1      47.123  27.280  30.084  1.00  0.00     0.049 A 
ATOM     71  H   UNL A   1      45.458  28.192  30.997  1.00  0.00     0.167 HD
ATOM     72  C   UNL A   1      46.825  29.372  28.747  1.00  0.00     0.074 A 
ATOM     73  C   UNL A   1      47.201  30.269  27.667  1.00  0.00     0.031 C 
ATOM     74  C   UNL A   1      47.461  28.207  29.030  1.00  0.00     0.037 A 
BRANCH  61  75
ATOM     75  C   UNL A   1      45.146  25.020  33.837  1.00  0.00     0.064 A 
ATOM     76  C   UNL A   1      44.510  23.792  33.583  1.00  0.00     0.173 A 
ATOM     77  C   UNL A   1      45.852  25.142  35.045  1.00  0.00     0.173 A 
ATOM     78  F   UNL A   1      43.812  23.614  32.450  1.00  0.00    -0.203 F 
ATOM     79  C   UNL A   1      44.520  22.763  34.522  1.00  0.00     0.198 A 
ATOM     80  C   UNL A   1      45.899  24.093  35.962  1.00  0.00     0.198 A 
ATOM     81  F   UNL A   1      46.487  26.284  35.347  1.00  0.00    -0.203 F 
ATOM     82  F   UNL A   1      43.824  21.641  34.290  1.00  0.00    -0.200 F 
ATOM     83  C   UNL A   1      45.218  22.912  35.709  1.00  0.00     0.200 A 
ATOM     84  F   UNL A   1      46.588  24.233  37.103  1.00  0.00    -0.200 F 
ATOM     85  F   UNL A   1      45.222  21.925  36.614  1.00  0.00    -0.200 F 
ENDBRANCH  61  75
BRANCH  62  86
ATOM     86  C   UNL A   1      44.338  33.370  28.214  1.00  0.00     0.064 A 
ATOM     87  C   UNL A   1      43.796  33.376  26.921  1.00  0.00     0.173 A 
ATOM     88  C   UNL A   1      44.688  34.606  28.779  1.00  0.00     0.173 A 
ATOM     89  F   UNL A   1      43.449  32.221  26.336  1.00  0.00    -0.203 F 
ATOM     90  C   UNL A   1      43.614  34.568  26.220  1.00  0.00     0.198 A 
ATOM     91  C   UNL A   1      44.481  35.799  28.087  1.00  0.00     0.198 A 
ATOM     92  F   UNL A   1      45.188  34.659  30.022  1.00  0.00    -0.203 F 
ATOM     93  F   UNL A   1      43.109  34.541  24.980  1.00  0.00    -0.200 F 
ATOM     94  C   UNL A   1      43.946  35.779  26.808  1.00  0.00     0.200 A 
ATOM     95  F   UNL A   1      44.779  36.969  28.669  1.00  0.00    -0.200 F 
ATOM     96  F   UNL A   1      43.746  36.926  26.144  1.00  0.00    -0.200 F 
ENDBRANCH  62  86
BRANCH  74  97
ATOM     97  C   UNL A   1      48.612  27.837  28.144  1.00  0.00     0.064 A 
ATOM     98  C   UNL A   1      48.430  27.052  26.995  1.00  0.00     0.173 A 
ATOM     99  C   UNL A   1      49.900  28.315  28.422  1.00  0.00     0.173 A 
ATOM    100  F   UNL A   1      47.218  26.562  26.697  1.00  0.00    -0.203 F 
ATOM    101  C   UNL A   1      49.506  26.736  26.173  1.00  0.00     0.198 A 
ATOM    102  C   UNL A   1      50.965  28.028  27.578  1.00  0.00     0.198 A 
ATOM    103  F   UNL A   1      50.119  29.078  29.505  1.00  0.00    -0.203 F 
ATOM    104  F   UNL A   1      49.322  25.942  25.110  1.00  0.00    -0.200 F 
ATOM    105  C   UNL A   1      50.770  27.231  26.460  1.00  0.00     0.200 A 
ATOM    106  F   UNL A   1      52.182  28.522  27.845  1.00  0.00    -0.200 F 
ATOM    107  F   UNL A   1      51.803  26.936  25.660  1.00  0.00    -0.200 F 
ENDBRANCH  74  97
ENDBRANCH  48  49
ENDBRANCH  40  43
ENDBRANCH  38  39
ENDBRANCH  37  38
ENDBRANCH   1  37
TORSDOF 15
ENDMDL
MODEL 3
REMARK VINA RESULT:     -12.5      6.410     10.516
REMARK SMILES CCC[NH+]1CCN(c2cc(C(=O)NCCCNC(=O)c3ccc(-c4c5nc(c(-c6c(F)c(F)c(F)c(F)c6F)c6ccc([nH]6)c(-c6c(F)c(F)c(F)c(F)c6F)c6nc(c(-c7c(F)c(F)c(F)c(F)c7F)c7ccc4[nH]7)C=C6)C=C5)cc3)c3cc(NC(=O)c4ccc(F)cc4)ccc3n2)CC1
REMARK SMILES IDX 14 1 13 2 11 3 12 4 10 6 8 7 9 8 99 9 98 10 83 11 97 12
REMARK SMILES IDX 84 13 96 14 85 15 7 16 4 17 5 18 101 19 6 21 100 22 3 23
REMARK SMILES IDX 2 24 1 25 86 26 87 27 88 29 89 30 90 31 95 32 91 33 94 34
REMARK SMILES IDX 92 35 93 36 15 37 16 38 17 39 18 40 19 42 20 43 21 44 82 45
REMARK SMILES IDX 22 46 81 47 23 48 24 49 25 50 75 51 26 52 80 53 74 54 76 55
REMARK SMILES IDX 27 56 79 57 73 58 72 59 28 61 60 62 40 63 59 64 41 65 44 66
REMARK SMILES IDX 58 67 77 68 42 69 43 70 57 72 78 73 45 74 29 75 30 76 38 77
REMARK SMILES IDX 31 78 32 79 36 80 39 81 33 82 34 83 37 84 35 85 61 86 62 87
REMARK SMILES IDX 70 88 63 89 64 90 68 91 71 92 65 93 66 94 69 95 67 96 46 97
REMARK SMILES IDX 47 98 55 99 48 100 49 101 53 102 56 103 50 104 51 105 54 106
REMARK SMILES IDX 52 107
REMARK H PARENT 13 5 4 20 86 28 17 41 76 60 44 71
REMARK Flexibility Score: inf
ROOT
ATOM      1  C   UNL A   1      45.663  23.444  27.186  1.00  0.00     0.118 C 
ENDROOT
BRANCH   1   2
ATOM      2  N   UNL A   1      45.227  23.695  28.540  1.00  0.00    -0.352 N 
ATOM      3  C   UNL A   1      43.963  23.673  29.100  1.00  0.00     0.252 C 
ATOM      4  O   UNL A   1      43.928  23.643  30.334  1.00  0.00    -0.269 OA
ATOM      5  H   UNL A   1      45.950  23.919  29.169  1.00  0.00     0.163 HD
BRANCH   3   6
ATOM      6  C   UNL A   1      42.646  23.771  28.369  1.00  0.00     0.052 A 
ATOM      7  C   UNL A   1      40.754  25.239  28.001  1.00  0.00     0.130 A 
ATOM      8  C   UNL A   1      42.010  25.000  28.543  1.00  0.00     0.061 A 
ATOM      9  N   UNL A   1      40.123  24.318  27.252  1.00  0.00    -0.231 NA
ATOM     10  C   UNL A   1      40.691  23.121  27.078  1.00  0.00     0.074 A 
ATOM     11  C   UNL A   1      41.924  22.785  27.664  1.00  0.00     0.015 A 
ATOM     12  C   UNL A   1      40.008  22.156  26.333  1.00  0.00     0.031 A 
ATOM     13  C   UNL A   1      42.290  21.442  27.601  1.00  0.00     0.037 A 
ATOM     14  C   UNL A   1      40.439  20.823  26.257  1.00  0.00     0.028 A 
ATOM     15  C   UNL A   1      41.546  20.444  26.989  1.00  0.00     0.042 A 
BRANCH   7  16
ATOM     16  N   UNL A   1      40.143  26.449  28.225  1.00  0.00    -0.345 N 
ATOM     17  N   UNL A   1      40.161  29.179  29.280  1.00  0.00    -0.332 N 
ATOM     18  C   UNL A   1      40.266  27.980  30.144  1.00  0.00     0.284 C 
ATOM     19  C   UNL A   1      40.813  28.845  27.986  1.00  0.00     0.284 C 
ATOM     20  H   UNL A   1      40.626  29.965  29.733  1.00  0.00     0.348 HD
ATOM     21  C   UNL A   1      39.608  26.716  29.557  1.00  0.00     0.179 C 
ATOM     22  C   UNL A   1      40.306  27.561  27.288  1.00  0.00     0.179 C 
BRANCH  17  23
ATOM     23  C   UNL A   1      38.769  29.616  29.076  1.00  0.00     0.262 C 
BRANCH  23  24
ATOM     24  C   UNL A   1      38.566  31.133  29.214  1.00  0.00     0.058 C 
ATOM     25  C   UNL A   1      39.479  31.758  30.257  1.00  0.00     0.010 C 
ENDBRANCH  23  24
ENDBRANCH  17  23
ENDBRANCH   7  16
BRANCH  15  26
ATOM     26  N   UNL A   1      41.891  19.091  27.136  1.00  0.00    -0.322 N 
ATOM     27  C   UNL A   1      42.849  18.330  26.476  1.00  0.00     0.255 C 
ATOM     28  H   UNL A   1      41.372  18.602  27.816  1.00  0.00     0.170 HD
ATOM     29  O   UNL A   1      42.762  17.103  26.519  1.00  0.00    -0.269 OA
BRANCH  27  30
ATOM     30  C   UNL A   1      43.990  18.948  25.715  1.00  0.00     0.040 A 
ATOM     31  C   UNL A   1      43.742  20.130  25.010  1.00  0.00     0.017 A 
ATOM     32  C   UNL A   1      45.304  18.455  25.751  1.00  0.00     0.017 A 
ATOM     33  C   UNL A   1      44.799  20.878  24.474  1.00  0.00     0.040 A 
ATOM     34  C   UNL A   1      46.366  19.236  25.278  1.00  0.00     0.040 A 
ATOM     35  C   UNL A   1      46.105  20.452  24.662  1.00  0.00     0.123 A 
ATOM     36  F   UNL A   1      47.118  21.225  24.251  1.00  0.00    -0.207 F 
ENDBRANCH  27  30
ENDBRANCH  15  26
ENDBRANCH   3   6
ENDBRANCH   1   2
BRANCH   1  37
ATOM     37  C   UNL A   1      46.682  24.367  26.552  1.00  0.00     0.042 C 
BRANCH  37  38
ATOM     38  C   UNL A   1      46.444  24.721  25.090  1.00  0.00     0.118 C 
BRANCH  38  39
ATOM     39  N   UNL A   1      47.301  25.776  24.534  1.00  0.00    -0.352 N 
ATOM     40  C   UNL A   1      47.387  27.135  24.747  1.00  0.00     0.251 C 
ATOM     41  H   UNL A   1      47.950  25.444  23.873  1.00  0.00     0.163 HD
ATOM     42  O   UNL A   1      48.217  27.823  24.150  1.00  0.00    -0.269 OA
BRANCH  40  43
ATOM     43  C   UNL A   1      46.505  27.786  25.714  1.00  0.00     0.039 A 
ATOM     44  C   UNL A   1      45.111  27.663  25.647  1.00  0.00     0.014 A 
ATOM     45  C   UNL A   1      47.105  28.543  26.707  1.00  0.00     0.014 A 
ATOM     46  C   UNL A   1      44.331  28.231  26.655  1.00  0.00     0.010 A 
ATOM     47  C   UNL A   1      46.360  28.934  27.790  1.00  0.00     0.010 A 
ATOM     48  C   UNL A   1      44.964  28.825  27.755  1.00  0.00    -0.014 A 
BRANCH  48  49
ATOM     49  C   UNL A   1      44.252  29.416  28.904  1.00  0.00     0.031 A 
ATOM     50  C   UNL A   1      43.957  30.891  28.860  1.00  0.00     0.074 A 
ATOM     51  C   UNL A   1      44.111  28.691  30.025  1.00  0.00     0.049 A 
ATOM     52  N   UNL A   1      43.661  31.709  29.833  1.00  0.00    -0.248 NA
ATOM     53  C   UNL A   1      44.134  31.553  27.552  1.00  0.00     0.031 C 
ATOM     54  C   UNL A   1      44.475  27.280  30.174  1.00  0.00     0.029 A 
ATOM     55  N   UNL A   1      43.672  29.057  31.268  1.00  0.00    -0.354 N 
ATOM     56  C   UNL A   1      43.683  32.978  29.266  1.00  0.00     0.074 A 
ATOM     57  C   UNL A   1      44.117  32.830  27.897  1.00  0.00     0.031 C 
ATOM     58  C   UNL A   1      44.228  26.894  31.435  1.00  0.00     0.029 A 
ATOM     59  C   UNL A   1      43.736  28.040  32.187  1.00  0.00     0.049 A 
ATOM     60  H   UNL A   1      43.345  29.960  31.481  1.00  0.00     0.167 HD
ATOM     61  C   UNL A   1      43.333  34.154  29.836  1.00  0.00     0.037 A 
ATOM     62  C   UNL A   1      43.436  28.051  33.498  1.00  0.00     0.037 A 
ATOM     63  C   UNL A   1      42.850  34.238  31.187  1.00  0.00     0.049 A 
ATOM     64  C   UNL A   1      42.951  29.344  34.093  1.00  0.00     0.074 A 
ATOM     65  C   UNL A   1      42.349  35.330  31.867  1.00  0.00     0.029 A 
ATOM     66  N   UNL A   1      42.803  33.159  32.066  1.00  0.00    -0.354 N 
ATOM     67  N   UNL A   1      42.875  30.530  33.535  1.00  0.00    -0.248 NA
ATOM     68  C   UNL A   1      42.493  29.300  35.484  1.00  0.00     0.031 C 
ATOM     69  C   UNL A   1      42.042  34.923  33.171  1.00  0.00     0.029 A 
ATOM     70  C   UNL A   1      42.296  33.563  33.287  1.00  0.00     0.049 A 
ATOM     71  H   UNL A   1      43.088  32.243  31.849  1.00  0.00     0.167 HD
ATOM     72  C   UNL A   1      42.343  31.374  34.498  1.00  0.00     0.074 A 
ATOM     73  C   UNL A   1      42.097  30.552  35.670  1.00  0.00     0.031 C 
ATOM     74  C   UNL A   1      42.079  32.704  34.427  1.00  0.00     0.037 A 
BRANCH  61  75
ATOM     75  C   UNL A   1      43.454  35.400  28.999  1.00  0.00     0.064 A 
ATOM     76  C   UNL A   1      42.366  35.924  28.279  1.00  0.00     0.173 A 
ATOM     77  C   UNL A   1      44.685  36.066  28.883  1.00  0.00     0.173 A 
ATOM     78  F   UNL A   1      41.165  35.329  28.342  1.00  0.00    -0.203 F 
ATOM     79  C   UNL A   1      42.520  37.017  27.428  1.00  0.00     0.198 A 
ATOM     80  C   UNL A   1      44.823  37.188  28.066  1.00  0.00     0.198 A 
ATOM     81  F   UNL A   1      45.762  35.623  29.548  1.00  0.00    -0.203 F 
ATOM     82  F   UNL A   1      41.487  37.432  26.682  1.00  0.00    -0.200 F 
ATOM     83  C   UNL A   1      43.747  37.650  27.325  1.00  0.00     0.200 A 
ATOM     84  F   UNL A   1      46.008  37.809  27.980  1.00  0.00    -0.200 F 
ATOM     85  F   UNL A   1      43.896  38.697  26.502  1.00  0.00    -0.200 F 
ENDBRANCH  61  75
BRANCH  62  86
ATOM     86  C   UNL A   1      43.516  26.789  34.275  1.00  0.00     0.064 A 
ATOM     87  C   UNL A   1      42.355  26.060  34.572  1.00  0.00     0.173 A 
ATOM     88  C   UNL A   1      44.747  26.232  34.653  1.00  0.00     0.173 A 
ATOM     89  F   UNL A   1      41.153  26.551  34.234  1.00  0.00    -0.203 F 
ATOM     90  C   UNL A   1      42.421  24.828  35.220  1.00  0.00     0.198 A 
ATOM     91  C   UNL A   1      44.814  24.988  35.278  1.00  0.00     0.198 A 
ATOM     92  F   UNL A   1      45.889  26.876  34.372  1.00  0.00    -0.203 F 
ATOM     93  F   UNL A   1      41.294  24.162  35.504  1.00  0.00    -0.200 F 
ATOM     94  C   UNL A   1      43.651  24.288  35.563  1.00  0.00     0.200 A 
ATOM     95  F   UNL A   1      46.006  24.457  35.584  1.00  0.00    -0.200 F 
ATOM     96  F   UNL A   1      43.716  23.091  36.162  1.00  0.00    -0.200 F 
ENDBRANCH  62  86
BRANCH  74  97
ATOM     97  C   UNL A   1      41.478  33.335  35.647  1.00  0.00     0.064 A 
ATOM     98  C   UNL A   1      42.278  33.896  36.653  1.00  0.00     0.173 A 
ATOM     99  C   UNL A   1      40.085  33.420  35.784  1.00  0.00     0.173 A 
ATOM    100  F   UNL A   1      43.615  33.826  36.569  1.00  0.00    -0.203 F 
ATOM    101  C   UNL A   1      41.703  34.496  37.767  1.00  0.00     0.198 A 
ATOM    102  C   UNL A   1      39.514  34.054  36.882  1.00  0.00     0.198 A 
ATOM    103  F   UNL A   1      39.279  32.906  34.842  1.00  0.00    -0.203 F 
ATOM    104  F   UNL A   1      42.484  34.980  38.742  1.00  0.00    -0.200 F 
ATOM    105  C   UNL A   1      40.322  34.582  37.876  1.00  0.00     0.200 A 
ATOM    106  F   UNL A   1      38.181  34.153  36.977  1.00  0.00    -0.200 F 
ATOM    107  F   UNL A   1      39.770  35.171  38.945  1.00  0.00    -0.200 F 
ENDBRANCH  74  97
ENDBRANCH  48  49
ENDBRANCH  40  43
ENDBRANCH  38  39
ENDBRANCH  37  38
ENDBRANCH   1  37
TORSDOF 15
ENDMDL
