MODEL 1
REMARK VINA RESULT:     -11.7      0.000      0.000
REMARK SMILES CCCOc1ccccc1C(=O)NCCCNC(=O)c1ccc(-c2c3nc(c(-c4c(F)c(F)c(F)c(F)c4F)c4ccc([nH]4)c(-c4c(F)c(F)c(F)c(F)c4F)c4nc(c(-c5c(F)c(F)c(F)c(F)c5F)c5ccc2[nH]5)C=C4)C=C3)cc1
REMARK SMILES IDX 14 1 13 2 11 3 12 4 10 6 5 7 6 8 7 9 9 10 8 11 4 12 3 13
REMARK SMILES IDX 2 14 1 15 15 16 16 17 17 18 18 19 19 21 20 22 21 23 82 24
REMARK SMILES IDX 22 25 81 26 23 27 24 28 25 29 75 30 26 31 80 32 74 33 76 34
REMARK SMILES IDX 27 35 79 36 73 37 72 38 28 40 60 41 40 42 59 43 41 44 44 45
REMARK SMILES IDX 58 46 77 47 42 48 43 49 57 51 78 52 45 53 29 54 30 55 38 56
REMARK SMILES IDX 31 57 32 58 36 59 39 60 33 61 34 62 37 63 35 64 61 65 62 66
REMARK SMILES IDX 70 67 63 68 64 69 68 70 71 71 65 72 66 73 69 74 67 75 46 76
REMARK SMILES IDX 47 77 55 78 48 79 49 80 53 81 56 82 50 83 51 84 54 85 52 86
REMARK H PARENT 13 5 17 20 76 39 44 50
REMARK Flexibility Score: inf
ROOT
ATOM      1  C   UNL A   1      32.107  30.221  26.425  1.00  0.00     0.118 C 
ENDROOT
BRANCH   1   2
ATOM      2  N   UNL A   1      32.902  29.948  25.242  1.00  0.00    -0.352 N 
ATOM      3  C   UNL A   1      32.626  29.186  24.140  1.00  0.00     0.255 C 
ATOM      4  O   UNL A   1      33.484  29.116  23.259  1.00  0.00    -0.269 OA
ATOM      5  H   UNL A   1      33.786  30.383  25.231  1.00  0.00     0.163 HD
BRANCH   3   6
ATOM      6  C   UNL A   1      31.390  28.383  24.004  1.00  0.00     0.081 A 
ATOM      7  C   UNL A   1      30.308  28.683  23.169  1.00  0.00     0.132 A 
ATOM      8  C   UNL A   1      29.176  27.860  23.169  1.00  0.00     0.047 A 
ATOM      9  C   UNL A   1      29.155  26.690  23.929  1.00  0.00     0.004 A 
ATOM     10  C   UNL A   1      31.374  27.181  24.732  1.00  0.00     0.018 A 
ATOM     11  C   UNL A   1      30.262  26.338  24.695  1.00  0.00     0.001 A 
BRANCH   7  12
ATOM     12  O   UNL A   1      30.260  29.811  22.405  1.00  0.00    -0.493 OA
BRANCH  12  13
ATOM     13  C   UNL A   1      28.952  30.141  21.922  1.00  0.00     0.229 C 
BRANCH  13  14
ATOM     14  C   UNL A   1      28.515  31.513  22.438  1.00  0.00     0.038 C 
ATOM     15  C   UNL A   1      27.590  31.406  23.641  1.00  0.00     0.007 C 
ENDBRANCH  13  14
ENDBRANCH  12  13
ENDBRANCH   7  12
ENDBRANCH   3   6
ENDBRANCH   1   2
BRANCH   1  16
ATOM     16  C   UNL A   1      31.762  31.694  26.566  1.00  0.00     0.042 C 
BRANCH  16  17
ATOM     17  C   UNL A   1      32.782  32.478  27.390  1.00  0.00     0.118 C 
BRANCH  17  18
ATOM     18  N   UNL A   1      32.414  33.866  27.660  1.00  0.00    -0.352 N 
ATOM     19  C   UNL A   1      32.961  34.806  28.507  1.00  0.00     0.251 C 
ATOM     20  H   UNL A   1      31.638  34.187  27.146  1.00  0.00     0.163 HD
ATOM     21  O   UNL A   1      32.453  35.914  28.612  1.00  0.00    -0.269 OA
BRANCH  19  22
ATOM     22  C   UNL A   1      34.123  34.450  29.351  1.00  0.00     0.039 A 
ATOM     23  C   UNL A   1      33.895  33.926  30.627  1.00  0.00     0.014 A 
ATOM     24  C   UNL A   1      35.423  34.546  28.863  1.00  0.00     0.014 A 
ATOM     25  C   UNL A   1      34.955  33.358  31.338  1.00  0.00     0.010 A 
ATOM     26  C   UNL A   1      36.445  33.858  29.506  1.00  0.00     0.010 A 
ATOM     27  C   UNL A   1      36.219  33.233  30.741  1.00  0.00    -0.014 A 
BRANCH  27  28
ATOM     28  C   UNL A   1      37.306  32.421  31.352  1.00  0.00     0.031 A 
ATOM     29  C   UNL A   1      37.804  32.741  32.737  1.00  0.00     0.074 A 
ATOM     30  C   UNL A   1      37.936  31.482  30.616  1.00  0.00     0.049 A 
ATOM     31  N   UNL A   1      38.856  32.284  33.367  1.00  0.00    -0.248 NA
ATOM     32  C   UNL A   1      37.048  33.753  33.491  1.00  0.00     0.031 C 
ATOM     33  C   UNL A   1      37.612  31.124  29.233  1.00  0.00     0.029 A 
ATOM     34  N   UNL A   1      38.999  30.667  30.924  1.00  0.00    -0.354 N 
ATOM     35  C   UNL A   1      38.915  32.988  34.562  1.00  0.00     0.074 A 
ATOM     36  C   UNL A   1      37.822  33.936  34.549  1.00  0.00     0.031 C 
ATOM     37  C   UNL A   1      38.428  30.138  28.828  1.00  0.00     0.029 A 
ATOM     38  C   UNL A   1      39.367  29.828  29.899  1.00  0.00     0.049 A 
ATOM     39  H   UNL A   1      39.454  30.683  31.797  1.00  0.00     0.167 HD
ATOM     40  C   UNL A   1      39.785  32.842  35.588  1.00  0.00     0.037 A 
ATOM     41  C   UNL A   1      40.354  28.916  29.827  1.00  0.00     0.037 A 
ATOM     42  C   UNL A   1      40.823  31.846  35.634  1.00  0.00     0.049 A 
ATOM     43  C   UNL A   1      41.262  28.721  31.010  1.00  0.00     0.074 A 
ATOM     44  C   UNL A   1      41.695  31.555  36.667  1.00  0.00     0.029 A 
ATOM     45  N   UNL A   1      41.115  30.966  34.602  1.00  0.00    -0.354 N 
ATOM     46  N   UNL A   1      41.271  29.355  32.157  1.00  0.00    -0.248 NA
ATOM     47  C   UNL A   1      42.295  27.683  30.888  1.00  0.00     0.031 C 
ATOM     48  C   UNL A   1      42.531  30.512  36.254  1.00  0.00     0.029 A 
ATOM     49  C   UNL A   1      42.158  30.133  34.975  1.00  0.00     0.049 A 
ATOM     50  H   UNL A   1      40.651  30.938  33.735  1.00  0.00     0.167 HD
ATOM     51  C   UNL A   1      42.289  28.779  32.901  1.00  0.00     0.074 A 
ATOM     52  C   UNL A   1      42.870  27.735  32.082  1.00  0.00     0.031 C 
ATOM     53  C   UNL A   1      42.709  29.089  34.152  1.00  0.00     0.037 A 
BRANCH  40  54
ATOM     54  C   UNL A   1      39.638  33.770  36.759  1.00  0.00     0.064 A 
ATOM     55  C   UNL A   1      40.285  35.015  36.796  1.00  0.00     0.173 A 
ATOM     56  C   UNL A   1      38.826  33.420  37.847  1.00  0.00     0.173 A 
ATOM     57  F   UNL A   1      41.084  35.390  35.786  1.00  0.00    -0.203 F 
ATOM     58  C   UNL A   1      40.151  35.859  37.895  1.00  0.00     0.198 A 
ATOM     59  C   UNL A   1      38.669  34.280  38.931  1.00  0.00     0.198 A 
ATOM     60  F   UNL A   1      38.180  32.243  37.859  1.00  0.00    -0.203 F 
ATOM     61  F   UNL A   1      40.822  37.018  37.932  1.00  0.00    -0.200 F 
ATOM     62  C   UNL A   1      39.338  35.494  38.957  1.00  0.00     0.200 A 
ATOM     63  F   UNL A   1      37.875  33.932  39.953  1.00  0.00    -0.200 F 
ATOM     64  F   UNL A   1      39.208  36.310  40.013  1.00  0.00    -0.200 F 
ENDBRANCH  40  54
BRANCH  41  65
ATOM     65  C   UNL A   1      40.513  28.086  28.605  1.00  0.00     0.064 A 
ATOM     66  C   UNL A   1      41.295  28.539  27.533  1.00  0.00     0.173 A 
ATOM     67  C   UNL A   1      39.893  26.835  28.479  1.00  0.00     0.173 A 
ATOM     68  F   UNL A   1      41.890  29.739  27.601  1.00  0.00    -0.203 F 
ATOM     69  C   UNL A   1      41.437  27.780  26.374  1.00  0.00     0.198 A 
ATOM     70  C   UNL A   1      40.056  26.065  27.329  1.00  0.00     0.198 A 
ATOM     71  F   UNL A   1      39.139  26.355  29.480  1.00  0.00    -0.203 F 
ATOM     72  F   UNL A   1      42.157  28.256  25.349  1.00  0.00    -0.200 F 
ATOM     73  C   UNL A   1      40.821  26.542  26.275  1.00  0.00     0.200 A 
ATOM     74  F   UNL A   1      39.469  24.864  27.241  1.00  0.00    -0.200 F 
ATOM     75  F   UNL A   1      40.959  25.811  25.160  1.00  0.00    -0.200 F 
ENDBRANCH  41  65
BRANCH  53  76
ATOM     76  C   UNL A   1      43.823  28.267  34.725  1.00  0.00     0.064 A 
ATOM     77  C   UNL A   1      43.572  27.079  35.425  1.00  0.00     0.173 A 
ATOM     78  C   UNL A   1      45.158  28.653  34.533  1.00  0.00     0.173 A 
ATOM     79  F   UNL A   1      42.311  26.679  35.646  1.00  0.00    -0.203 F 
ATOM     80  C   UNL A   1      44.621  26.313  35.927  1.00  0.00     0.198 A 
ATOM     81  C   UNL A   1      46.203  27.873  35.017  1.00  0.00     0.198 A 
ATOM     82  F   UNL A   1      45.447  29.781  33.867  1.00  0.00    -0.203 F 
ATOM     83  F   UNL A   1      44.359  25.199  36.626  1.00  0.00    -0.200 F 
ATOM     84  C   UNL A   1      45.935  26.707  35.717  1.00  0.00     0.200 A 
ATOM     85  F   UNL A   1      47.473  28.248  34.805  1.00  0.00    -0.200 F 
ATOM     86  F   UNL A   1      46.942  25.965  36.196  1.00  0.00    -0.200 F 
ENDBRANCH  53  76
ENDBRANCH  27  28
ENDBRANCH  19  22
ENDBRANCH  17  18
ENDBRANCH  16  17
ENDBRANCH   1  16
TORSDOF 13
ENDMDL
MODEL 2
REMARK VINA RESULT:     -11.7      1.758      7.983
REMARK SMILES CCCOc1ccccc1C(=O)NCCCNC(=O)c1ccc(-c2c3nc(c(-c4c(F)c(F)c(F)c(F)c4F)c4ccc([nH]4)c(-c4c(F)c(F)c(F)c(F)c4F)c4nc(c(-c5c(F)c(F)c(F)c(F)c5F)c5ccc2[nH]5)C=C4)C=C3)cc1
REMARK SMILES IDX 14 1 13 2 11 3 12 4 10 6 5 7 6 8 7 9 9 10 8 11 4 12 3 13
REMARK SMILES IDX 2 14 1 15 15 16 16 17 17 18 18 19 19 21 20 22 21 23 82 24
REMARK SMILES IDX 22 25 81 26 23 27 24 28 25 29 75 30 26 31 80 32 74 33 76 34
REMARK SMILES IDX 27 35 79 36 73 37 72 38 28 40 60 41 40 42 59 43 41 44 44 45
REMARK SMILES IDX 58 46 77 47 42 48 43 49 57 51 78 52 45 53 29 54 30 55 38 56
REMARK SMILES IDX 31 57 32 58 36 59 39 60 33 61 34 62 37 63 35 64 61 65 62 66
REMARK SMILES IDX 70 67 63 68 64 69 68 70 71 71 65 72 66 73 69 74 67 75 46 76
REMARK SMILES IDX 47 77 55 78 48 79 49 80 53 81 56 82 50 83 51 84 54 85 52 86
REMARK H PARENT 13 5 17 20 76 39 44 50
REMARK Flexibility Score: inf
ROOT
ATOM      1  C   UNL A   1      33.533  28.731  25.104  1.00  0.00     0.118 C 
ENDROOT
BRANCH   1   2
ATOM      2  N   UNL A   1      33.996  28.784  23.729  1.00  0.00    -0.352 N 
ATOM      3  C   UNL A   1      33.784  27.926  22.685  1.00  0.00     0.255 C 
ATOM      4  O   UNL A   1      34.297  28.203  21.600  1.00  0.00    -0.269 OA
ATOM      5  H   UNL A   1      34.555  29.566  23.513  1.00  0.00     0.163 HD
BRANCH   3   6
ATOM      6  C   UNL A   1      33.045  26.651  22.826  1.00  0.00     0.081 A 
ATOM      7  C   UNL A   1      31.677  26.469  22.594  1.00  0.00     0.132 A 
ATOM      8  C   UNL A   1      31.093  25.215  22.807  1.00  0.00     0.047 A 
ATOM      9  C   UNL A   1      31.882  24.122  23.166  1.00  0.00     0.004 A 
ATOM     10  C   UNL A   1      33.835  25.533  23.145  1.00  0.00     0.018 A 
ATOM     11  C   UNL A   1      33.257  24.274  23.313  1.00  0.00     0.001 A 
BRANCH   7  12
ATOM     12  O   UNL A   1      30.848  27.494  22.248  1.00  0.00    -0.493 OA
BRANCH  12  13
ATOM     13  C   UNL A   1      29.943  27.895  23.284  1.00  0.00     0.229 C 
BRANCH  13  14
ATOM     14  C   UNL A   1      28.916  28.894  22.748  1.00  0.00     0.038 C 
ATOM     15  C   UNL A   1      29.574  30.084  22.065  1.00  0.00     0.007 C 
ENDBRANCH  13  14
ENDBRANCH  12  13
ENDBRANCH   7  12
ENDBRANCH   3   6
ENDBRANCH   1   2
BRANCH   1  16
ATOM     16  C   UNL A   1      32.397  29.703  25.373  1.00  0.00     0.042 C 
BRANCH  16  17
ATOM     17  C   UNL A   1      32.276  30.103  26.842  1.00  0.00     0.118 C 
BRANCH  17  18
ATOM     18  N   UNL A   1      32.265  31.543  27.087  1.00  0.00    -0.352 N 
ATOM     19  C   UNL A   1      33.246  32.400  27.539  1.00  0.00     0.251 C 
ATOM     20  H   UNL A   1      31.403  31.979  26.894  1.00  0.00     0.163 HD
ATOM     21  O   UNL A   1      32.997  33.583  27.719  1.00  0.00    -0.269 OA
BRANCH  19  22
ATOM     22  C   UNL A   1      34.584  31.870  27.882  1.00  0.00     0.039 A 
ATOM     23  C   UNL A   1      35.653  32.762  28.001  1.00  0.00     0.014 A 
ATOM     24  C   UNL A   1      34.772  30.522  28.171  1.00  0.00     0.014 A 
ATOM     25  C   UNL A   1      36.857  32.326  28.559  1.00  0.00     0.010 A 
ATOM     26  C   UNL A   1      35.915  30.123  28.852  1.00  0.00     0.010 A 
ATOM     27  C   UNL A   1      36.963  31.026  29.078  1.00  0.00    -0.014 A 
BRANCH  27  28
ATOM     28  C   UNL A   1      38.129  30.595  29.898  1.00  0.00     0.031 A 
ATOM     29  C   UNL A   1      39.133  29.625  29.334  1.00  0.00     0.074 A 
ATOM     30  C   UNL A   1      38.213  30.968  31.191  1.00  0.00     0.049 A 
ATOM     31  N   UNL A   1      40.100  28.986  29.942  1.00  0.00    -0.248 NA
ATOM     32  C   UNL A   1      38.997  29.288  27.909  1.00  0.00     0.031 C 
ATOM     33  C   UNL A   1      37.264  31.839  31.891  1.00  0.00     0.029 A 
ATOM     34  N   UNL A   1      39.134  30.646  32.158  1.00  0.00    -0.354 N 
ATOM     35  C   UNL A   1      40.649  28.137  28.989  1.00  0.00     0.074 A 
ATOM     36  C   UNL A   1      39.877  28.308  27.777  1.00  0.00     0.031 C 
ATOM     37  C   UNL A   1      37.673  32.012  33.157  1.00  0.00     0.029 A 
ATOM     38  C   UNL A   1      38.882  31.227  33.378  1.00  0.00     0.049 A 
ATOM     39  H   UNL A   1      39.903  30.054  31.993  1.00  0.00     0.167 HD
ATOM     40  C   UNL A   1      41.713  27.310  29.105  1.00  0.00     0.037 A 
ATOM     41  C   UNL A   1      39.545  31.134  34.546  1.00  0.00     0.037 A 
ATOM     42  C   UNL A   1      42.528  27.199  30.286  1.00  0.00     0.049 A 
ATOM     43  C   UNL A   1      40.768  30.264  34.628  1.00  0.00     0.074 A 
ATOM     44  C   UNL A   1      43.682  26.460  30.472  1.00  0.00     0.029 A 
ATOM     45  N   UNL A   1      42.278  27.862  31.478  1.00  0.00    -0.354 N 
ATOM     46  N   UNL A   1      41.310  29.511  33.702  1.00  0.00    -0.248 NA
ATOM     47  C   UNL A   1      41.474  30.233  35.917  1.00  0.00     0.031 C 
ATOM     48  C   UNL A   1      44.122  26.659  31.785  1.00  0.00     0.029 A 
ATOM     49  C   UNL A   1      43.258  27.546  32.406  1.00  0.00     0.049 A 
ATOM     50  H   UNL A   1      41.519  28.467  31.641  1.00  0.00     0.167 HD
ATOM     51  C   UNL A   1      42.430  28.937  34.285  1.00  0.00     0.074 A 
ATOM     52  C   UNL A   1      42.499  29.438  35.642  1.00  0.00     0.031 C 
ATOM     53  C   UNL A   1      43.320  28.069  33.746  1.00  0.00     0.037 A 
BRANCH  40  54
ATOM     54  C   UNL A   1      42.072  26.471  27.912  1.00  0.00     0.064 A 
ATOM     55  C   UNL A   1      43.056  26.877  26.998  1.00  0.00     0.173 A 
ATOM     56  C   UNL A   1      41.439  25.239  27.693  1.00  0.00     0.173 A 
ATOM     57  F   UNL A   1      43.681  28.053  27.156  1.00  0.00    -0.203 F 
ATOM     58  C   UNL A   1      43.368  26.096  25.888  1.00  0.00     0.198 A 
ATOM     59  C   UNL A   1      41.775  24.446  26.599  1.00  0.00     0.198 A 
ATOM     60  F   UNL A   1      40.495  24.802  28.540  1.00  0.00    -0.203 F 
ATOM     61  F   UNL A   1      44.271  26.530  24.999  1.00  0.00    -0.200 F 
ATOM     62  C   UNL A   1      42.733  24.879  25.694  1.00  0.00     0.200 A 
ATOM     63  F   UNL A   1      41.169  23.265  26.417  1.00  0.00    -0.200 F 
ATOM     64  F   UNL A   1      43.037  24.127  24.627  1.00  0.00    -0.200 F 
ENDBRANCH  40  54
BRANCH  41  65
ATOM     65  C   UNL A   1      39.090  31.916  35.724  1.00  0.00     0.064 A 
ATOM     66  C   UNL A   1      38.235  31.341  36.674  1.00  0.00     0.173 A 
ATOM     67  C   UNL A   1      39.495  33.243  35.927  1.00  0.00     0.173 A 
ATOM     68  F   UNL A   1      37.807  30.080  36.511  1.00  0.00    -0.203 F 
ATOM     69  C   UNL A   1      37.786  32.068  37.773  1.00  0.00     0.198 A 
ATOM     70  C   UNL A   1      39.065  33.963  37.040  1.00  0.00     0.198 A 
ATOM     71  F   UNL A   1      40.318  33.836  35.049  1.00  0.00    -0.203 F 
ATOM     72  F   UNL A   1      36.936  31.507  38.644  1.00  0.00    -0.200 F 
ATOM     73  C   UNL A   1      38.205  33.377  37.958  1.00  0.00     0.200 A 
ATOM     74  F   UNL A   1      39.480  35.223  37.222  1.00  0.00    -0.200 F 
ATOM     75  F   UNL A   1      37.775  34.077  39.017  1.00  0.00    -0.200 F 
ENDBRANCH  41  65
BRANCH  53  76
ATOM     76  C   UNL A   1      44.465  27.636  34.609  1.00  0.00     0.064 A 
ATOM     77  C   UNL A   1      45.679  28.337  34.622  1.00  0.00     0.173 A 
ATOM     78  C   UNL A   1      44.328  26.533  35.465  1.00  0.00     0.173 A 
ATOM     79  F   UNL A   1      45.861  29.388  33.809  1.00  0.00    -0.203 F 
ATOM     80  C   UNL A   1      46.724  27.936  35.451  1.00  0.00     0.198 A 
ATOM     81  C   UNL A   1      45.367  26.150  36.308  1.00  0.00     0.198 A 
ATOM     82  F   UNL A   1      43.184  25.834  35.489  1.00  0.00    -0.203 F 
ATOM     83  F   UNL A   1      47.890  28.597  35.421  1.00  0.00    -0.200 F 
ATOM     84  C   UNL A   1      46.564  26.849  36.297  1.00  0.00     0.200 A 
ATOM     85  F   UNL A   1      45.209  25.106  37.133  1.00  0.00    -0.200 F 
ATOM     86  F   UNL A   1      47.570  26.469  37.098  1.00  0.00    -0.200 F 
ENDBRANCH  53  76
ENDBRANCH  27  28
ENDBRANCH  19  22
ENDBRANCH  17  18
ENDBRANCH  16  17
ENDBRANCH   1  16
TORSDOF 13
ENDMDL
MODEL 3
REMARK VINA RESULT:     -11.7      2.011      3.155
REMARK SMILES CCCOc1ccccc1C(=O)NCCCNC(=O)c1ccc(-c2c3nc(c(-c4c(F)c(F)c(F)c(F)c4F)c4ccc([nH]4)c(-c4c(F)c(F)c(F)c(F)c4F)c4nc(c(-c5c(F)c(F)c(F)c(F)c5F)c5ccc2[nH]5)C=C4)C=C3)cc1
REMARK SMILES IDX 14 1 13 2 11 3 12 4 10 6 5 7 6 8 7 9 9 10 8 11 4 12 3 13
REMARK SMILES IDX 2 14 1 15 15 16 16 17 17 18 18 19 19 21 20 22 21 23 82 24
REMARK SMILES IDX 22 25 81 26 23 27 24 28 25 29 75 30 26 31 80 32 74 33 76 34
REMARK SMILES IDX 27 35 79 36 73 37 72 38 28 40 60 41 40 42 59 43 41 44 44 45
REMARK SMILES IDX 58 46 77 47 42 48 43 49 57 51 78 52 45 53 29 54 30 55 38 56
REMARK SMILES IDX 31 57 32 58 36 59 39 60 33 61 34 62 37 63 35 64 61 65 62 66
REMARK SMILES IDX 70 67 63 68 64 69 68 70 71 71 65 72 66 73 69 74 67 75 46 76
REMARK SMILES IDX 47 77 55 78 48 79 49 80 53 81 56 82 50 83 51 84 54 85 52 86
REMARK H PARENT 13 5 17 20 76 39 44 50
REMARK Flexibility Score: inf
ROOT
ATOM      1  C   UNL A   1      32.292  27.835  26.842  1.00  0.00     0.118 C 
ENDROOT
BRANCH   1   2
ATOM      2  N   UNL A   1      31.249  26.834  26.971  1.00  0.00    -0.352 N 
ATOM      3  C   UNL A   1      30.677  26.019  26.032  1.00  0.00     0.255 C 
ATOM      4  O   UNL A   1      29.796  25.242  26.404  1.00  0.00    -0.269 OA
ATOM      5  H   UNL A   1      30.894  26.723  27.883  1.00  0.00     0.163 HD
BRANCH   3   6
ATOM      6  C   UNL A   1      31.008  26.093  24.591  1.00  0.00     0.081 A 
ATOM      7  C   UNL A   1      30.694  27.153  23.734  1.00  0.00     0.132 A 
ATOM      8  C   UNL A   1      31.026  27.076  22.377  1.00  0.00     0.047 A 
ATOM      9  C   UNL A   1      31.748  25.987  21.888  1.00  0.00     0.004 A 
ATOM     10  C   UNL A   1      31.771  25.022  24.096  1.00  0.00     0.018 A 
ATOM     11  C   UNL A   1      32.140  24.969  22.751  1.00  0.00     0.001 A 
BRANCH   7  12
ATOM     12  O   UNL A   1      29.986  28.244  24.143  1.00  0.00    -0.493 OA
BRANCH  12  13
ATOM     13  C   UNL A   1      30.285  29.445  23.420  1.00  0.00     0.229 C 
BRANCH  13  14
ATOM     14  C   UNL A   1      29.102  30.414  23.470  1.00  0.00     0.038 C 
ATOM     15  C   UNL A   1      27.851  29.826  22.835  1.00  0.00     0.007 C 
ENDBRANCH  13  14
ENDBRANCH  12  13
ENDBRANCH   7  12
ENDBRANCH   3   6
ENDBRANCH   1   2
BRANCH   1  16
ATOM     16  C   UNL A   1      31.762  29.250  27.002  1.00  0.00     0.042 C 
BRANCH  16  17
ATOM     17  C   UNL A   1      32.601  30.297  26.272  1.00  0.00     0.118 C 
BRANCH  17  18
ATOM     18  N   UNL A   1      32.584  31.627  26.876  1.00  0.00    -0.352 N 
ATOM     19  C   UNL A   1      33.527  32.305  27.618  1.00  0.00     0.251 C 
ATOM     20  H   UNL A   1      31.749  32.129  26.726  1.00  0.00     0.163 HD
ATOM     21  O   UNL A   1      33.277  33.412  28.073  1.00  0.00    -0.269 OA
BRANCH  19  22
ATOM     22  C   UNL A   1      34.820  31.658  27.931  1.00  0.00     0.039 A 
ATOM     23  C   UNL A   1      35.940  32.462  28.159  1.00  0.00     0.014 A 
ATOM     24  C   UNL A   1      34.916  30.278  28.086  1.00  0.00     0.014 A 
ATOM     25  C   UNL A   1      37.100  31.896  28.693  1.00  0.00     0.010 A 
ATOM     26  C   UNL A   1      36.013  29.740  28.746  1.00  0.00     0.010 A 
ATOM     27  C   UNL A   1      37.111  30.547  29.080  1.00  0.00    -0.014 A 
BRANCH  27  28
ATOM     28  C   UNL A   1      38.226  29.961  29.875  1.00  0.00     0.031 A 
ATOM     29  C   UNL A   1      38.441  30.384  31.304  1.00  0.00     0.074 A 
ATOM     30  C   UNL A   1      39.123  29.152  29.275  1.00  0.00     0.049 A 
ATOM     31  N   UNL A   1      39.452  30.140  32.098  1.00  0.00    -0.248 NA
ATOM     32  C   UNL A   1      37.405  31.241  31.900  1.00  0.00     0.031 C 
ATOM     33  C   UNL A   1      39.083  28.724  27.874  1.00  0.00     0.029 A 
ATOM     34  N   UNL A   1      40.260  28.556  29.766  1.00  0.00    -0.354 N 
ATOM     35  C   UNL A   1      39.199  30.855  33.261  1.00  0.00     0.074 A 
ATOM     36  C   UNL A   1      37.964  31.579  33.052  1.00  0.00     0.031 C 
ATOM     37  C   UNL A   1      40.119  27.907  27.630  1.00  0.00     0.029 A 
ATOM     38  C   UNL A   1      40.927  27.791  28.839  1.00  0.00     0.049 A 
ATOM     39  H   UNL A   1      40.567  28.666  30.694  1.00  0.00     0.167 HD
ATOM     40  C   UNL A   1      39.916  30.886  34.408  1.00  0.00     0.037 A 
ATOM     41  C   UNL A   1      42.066  27.082  28.946  1.00  0.00     0.037 A 
ATOM     42  C   UNL A   1      41.102  30.105  34.643  1.00  0.00     0.049 A 
ATOM     43  C   UNL A   1      42.805  27.074  30.255  1.00  0.00     0.074 A 
ATOM     44  C   UNL A   1      41.847  29.995  35.803  1.00  0.00     0.029 A 
ATOM     45  N   UNL A   1      41.705  29.287  33.700  1.00  0.00    -0.354 N 
ATOM     46  N   UNL A   1      42.524  27.710  31.366  1.00  0.00    -0.248 NA
ATOM     47  C   UNL A   1      44.020  26.250  30.326  1.00  0.00     0.031 C 
ATOM     48  C   UNL A   1      42.915  29.126  35.557  1.00  0.00     0.029 A 
ATOM     49  C   UNL A   1      42.815  28.670  34.252  1.00  0.00     0.049 A 
ATOM     50  H   UNL A   1      41.389  29.162  32.776  1.00  0.00     0.167 HD
ATOM     51  C   UNL A   1      43.507  27.344  32.274  1.00  0.00     0.074 A 
ATOM     52  C   UNL A   1      44.388  26.421  31.588  1.00  0.00     0.031 C 
ATOM     53  C   UNL A   1      43.669  27.741  33.559  1.00  0.00     0.037 A 
BRANCH  40  54
ATOM     54  C   UNL A   1      39.425  31.781  35.509  1.00  0.00     0.064 A 
ATOM     55  C   UNL A   1      38.511  31.328  36.472  1.00  0.00     0.173 A 
ATOM     56  C   UNL A   1      39.888  33.101  35.613  1.00  0.00     0.173 A 
ATOM     57  F   UNL A   1      38.027  30.078  36.408  1.00  0.00    -0.203 F 
ATOM     58  C   UNL A   1      38.053  32.174  37.478  1.00  0.00     0.198 A 
ATOM     59  C   UNL A   1      39.452  33.935  36.639  1.00  0.00     0.198 A 
ATOM     60  F   UNL A   1      40.767  33.582  34.721  1.00  0.00    -0.203 F 
ATOM     61  F   UNL A   1      37.137  31.736  38.354  1.00  0.00    -0.200 F 
ATOM     62  C   UNL A   1      38.528  33.473  37.565  1.00  0.00     0.200 A 
ATOM     63  F   UNL A   1      39.919  35.187  36.728  1.00  0.00    -0.200 F 
ATOM     64  F   UNL A   1      38.088  34.285  38.536  1.00  0.00    -0.200 F 
ENDBRANCH  40  54
BRANCH  41  65
ATOM     65  C   UNL A   1      42.559  26.285  27.793  1.00  0.00     0.064 A 
ATOM     66  C   UNL A   1      42.060  24.997  27.552  1.00  0.00     0.173 A 
ATOM     67  C   UNL A   1      43.530  26.785  26.914  1.00  0.00     0.173 A 
ATOM     68  F   UNL A   1      41.144  24.471  28.378  1.00  0.00    -0.203 F 
ATOM     69  C   UNL A   1      42.526  24.232  26.486  1.00  0.00     0.198 A 
ATOM     70  C   UNL A   1      43.978  26.028  25.834  1.00  0.00     0.198 A 
ATOM     71  F   UNL A   1      44.034  28.014  27.099  1.00  0.00    -0.203 F 
ATOM     72  F   UNL A   1      42.062  22.988  26.304  1.00  0.00    -0.200 F 
ATOM     73  C   UNL A   1      43.481  24.750  25.625  1.00  0.00     0.200 A 
ATOM     74  F   UNL A   1      44.893  26.535  24.997  1.00  0.00    -0.200 F 
ATOM     75  F   UNL A   1      43.929  24.014  24.598  1.00  0.00    -0.200 F 
ENDBRANCH  41  65
BRANCH  53  76
ATOM     76  C   UNL A   1      44.817  27.150  34.320  1.00  0.00     0.064 A 
ATOM     77  C   UNL A   1      44.683  25.952  35.035  1.00  0.00     0.173 A 
ATOM     78  C   UNL A   1      46.075  27.771  34.296  1.00  0.00     0.173 A 
ATOM     79  F   UNL A   1      43.495  25.333  35.099  1.00  0.00    -0.203 F 
ATOM     80  C   UNL A   1      45.768  25.403  35.714  1.00  0.00     0.198 A 
ATOM     81  C   UNL A   1      47.161  27.207  34.957  1.00  0.00     0.198 A 
ATOM     82  F   UNL A   1      46.251  28.917  33.623  1.00  0.00    -0.203 F 
ATOM     83  F   UNL A   1      45.611  24.276  36.423  1.00  0.00    -0.200 F 
ATOM     84  C   UNL A   1      47.007  26.027  35.669  1.00  0.00     0.200 A 
ATOM     85  F   UNL A   1      48.360  27.804  34.904  1.00  0.00    -0.200 F 
ATOM     86  F   UNL A   1      48.050  25.493  36.318  1.00  0.00    -0.200 F 
ENDBRANCH  53  76
ENDBRANCH  27  28
ENDBRANCH  19  22
ENDBRANCH  17  18
ENDBRANCH  16  17
ENDBRANCH   1  16
TORSDOF 13
ENDMDL
