MODEL 1
REMARK VINA RESULT:     -11.0      0.000      0.000
REMARK SMILES CC(C)C[C@H](NC(=O)CNC(=O)[C@@H]([NH3+])C(C)C)C(=O)NCCCNC(=O)c1ccc(-c2c3nc(c(-c4c(F)c(F)c(F)c(F)c4F)c4ccc([nH]4)c(-c4c(F)c(F)c(F)c(F)c4F)c4nc(c(-c5c(F)c(F)c(F)c(F)c5F)c5ccc2[nH]5)C=C4)C=C3)cc1
REMARK SMILES IDX 18 1 19 2 20 3 5 5 4 6 2 7 1 8 3 9 6 10 7 11 8 13 9 14 10 15
REMARK SMILES IDX 11 16 12 18 13 19 14 20 15 24 16 25 17 26 21 27 22 28 23 29
REMARK SMILES IDX 24 30 25 31 26 33 27 34 28 35 89 36 29 37 88 38 30 39 31 40
REMARK SMILES IDX 32 41 82 42 33 43 87 44 81 45 83 46 34 47 86 48 80 49 79 50
REMARK SMILES IDX 35 52 67 53 47 54 66 55 48 56 51 57 65 58 84 59 49 60 50 61
REMARK SMILES IDX 64 63 85 64 52 65 36 66 37 67 45 68 38 69 39 70 43 71 46 72
REMARK SMILES IDX 40 73 41 74 44 75 42 76 68 77 69 78 77 79 70 80 71 81 75 82
REMARK SMILES IDX 78 83 72 84 73 85 76 86 74 87 53 88 54 89 62 90 55 91 56 92
REMARK SMILES IDX 60 93 63 94 57 95 58 96 61 97 59 98
REMARK H PARENT 20 4 6 12 10 17 14 21 14 22 14 23 24 32 83 51 51 62
REMARK Flexibility Score: inf
ROOT
ATOM      1  C   UNL A   1      30.738  29.517  23.927  1.00  0.00     0.242 C 
ATOM      2  O   UNL A   1      29.944  29.569  22.979  1.00  0.00    -0.273 OA
ATOM      3  N   UNL A   1      30.759  30.582  24.770  1.00  0.00    -0.354 N 
ATOM      4  H   UNL A   1      30.241  31.359  24.456  1.00  0.00     0.163 HD
ENDROOT
BRANCH   1   5
ATOM      5  C   UNL A   1      31.548  28.234  24.195  1.00  0.00     0.171 C 
BRANCH   5   6
ATOM      6  C   UNL A   1      32.972  28.321  23.629  1.00  0.00     0.038 C 
BRANCH   6   7
ATOM      7  C   UNL A   1      34.061  27.799  24.593  1.00  0.00    -0.015 C 
ATOM      8  C   UNL A   1      33.928  28.400  25.991  1.00  0.00     0.007 C 
ATOM      9  C   UNL A   1      33.989  26.274  24.677  1.00  0.00     0.007 C 
ENDBRANCH   6   7
ENDBRANCH   5   6
BRANCH   5  10
ATOM     10  N   UNL A   1      30.849  27.031  23.745  1.00  0.00    -0.343 N 
ATOM     11  C   UNL A   1      30.282  26.024  24.470  1.00  0.00     0.240 C 
ATOM     12  H   UNL A   1      30.778  26.931  22.768  1.00  0.00     0.164 HD
ATOM     13  O   UNL A   1      29.520  25.270  23.853  1.00  0.00    -0.273 OA
BRANCH  11  14
ATOM     14  C   UNL A   1      30.443  25.884  25.994  1.00  0.00     0.216 C 
BRANCH  14  15
ATOM     15  N   UNL A   1      29.793  24.730  26.596  1.00  0.00    -0.342 N 
ATOM     16  C   UNL A   1      30.250  23.462  26.797  1.00  0.00     0.278 C 
ATOM     17  H   UNL A   1      28.873  24.892  26.908  1.00  0.00     0.164 HD
ATOM     18  O   UNL A   1      29.479  22.676  27.360  1.00  0.00    -0.268 OA
BRANCH  16  19
ATOM     19  C   UNL A   1      31.676  23.004  26.393  1.00  0.00     0.273 C 
BRANCH  19  20
ATOM     20  N   UNL A   1      32.322  22.239  27.478  1.00  0.00    -0.347 N 
ATOM     21  H   UNL A   1      33.256  22.612  27.647  1.00  0.00     0.345 HD
ATOM     22  H   UNL A   1      32.390  21.258  27.208  1.00  0.00     0.345 HD
ATOM     23  H   UNL A   1      31.765  22.319  28.329  1.00  0.00     0.345 HD
ENDBRANCH  19  20
BRANCH  19  24
ATOM     24  C   UNL A   1      31.650  22.233  25.052  1.00  0.00     0.051 C 
ATOM     25  C   UNL A   1      32.430  23.003  23.976  1.00  0.00     0.014 C 
ATOM     26  C   UNL A   1      32.251  20.827  25.176  1.00  0.00     0.014 C 
ENDBRANCH  19  24
ENDBRANCH  16  19
ENDBRANCH  14  15
ENDBRANCH  11  14
ENDBRANCH   5  10
ENDBRANCH   1   5
BRANCH   3  27
ATOM     27  C   UNL A   1      31.411  30.779  26.051  1.00  0.00     0.117 C 
BRANCH  27  28
ATOM     28  C   UNL A   1      31.339  32.223  26.520  1.00  0.00     0.042 C 
BRANCH  28  29
ATOM     29  C   UNL A   1      32.657  32.771  27.052  1.00  0.00     0.118 C 
BRANCH  29  30
ATOM     30  N   UNL A   1      32.517  34.089  27.657  1.00  0.00    -0.352 N 
ATOM     31  C   UNL A   1      33.149  34.646  28.736  1.00  0.00     0.251 C 
ATOM     32  H   UNL A   1      31.858  34.675  27.219  1.00  0.00     0.163 HD
ATOM     33  O   UNL A   1      32.725  35.702  29.206  1.00  0.00    -0.269 OA
BRANCH  31  34
ATOM     34  C   UNL A   1      34.325  33.995  29.347  1.00  0.00     0.039 A 
ATOM     35  C   UNL A   1      35.603  34.411  28.961  1.00  0.00     0.014 A 
ATOM     36  C   UNL A   1      34.180  32.940  30.251  1.00  0.00     0.014 A 
ATOM     37  C   UNL A   1      36.729  33.797  29.511  1.00  0.00     0.010 A 
ATOM     38  C   UNL A   1      35.299  32.394  30.870  1.00  0.00     0.010 A 
ATOM     39  C   UNL A   1      36.585  32.795  30.484  1.00  0.00    -0.014 A 
BRANCH  39  40
ATOM     40  C   UNL A   1      37.768  32.110  31.060  1.00  0.00     0.031 A 
ATOM     41  C   UNL A   1      38.246  32.475  32.440  1.00  0.00     0.074 A 
ATOM     42  C   UNL A   1      38.436  31.198  30.330  1.00  0.00     0.049 A 
ATOM     43  N   UNL A   1      39.277  32.023  33.108  1.00  0.00    -0.248 NA
ATOM     44  C   UNL A   1      37.483  33.513  33.151  1.00  0.00     0.031 C 
ATOM     45  C   UNL A   1      38.107  30.805  28.959  1.00  0.00     0.029 A 
ATOM     46  N   UNL A   1      39.534  30.437  30.640  1.00  0.00    -0.354 N 
ATOM     47  C   UNL A   1      39.296  32.738  34.300  1.00  0.00     0.074 A 
ATOM     48  C   UNL A   1      38.214  33.693  34.240  1.00  0.00     0.031 C 
ATOM     49  C   UNL A   1      38.965  29.854  28.557  1.00  0.00     0.029 A 
ATOM     50  C   UNL A   1      39.917  29.587  29.631  1.00  0.00     0.049 A 
ATOM     51  H   UNL A   1      40.003  30.494  31.504  1.00  0.00     0.167 HD
ATOM     52  C   UNL A   1      40.124  32.589  35.362  1.00  0.00     0.037 A 
ATOM     53  C   UNL A   1      40.918  28.688  29.588  1.00  0.00     0.037 A 
ATOM     54  C   UNL A   1      41.171  31.605  35.435  1.00  0.00     0.049 A 
ATOM     55  C   UNL A   1      41.788  28.504  30.800  1.00  0.00     0.074 A 
ATOM     56  C   UNL A   1      42.031  31.333  36.483  1.00  0.00     0.029 A 
ATOM     57  N   UNL A   1      41.491  30.723  34.413  1.00  0.00    -0.354 N 
ATOM     58  N   UNL A   1      41.756  29.138  31.947  1.00  0.00    -0.248 NA
ATOM     59  C   UNL A   1      42.822  27.463  30.718  1.00  0.00     0.031 C 
ATOM     60  C   UNL A   1      42.890  30.302  36.086  1.00  0.00     0.029 A 
ATOM     61  C   UNL A   1      42.537  29.906  34.806  1.00  0.00     0.049 A 
ATOM     62  H   UNL A   1      41.040  30.683  33.538  1.00  0.00     0.167 HD
ATOM     63  C   UNL A   1      42.737  28.552  32.734  1.00  0.00     0.074 A 
ATOM     64  C   UNL A   1      43.341  27.503  31.938  1.00  0.00     0.031 C 
ATOM     65  C   UNL A   1      43.107  28.854  34.003  1.00  0.00     0.037 A 
BRANCH  52  66
ATOM     66  C   UNL A   1      39.916  33.504  36.533  1.00  0.00     0.064 A 
ATOM     67  C   UNL A   1      40.593  34.728  36.640  1.00  0.00     0.173 A 
ATOM     68  C   UNL A   1      39.017  33.161  37.555  1.00  0.00     0.173 A 
ATOM     69  F   UNL A   1      41.475  35.096  35.698  1.00  0.00    -0.203 F 
ATOM     70  C   UNL A   1      40.405  35.560  37.741  1.00  0.00     0.198 A 
ATOM     71  C   UNL A   1      38.808  34.009  38.640  1.00  0.00     0.198 A 
ATOM     72  F   UNL A   1      38.341  32.004  37.502  1.00  0.00    -0.203 F 
ATOM     73  F   UNL A   1      41.104  36.697  37.847  1.00  0.00    -0.200 F 
ATOM     74  C   UNL A   1      39.507  35.203  38.736  1.00  0.00     0.200 A 
ATOM     75  F   UNL A   1      37.933  33.668  39.596  1.00  0.00    -0.200 F 
ATOM     76  F   UNL A   1      39.325  36.005  39.794  1.00  0.00    -0.200 F 
ENDBRANCH  52  66
BRANCH  53  77
ATOM     77  C   UNL A   1      41.110  27.852  28.375  1.00  0.00     0.064 A 
ATOM     78  C   UNL A   1      40.452  26.621  28.242  1.00  0.00     0.173 A 
ATOM     79  C   UNL A   1      41.949  28.261  27.329  1.00  0.00     0.173 A 
ATOM     80  F   UNL A   1      39.652  26.181  29.225  1.00  0.00    -0.203 F 
ATOM     81  C   UNL A   1      40.644  25.820  27.119  1.00  0.00     0.198 A 
ATOM     82  C   UNL A   1      42.120  27.470  26.194  1.00  0.00     0.198 A 
ATOM     83  F   UNL A   1      42.594  29.434  27.404  1.00  0.00    -0.203 F 
ATOM     84  F   UNL A   1      40.037  24.628  27.038  1.00  0.00    -0.200 F 
ATOM     85  C   UNL A   1      41.474  26.246  26.094  1.00  0.00     0.200 A 
ATOM     86  F   UNL A   1      42.913  27.892  25.199  1.00  0.00    -0.200 F 
ATOM     87  F   UNL A   1      41.656  25.477  25.013  1.00  0.00    -0.200 F 
ENDBRANCH  53  77
BRANCH  65  88
ATOM     88  C   UNL A   1      44.176  28.007  34.624  1.00  0.00     0.064 A 
ATOM     89  C   UNL A   1      45.529  28.370  34.571  1.00  0.00     0.173 A 
ATOM     90  C   UNL A   1      43.837  26.829  35.309  1.00  0.00     0.173 A 
ATOM     91  F   UNL A   1      45.905  29.481  33.918  1.00  0.00    -0.203 F 
ATOM     92  C   UNL A   1      46.507  27.570  35.155  1.00  0.00     0.198 A 
ATOM     93  C   UNL A   1      44.814  26.046  35.914  1.00  0.00     0.198 A 
ATOM     94  F   UNL A   1      42.555  26.442  35.393  1.00  0.00    -0.203 F 
ATOM     95  F   UNL A   1      47.800  27.910  35.049  1.00  0.00    -0.200 F 
ATOM     96  C   UNL A   1      46.149  26.412  35.829  1.00  0.00     0.200 A 
ATOM     97  F   UNL A   1      44.465  24.935  36.576  1.00  0.00    -0.200 F 
ATOM     98  F   UNL A   1      47.092  25.644  36.392  1.00  0.00    -0.200 F 
ENDBRANCH  65  88
ENDBRANCH  39  40
ENDBRANCH  31  34
ENDBRANCH  29  30
ENDBRANCH  28  29
ENDBRANCH  27  28
ENDBRANCH   3  27
TORSDOF 18
ENDMDL
MODEL 2
REMARK VINA RESULT:     -10.9      0.686      2.175
REMARK SMILES CC(C)C[C@H](NC(=O)CNC(=O)[C@@H]([NH3+])C(C)C)C(=O)NCCCNC(=O)c1ccc(-c2c3nc(c(-c4c(F)c(F)c(F)c(F)c4F)c4ccc([nH]4)c(-c4c(F)c(F)c(F)c(F)c4F)c4nc(c(-c5c(F)c(F)c(F)c(F)c5F)c5ccc2[nH]5)C=C4)C=C3)cc1
REMARK SMILES IDX 18 1 19 2 20 3 5 5 4 6 2 7 1 8 3 9 6 10 7 11 8 13 9 14 10 15
REMARK SMILES IDX 11 16 12 18 13 19 14 20 15 24 16 25 17 26 21 27 22 28 23 29
REMARK SMILES IDX 24 30 25 31 26 33 27 34 28 35 89 36 29 37 88 38 30 39 31 40
REMARK SMILES IDX 32 41 82 42 33 43 87 44 81 45 83 46 34 47 86 48 80 49 79 50
REMARK SMILES IDX 35 52 67 53 47 54 66 55 48 56 51 57 65 58 84 59 49 60 50 61
REMARK SMILES IDX 64 63 85 64 52 65 36 66 37 67 45 68 38 69 39 70 43 71 46 72
REMARK SMILES IDX 40 73 41 74 44 75 42 76 68 77 69 78 77 79 70 80 71 81 75 82
REMARK SMILES IDX 78 83 72 84 73 85 76 86 74 87 53 88 54 89 62 90 55 91 56 92
REMARK SMILES IDX 60 93 63 94 57 95 58 96 61 97 59 98
REMARK H PARENT 20 4 6 12 10 17 14 21 14 22 14 23 24 32 83 51 51 62
REMARK Flexibility Score: inf
ROOT
ATOM      1  C   UNL A   1      31.450  29.403  24.003  1.00  0.00     0.242 C 
ATOM      2  O   UNL A   1      31.142  29.349  22.806  1.00  0.00    -0.273 OA
ATOM      3  N   UNL A   1      31.035  30.497  24.696  1.00  0.00    -0.354 N 
ATOM      4  H   UNL A   1      30.655  31.212  24.136  1.00  0.00     0.163 HD
ENDROOT
BRANCH   1   5
ATOM      5  C   UNL A   1      32.145  28.208  24.684  1.00  0.00     0.171 C 
BRANCH   5   6
ATOM      6  C   UNL A   1      33.583  28.540  25.105  1.00  0.00     0.038 C 
BRANCH   6   7
ATOM      7  C   UNL A   1      33.882  28.247  26.592  1.00  0.00    -0.015 C 
ATOM      8  C   UNL A   1      34.610  29.406  27.272  1.00  0.00     0.007 C 
ATOM      9  C   UNL A   1      32.579  27.949  27.333  1.00  0.00     0.007 C 
ENDBRANCH   6   7
ENDBRANCH   5   6
BRANCH   5  10
ATOM     10  N   UNL A   1      32.075  26.991  23.877  1.00  0.00    -0.343 N 
ATOM     11  C   UNL A   1      31.403  25.826  24.105  1.00  0.00     0.240 C 
ATOM     12  H   UNL A   1      32.594  27.015  23.040  1.00  0.00     0.164 HD
ATOM     13  O   UNL A   1      31.290  25.063  23.138  1.00  0.00    -0.273 OA
BRANCH  11  14
ATOM     14  C   UNL A   1      30.690  25.506  25.431  1.00  0.00     0.216 C 
BRANCH  14  15
ATOM     15  N   UNL A   1      30.266  24.125  25.604  1.00  0.00    -0.342 N 
ATOM     16  C   UNL A   1      30.926  23.056  26.134  1.00  0.00     0.278 C 
ATOM     17  H   UNL A   1      29.355  23.931  25.287  1.00  0.00     0.164 HD
ATOM     18  O   UNL A   1      30.309  21.986  26.176  1.00  0.00    -0.268 OA
BRANCH  16  19
ATOM     19  C   UNL A   1      32.365  23.152  26.705  1.00  0.00     0.273 C 
BRANCH  19  20
ATOM     20  N   UNL A   1      32.597  22.135  27.750  1.00  0.00    -0.347 N 
ATOM     21  H   UNL A   1      31.735  21.615  27.915  1.00  0.00     0.345 HD
ATOM     22  H   UNL A   1      32.890  22.593  28.612  1.00  0.00     0.345 HD
ATOM     23  H   UNL A   1      33.328  21.492  27.442  1.00  0.00     0.345 HD
ENDBRANCH  19  20
BRANCH  19  24
ATOM     24  C   UNL A   1      33.416  23.093  25.570  1.00  0.00     0.051 C 
ATOM     25  C   UNL A   1      34.467  24.197  25.755  1.00  0.00     0.014 C 
ATOM     26  C   UNL A   1      34.137  21.740  25.513  1.00  0.00     0.014 C 
ENDBRANCH  19  24
ENDBRANCH  16  19
ENDBRANCH  14  15
ENDBRANCH  11  14
ENDBRANCH   5  10
ENDBRANCH   1   5
BRANCH   3  27
ATOM     27  C   UNL A   1      31.055  30.797  26.114  1.00  0.00     0.117 C 
BRANCH  27  28
ATOM     28  C   UNL A   1      31.198  32.286  26.387  1.00  0.00     0.042 C 
BRANCH  28  29
ATOM     29  C   UNL A   1      32.511  32.673  27.058  1.00  0.00     0.118 C 
BRANCH  29  30
ATOM     30  N   UNL A   1      32.498  34.033  27.580  1.00  0.00    -0.352 N 
ATOM     31  C   UNL A   1      33.235  34.611  28.578  1.00  0.00     0.251 C 
ATOM     32  H   UNL A   1      31.851  34.634  27.144  1.00  0.00     0.163 HD
ATOM     33  O   UNL A   1      32.914  35.722  29.001  1.00  0.00    -0.269 OA
BRANCH  31  34
ATOM     34  C   UNL A   1      34.404  33.919  29.158  1.00  0.00     0.039 A 
ATOM     35  C   UNL A   1      34.190  32.836  30.016  1.00  0.00     0.014 A 
ATOM     36  C   UNL A   1      35.705  34.364  28.909  1.00  0.00     0.014 A 
ATOM     37  C   UNL A   1      35.279  32.179  30.589  1.00  0.00     0.010 A 
ATOM     38  C   UNL A   1      36.791  33.651  29.403  1.00  0.00     0.010 A 
ATOM     39  C   UNL A   1      36.590  32.571  30.273  1.00  0.00    -0.014 A 
BRANCH  39  40
ATOM     40  C   UNL A   1      37.760  31.904  30.894  1.00  0.00     0.031 A 
ATOM     41  C   UNL A   1      38.178  32.274  32.291  1.00  0.00     0.074 A 
ATOM     42  C   UNL A   1      38.469  31.002  30.189  1.00  0.00     0.049 A 
ATOM     43  N   UNL A   1      39.189  31.837  32.998  1.00  0.00    -0.248 NA
ATOM     44  C   UNL A   1      37.372  33.300  32.973  1.00  0.00     0.031 C 
ATOM     45  C   UNL A   1      38.200  30.606  28.806  1.00  0.00     0.029 A 
ATOM     46  N   UNL A   1      39.566  30.258  30.541  1.00  0.00    -0.354 N 
ATOM     47  C   UNL A   1      39.152  32.550  34.190  1.00  0.00     0.074 A 
ATOM     48  C   UNL A   1      38.058  33.489  34.090  1.00  0.00     0.031 C 
ATOM     49  C   UNL A   1      39.087  29.669  28.437  1.00  0.00     0.029 A 
ATOM     50  C   UNL A   1      40.001  29.415  29.547  1.00  0.00     0.049 A 
ATOM     51  H   UNL A   1      40.001  30.321  31.422  1.00  0.00     0.167 HD
ATOM     52  C   UNL A   1      39.940  32.413  35.283  1.00  0.00     0.037 A 
ATOM     53  C   UNL A   1      41.016  28.532  29.542  1.00  0.00     0.037 A 
ATOM     54  C   UNL A   1      40.998  31.445  35.396  1.00  0.00     0.049 A 
ATOM     55  C   UNL A   1      41.841  28.359  30.787  1.00  0.00     0.074 A 
ATOM     56  C   UNL A   1      41.821  31.185  36.477  1.00  0.00     0.029 A 
ATOM     57  N   UNL A   1      41.371  30.569  34.388  1.00  0.00    -0.354 N 
ATOM     58  N   UNL A   1      41.755  28.991  31.933  1.00  0.00    -0.248 NA
ATOM     59  C   UNL A   1      42.894  27.334  30.745  1.00  0.00     0.031 C 
ATOM     60  C   UNL A   1      42.710  30.168  36.113  1.00  0.00     0.029 A 
ATOM     61  C   UNL A   1      42.413  29.767  34.820  1.00  0.00     0.049 A 
ATOM     62  H   UNL A   1      40.954  30.523  33.496  1.00  0.00     0.167 HD
ATOM     63  C   UNL A   1      42.714  28.420  32.757  1.00  0.00     0.074 A 
ATOM     64  C   UNL A   1      43.364  27.381  31.984  1.00  0.00     0.031 C 
ATOM     65  C   UNL A   1      43.029  28.726  34.039  1.00  0.00     0.037 A 
BRANCH  52  66
ATOM     66  C   UNL A   1      39.672  33.323  36.446  1.00  0.00     0.064 A 
ATOM     67  C   UNL A   1      38.746  32.986  37.445  1.00  0.00     0.173 A 
ATOM     68  C   UNL A   1      40.360  34.539  36.574  1.00  0.00     0.173 A 
ATOM     69  F   UNL A   1      38.049  31.842  37.363  1.00  0.00    -0.203 F 
ATOM     70  C   UNL A   1      38.493  33.847  38.510  1.00  0.00     0.198 A 
ATOM     71  C   UNL A   1      40.127  35.384  37.657  1.00  0.00     0.198 A 
ATOM     72  F   UNL A   1      41.259  34.909  35.650  1.00  0.00    -0.203 F 
ATOM     73  F   UNL A   1      37.563  33.529  39.421  1.00  0.00    -0.200 F 
ATOM     74  C   UNL A   1      39.189  35.042  38.619  1.00  0.00     0.200 A 
ATOM     75  F   UNL A   1      40.807  36.534  37.765  1.00  0.00    -0.200 F 
ATOM     76  F   UNL A   1      38.946  35.869  39.645  1.00  0.00    -0.200 F 
ENDBRANCH  52  66
BRANCH  53  77
ATOM     77  C   UNL A   1      41.268  27.700  28.337  1.00  0.00     0.064 A 
ATOM     78  C   UNL A   1      42.183  28.115  27.359  1.00  0.00     0.173 A 
ATOM     79  C   UNL A   1      40.605  26.481  28.138  1.00  0.00     0.173 A 
ATOM     80  F   UNL A   1      42.829  29.282  27.500  1.00  0.00    -0.203 F 
ATOM     81  C   UNL A   1      42.408  27.353  26.215  1.00  0.00     0.198 A 
ATOM     82  C   UNL A   1      40.851  25.707  27.005  1.00  0.00     0.198 A 
ATOM     83  F   UNL A   1      39.727  26.037  29.048  1.00  0.00    -0.203 F 
ATOM     84  F   UNL A   1      43.256  27.793  25.275  1.00  0.00    -0.200 F 
ATOM     85  C   UNL A   1      41.746  26.147  26.041  1.00  0.00     0.200 A 
ATOM     86  F   UNL A   1      40.219  24.536  26.847  1.00  0.00    -0.200 F 
ATOM     87  F   UNL A   1      41.965  25.413  24.942  1.00  0.00    -0.200 F 
ENDBRANCH  53  77
BRANCH  65  88
ATOM     88  C   UNL A   1      44.087  27.894  34.701  1.00  0.00     0.064 A 
ATOM     89  C   UNL A   1      43.779  26.691  35.354  1.00  0.00     0.173 A 
ATOM     90  C   UNL A   1      45.432  28.292  34.653  1.00  0.00     0.173 A 
ATOM     91  F   UNL A   1      42.506  26.275  35.436  1.00  0.00    -0.203 F 
ATOM     92  C   UNL A   1      44.776  25.933  35.961  1.00  0.00     0.198 A 
ATOM     93  C   UNL A   1      46.429  27.517  35.238  1.00  0.00     0.198 A 
ATOM     94  F   UNL A   1      45.778  29.431  34.034  1.00  0.00    -0.203 F 
ATOM     95  F   UNL A   1      44.453  24.813  36.623  1.00  0.00    -0.200 F 
ATOM     96  C   UNL A   1      46.100  26.344  35.899  1.00  0.00     0.200 A 
ATOM     97  F   UNL A   1      47.708  27.909  35.166  1.00  0.00    -0.200 F 
ATOM     98  F   UNL A   1      47.058  25.611  36.483  1.00  0.00    -0.200 F 
ENDBRANCH  65  88
ENDBRANCH  39  40
ENDBRANCH  31  34
ENDBRANCH  29  30
ENDBRANCH  28  29
ENDBRANCH  27  28
ENDBRANCH   3  27
TORSDOF 18
ENDMDL
MODEL 3
REMARK VINA RESULT:     -10.9      1.982      2.756
REMARK SMILES CC(C)C[C@H](NC(=O)CNC(=O)[C@@H]([NH3+])C(C)C)C(=O)NCCCNC(=O)c1ccc(-c2c3nc(c(-c4c(F)c(F)c(F)c(F)c4F)c4ccc([nH]4)c(-c4c(F)c(F)c(F)c(F)c4F)c4nc(c(-c5c(F)c(F)c(F)c(F)c5F)c5ccc2[nH]5)C=C4)C=C3)cc1
REMARK SMILES IDX 18 1 19 2 20 3 5 5 4 6 2 7 1 8 3 9 6 10 7 11 8 13 9 14 10 15
REMARK SMILES IDX 11 16 12 18 13 19 14 20 15 24 16 25 17 26 21 27 22 28 23 29
REMARK SMILES IDX 24 30 25 31 26 33 27 34 28 35 89 36 29 37 88 38 30 39 31 40
REMARK SMILES IDX 32 41 82 42 33 43 87 44 81 45 83 46 34 47 86 48 80 49 79 50
REMARK SMILES IDX 35 52 67 53 47 54 66 55 48 56 51 57 65 58 84 59 49 60 50 61
REMARK SMILES IDX 64 63 85 64 52 65 36 66 37 67 45 68 38 69 39 70 43 71 46 72
REMARK SMILES IDX 40 73 41 74 44 75 42 76 68 77 69 78 77 79 70 80 71 81 75 82
REMARK SMILES IDX 78 83 72 84 73 85 76 86 74 87 53 88 54 89 62 90 55 91 56 92
REMARK SMILES IDX 60 93 63 94 57 95 58 96 61 97 59 98
REMARK H PARENT 20 4 6 12 10 17 14 21 14 22 14 23 24 32 83 51 51 62
REMARK Flexibility Score: inf
ROOT
ATOM      1  C   UNL A   1      30.316  25.913  26.015  1.00  0.00     0.242 C 
ATOM      2  O   UNL A   1      29.509  25.105  26.492  1.00  0.00    -0.273 OA
ATOM      3  N   UNL A   1      31.116  26.574  26.893  1.00  0.00    -0.354 N 
ATOM      4  H   UNL A   1      30.870  26.451  27.838  1.00  0.00     0.163 HD
ENDROOT
BRANCH   1   5
ATOM      5  C   UNL A   1      30.482  26.039  24.488  1.00  0.00     0.171 C 
BRANCH   5   6
ATOM      6  C   UNL A   1      29.427  26.965  23.867  1.00  0.00     0.038 C 
BRANCH   6   7
ATOM      7  C   UNL A   1      30.006  27.991  22.867  1.00  0.00    -0.015 C 
ATOM      8  C   UNL A   1      29.451  29.395  23.097  1.00  0.00     0.007 C 
ATOM      9  C   UNL A   1      31.531  28.013  22.974  1.00  0.00     0.007 C 
ENDBRANCH   6   7
ENDBRANCH   5   6
BRANCH   5  10
ATOM     10  N   UNL A   1      30.532  24.737  23.825  1.00  0.00    -0.343 N 
ATOM     11  C   UNL A   1      31.537  23.817  23.776  1.00  0.00     0.240 C 
ATOM     12  H   UNL A   1      29.714  24.487  23.338  1.00  0.00     0.164 HD
ATOM     13  O   UNL A   1      31.223  22.687  23.381  1.00  0.00    -0.273 OA
BRANCH  11  14
ATOM     14  C   UNL A   1      32.957  24.085  24.305  1.00  0.00     0.216 C 
BRANCH  14  15
ATOM     15  N   UNL A   1      33.247  23.567  25.632  1.00  0.00    -0.342 N 
ATOM     16  C   UNL A   1      34.436  23.261  26.224  1.00  0.00     0.278 C 
ATOM     17  H   UNL A   1      32.454  23.411  26.196  1.00  0.00     0.164 HD
ATOM     18  O   UNL A   1      34.390  22.851  27.389  1.00  0.00    -0.268 OA
BRANCH  16  19
ATOM     19  C   UNL A   1      35.804  23.449  25.516  1.00  0.00     0.273 C 
BRANCH  19  20
ATOM     20  N   UNL A   1      36.906  23.547  26.493  1.00  0.00    -0.347 N 
ATOM     21  H   UNL A   1      36.606  24.110  27.288  1.00  0.00     0.345 HD
ATOM     22  H   UNL A   1      37.714  23.984  26.051  1.00  0.00     0.345 HD
ATOM     23  H   UNL A   1      37.159  22.612  26.814  1.00  0.00     0.345 HD
ENDBRANCH  19  20
BRANCH  19  24
ATOM     24  C   UNL A   1      36.037  22.341  24.461  1.00  0.00     0.051 C 
ATOM     25  C   UNL A   1      36.586  22.945  23.161  1.00  0.00     0.014 C 
ATOM     26  C   UNL A   1      37.018  21.267  24.950  1.00  0.00     0.014 C 
ENDBRANCH  19  24
ENDBRANCH  16  19
ENDBRANCH  14  15
ENDBRANCH  11  14
ENDBRANCH   5  10
ENDBRANCH   1   5
BRANCH   3  27
ATOM     27  C   UNL A   1      32.268  27.430  26.683  1.00  0.00     0.117 C 
BRANCH  27  28
ATOM     28  C   UNL A   1      31.888  28.900  26.601  1.00  0.00     0.042 C 
BRANCH  28  29
ATOM     29  C   UNL A   1      32.963  29.788  25.985  1.00  0.00     0.118 C 
BRANCH  29  30
ATOM     30  N   UNL A   1      32.792  31.195  26.321  1.00  0.00    -0.352 N 
ATOM     31  C   UNL A   1      33.441  31.977  27.237  1.00  0.00     0.251 C 
ATOM     32  H   UNL A   1      32.094  31.659  25.804  1.00  0.00     0.163 HD
ATOM     33  O   UNL A   1      32.993  33.092  27.506  1.00  0.00    -0.269 OA
BRANCH  31  34
ATOM     34  C   UNL A   1      34.665  31.500  27.911  1.00  0.00     0.039 A 
ATOM     35  C   UNL A   1      34.703  30.189  28.395  1.00  0.00     0.014 A 
ATOM     36  C   UNL A   1      35.754  32.351  28.122  1.00  0.00     0.014 A 
ATOM     37  C   UNL A   1      35.842  29.723  29.052  1.00  0.00     0.010 A 
ATOM     38  C   UNL A   1      36.923  31.859  28.690  1.00  0.00     0.010 A 
ATOM     39  C   UNL A   1      36.969  30.549  29.188  1.00  0.00    -0.014 A 
BRANCH  39  40
ATOM     40  C   UNL A   1      38.179  30.082  29.908  1.00  0.00     0.031 A 
ATOM     41  C   UNL A   1      38.442  30.552  31.313  1.00  0.00     0.074 A 
ATOM     42  C   UNL A   1      39.059  29.276  29.285  1.00  0.00     0.049 A 
ATOM     43  N   UNL A   1      39.456  30.290  32.099  1.00  0.00    -0.248 NA
ATOM     44  C   UNL A   1      37.450  31.465  31.902  1.00  0.00     0.031 C 
ATOM     45  C   UNL A   1      38.946  28.804  27.904  1.00  0.00     0.029 A 
ATOM     46  N   UNL A   1      40.227  28.714  29.734  1.00  0.00    -0.354 N 
ATOM     47  C   UNL A   1      39.232  31.025  33.258  1.00  0.00     0.074 A 
ATOM     48  C   UNL A   1      38.022  31.788  33.051  1.00  0.00     0.031 C 
ATOM     49  C   UNL A   1      39.984  27.999  27.629  1.00  0.00     0.029 A 
ATOM     50  C   UNL A   1      40.847  27.916  28.804  1.00  0.00     0.049 A 
ATOM     51  H   UNL A   1      40.586  28.867  30.638  1.00  0.00     0.167 HD
ATOM     52  C   UNL A   1      39.956  31.039  34.403  1.00  0.00     0.037 A 
ATOM     53  C   UNL A   1      41.979  27.194  28.898  1.00  0.00     0.037 A 
ATOM     54  C   UNL A   1      41.134  30.243  34.621  1.00  0.00     0.049 A 
ATOM     55  C   UNL A   1      42.733  27.183  30.198  1.00  0.00     0.074 A 
ATOM     56  C   UNL A   1      41.910  30.140  35.761  1.00  0.00     0.029 A 
ATOM     57  N   UNL A   1      41.699  29.402  33.672  1.00  0.00    -0.354 N 
ATOM     58  N   UNL A   1      42.478  27.828  31.310  1.00  0.00    -0.248 NA
ATOM     59  C   UNL A   1      43.925  26.325  30.263  1.00  0.00     0.031 C 
ATOM     60  C   UNL A   1      42.962  29.256  35.494  1.00  0.00     0.029 A 
ATOM     61  C   UNL A   1      42.816  28.778  34.201  1.00  0.00     0.049 A 
ATOM     62  H   UNL A   1      41.356  29.269  32.759  1.00  0.00     0.167 HD
ATOM     63  C   UNL A   1      43.451  27.430  32.215  1.00  0.00     0.074 A 
ATOM     64  C   UNL A   1      44.297  26.477  31.526  1.00  0.00     0.031 C 
ATOM     65  C   UNL A   1      43.630  27.817  33.502  1.00  0.00     0.037 A 
BRANCH  52  66
ATOM     66  C   UNL A   1      39.479  31.932  35.510  1.00  0.00     0.064 A 
ATOM     67  C   UNL A   1      39.917  33.261  35.624  1.00  0.00     0.173 A 
ATOM     68  C   UNL A   1      38.561  31.461  36.462  1.00  0.00     0.173 A 
ATOM     69  F   UNL A   1      40.807  33.755  34.750  1.00  0.00    -0.203 F 
ATOM     70  C   UNL A   1      39.481  34.074  36.667  1.00  0.00     0.198 A 
ATOM     71  C   UNL A   1      38.103  32.288  37.486  1.00  0.00     0.198 A 
ATOM     72  F   UNL A   1      38.107  30.201  36.399  1.00  0.00    -0.203 F 
ATOM     73  F   UNL A   1      39.957  35.321  36.785  1.00  0.00    -0.200 F 
ATOM     74  C   UNL A   1      38.569  33.589  37.592  1.00  0.00     0.200 A 
ATOM     75  F   UNL A   1      37.215  31.821  38.374  1.00  0.00    -0.200 F 
ATOM     76  F   UNL A   1      38.148  34.374  38.594  1.00  0.00    -0.200 F 
ENDBRANCH  52  66
BRANCH  53  77
ATOM     77  C   UNL A   1      42.432  26.374  27.744  1.00  0.00     0.064 A 
ATOM     78  C   UNL A   1      41.903  25.094  27.524  1.00  0.00     0.173 A 
ATOM     79  C   UNL A   1      43.395  26.847  26.843  1.00  0.00     0.173 A 
ATOM     80  F   UNL A   1      40.989  24.594  28.370  1.00  0.00    -0.203 F 
ATOM     81  C   UNL A   1      42.338  24.309  26.459  1.00  0.00     0.198 A 
ATOM     82  C   UNL A   1      43.811  26.071  25.763  1.00  0.00     0.198 A 
ATOM     83  F   UNL A   1      43.926  28.067  27.006  1.00  0.00    -0.203 F 
ATOM     84  F   UNL A   1      41.847  23.073  26.297  1.00  0.00    -0.200 F 
ATOM     85  C   UNL A   1      43.288  24.799  25.577  1.00  0.00     0.200 A 
ATOM     86  F   UNL A   1      44.720  26.553  24.905  1.00  0.00    -0.200 F 
ATOM     87  F   UNL A   1      43.704  24.045  24.551  1.00  0.00    -0.200 F 
ENDBRANCH  53  77
BRANCH  65  88
ATOM     88  C   UNL A   1      44.750  27.171  34.261  1.00  0.00     0.064 A 
ATOM     89  C   UNL A   1      46.019  27.762  34.349  1.00  0.00     0.173 A 
ATOM     90  C   UNL A   1      44.540  25.958  34.936  1.00  0.00     0.173 A 
ATOM     91  F   UNL A   1      46.271  28.915  33.711  1.00  0.00    -0.203 F 
ATOM     92  C   UNL A   1      47.045  27.147  35.060  1.00  0.00     0.198 A 
ATOM     93  C   UNL A   1      45.561  25.360  35.667  1.00  0.00     0.198 A 
ATOM     94  F   UNL A   1      43.341  25.357  34.888  1.00  0.00    -0.203 F 
ATOM     95  F   UNL A   1      48.265  27.704  35.089  1.00  0.00    -0.200 F 
ATOM     96  C   UNL A   1      46.815  25.950  35.722  1.00  0.00     0.200 A 
ATOM     97  F   UNL A   1      45.333  24.211  36.317  1.00  0.00    -0.200 F 
ATOM     98  F   UNL A   1      47.805  25.361  36.407  1.00  0.00    -0.200 F 
ENDBRANCH  65  88
ENDBRANCH  39  40
ENDBRANCH  31  34
ENDBRANCH  29  30
ENDBRANCH  28  29
ENDBRANCH  27  28
ENDBRANCH   3  27
TORSDOF 18
ENDMDL
