MODEL 1
REMARK VINA RESULT:     -14.0      0.000      0.000
REMARK SMILES Cc1ccc(S(=O)(=O)N2CCN(C(=O)[C@H]3CCCC[C@H]3C(=O)NCCCNC(=O)c3ccc(-c4c5nc(c(-c6c(F)c(F)c(F)c(F)c6F)c6ccc([nH]6)c(-c6c(F)c(F)c(F)c(F)c6F)c6nc(c(-c7c(F)c(F)c(F)c(F)c7F)c7ccc4[nH]7)C=C6)C=C5)cc3)CC2)cc1C
REMARK SMILES IDX 24 1 23 2 21 3 22 4 20 6 15 7 16 8 17 9 19 10 18 11 13 12
REMARK SMILES IDX 9 13 10 14 94 15 11 16 93 17 12 18 14 19 6 20 7 21 8 22 5 23
REMARK SMILES IDX 1 24 2 25 3 26 96 27 4 28 95 29 97 30 25 31 26 32 27 33
REMARK SMILES IDX 28 34 29 36 30 37 31 38 92 39 32 40 91 41 33 42 34 43 35 44
REMARK SMILES IDX 85 45 36 46 90 47 84 48 86 49 37 50 89 51 83 52 82 53 38 55
REMARK SMILES IDX 70 56 50 57 69 58 51 59 54 60 68 61 87 62 52 63 53 64 67 66
REMARK SMILES IDX 88 67 55 68 39 69 40 70 48 71 41 72 42 73 46 74 49 75 43 76
REMARK SMILES IDX 44 77 47 78 45 79 71 80 72 81 80 82 73 83 74 84 78 85 81 86
REMARK SMILES IDX 75 87 76 88 79 89 77 90 56 91 57 92 65 93 58 94 59 95 63 96
REMARK SMILES IDX 66 97 60 98 61 99 64 100 62 101
REMARK H PARENT 23 5 27 35 86 54 54 65
REMARK Flexibility Score: inf
ROOT
ATOM      1  C   UNL A   1      34.189  30.605  27.251  1.00  0.00     0.117 C 
ENDROOT
BRANCH   1   2
ATOM      2  N   UNL A   1      33.145  29.620  27.491  1.00  0.00    -0.356 N 
ATOM      3  C   UNL A   1      32.236  29.013  26.685  1.00  0.00     0.223 C 
ATOM      4  O   UNL A   1      31.402  28.291  27.246  1.00  0.00    -0.275 OA
ATOM      5  H   UNL A   1      33.086  29.336  28.431  1.00  0.00     0.163 HD
BRANCH   3   6
ATOM      6  C   UNL A   1      32.210  29.136  25.157  1.00  0.00     0.091 C 
ATOM      7  C   UNL A   1      33.152  28.183  24.365  1.00  0.00     0.091 C 
ATOM      8  C   UNL A   1      32.945  28.302  22.848  1.00  0.00     0.014 C 
ATOM      9  C   UNL A   1      31.480  28.284  22.440  1.00  0.00     0.001 C 
ATOM     10  C   UNL A   1      30.790  29.336  24.601  1.00  0.00     0.014 C 
ATOM     11  C   UNL A   1      30.748  29.449  23.084  1.00  0.00     0.001 C 
BRANCH   7  12
ATOM     12  C   UNL A   1      33.271  26.768  24.932  1.00  0.00     0.226 C 
ATOM     13  N   UNL A   1      31.849  22.960  24.050  1.00  0.00    -0.194 NA
ATOM     14  C   UNL A   1      31.028  23.723  24.997  1.00  0.00     0.124 C 
ATOM     15  C   UNL A   1      32.297  23.740  22.884  1.00  0.00     0.124 C 
ATOM     16  C   UNL A   1      31.788  24.959  25.471  1.00  0.00     0.136 C 
ATOM     17  C   UNL A   1      33.050  25.005  23.316  1.00  0.00     0.136 C 
ATOM     18  N   UNL A   1      32.441  25.764  24.427  1.00  0.00    -0.340 N 
ATOM     19  O   UNL A   1      34.155  26.479  25.741  1.00  0.00    -0.275 OA
BRANCH  13  20
ATOM     20  S   UNL A   1      32.342  21.386  24.344  1.00  0.00     0.243 S 
ATOM     21  O   UNL A   1      32.211  20.652  23.100  1.00  0.00    -0.207 OA
ATOM     22  O   UNL A   1      31.675  20.942  25.548  1.00  0.00    -0.207 OA
BRANCH  20  23
ATOM     23  C   UNL A   1      34.082  21.400  24.727  1.00  0.00     0.082 A 
ATOM     24  C   UNL A   1      38.303  21.614  25.631  1.00  0.00     0.044 C 
ATOM     25  C   UNL A   1      36.830  21.574  25.333  1.00  0.00    -0.048 A 
ATOM     26  C   UNL A   1      36.238  20.348  25.001  1.00  0.00     0.005 A 
ATOM     27  C   UNL A   1      36.025  22.729  25.390  1.00  0.00    -0.047 A 
ATOM     28  C   UNL A   1      34.875  20.263  24.709  1.00  0.00     0.022 A 
ATOM     29  C   UNL A   1      34.659  22.633  25.062  1.00  0.00     0.025 A 
ATOM     30  C   UNL A   1      36.581  24.078  25.752  1.00  0.00     0.044 C 
ENDBRANCH  20  23
ENDBRANCH  13  20
ENDBRANCH   7  12
ENDBRANCH   3   6
ENDBRANCH   1   2
BRANCH   1  31
ATOM     31  C   UNL A   1      33.848  31.985  27.812  1.00  0.00     0.042 C 
BRANCH  31  32
ATOM     32  C   UNL A   1      32.536  32.576  27.324  1.00  0.00     0.118 C 
BRANCH  32  33
ATOM     33  N   UNL A   1      32.435  33.991  27.626  1.00  0.00    -0.352 N 
ATOM     34  C   UNL A   1      33.014  34.777  28.591  1.00  0.00     0.251 C 
ATOM     35  H   UNL A   1      31.834  34.484  27.022  1.00  0.00     0.163 HD
ATOM     36  O   UNL A   1      32.549  35.907  28.751  1.00  0.00    -0.269 OA
BRANCH  34  37
ATOM     37  C   UNL A   1      34.154  34.346  29.449  1.00  0.00     0.039 A 
ATOM     38  C   UNL A   1      35.447  34.479  28.919  1.00  0.00     0.014 A 
ATOM     39  C   UNL A   1      34.007  33.692  30.673  1.00  0.00     0.014 A 
ATOM     40  C   UNL A   1      36.560  33.954  29.589  1.00  0.00     0.010 A 
ATOM     41  C   UNL A   1      35.127  33.251  31.389  1.00  0.00     0.010 A 
ATOM     42  C   UNL A   1      36.412  33.332  30.836  1.00  0.00    -0.014 A 
BRANCH  42  43
ATOM     43  C   UNL A   1      37.567  32.681  31.520  1.00  0.00     0.031 A 
ATOM     44  C   UNL A   1      38.254  31.494  30.886  1.00  0.00     0.074 A 
ATOM     45  C   UNL A   1      37.982  33.116  32.725  1.00  0.00     0.049 A 
ATOM     46  N   UNL A   1      39.199  30.721  31.368  1.00  0.00    -0.248 NA
ATOM     47  C   UNL A   1      37.798  31.104  29.543  1.00  0.00     0.031 C 
ATOM     48  C   UNL A   1      37.376  34.209  33.486  1.00  0.00     0.029 A 
ATOM     49  N   UNL A   1      38.987  32.655  33.544  1.00  0.00    -0.354 N 
ATOM     50  C   UNL A   1      39.434  29.756  30.397  1.00  0.00     0.074 A 
ATOM     51  C   UNL A   1      38.491  29.996  29.326  1.00  0.00     0.031 C 
ATOM     52  C   UNL A   1      38.003  34.320  34.669  1.00  0.00     0.029 A 
ATOM     53  C   UNL A   1      39.034  33.290  34.762  1.00  0.00     0.049 A 
ATOM     54  H   UNL A   1      39.611  31.941  33.283  1.00  0.00     0.167 HD
ATOM     55  C   UNL A   1      40.374  28.778  30.374  1.00  0.00     0.037 A 
ATOM     56  C   UNL A   1      39.795  33.047  35.845  1.00  0.00     0.037 A 
ATOM     57  C   UNL A   1      41.350  28.562  31.410  1.00  0.00     0.049 A 
ATOM     58  C   UNL A   1      40.823  31.950  35.808  1.00  0.00     0.074 A 
ATOM     59  C   UNL A   1      42.400  27.659  31.433  1.00  0.00     0.029 A 
ATOM     60  N   UNL A   1      41.397  29.261  32.606  1.00  0.00    -0.354 N 
ATOM     61  N   UNL A   1      41.077  31.085  34.856  1.00  0.00    -0.248 NA
ATOM     62  C   UNL A   1      41.681  31.804  36.994  1.00  0.00     0.031 C 
ATOM     63  C   UNL A   1      43.061  27.787  32.660  1.00  0.00     0.029 A 
ATOM     64  C   UNL A   1      42.448  28.798  33.382  1.00  0.00     0.049 A 
ATOM     65  H   UNL A   1      40.777  29.979  32.866  1.00  0.00     0.167 HD
ATOM     66  C   UNL A   1      42.146  30.322  35.309  1.00  0.00     0.074 A 
ATOM     67  C   UNL A   1      42.490  30.821  36.624  1.00  0.00     0.031 C 
ATOM     68  C   UNL A   1      42.790  29.307  34.684  1.00  0.00     0.037 A 
BRANCH  55  69
ATOM     69  C   UNL A   1      40.416  27.877  29.172  1.00  0.00     0.064 A 
ATOM     70  C   UNL A   1      39.653  26.701  29.110  1.00  0.00     0.173 A 
ATOM     71  C   UNL A   1      41.187  28.216  28.050  1.00  0.00     0.173 A 
ATOM     72  F   UNL A   1      38.903  26.327  30.158  1.00  0.00    -0.203 F 
ATOM     73  C   UNL A   1      39.684  25.884  27.983  1.00  0.00     0.198 A 
ATOM     74  C   UNL A   1      41.193  27.412  26.913  1.00  0.00     0.198 A 
ATOM     75  F   UNL A   1      41.928  29.336  28.051  1.00  0.00    -0.203 F 
ATOM     76  F   UNL A   1      38.982  24.741  27.966  1.00  0.00    -0.200 F 
ATOM     77  C   UNL A   1      40.448  26.243  26.884  1.00  0.00     0.200 A 
ATOM     78  F   UNL A   1      41.920  27.769  25.845  1.00  0.00    -0.200 F 
ATOM     79  F   UNL A   1      40.470  25.459  25.796  1.00  0.00    -0.200 F 
ENDBRANCH  55  69
BRANCH  56  80
ATOM     80  C   UNL A   1      39.610  33.867  37.069  1.00  0.00     0.064 A 
ATOM     81  C   UNL A   1      40.268  35.095  37.220  1.00  0.00     0.173 A 
ATOM     82  C   UNL A   1      38.778  33.434  38.110  1.00  0.00     0.173 A 
ATOM     83  F   UNL A   1      41.096  35.532  36.261  1.00  0.00    -0.203 F 
ATOM     84  C   UNL A   1      40.111  35.854  38.377  1.00  0.00     0.198 A 
ATOM     85  C   UNL A   1      38.604  34.205  39.257  1.00  0.00     0.198 A 
ATOM     86  F   UNL A   1      38.131  32.264  38.009  1.00  0.00    -0.203 F 
ATOM     87  F   UNL A   1      40.785  37.003  38.517  1.00  0.00    -0.200 F 
ATOM     88  C   UNL A   1      39.276  35.411  39.393  1.00  0.00     0.200 A 
ATOM     89  F   UNL A   1      37.799  33.774  40.236  1.00  0.00    -0.200 F 
ATOM     90  F   UNL A   1      39.130  36.141  40.507  1.00  0.00    -0.200 F 
ENDBRANCH  56  80
BRANCH  68  91
ATOM     91  C   UNL A   1      43.970  28.703  35.388  1.00  0.00     0.064 A 
ATOM     92  C   UNL A   1      43.832  27.612  36.257  1.00  0.00     0.173 A 
ATOM     93  C   UNL A   1      45.260  29.208  35.164  1.00  0.00     0.173 A 
ATOM     94  F   UNL A   1      42.618  27.104  36.515  1.00  0.00    -0.203 F 
ATOM     95  C   UNL A   1      44.941  27.062  36.897  1.00  0.00     0.198 A 
ATOM     96  C   UNL A   1      46.369  28.640  35.785  1.00  0.00     0.198 A 
ATOM     97  F   UNL A   1      45.446  30.246  34.336  1.00  0.00    -0.203 F 
ATOM     98  F   UNL A   1      44.781  26.049  37.758  1.00  0.00    -0.200 F 
ATOM     99  C   UNL A   1      46.209  27.573  36.656  1.00  0.00     0.200 A 
ATOM    100  F   UNL A   1      47.594  29.128  35.542  1.00  0.00    -0.200 F 
ATOM    101  F   UNL A   1      47.275  27.042  37.270  1.00  0.00    -0.200 F 
ENDBRANCH  68  91
ENDBRANCH  42  43
ENDBRANCH  34  37
ENDBRANCH  32  33
ENDBRANCH  31  32
ENDBRANCH   1  31
TORSDOF 13
ENDMDL
MODEL 2
REMARK VINA RESULT:     -13.8      5.384     11.038
REMARK SMILES Cc1ccc(S(=O)(=O)N2CCN(C(=O)[C@H]3CCCC[C@H]3C(=O)NCCCNC(=O)c3ccc(-c4c5nc(c(-c6c(F)c(F)c(F)c(F)c6F)c6ccc([nH]6)c(-c6c(F)c(F)c(F)c(F)c6F)c6nc(c(-c7c(F)c(F)c(F)c(F)c7F)c7ccc4[nH]7)C=C6)C=C5)cc3)CC2)cc1C
REMARK SMILES IDX 24 1 23 2 21 3 22 4 20 6 15 7 16 8 17 9 19 10 18 11 13 12
REMARK SMILES IDX 9 13 10 14 94 15 11 16 93 17 12 18 14 19 6 20 7 21 8 22 5 23
REMARK SMILES IDX 1 24 2 25 3 26 96 27 4 28 95 29 97 30 25 31 26 32 27 33
REMARK SMILES IDX 28 34 29 36 30 37 31 38 92 39 32 40 91 41 33 42 34 43 35 44
REMARK SMILES IDX 85 45 36 46 90 47 84 48 86 49 37 50 89 51 83 52 82 53 38 55
REMARK SMILES IDX 70 56 50 57 69 58 51 59 54 60 68 61 87 62 52 63 53 64 67 66
REMARK SMILES IDX 88 67 55 68 39 69 40 70 48 71 41 72 42 73 46 74 49 75 43 76
REMARK SMILES IDX 44 77 47 78 45 79 71 80 72 81 80 82 73 83 74 84 78 85 81 86
REMARK SMILES IDX 75 87 76 88 79 89 77 90 56 91 57 92 65 93 58 94 59 95 63 96
REMARK SMILES IDX 66 97 60 98 61 99 64 100 62 101
REMARK H PARENT 23 5 27 35 86 54 54 65
REMARK Flexibility Score: inf
ROOT
ATOM      1  C   UNL A   1      38.839  22.409  26.103  1.00  0.00     0.117 C 
ENDROOT
BRANCH   1   2
ATOM      2  N   UNL A   1      38.112  22.556  24.851  1.00  0.00    -0.356 N 
ATOM      3  C   UNL A   1      36.879  22.162  24.439  1.00  0.00     0.223 C 
ATOM      4  O   UNL A   1      36.611  22.359  23.247  1.00  0.00    -0.275 OA
ATOM      5  H   UNL A   1      38.618  23.041  24.160  1.00  0.00     0.163 HD
BRANCH   3   6
ATOM      6  C   UNL A   1      35.815  21.543  25.352  1.00  0.00     0.091 C 
ATOM      7  C   UNL A   1      35.097  22.506  26.342  1.00  0.00     0.091 C 
ATOM      8  C   UNL A   1      33.966  21.806  27.106  1.00  0.00     0.014 C 
ATOM      9  C   UNL A   1      33.061  20.975  26.209  1.00  0.00     0.001 C 
ATOM     10  C   UNL A   1      34.938  20.507  24.626  1.00  0.00     0.014 C 
ATOM     11  C   UNL A   1      33.871  19.891  25.517  1.00  0.00     0.001 C 
BRANCH   7  12
ATOM     12  C   UNL A   1      34.790  23.897  25.786  1.00  0.00     0.226 C 
ATOM     13  N   UNL A   1      31.655  25.823  23.845  1.00  0.00    -0.194 NA
ATOM     14  C   UNL A   1      32.662  25.230  22.957  1.00  0.00     0.124 C 
ATOM     15  C   UNL A   1      31.251  24.948  24.959  1.00  0.00     0.124 C 
ATOM     16  C   UNL A   1      33.895  24.823  23.760  1.00  0.00     0.136 C 
ATOM     17  C   UNL A   1      32.465  24.499  25.782  1.00  0.00     0.136 C 
ATOM     18  N   UNL A   1      33.647  24.077  25.004  1.00  0.00    -0.340 N 
ATOM     19  O   UNL A   1      35.470  24.874  26.105  1.00  0.00    -0.275 OA
BRANCH  13  20
ATOM     20  S   UNL A   1      31.122  27.402  23.679  1.00  0.00     0.243 S 
ATOM     21  O   UNL A   1      29.728  27.432  24.077  1.00  0.00    -0.207 OA
ATOM     22  O   UNL A   1      31.538  27.865  22.373  1.00  0.00    -0.207 OA
BRANCH  20  23
ATOM     23  C   UNL A   1      31.992  28.418  24.856  1.00  0.00     0.082 A 
ATOM     24  C   UNL A   1      34.000  31.025  27.659  1.00  0.00     0.044 C 
ATOM     25  C   UNL A   1      33.269  30.138  26.690  1.00  0.00    -0.048 A 
ATOM     26  C   UNL A   1      33.844  28.913  26.326  1.00  0.00     0.005 A 
ATOM     27  C   UNL A   1      32.018  30.494  26.149  1.00  0.00    -0.047 A 
ATOM     28  C   UNL A   1      33.206  28.059  25.423  1.00  0.00     0.022 A 
ATOM     29  C   UNL A   1      31.403  29.638  25.216  1.00  0.00     0.025 A 
ATOM     30  C   UNL A   1      31.330  31.784  26.501  1.00  0.00     0.044 C 
ENDBRANCH  20  23
ENDBRANCH  13  20
ENDBRANCH   7  12
ENDBRANCH   3   6
ENDBRANCH   1   2
BRANCH   1  31
ATOM     31  C   UNL A   1      39.050  20.948  26.502  1.00  0.00     0.042 C 
BRANCH  31  32
ATOM     32  C   UNL A   1      39.432  20.016  25.365  1.00  0.00     0.118 C 
BRANCH  32  33
ATOM     33  N   UNL A   1      40.429  19.045  25.774  1.00  0.00    -0.352 N 
ATOM     34  C   UNL A   1      41.756  19.162  26.105  1.00  0.00     0.251 C 
ATOM     35  H   UNL A   1      40.088  18.123  25.825  1.00  0.00     0.163 HD
ATOM     36  O   UNL A   1      42.412  18.122  26.179  1.00  0.00    -0.269 OA
BRANCH  34  37
ATOM     37  C   UNL A   1      42.442  20.458  26.371  1.00  0.00     0.039 A 
ATOM     38  C   UNL A   1      42.410  20.947  27.686  1.00  0.00     0.014 A 
ATOM     39  C   UNL A   1      42.980  21.276  25.376  1.00  0.00     0.014 A 
ATOM     40  C   UNL A   1      42.889  22.229  27.992  1.00  0.00     0.010 A 
ATOM     41  C   UNL A   1      43.544  22.517  25.696  1.00  0.00     0.010 A 
ATOM     42  C   UNL A   1      43.462  23.031  26.997  1.00  0.00    -0.014 A 
BRANCH  42  43
ATOM     43  C   UNL A   1      43.888  24.432  27.281  1.00  0.00     0.031 A 
ATOM     44  C   UNL A   1      42.871  25.462  27.714  1.00  0.00     0.074 A 
ATOM     45  C   UNL A   1      45.172  24.804  27.112  1.00  0.00     0.049 A 
ATOM     46  N   UNL A   1      43.017  26.753  27.900  1.00  0.00    -0.248 NA
ATOM     47  C   UNL A   1      41.498  24.982  27.939  1.00  0.00     0.031 C 
ATOM     48  C   UNL A   1      46.250  23.937  26.640  1.00  0.00     0.029 A 
ATOM     49  N   UNL A   1      45.776  26.029  27.278  1.00  0.00    -0.354 N 
ATOM     50  C   UNL A   1      41.760  27.232  28.248  1.00  0.00     0.074 A 
ATOM     51  C   UNL A   1      40.849  26.111  28.185  1.00  0.00     0.031 C 
ATOM     52  C   UNL A   1      47.378  24.659  26.529  1.00  0.00     0.029 A 
ATOM     53  C   UNL A   1      47.095  26.045  26.895  1.00  0.00     0.049 A 
ATOM     54  H   UNL A   1      45.308  26.818  27.636  1.00  0.00     0.167 HD
ATOM     55  C   UNL A   1      41.397  28.483  28.625  1.00  0.00     0.037 A 
ATOM     56  C   UNL A   1      47.969  27.065  26.812  1.00  0.00     0.037 A 
ATOM     57  C   UNL A   1      42.305  29.594  28.741  1.00  0.00     0.049 A 
ATOM     58  C   UNL A   1      47.546  28.449  27.221  1.00  0.00     0.074 A 
ATOM     59  C   UNL A   1      42.050  30.874  29.205  1.00  0.00     0.029 A 
ATOM     60  N   UNL A   1      43.646  29.556  28.393  1.00  0.00    -0.354 N 
ATOM     61  N   UNL A   1      46.369  28.875  27.609  1.00  0.00    -0.248 NA
ATOM     62  C   UNL A   1      48.581  29.494  27.192  1.00  0.00     0.031 C 
ATOM     63  C   UNL A   1      43.229  31.621  29.103  1.00  0.00     0.029 A 
ATOM     64  C   UNL A   1      44.227  30.794  28.616  1.00  0.00     0.049 A 
ATOM     65  H   UNL A   1      44.116  28.766  28.040  1.00  0.00     0.167 HD
ATOM     66  C   UNL A   1      46.530  30.221  27.909  1.00  0.00     0.074 A 
ATOM     67  C   UNL A   1      47.918  30.545  27.652  1.00  0.00     0.031 C 
ATOM     68  C   UNL A   1      45.611  31.105  28.368  1.00  0.00     0.037 A 
BRANCH  55  69
ATOM     69  C   UNL A   1      39.954  28.718  28.971  1.00  0.00     0.064 A 
ATOM     70  C   UNL A   1      39.477  28.553  30.280  1.00  0.00     0.173 A 
ATOM     71  C   UNL A   1      39.047  29.161  27.996  1.00  0.00     0.173 A 
ATOM     72  F   UNL A   1      40.301  28.124  31.249  1.00  0.00    -0.203 F 
ATOM     73  C   UNL A   1      38.142  28.792  30.594  1.00  0.00     0.198 A 
ATOM     74  C   UNL A   1      37.719  29.428  28.320  1.00  0.00     0.198 A 
ATOM     75  F   UNL A   1      39.451  29.346  26.730  1.00  0.00    -0.203 F 
ATOM     76  F   UNL A   1      37.701  28.582  31.843  1.00  0.00    -0.200 F 
ATOM     77  C   UNL A   1      37.266  29.236  29.617  1.00  0.00     0.200 A 
ATOM     78  F   UNL A   1      36.877  29.872  27.376  1.00  0.00    -0.200 F 
ATOM     79  F   UNL A   1      35.983  29.474  29.922  1.00  0.00    -0.200 F 
ENDBRANCH  55  69
BRANCH  56  80
ATOM     80  C   UNL A   1      49.345  26.811  26.316  1.00  0.00     0.064 A 
ATOM     81  C   UNL A   1      49.662  26.960  24.959  1.00  0.00     0.173 A 
ATOM     82  C   UNL A   1      50.365  26.410  27.189  1.00  0.00     0.173 A 
ATOM     83  F   UNL A   1      48.709  27.315  24.085  1.00  0.00    -0.203 F 
ATOM     84  C   UNL A   1      50.948  26.701  24.491  1.00  0.00     0.198 A 
ATOM     85  C   UNL A   1      51.657  26.172  26.723  1.00  0.00     0.198 A 
ATOM     86  F   UNL A   1      50.107  26.251  28.495  1.00  0.00    -0.203 F 
ATOM     87  F   UNL A   1      51.215  26.807  23.182  1.00  0.00    -0.200 F 
ATOM     88  C   UNL A   1      51.945  26.312  25.374  1.00  0.00     0.200 A 
ATOM     89  F   UNL A   1      52.617  25.795  27.577  1.00  0.00    -0.200 F 
ATOM     90  F   UNL A   1      53.180  26.058  24.920  1.00  0.00    -0.200 F 
ENDBRANCH  56  80
BRANCH  68  91
ATOM     91  C   UNL A   1      46.086  32.495  28.676  1.00  0.00     0.064 A 
ATOM     92  C   UNL A   1      46.611  32.835  29.929  1.00  0.00     0.173 A 
ATOM     93  C   UNL A   1      46.038  33.492  27.688  1.00  0.00     0.173 A 
ATOM     94  F   UNL A   1      46.663  31.922  30.910  1.00  0.00    -0.203 F 
ATOM     95  C   UNL A   1      47.051  34.132  30.192  1.00  0.00     0.198 A 
ATOM     96  C   UNL A   1      46.501  34.779  27.946  1.00  0.00     0.198 A 
ATOM     97  F   UNL A   1      45.550  33.214  26.470  1.00  0.00    -0.203 F 
ATOM     98  F   UNL A   1      47.508  34.447  31.411  1.00  0.00    -0.200 F 
ATOM     99  C   UNL A   1      47.000  35.100  29.200  1.00  0.00     0.200 A 
ATOM    100  F   UNL A   1      46.462  35.710  26.983  1.00  0.00    -0.200 F 
ATOM    101  F   UNL A   1      47.426  36.345  29.454  1.00  0.00    -0.200 F 
ENDBRANCH  68  91
ENDBRANCH  42  43
ENDBRANCH  34  37
ENDBRANCH  32  33
ENDBRANCH  31  32
ENDBRANCH   1  31
TORSDOF 13
ENDMDL
MODEL 3
REMARK VINA RESULT:     -13.8      0.796      7.018
REMARK SMILES Cc1ccc(S(=O)(=O)N2CCN(C(=O)[C@H]3CCCC[C@H]3C(=O)NCCCNC(=O)c3ccc(-c4c5nc(c(-c6c(F)c(F)c(F)c(F)c6F)c6ccc([nH]6)c(-c6c(F)c(F)c(F)c(F)c6F)c6nc(c(-c7c(F)c(F)c(F)c(F)c7F)c7ccc4[nH]7)C=C6)C=C5)cc3)CC2)cc1C
REMARK SMILES IDX 24 1 23 2 21 3 22 4 20 6 15 7 16 8 17 9 19 10 18 11 13 12
REMARK SMILES IDX 9 13 10 14 94 15 11 16 93 17 12 18 14 19 6 20 7 21 8 22 5 23
REMARK SMILES IDX 1 24 2 25 3 26 96 27 4 28 95 29 97 30 25 31 26 32 27 33
REMARK SMILES IDX 28 34 29 36 30 37 31 38 92 39 32 40 91 41 33 42 34 43 35 44
REMARK SMILES IDX 85 45 36 46 90 47 84 48 86 49 37 50 89 51 83 52 82 53 38 55
REMARK SMILES IDX 70 56 50 57 69 58 51 59 54 60 68 61 87 62 52 63 53 64 67 66
REMARK SMILES IDX 88 67 55 68 39 69 40 70 48 71 41 72 42 73 46 74 49 75 43 76
REMARK SMILES IDX 44 77 47 78 45 79 71 80 72 81 80 82 73 83 74 84 78 85 81 86
REMARK SMILES IDX 75 87 76 88 79 89 77 90 56 91 57 92 65 93 58 94 59 95 63 96
REMARK SMILES IDX 66 97 60 98 61 99 64 100 62 101
REMARK H PARENT 23 5 27 35 86 54 54 65
REMARK Flexibility Score: inf
ROOT
ATOM      1  C   UNL A   1      33.804  30.424  27.538  1.00  0.00     0.117 C 
ENDROOT
BRANCH   1   2
ATOM      2  N   UNL A   1      32.824  29.353  27.626  1.00  0.00    -0.356 N 
ATOM      3  C   UNL A   1      32.053  28.720  26.704  1.00  0.00     0.223 C 
ATOM      4  O   UNL A   1      31.227  27.910  27.144  1.00  0.00    -0.275 OA
ATOM      5  H   UNL A   1      32.691  29.018  28.542  1.00  0.00     0.163 HD
BRANCH   3   6
ATOM      6  C   UNL A   1      32.173  28.915  25.188  1.00  0.00     0.091 C 
ATOM      7  C   UNL A   1      33.243  28.054  24.456  1.00  0.00     0.091 C 
ATOM      8  C   UNL A   1      33.183  28.236  22.933  1.00  0.00     0.014 C 
ATOM      9  C   UNL A   1      31.769  28.161  22.376  1.00  0.00     0.001 C 
ATOM     10  C   UNL A   1      30.806  29.068  24.498  1.00  0.00     0.014 C 
ATOM     11  C   UNL A   1      30.911  29.253  22.992  1.00  0.00     0.001 C 
BRANCH   7  12
ATOM     12  C   UNL A   1      33.386  26.621  24.970  1.00  0.00     0.226 C 
ATOM     13  N   UNL A   1      31.965  22.836  23.993  1.00  0.00    -0.194 NA
ATOM     14  C   UNL A   1      31.164  23.560  24.988  1.00  0.00     0.124 C 
ATOM     15  C   UNL A   1      32.377  23.659  22.844  1.00  0.00     0.124 C 
ATOM     16  C   UNL A   1      31.928  24.784  25.485  1.00  0.00     0.136 C 
ATOM     17  C   UNL A   1      33.133  24.914  23.300  1.00  0.00     0.136 C 
ATOM     18  N   UNL A   1      32.549  25.629  24.452  1.00  0.00    -0.340 N 
ATOM     19  O   UNL A   1      34.292  26.311  25.745  1.00  0.00    -0.275 OA
BRANCH  13  20
ATOM     20  S   UNL A   1      32.475  21.256  24.220  1.00  0.00     0.243 S 
ATOM     21  O   UNL A   1      32.396  20.588  22.935  1.00  0.00    -0.207 OA
ATOM     22  O   UNL A   1      31.777  20.738  25.376  1.00  0.00    -0.207 OA
BRANCH  20  23
ATOM     23  C   UNL A   1      34.201  21.277  24.660  1.00  0.00     0.082 A 
ATOM     24  C   UNL A   1      38.389  21.507  25.703  1.00  0.00     0.044 C 
ATOM     25  C   UNL A   1      36.927  21.461  25.357  1.00  0.00    -0.048 A 
ATOM     26  C   UNL A   1      36.352  20.233  25.001  1.00  0.00     0.005 A 
ATOM     27  C   UNL A   1      36.115  22.612  25.391  1.00  0.00    -0.047 A 
ATOM     28  C   UNL A   1      35.000  20.143  24.664  1.00  0.00     0.022 A 
ATOM     29  C   UNL A   1      34.761  22.511  25.018  1.00  0.00     0.025 A 
ATOM     30  C   UNL A   1      36.653  23.962  25.776  1.00  0.00     0.044 C 
ENDBRANCH  20  23
ENDBRANCH  13  20
ENDBRANCH   7  12
ENDBRANCH   3   6
ENDBRANCH   1   2
BRANCH   1  31
ATOM     31  C   UNL A   1      33.281  31.652  26.793  1.00  0.00     0.042 C 
BRANCH  31  32
ATOM     32  C   UNL A   1      32.158  32.402  27.489  1.00  0.00     0.118 C 
BRANCH  32  33
ATOM     33  N   UNL A   1      32.432  33.824  27.581  1.00  0.00    -0.352 N 
ATOM     34  C   UNL A   1      33.279  34.555  28.375  1.00  0.00     0.251 C 
ATOM     35  H   UNL A   1      31.909  34.369  26.951  1.00  0.00     0.163 HD
ATOM     36  O   UNL A   1      33.119  35.777  28.394  1.00  0.00    -0.269 OA
BRANCH  34  37
ATOM     37  C   UNL A   1      34.363  33.964  29.211  1.00  0.00     0.039 A 
ATOM     38  C   UNL A   1      35.687  34.203  28.812  1.00  0.00     0.014 A 
ATOM     39  C   UNL A   1      34.142  33.079  30.267  1.00  0.00     0.014 A 
ATOM     40  C   UNL A   1      36.759  33.557  29.443  1.00  0.00     0.010 A 
ATOM     41  C   UNL A   1      35.215  32.507  30.960  1.00  0.00     0.010 A 
ATOM     42  C   UNL A   1      36.535  32.699  30.527  1.00  0.00    -0.014 A 
BRANCH  42  43
ATOM     43  C   UNL A   1      37.650  31.927  31.150  1.00  0.00     0.031 A 
ATOM     44  C   UNL A   1      38.149  32.293  32.528  1.00  0.00     0.074 A 
ATOM     45  C   UNL A   1      38.250  30.928  30.475  1.00  0.00     0.049 A 
ATOM     46  N   UNL A   1      39.175  31.822  33.197  1.00  0.00    -0.248 NA
ATOM     47  C   UNL A   1      37.414  33.351  33.239  1.00  0.00     0.031 C 
ATOM     48  C   UNL A   1      37.919  30.505  29.115  1.00  0.00     0.029 A 
ATOM     49  N   UNL A   1      39.303  30.117  30.831  1.00  0.00    -0.354 N 
ATOM     50  C   UNL A   1      39.212  32.533  34.390  1.00  0.00     0.074 A 
ATOM     51  C   UNL A   1      38.148  33.512  34.330  1.00  0.00     0.031 C 
ATOM     52  C   UNL A   1      38.764  29.530  28.740  1.00  0.00     0.029 A 
ATOM     53  C   UNL A   1      39.714  29.280  29.821  1.00  0.00     0.049 A 
ATOM     54  H   UNL A   1      39.720  30.133  31.722  1.00  0.00     0.167 HD
ATOM     55  C   UNL A   1      40.030  32.367  35.458  1.00  0.00     0.037 A 
ATOM     56  C   UNL A   1      40.759  28.434  29.758  1.00  0.00     0.037 A 
ATOM     57  C   UNL A   1      41.057  31.363  35.550  1.00  0.00     0.049 A 
ATOM     58  C   UNL A   1      41.664  28.272  30.948  1.00  0.00     0.074 A 
ATOM     59  C   UNL A   1      41.872  31.055  36.626  1.00  0.00     0.029 A 
ATOM     60  N   UNL A   1      41.408  30.500  34.523  1.00  0.00    -0.354 N 
ATOM     61  N   UNL A   1      41.647  28.907  32.095  1.00  0.00    -0.248 NA
ATOM     62  C   UNL A   1      42.728  27.262  30.838  1.00  0.00     0.031 C 
ATOM     63  C   UNL A   1      42.742  30.029  36.239  1.00  0.00     0.029 A 
ATOM     64  C   UNL A   1      42.439  29.671  34.936  1.00  0.00     0.049 A 
ATOM     65  H   UNL A   1      40.988  30.478  33.634  1.00  0.00     0.167 HD
ATOM     66  C   UNL A   1      42.666  28.348  32.855  1.00  0.00     0.074 A 
ATOM     67  C   UNL A   1      43.287  27.326  32.039  1.00  0.00     0.031 C 
ATOM     68  C   UNL A   1      43.044  28.649  34.121  1.00  0.00     0.037 A 
BRANCH  55  69
ATOM     69  C   UNL A   1      39.830  33.275  36.639  1.00  0.00     0.064 A 
ATOM     70  C   UNL A   1      40.547  34.473  36.773  1.00  0.00     0.173 A 
ATOM     71  C   UNL A   1      38.877  32.970  37.623  1.00  0.00     0.173 A 
ATOM     72  F   UNL A   1      41.475  34.809  35.864  1.00  0.00    -0.203 F 
ATOM     73  C   UNL A   1      40.340  35.317  37.861  1.00  0.00     0.198 A 
ATOM     74  C   UNL A   1      38.651  33.830  38.694  1.00  0.00     0.198 A 
ATOM     75  F   UNL A   1      38.154  31.842  37.539  1.00  0.00    -0.203 F 
ATOM     76  F   UNL A   1      41.071  36.433  37.990  1.00  0.00    -0.200 F 
ATOM     77  C   UNL A   1      39.388  34.999  38.816  1.00  0.00     0.200 A 
ATOM     78  F   UNL A   1      37.719  33.529  39.610  1.00  0.00    -0.200 F 
ATOM     79  F   UNL A   1      39.184  35.816  39.859  1.00  0.00    -0.200 F 
ENDBRANCH  55  69
BRANCH  56  80
ATOM     80  C   UNL A   1      41.007  27.670  28.510  1.00  0.00     0.064 A 
ATOM     81  C   UNL A   1      41.908  28.137  27.544  1.00  0.00     0.173 A 
ATOM     82  C   UNL A   1      40.343  26.461  28.260  1.00  0.00     0.173 A 
ATOM     83  F   UNL A   1      42.542  29.303  27.731  1.00  0.00    -0.203 F 
ATOM     84  C   UNL A   1      42.124  27.430  26.364  1.00  0.00     0.198 A 
ATOM     85  C   UNL A   1      40.576  25.743  27.089  1.00  0.00     0.198 A 
ATOM     86  F   UNL A   1      39.470  25.977  29.155  1.00  0.00    -0.203 F 
ATOM     87  F   UNL A   1      42.956  27.920  25.436  1.00  0.00    -0.200 F 
ATOM     88  C   UNL A   1      41.462  26.231  26.139  1.00  0.00     0.200 A 
ATOM     89  F   UNL A   1      39.935  24.587  26.874  1.00  0.00    -0.200 F 
ATOM     90  F   UNL A   1      41.667  25.555  25.001  1.00  0.00    -0.200 F 
ENDBRANCH  56  80
BRANCH  68  91
ATOM     91  C   UNL A   1      44.145  27.827  34.726  1.00  0.00     0.064 A 
ATOM     92  C   UNL A   1      43.886  26.623  35.394  1.00  0.00     0.173 A 
ATOM     93  C   UNL A   1      45.481  28.241  34.607  1.00  0.00     0.173 A 
ATOM     94  F   UNL A   1      42.624  26.194  35.547  1.00  0.00    -0.203 F 
ATOM     95  C   UNL A   1      44.924  25.873  35.944  1.00  0.00     0.198 A 
ATOM     96  C   UNL A   1      46.517  27.477  35.135  1.00  0.00     0.198 A 
ATOM     97  F   UNL A   1      45.781  29.383  33.970  1.00  0.00    -0.203 F 
ATOM     98  F   UNL A   1      44.650  24.748  36.618  1.00  0.00    -0.200 F 
ATOM     99  C   UNL A   1      46.238  26.298  35.809  1.00  0.00     0.200 A 
ATOM    100  F   UNL A   1      47.787  27.882  34.994  1.00  0.00    -0.200 F 
ATOM    101  F   UNL A   1      47.235  25.574  36.337  1.00  0.00    -0.200 F 
ENDBRANCH  68  91
ENDBRANCH  42  43
ENDBRANCH  34  37
ENDBRANCH  32  33
ENDBRANCH  31  32
ENDBRANCH   1  31
TORSDOF 13
ENDMDL
