MODEL 1
REMARK VINA RESULT:     -12.2      0.000      0.000
REMARK SMILES O=C(NCCCNC(=O)c1cc([C@@H]2C=NN=C2c2ccc(F)cc2)c2c(ccc3ccccc32)n1)c1ccc(-c2c3nc(c(-c4c(F)c(F)c(F)c(F)c4F)c4ccc([nH]4)c(-c4c(F)c(F)c(F)c(F)c4F)c4nc(c(-c5c(F)c(F)c(F)c(F)c5F)c5ccc2[nH]5)C=C4)C=C3)cc1
REMARK SMILES IDX 5 1 4 2 3 3 1 4 2 5 36 7 37 8 98 9 38 10 97 11 39 12 40 13
REMARK SMILES IDX 41 14 91 15 42 16 96 17 90 18 92 19 43 20 95 21 89 22 88 23
REMARK SMILES IDX 44 25 76 26 56 27 75 28 57 29 60 30 74 31 93 32 58 33 59 34
REMARK SMILES IDX 73 36 94 37 61 38 45 39 46 40 54 41 47 42 48 43 52 44 55 45
REMARK SMILES IDX 49 46 50 47 53 48 51 49 77 50 78 51 86 52 79 53 80 54 84 55
REMARK SMILES IDX 87 56 81 57 82 58 85 59 83 60 62 61 63 62 71 63 64 64 65 65
REMARK SMILES IDX 69 66 72 67 66 68 67 69 70 70 68 71 6 72 7 73 8 74 9 76
REMARK SMILES IDX 10 77 11 78 35 79 12 80 26 81 25 82 27 83 34 84 28 85 29 86
REMARK SMILES IDX 33 87 30 88 32 89 31 90 13 91 14 92 17 93 15 94 16 95 18 96
REMARK SMILES IDX 19 97 24 98 20 99 23 100 21 101 22 102
REMARK H PARENT 3 6 92 24 60 35 7 75
REMARK Flexibility Score: inf
ROOT
ATOM      1  C   UNL A   1      43.249  20.970  25.579  1.00  0.00     0.042 C 
ENDROOT
BRANCH   1   2
ATOM      2  C   UNL A   1      42.411  20.986  26.853  1.00  0.00     0.118 C 
BRANCH   2   3
ATOM      3  N   UNL A   1      40.996  21.206  26.634  1.00  0.00    -0.352 N 
ATOM      4  O   UNL A   1      39.016  22.069  26.231  1.00  0.00    -0.269 OA
ATOM      5  C   UNL A   1      40.153  22.280  26.665  1.00  0.00     0.251 C 
ATOM      6  H   UNL A   1      40.523  20.372  26.407  1.00  0.00     0.163 HD
BRANCH   5   7
ATOM      7  C   UNL A   1      40.458  23.630  27.219  1.00  0.00     0.039 A 
ATOM      8  C   UNL A   1      41.412  23.936  28.189  1.00  0.00     0.014 A 
ATOM      9  C   UNL A   1      39.654  24.680  26.724  1.00  0.00     0.014 A 
ATOM     10  C   UNL A   1      41.506  25.238  28.699  1.00  0.00     0.010 A 
ATOM     11  C   UNL A   1      39.746  25.975  27.225  1.00  0.00     0.010 A 
ATOM     12  C   UNL A   1      40.650  26.251  28.243  1.00  0.00    -0.014 A 
BRANCH  12  13
ATOM     13  C   UNL A   1      40.817  27.614  28.757  1.00  0.00     0.031 A 
ATOM     14  C   UNL A   1      42.033  28.334  28.264  1.00  0.00     0.074 A 
ATOM     15  C   UNL A   1      39.899  28.275  29.496  1.00  0.00     0.049 A 
ATOM     16  N   UNL A   1      43.008  28.833  28.955  1.00  0.00    -0.248 NA
ATOM     17  C   UNL A   1      42.212  28.453  26.809  1.00  0.00     0.031 C 
ATOM     18  C   UNL A   1      38.529  27.877  29.827  1.00  0.00     0.029 A 
ATOM     19  N   UNL A   1      39.995  29.518  30.056  1.00  0.00    -0.354 N 
ATOM     20  C   UNL A   1      43.868  29.439  28.039  1.00  0.00     0.074 A 
ATOM     21  C   UNL A   1      43.376  29.100  26.728  1.00  0.00     0.031 C 
ATOM     22  C   UNL A   1      37.863  28.936  30.348  1.00  0.00     0.029 A 
ATOM     23  C   UNL A   1      38.794  30.038  30.524  1.00  0.00     0.049 A 
ATOM     24  H   UNL A   1      40.846  30.006  30.121  1.00  0.00     0.167 HD
ATOM     25  C   UNL A   1      44.853  30.301  28.419  1.00  0.00     0.037 A 
ATOM     26  C   UNL A   1      38.580  31.297  30.986  1.00  0.00     0.037 A 
ATOM     27  C   UNL A   1      45.160  30.178  29.815  1.00  0.00     0.049 A 
ATOM     28  C   UNL A   1      39.897  31.857  31.375  1.00  0.00     0.074 A 
ATOM     29  C   UNL A   1      45.685  29.172  30.602  1.00  0.00     0.029 A 
ATOM     30  N   UNL A   1      44.607  31.077  30.691  1.00  0.00    -0.354 N 
ATOM     31  N   UNL A   1      40.608  31.427  32.378  1.00  0.00    -0.248 NA
ATOM     32  C   UNL A   1      40.617  32.631  30.376  1.00  0.00     0.031 C 
ATOM     33  C   UNL A   1      44.972  29.259  31.833  1.00  0.00     0.029 A 
ATOM     34  C   UNL A   1      44.104  30.348  31.738  1.00  0.00     0.049 A 
ATOM     35  H   UNL A   1      44.576  32.055  30.586  1.00  0.00     0.167 HD
ATOM     36  C   UNL A   1      41.918  31.505  31.934  1.00  0.00     0.074 A 
ATOM     37  C   UNL A   1      41.866  32.326  30.728  1.00  0.00     0.031 C 
ATOM     38  C   UNL A   1      42.879  30.673  32.427  1.00  0.00     0.037 A 
BRANCH  25  39
ATOM     39  C   UNL A   1      45.373  31.437  27.582  1.00  0.00     0.064 A 
ATOM     40  C   UNL A   1      44.652  32.635  27.391  1.00  0.00     0.173 A 
ATOM     41  C   UNL A   1      46.723  31.467  27.181  1.00  0.00     0.173 A 
ATOM     42  F   UNL A   1      43.397  32.776  27.836  1.00  0.00    -0.203 F 
ATOM     43  C   UNL A   1      45.232  33.774  26.833  1.00  0.00     0.198 A 
ATOM     44  C   UNL A   1      47.315  32.625  26.666  1.00  0.00     0.198 A 
ATOM     45  F   UNL A   1      47.510  30.395  27.351  1.00  0.00    -0.203 F 
ATOM     46  F   UNL A   1      44.500  34.888  26.697  1.00  0.00    -0.200 F 
ATOM     47  C   UNL A   1      46.569  33.776  26.493  1.00  0.00     0.200 A 
ATOM     48  F   UNL A   1      48.627  32.638  26.394  1.00  0.00    -0.200 F 
ATOM     49  F   UNL A   1      47.146  34.900  26.047  1.00  0.00    -0.200 F 
ENDBRANCH  25  39
BRANCH  26  50
ATOM     50  C   UNL A   1      37.400  32.179  30.792  1.00  0.00     0.064 A 
ATOM     51  C   UNL A   1      36.357  32.209  31.737  1.00  0.00     0.173 A 
ATOM     52  C   UNL A   1      37.120  32.748  29.536  1.00  0.00     0.173 A 
ATOM     53  F   UNL A   1      36.503  31.628  32.936  1.00  0.00    -0.203 F 
ATOM     54  C   UNL A   1      35.102  32.739  31.433  1.00  0.00     0.198 A 
ATOM     55  C   UNL A   1      35.859  33.275  29.231  1.00  0.00     0.198 A 
ATOM     56  F   UNL A   1      38.043  32.722  28.562  1.00  0.00    -0.203 F 
ATOM     57  F   UNL A   1      34.118  32.678  32.342  1.00  0.00    -0.200 F 
ATOM     58  C   UNL A   1      34.847  33.256  30.176  1.00  0.00     0.200 A 
ATOM     59  F   UNL A   1      35.608  33.741  28.000  1.00  0.00    -0.200 F 
ATOM     60  F   UNL A   1      33.619  33.691  29.863  1.00  0.00    -0.200 F 
ENDBRANCH  26  50
BRANCH  38  61
ATOM     61  C   UNL A   1      42.547  29.840  33.634  1.00  0.00     0.064 A 
ATOM     62  C   UNL A   1      43.035  30.259  34.879  1.00  0.00     0.173 A 
ATOM     63  C   UNL A   1      41.939  28.574  33.569  1.00  0.00     0.173 A 
ATOM     64  F   UNL A   1      43.669  31.437  34.990  1.00  0.00    -0.203 F 
ATOM     65  C   UNL A   1      42.938  29.445  36.004  1.00  0.00     0.198 A 
ATOM     66  C   UNL A   1      41.811  27.776  34.706  1.00  0.00     0.198 A 
ATOM     67  F   UNL A   1      41.528  28.063  32.403  1.00  0.00    -0.203 F 
ATOM     68  F   UNL A   1      43.481  29.843  37.162  1.00  0.00    -0.200 F 
ATOM     69  C   UNL A   1      42.323  28.206  35.918  1.00  0.00     0.200 A 
ATOM     70  F   UNL A   1      41.237  26.567  34.617  1.00  0.00    -0.200 F 
ATOM     71  F   UNL A   1      42.257  27.413  36.997  1.00  0.00    -0.200 F 
ENDBRANCH  38  61
ENDBRANCH  12  13
ENDBRANCH   5   7
ENDBRANCH   2   3
ENDBRANCH   1   2
BRANCH   1  72
ATOM     72  C   UNL A   1      44.033  22.251  25.302  1.00  0.00     0.118 C 
BRANCH  72  73
ATOM     73  N   UNL A   1      43.195  23.378  24.916  1.00  0.00    -0.351 N 
ATOM     74  C   UNL A   1      43.284  24.726  25.209  1.00  0.00     0.269 C 
ATOM     75  H   UNL A   1      42.429  23.138  24.347  1.00  0.00     0.163 HD
ATOM     76  O   UNL A   1      42.380  25.464  24.831  1.00  0.00    -0.268 OA
BRANCH  74  77
ATOM     77  C   UNL A   1      44.470  25.291  25.927  1.00  0.00     0.129 A 
ATOM     78  C   UNL A   1      45.284  26.217  25.325  1.00  0.00     0.039 A 
ATOM     79  N   UNL A   1      44.637  24.941  27.209  1.00  0.00    -0.243 NA
ATOM     80  C   UNL A   1      46.395  26.765  26.012  1.00  0.00    -0.021 A 
ATOM     81  C   UNL A   1      45.631  25.501  27.913  1.00  0.00     0.072 A 
ATOM     82  C   UNL A   1      46.596  26.432  27.412  1.00  0.00     0.012 A 
ATOM     83  C   UNL A   1      45.632  25.111  29.233  1.00  0.00     0.029 A 
ATOM     84  C   UNL A   1      47.592  26.927  28.394  1.00  0.00    -0.009 A 
ATOM     85  C   UNL A   1      46.560  25.587  30.146  1.00  0.00     0.011 A 
ATOM     86  C   UNL A   1      47.539  26.482  29.747  1.00  0.00    -0.018 A 
ATOM     87  C   UNL A   1      48.634  27.851  28.150  1.00  0.00     0.009 A 
ATOM     88  C   UNL A   1      48.449  26.929  30.723  1.00  0.00     0.009 A 
ATOM     89  C   UNL A   1      49.546  28.295  29.118  1.00  0.00     0.001 A 
ATOM     90  C   UNL A   1      49.454  27.832  30.412  1.00  0.00     0.001 A 
BRANCH  80  91
ATOM     91  C   UNL A   1      47.164  27.715  25.121  1.00  0.00     0.115 C 
ATOM     92  C   UNL A   1      46.499  28.239  23.903  1.00  0.00     0.123 C 
ATOM     93  C   UNL A   1      48.481  27.343  24.523  1.00  0.00     0.083 C 
ATOM     94  N   UNL A   1      47.306  28.317  22.894  1.00  0.00    -0.162 NA
ATOM     95  N   UNL A   1      48.570  27.752  23.287  1.00  0.00    -0.154 NA
BRANCH  93  96
ATOM     96  C   UNL A   1      49.612  26.764  25.284  1.00  0.00    -0.001 A 
ATOM     97  C   UNL A   1      50.764  27.547  25.439  1.00  0.00     0.013 A 
ATOM     98  C   UNL A   1      49.560  25.500  25.885  1.00  0.00     0.013 A 
ATOM     99  C   UNL A   1      51.824  27.089  26.226  1.00  0.00     0.040 A 
ATOM    100  C   UNL A   1      50.618  25.047  26.677  1.00  0.00     0.040 A 
ATOM    101  C   UNL A   1      51.736  25.851  26.848  1.00  0.00     0.123 A 
ATOM    102  F   UNL A   1      52.741  25.423  27.620  1.00  0.00    -0.207 F 
ENDBRANCH  93  96
ENDBRANCH  80  91
ENDBRANCH  74  77
ENDBRANCH  72  73
ENDBRANCH   1  72
TORSDOF 12
ENDMDL
MODEL 2
REMARK VINA RESULT:     -11.9      3.969     11.097
REMARK SMILES O=C(NCCCNC(=O)c1cc([C@@H]2C=NN=C2c2ccc(F)cc2)c2c(ccc3ccccc32)n1)c1ccc(-c2c3nc(c(-c4c(F)c(F)c(F)c(F)c4F)c4ccc([nH]4)c(-c4c(F)c(F)c(F)c(F)c4F)c4nc(c(-c5c(F)c(F)c(F)c(F)c5F)c5ccc2[nH]5)C=C4)C=C3)cc1
REMARK SMILES IDX 5 1 4 2 3 3 1 4 2 5 36 7 37 8 98 9 38 10 97 11 39 12 40 13
REMARK SMILES IDX 41 14 91 15 42 16 96 17 90 18 92 19 43 20 95 21 89 22 88 23
REMARK SMILES IDX 44 25 76 26 56 27 75 28 57 29 60 30 74 31 93 32 58 33 59 34
REMARK SMILES IDX 73 36 94 37 61 38 45 39 46 40 54 41 47 42 48 43 52 44 55 45
REMARK SMILES IDX 49 46 50 47 53 48 51 49 77 50 78 51 86 52 79 53 80 54 84 55
REMARK SMILES IDX 87 56 81 57 82 58 85 59 83 60 62 61 63 62 71 63 64 64 65 65
REMARK SMILES IDX 69 66 72 67 66 68 67 69 70 70 68 71 6 72 7 73 8 74 9 76
REMARK SMILES IDX 10 77 11 78 35 79 12 80 26 81 25 82 27 83 34 84 28 85 29 86
REMARK SMILES IDX 33 87 30 88 32 89 31 90 13 91 14 92 17 93 15 94 16 95 18 96
REMARK SMILES IDX 19 97 24 98 20 99 23 100 21 101 22 102
REMARK H PARENT 3 6 92 24 60 35 7 75
REMARK Flexibility Score: inf
ROOT
ATOM      1  C   UNL A   1      36.929  34.061  34.809  1.00  0.00     0.042 C 
ENDROOT
BRANCH   1   2
ATOM      2  C   UNL A   1      38.179  33.686  34.022  1.00  0.00     0.118 C 
BRANCH   2   3
ATOM      3  N   UNL A   1      38.202  34.185  32.661  1.00  0.00    -0.352 N 
ATOM      4  O   UNL A   1      38.397  34.416  30.485  1.00  0.00    -0.269 OA
ATOM      5  C   UNL A   1      38.784  33.805  31.486  1.00  0.00     0.251 C 
ATOM      6  H   UNL A   1      37.661  35.002  32.559  1.00  0.00     0.163 HD
BRANCH   5   7
ATOM      7  C   UNL A   1      39.862  32.788  31.319  1.00  0.00     0.039 A 
ATOM      8  C   UNL A   1      40.425  32.360  30.117  1.00  0.00     0.014 A 
ATOM      9  C   UNL A   1      40.308  32.183  32.514  1.00  0.00     0.014 A 
ATOM     10  C   UNL A   1      41.350  31.308  30.108  1.00  0.00     0.010 A 
ATOM     11  C   UNL A   1      41.228  31.139  32.510  1.00  0.00     0.010 A 
ATOM     12  C   UNL A   1      41.726  30.672  31.300  1.00  0.00    -0.014 A 
BRANCH  12  13
ATOM     13  C   UNL A   1      42.742  29.615  31.257  1.00  0.00     0.031 A 
ATOM     14  C   UNL A   1      43.972  29.947  30.473  1.00  0.00     0.074 A 
ATOM     15  C   UNL A   1      42.692  28.473  31.977  1.00  0.00     0.049 A 
ATOM     16  N   UNL A   1      44.465  29.328  29.448  1.00  0.00    -0.248 NA
ATOM     17  C   UNL A   1      44.709  31.166  30.844  1.00  0.00     0.031 C 
ATOM     18  C   UNL A   1      41.746  28.090  33.027  1.00  0.00     0.029 A 
ATOM     19  N   UNL A   1      43.562  27.419  31.958  1.00  0.00    -0.354 N 
ATOM     20  C   UNL A   1      45.642  29.999  29.113  1.00  0.00     0.074 A 
ATOM     21  C   UNL A   1      45.698  31.171  29.948  1.00  0.00     0.031 C 
ATOM     22  C   UNL A   1      42.208  26.995  33.677  1.00  0.00     0.029 A 
ATOM     23  C   UNL A   1      43.401  26.513  33.000  1.00  0.00     0.049 A 
ATOM     24  H   UNL A   1      44.249  27.310  31.262  1.00  0.00     0.167 HD
ATOM     25  C   UNL A   1      46.569  29.471  28.264  1.00  0.00     0.037 A 
ATOM     26  C   UNL A   1      44.215  25.469  33.301  1.00  0.00     0.037 A 
ATOM     27  C   UNL A   1      46.021  28.409  27.469  1.00  0.00     0.049 A 
ATOM     28  C   UNL A   1      44.997  25.151  32.083  1.00  0.00     0.074 A 
ATOM     29  C   UNL A   1      45.039  28.337  26.502  1.00  0.00     0.029 A 
ATOM     30  N   UNL A   1      46.247  27.114  27.859  1.00  0.00    -0.354 N 
ATOM     31  N   UNL A   1      44.485  24.657  30.992  1.00  0.00    -0.248 NA
ATOM     32  C   UNL A   1      46.300  25.780  31.940  1.00  0.00     0.031 C 
ATOM     33  C   UNL A   1      44.380  27.096  26.740  1.00  0.00     0.029 A 
ATOM     34  C   UNL A   1      45.040  26.467  27.797  1.00  0.00     0.049 A 
ATOM     35  H   UNL A   1      47.110  26.725  28.132  1.00  0.00     0.167 HD
ATOM     36  C   UNL A   1      45.183  25.276  29.969  1.00  0.00     0.074 A 
ATOM     37  C   UNL A   1      46.338  25.895  30.612  1.00  0.00     0.031 C 
ATOM     38  C   UNL A   1      44.617  25.463  28.742  1.00  0.00     0.037 A 
BRANCH  25  39
ATOM     39  C   UNL A   1      48.046  29.747  28.324  1.00  0.00     0.064 A 
ATOM     40  C   UNL A   1      48.933  28.980  29.110  1.00  0.00     0.173 A 
ATOM     41  C   UNL A   1      48.650  30.604  27.383  1.00  0.00     0.173 A 
ATOM     42  F   UNL A   1      48.488  28.044  29.957  1.00  0.00    -0.203 F 
ATOM     43  C   UNL A   1      50.317  29.070  28.974  1.00  0.00     0.198 A 
ATOM     44  C   UNL A   1      50.037  30.657  27.215  1.00  0.00     0.198 A 
ATOM     45  F   UNL A   1      47.900  31.350  26.559  1.00  0.00    -0.203 F 
ATOM     46  F   UNL A   1      51.106  28.300  29.736  1.00  0.00    -0.200 F 
ATOM     47  C   UNL A   1      50.869  29.890  28.010  1.00  0.00     0.200 A 
ATOM     48  F   UNL A   1      50.563  31.410  26.239  1.00  0.00    -0.200 F 
ATOM     49  F   UNL A   1      52.195  29.902  27.819  1.00  0.00    -0.200 F 
ENDBRANCH  25  39
BRANCH  26  50
ATOM     50  C   UNL A   1      44.628  24.957  34.633  1.00  0.00     0.064 A 
ATOM     51  C   UNL A   1      45.446  25.728  35.481  1.00  0.00     0.173 A 
ATOM     52  C   UNL A   1      44.508  23.593  34.954  1.00  0.00     0.173 A 
ATOM     53  F   UNL A   1      45.680  27.021  35.217  1.00  0.00    -0.203 F 
ATOM     54  C   UNL A   1      46.131  25.163  36.558  1.00  0.00     0.198 A 
ATOM     55  C   UNL A   1      45.199  23.026  36.032  1.00  0.00     0.198 A 
ATOM     56  F   UNL A   1      43.784  22.777  34.173  1.00  0.00    -0.203 F 
ATOM     57  F   UNL A   1      46.956  25.923  37.294  1.00  0.00    -0.200 F 
ATOM     58  C   UNL A   1      46.022  23.809  36.824  1.00  0.00     0.200 A 
ATOM     59  F   UNL A   1      45.118  21.708  36.261  1.00  0.00    -0.200 F 
ATOM     60  F   UNL A   1      46.742  23.256  37.809  1.00  0.00    -0.200 F 
ENDBRANCH  26  50
BRANCH  38  61
ATOM     61  C   UNL A   1      43.317  24.767  28.446  1.00  0.00     0.064 A 
ATOM     62  C   UNL A   1      43.359  23.579  27.705  1.00  0.00     0.173 A 
ATOM     63  C   UNL A   1      42.053  25.327  28.702  1.00  0.00     0.173 A 
ATOM     64  F   UNL A   1      44.541  23.027  27.388  1.00  0.00    -0.203 F 
ATOM     65  C   UNL A   1      42.196  22.985  27.225  1.00  0.00     0.198 A 
ATOM     66  C   UNL A   1      40.887  24.709  28.251  1.00  0.00     0.198 A 
ATOM     67  F   UNL A   1      41.931  26.505  29.324  1.00  0.00    -0.203 F 
ATOM     68  F   UNL A   1      42.275  21.890  26.458  1.00  0.00    -0.200 F 
ATOM     69  C   UNL A   1      40.960  23.547  27.502  1.00  0.00     0.200 A 
ATOM     70  F   UNL A   1      39.691  25.268  28.498  1.00  0.00    -0.200 F 
ATOM     71  F   UNL A   1      39.843  22.988  27.014  1.00  0.00    -0.200 F 
ENDBRANCH  38  61
ENDBRANCH  12  13
ENDBRANCH   5   7
ENDBRANCH   2   3
ENDBRANCH   1   2
BRANCH   1  72
ATOM     72  C   UNL A   1      35.900  34.884  34.036  1.00  0.00     0.118 C 
BRANCH  72  73
ATOM     73  N   UNL A   1      34.565  34.303  34.039  1.00  0.00    -0.351 N 
ATOM     74  C   UNL A   1      33.994  33.322  33.251  1.00  0.00     0.269 C 
ATOM     75  H   UNL A   1      33.962  34.675  34.722  1.00  0.00     0.163 HD
ATOM     76  O   UNL A   1      32.800  33.078  33.400  1.00  0.00    -0.268 OA
BRANCH  74  77
ATOM     77  C   UNL A   1      34.808  32.537  32.270  1.00  0.00     0.129 A 
ATOM     78  C   UNL A   1      34.859  32.897  30.948  1.00  0.00     0.039 A 
ATOM     79  N   UNL A   1      35.564  31.543  32.754  1.00  0.00    -0.243 NA
ATOM     80  C   UNL A   1      35.644  32.163  30.023  1.00  0.00    -0.021 A 
ATOM     81  C   UNL A   1      36.380  30.881  31.923  1.00  0.00     0.072 A 
ATOM     82  C   UNL A   1      36.501  31.097  30.513  1.00  0.00     0.012 A 
ATOM     83  C   UNL A   1      37.155  29.945  32.571  1.00  0.00     0.029 A 
ATOM     84  C   UNL A   1      37.489  30.245  29.808  1.00  0.00    -0.009 A 
ATOM     85  C   UNL A   1      38.084  29.162  31.905  1.00  0.00     0.011 A 
ATOM     86  C   UNL A   1      38.259  29.294  30.538  1.00  0.00    -0.018 A 
ATOM     87  C   UNL A   1      37.797  30.272  28.427  1.00  0.00     0.009 A 
ATOM     88  C   UNL A   1      39.221  28.471  29.923  1.00  0.00     0.009 A 
ATOM     89  C   UNL A   1      38.750  29.450  27.809  1.00  0.00     0.001 A 
ATOM     90  C   UNL A   1      39.467  28.544  28.560  1.00  0.00     0.001 A 
BRANCH  80  91
ATOM     91  C   UNL A   1      35.491  32.721  28.626  1.00  0.00     0.115 C 
ATOM     92  C   UNL A   1      35.521  34.192  28.441  1.00  0.00     0.123 C 
ATOM     93  C   UNL A   1      34.302  32.406  27.778  1.00  0.00     0.083 C 
ATOM     94  N   UNL A   1      34.667  34.597  27.557  1.00  0.00    -0.162 NA
ATOM     95  N   UNL A   1      33.893  33.461  27.129  1.00  0.00    -0.154 NA
BRANCH  93  96
ATOM     96  C   UNL A   1      33.775  31.041  27.550  1.00  0.00    -0.001 A 
ATOM     97  C   UNL A   1      32.412  30.908  27.251  1.00  0.00     0.013 A 
ATOM     98  C   UNL A   1      34.582  29.897  27.576  1.00  0.00     0.013 A 
ATOM     99  C   UNL A   1      31.881  29.655  26.934  1.00  0.00     0.040 A 
ATOM    100  C   UNL A   1      34.050  28.646  27.253  1.00  0.00     0.040 A 
ATOM    101  C   UNL A   1      32.707  28.539  26.925  1.00  0.00     0.123 A 
ATOM    102  F   UNL A   1      32.202  27.343  26.599  1.00  0.00    -0.207 F 
ENDBRANCH  93  96
ENDBRANCH  80  91
ENDBRANCH  74  77
ENDBRANCH  72  73
ENDBRANCH   1  72
TORSDOF 12
ENDMDL
MODEL 3
REMARK VINA RESULT:     -11.9      3.056      6.220
REMARK SMILES O=C(NCCCNC(=O)c1cc([C@@H]2C=NN=C2c2ccc(F)cc2)c2c(ccc3ccccc32)n1)c1ccc(-c2c3nc(c(-c4c(F)c(F)c(F)c(F)c4F)c4ccc([nH]4)c(-c4c(F)c(F)c(F)c(F)c4F)c4nc(c(-c5c(F)c(F)c(F)c(F)c5F)c5ccc2[nH]5)C=C4)C=C3)cc1
REMARK SMILES IDX 5 1 4 2 3 3 1 4 2 5 36 7 37 8 98 9 38 10 97 11 39 12 40 13
REMARK SMILES IDX 41 14 91 15 42 16 96 17 90 18 92 19 43 20 95 21 89 22 88 23
REMARK SMILES IDX 44 25 76 26 56 27 75 28 57 29 60 30 74 31 93 32 58 33 59 34
REMARK SMILES IDX 73 36 94 37 61 38 45 39 46 40 54 41 47 42 48 43 52 44 55 45
REMARK SMILES IDX 49 46 50 47 53 48 51 49 77 50 78 51 86 52 79 53 80 54 84 55
REMARK SMILES IDX 87 56 81 57 82 58 85 59 83 60 62 61 63 62 71 63 64 64 65 65
REMARK SMILES IDX 69 66 72 67 66 68 67 69 70 70 68 71 6 72 7 73 8 74 9 76
REMARK SMILES IDX 10 77 11 78 35 79 12 80 26 81 25 82 27 83 34 84 28 85 29 86
REMARK SMILES IDX 33 87 30 88 32 89 31 90 13 91 14 92 17 93 15 94 16 95 18 96
REMARK SMILES IDX 19 97 24 98 20 99 23 100 21 101 22 102
REMARK H PARENT 3 6 92 24 60 35 7 75
REMARK Flexibility Score: inf
ROOT
ATOM      1  C   UNL A   1      46.343  23.722  27.049  1.00  0.00     0.042 C 
ENDROOT
BRANCH   1   2
ATOM      2  C   UNL A   1      45.971  24.783  28.079  1.00  0.00     0.118 C 
BRANCH   2   3
ATOM      3  N   UNL A   1      45.435  24.253  29.317  1.00  0.00    -0.352 N 
ATOM      4  O   UNL A   1      44.230  23.839  31.107  1.00  0.00    -0.269 OA
ATOM      5  C   UNL A   1      44.571  24.690  30.280  1.00  0.00     0.251 C 
ATOM      6  H   UNL A   1      45.782  23.352  29.513  1.00  0.00     0.163 HD
BRANCH   5   7
ATOM      7  C   UNL A   1      44.066  26.083  30.450  1.00  0.00     0.039 A 
ATOM      8  C   UNL A   1      44.189  26.881  31.587  1.00  0.00     0.014 A 
ATOM      9  C   UNL A   1      43.356  26.604  29.347  1.00  0.00     0.014 A 
ATOM     10  C   UNL A   1      43.559  28.130  31.643  1.00  0.00     0.010 A 
ATOM     11  C   UNL A   1      42.730  27.847  29.397  1.00  0.00     0.010 A 
ATOM     12  C   UNL A   1      42.799  28.600  30.562  1.00  0.00    -0.014 A 
BRANCH  12  13
ATOM     13  C   UNL A   1      42.203  29.938  30.634  1.00  0.00     0.031 A 
ATOM     14  C   UNL A   1      43.041  31.039  30.063  1.00  0.00     0.074 A 
ATOM     15  C   UNL A   1      40.938  30.195  31.032  1.00  0.00     0.049 A 
ATOM     16  N   UNL A   1      43.486  32.101  30.654  1.00  0.00    -0.248 NA
ATOM     17  C   UNL A   1      43.492  30.899  28.669  1.00  0.00     0.031 C 
ATOM     18  C   UNL A   1      39.861  29.250  31.334  1.00  0.00     0.029 A 
ATOM     19  N   UNL A   1      40.324  31.407  31.178  1.00  0.00    -0.354 N 
ATOM     20  C   UNL A   1      44.172  32.832  29.683  1.00  0.00     0.074 A 
ATOM     21  C   UNL A   1      44.219  32.005  28.504  1.00  0.00     0.031 C 
ATOM     22  C   UNL A   1      38.685  29.917  31.426  1.00  0.00     0.029 A 
ATOM     23  C   UNL A   1      38.944  31.344  31.338  1.00  0.00     0.049 A 
ATOM     24  H   UNL A   1      40.818  32.257  31.171  1.00  0.00     0.167 HD
ATOM     25  C   UNL A   1      44.538  34.132  29.869  1.00  0.00     0.037 A 
ATOM     26  C   UNL A   1      38.080  32.392  31.356  1.00  0.00     0.037 A 
ATOM     27  C   UNL A   1      44.520  34.498  31.256  1.00  0.00     0.049 A 
ATOM     28  C   UNL A   1      38.865  33.608  31.677  1.00  0.00     0.074 A 
ATOM     29  C   UNL A   1      45.236  34.100  32.367  1.00  0.00     0.029 A 
ATOM     30  N   UNL A   1      43.427  35.169  31.744  1.00  0.00    -0.354 N 
ATOM     31  N   UNL A   1      39.428  33.833  32.830  1.00  0.00    -0.248 NA
ATOM     32  C   UNL A   1      39.374  34.390  30.562  1.00  0.00     0.031 C 
ATOM     33  C   UNL A   1      44.287  34.093  33.431  1.00  0.00     0.029 A 
ATOM     34  C   UNL A   1      43.072  34.545  32.912  1.00  0.00     0.049 A 
ATOM     35  H   UNL A   1      42.984  35.946  31.334  1.00  0.00     0.167 HD
ATOM     36  C   UNL A   1      40.625  34.456  32.516  1.00  0.00     0.074 A 
ATOM     37  C   UNL A   1      40.500  34.842  31.114  1.00  0.00     0.031 C 
ATOM     38  C   UNL A   1      41.707  34.356  33.339  1.00  0.00     0.037 A 
BRANCH  25  39
ATOM     39  C   UNL A   1      44.672  35.152  28.772  1.00  0.00     0.064 A 
ATOM     40  C   UNL A   1      43.558  35.706  28.104  1.00  0.00     0.173 A 
ATOM     41  C   UNL A   1      45.901  35.808  28.556  1.00  0.00     0.173 A 
ATOM     42  F   UNL A   1      42.317  35.251  28.317  1.00  0.00    -0.203 F 
ATOM     43  C   UNL A   1      43.665  36.822  27.276  1.00  0.00     0.198 A 
ATOM     44  C   UNL A   1      45.996  36.955  27.762  1.00  0.00     0.198 A 
ATOM     45  F   UNL A   1      47.016  35.388  29.171  1.00  0.00    -0.203 F 
ATOM     46  F   UNL A   1      42.566  37.312  26.686  1.00  0.00    -0.200 F 
ATOM     47  C   UNL A   1      44.878  37.461  27.124  1.00  0.00     0.200 A 
ATOM     48  F   UNL A   1      47.164  37.605  27.666  1.00  0.00    -0.200 F 
ATOM     49  F   UNL A   1      44.957  38.587  26.404  1.00  0.00    -0.200 F 
ENDBRANCH  25  39
BRANCH  26  50
ATOM     50  C   UNL A   1      36.716  32.491  30.778  1.00  0.00     0.064 A 
ATOM     51  C   UNL A   1      36.464  32.106  29.447  1.00  0.00     0.173 A 
ATOM     52  C   UNL A   1      35.719  33.263  31.402  1.00  0.00     0.173 A 
ATOM     53  F   UNL A   1      37.384  31.430  28.745  1.00  0.00    -0.203 F 
ATOM     54  C   UNL A   1      35.308  32.501  28.771  1.00  0.00     0.198 A 
ATOM     55  C   UNL A   1      34.562  33.662  30.721  1.00  0.00     0.198 A 
ATOM     56  F   UNL A   1      35.897  33.710  32.655  1.00  0.00    -0.203 F 
ATOM     57  F   UNL A   1      35.148  32.171  27.481  1.00  0.00    -0.200 F 
ATOM     58  C   UNL A   1      34.365  33.293  29.402  1.00  0.00     0.200 A 
ATOM     59  F   UNL A   1      33.671  34.461  31.326  1.00  0.00    -0.200 F 
ATOM     60  F   UNL A   1      33.297  33.736  28.725  1.00  0.00    -0.200 F 
ENDBRANCH  26  50
BRANCH  38  61
ATOM     61  C   UNL A   1      41.507  33.766  34.708  1.00  0.00     0.064 A 
ATOM     62  C   UNL A   1      41.395  34.644  35.794  1.00  0.00     0.173 A 
ATOM     63  C   UNL A   1      41.613  32.393  34.993  1.00  0.00     0.173 A 
ATOM     64  F   UNL A   1      41.342  35.969  35.584  1.00  0.00    -0.203 F 
ATOM     65  C   UNL A   1      41.406  34.176  37.105  1.00  0.00     0.198 A 
ATOM     66  C   UNL A   1      41.587  31.925  36.306  1.00  0.00     0.198 A 
ATOM     67  F   UNL A   1      41.814  31.498  34.018  1.00  0.00    -0.203 F 
ATOM     68  F   UNL A   1      41.371  35.047  38.122  1.00  0.00    -0.200 F 
ATOM     69  C   UNL A   1      41.497  32.817  37.361  1.00  0.00     0.200 A 
ATOM     70  F   UNL A   1      41.699  30.611  36.554  1.00  0.00    -0.200 F 
ATOM     71  F   UNL A   1      41.535  32.373  38.625  1.00  0.00    -0.200 F 
ENDBRANCH  38  61
ENDBRANCH  12  13
ENDBRANCH   5   7
ENDBRANCH   2   3
ENDBRANCH   1   2
BRANCH   1  72
ATOM     72  C   UNL A   1      46.625  24.252  25.645  1.00  0.00     0.118 C 
BRANCH  72  73
ATOM     73  N   UNL A   1      46.004  23.468  24.588  1.00  0.00    -0.351 N 
ATOM     74  C   UNL A   1      44.676  23.256  24.266  1.00  0.00     0.269 C 
ATOM     75  H   UNL A   1      46.641  23.005  23.997  1.00  0.00     0.163 HD
ATOM     76  O   UNL A   1      44.415  22.461  23.369  1.00  0.00    -0.268 OA
BRANCH  74  77
ATOM     77  C   UNL A   1      43.578  24.005  24.955  1.00  0.00     0.129 A 
ATOM     78  C   UNL A   1      42.813  23.405  25.922  1.00  0.00     0.039 A 
ATOM     79  N   UNL A   1      43.447  25.307  24.667  1.00  0.00    -0.243 NA
ATOM     80  C   UNL A   1      41.786  24.120  26.586  1.00  0.00    -0.021 A 
ATOM     81  C   UNL A   1      42.539  26.032  25.334  1.00  0.00     0.072 A 
ATOM     82  C   UNL A   1      41.629  25.540  26.323  1.00  0.00     0.012 A 
ATOM     83  C   UNL A   1      42.572  27.367  24.994  1.00  0.00     0.029 A 
ATOM     84  C   UNL A   1      40.727  26.547  26.935  1.00  0.00    -0.009 A 
ATOM     85  C   UNL A   1      41.732  28.301  25.579  1.00  0.00     0.011 A 
ATOM     86  C   UNL A   1      40.811  27.912  26.537  1.00  0.00    -0.018 A 
ATOM     87  C   UNL A   1      39.752  26.314  27.933  1.00  0.00     0.009 A 
ATOM     88  C   UNL A   1      39.991  28.911  27.095  1.00  0.00     0.009 A 
ATOM     89  C   UNL A   1      38.929  27.304  28.486  1.00  0.00     0.001 A 
ATOM     90  C   UNL A   1      39.048  28.611  28.066  1.00  0.00     0.001 A 
BRANCH  80  91
ATOM     91  C   UNL A   1      41.054  23.227  27.563  1.00  0.00     0.115 C 
ATOM     92  C   UNL A   1      41.850  22.353  28.458  1.00  0.00     0.123 C 
ATOM     93  C   UNL A   1      40.037  22.230  27.111  1.00  0.00     0.083 C 
ATOM     94  N   UNL A   1      41.309  21.188  28.620  1.00  0.00    -0.162 NA
ATOM     95  N   UNL A   1      40.152  21.109  27.767  1.00  0.00    -0.154 NA
BRANCH  93  96
ATOM     96  C   UNL A   1      38.922  22.535  26.185  1.00  0.00    -0.001 A 
ATOM     97  C   UNL A   1      38.479  21.510  25.338  1.00  0.00     0.013 A 
ATOM     98  C   UNL A   1      38.273  23.775  26.153  1.00  0.00     0.013 A 
ATOM     99  C   UNL A   1      37.371  21.711  24.511  1.00  0.00     0.040 A 
ATOM    100  C   UNL A   1      37.161  23.972  25.331  1.00  0.00     0.040 A 
ATOM    101  C   UNL A   1      36.715  22.935  24.524  1.00  0.00     0.123 A 
ATOM    102  F   UNL A   1      35.639  23.120  23.750  1.00  0.00    -0.207 F 
ENDBRANCH  93  96
ENDBRANCH  80  91
ENDBRANCH  74  77
ENDBRANCH  72  73
ENDBRANCH   1  72
TORSDOF 12
ENDMDL
