MODEL 1
REMARK VINA RESULT:     -12.3      0.000      0.000
REMARK SMILES C[C@@H]([NH2+]C[C@H]1CCC[C@@H]1C(=O)NCCCNC(=O)c1ccc(-c2c3nc(c(-c4c(F)c(F)c(F)c(F)c4F)c4ccc([nH]4)c(-c4c(F)c(F)c(F)c(F)c4F)c4nc(c(-c5c(F)c(F)c(F)c(F)c5F)c5ccc2[nH]5)C=C4)C=C3)cc1)c1cc(F)ccc1O
REMARK SMILES IDX 10 1 11 2 12 3 9 5 5 6 6 7 7 8 8 9 4 10 3 11 2 14 1 15 82 16
REMARK SMILES IDX 83 17 88 18 84 19 87 20 85 21 86 22 89 23 13 25 14 26 15 27
REMARK SMILES IDX 16 28 17 29 18 31 19 32 20 33 81 34 21 35 80 36 22 37 23 38
REMARK SMILES IDX 24 39 74 40 25 41 79 42 73 43 75 44 26 45 78 46 72 47 71 48
REMARK SMILES IDX 27 50 59 51 39 52 58 53 40 54 43 55 57 56 76 57 41 58 42 59
REMARK SMILES IDX 56 61 77 62 44 63 28 64 29 65 37 66 30 67 31 68 35 69 38 70
REMARK SMILES IDX 32 71 33 72 36 73 34 74 60 75 61 76 69 77 62 78 63 79 67 80
REMARK SMILES IDX 70 81 64 82 65 83 68 84 66 85 45 86 46 87 54 88 47 89 48 90
REMARK SMILES IDX 52 91 55 92 49 93 50 94 53 95 51 96
REMARK H PARENT 12 4 3 12 3 13 89 24 16 30 75 49 43 60
REMARK Flexibility Score: inf
ROOT
ATOM      1  C   UNL A   1      31.228  24.846  26.422  1.00  0.00     0.223 C 
ATOM      2  O   UNL A   1      30.715  24.050  27.218  1.00  0.00    -0.275 OA
ATOM      3  N   UNL A   1      30.812  26.131  26.520  1.00  0.00    -0.356 N 
ATOM      4  H   UNL A   1      30.113  26.267  27.200  1.00  0.00     0.163 HD
ENDROOT
BRANCH   1   5
ATOM      5  C   UNL A   1      32.310  24.336  25.464  1.00  0.00     0.087 C 
ATOM      6  C   UNL A   1      33.700  24.317  26.117  1.00  0.00     0.057 C 
ATOM      7  C   UNL A   1      34.296  25.657  25.648  1.00  0.00     0.010 C 
ATOM      8  C   UNL A   1      33.820  25.788  24.199  1.00  0.00     0.001 C 
ATOM      9  C   UNL A   1      32.495  25.028  24.121  1.00  0.00     0.014 C 
BRANCH   6  10
ATOM     10  C   UNL A   1      34.681  23.208  25.669  1.00  0.00     0.265 C 
BRANCH  10  11
ATOM     11  N   UNL A   1      34.242  22.055  24.896  1.00  0.00    -0.340 N 
ATOM     12  H   UNL A   1      33.224  22.029  24.953  1.00  0.00     0.346 HD
ATOM     13  H   UNL A   1      34.647  22.214  23.973  1.00  0.00     0.346 HD
BRANCH  11  14
ATOM     14  C   UNL A   1      34.726  20.712  25.261  1.00  0.00     0.214 C 
ATOM     15  C   UNL A   1      36.235  20.668  25.000  1.00  0.00     0.081 C 
BRANCH  14  16
ATOM     16  C   UNL A   1      34.061  19.514  24.593  1.00  0.00     0.054 A 
ATOM     17  C   UNL A   1      34.655  18.239  24.632  1.00  0.00     0.053 A 
ATOM     18  C   UNL A   1      32.850  19.634  23.884  1.00  0.00     0.124 A 
ATOM     19  C   UNL A   1      34.136  17.186  23.879  1.00  0.00     0.123 A 
ATOM     20  C   UNL A   1      32.324  18.569  23.146  1.00  0.00     0.050 A 
ATOM     21  F   UNL A   1      34.781  16.013  23.855  1.00  0.00    -0.207 F 
ATOM     22  C   UNL A   1      32.984  17.344  23.124  1.00  0.00     0.043 A 
BRANCH  18  23
ATOM     23  O   UNL A   1      32.128  20.793  23.819  1.00  0.00    -0.507 OA
ATOM     24  H   UNL A   1      32.011  21.227  22.997  1.00  0.00     0.293 HD
ENDBRANCH  18  23
ENDBRANCH  14  16
ENDBRANCH  11  14
ENDBRANCH  10  11
ENDBRANCH   6  10
ENDBRANCH   1   5
BRANCH   3  25
ATOM     25  C   UNL A   1      31.191  27.343  25.825  1.00  0.00     0.117 C 
BRANCH  25  26
ATOM     26  C   UNL A   1      31.831  28.376  26.741  1.00  0.00     0.042 C 
BRANCH  26  27
ATOM     27  C   UNL A   1      32.938  29.167  26.068  1.00  0.00     0.118 C 
BRANCH  27  28
ATOM     28  N   UNL A   1      32.793  30.600  26.288  1.00  0.00    -0.352 N 
ATOM     29  C   UNL A   1      33.417  31.435  27.180  1.00  0.00     0.251 C 
ATOM     30  H   UNL A   1      32.141  31.043  25.698  1.00  0.00     0.163 HD
ATOM     31  O   UNL A   1      32.948  32.547  27.396  1.00  0.00    -0.269 OA
BRANCH  29  32
ATOM     32  C   UNL A   1      34.648  31.006  27.876  1.00  0.00     0.039 A 
ATOM     33  C   UNL A   1      35.706  31.911  28.001  1.00  0.00     0.014 A 
ATOM     34  C   UNL A   1      34.784  29.703  28.356  1.00  0.00     0.014 A 
ATOM     35  C   UNL A   1      36.875  31.521  28.654  1.00  0.00     0.010 A 
ATOM     36  C   UNL A   1      35.903  29.348  29.097  1.00  0.00     0.010 A 
ATOM     37  C   UNL A   1      36.970  30.246  29.233  1.00  0.00    -0.014 A 
BRANCH  37  38
ATOM     38  C   UNL A   1      38.186  29.818  29.964  1.00  0.00     0.031 A 
ATOM     39  C   UNL A   1      38.451  30.337  31.350  1.00  0.00     0.074 A 
ATOM     40  C   UNL A   1      39.079  29.021  29.348  1.00  0.00     0.049 A 
ATOM     41  N   UNL A   1      39.484  30.131  32.128  1.00  0.00    -0.248 NA
ATOM     42  C   UNL A   1      37.439  31.237  31.927  1.00  0.00     0.031 C 
ATOM     43  C   UNL A   1      38.959  28.515  27.980  1.00  0.00     0.029 A 
ATOM     44  N   UNL A   1      40.268  28.501  29.792  1.00  0.00    -0.354 N 
ATOM     45  C   UNL A   1      39.255  30.891  33.267  1.00  0.00     0.074 A 
ATOM     46  C   UNL A   1      38.018  31.609  33.059  1.00  0.00     0.031 C 
ATOM     47  C   UNL A   1      40.013  27.731  27.707  1.00  0.00     0.029 A 
ATOM     48  C   UNL A   1      40.898  27.707  28.867  1.00  0.00     0.049 A 
ATOM     49  H   UNL A   1      40.634  28.681  30.687  1.00  0.00     0.167 HD
ATOM     50  C   UNL A   1      39.996  30.960  34.399  1.00  0.00     0.037 A 
ATOM     51  C   UNL A   1      42.059  27.033  28.951  1.00  0.00     0.037 A 
ATOM     52  C   UNL A   1      41.205  30.210  34.613  1.00  0.00     0.049 A 
ATOM     53  C   UNL A   1      42.843  27.094  30.232  1.00  0.00     0.074 A 
ATOM     54  C   UNL A   1      41.997  30.148  35.745  1.00  0.00     0.029 A 
ATOM     55  N   UNL A   1      41.794  29.383  33.666  1.00  0.00    -0.354 N 
ATOM     56  N   UNL A   1      42.581  27.758  31.332  1.00  0.00    -0.248 NA
ATOM     57  C   UNL A   1      44.080  26.305  30.288  1.00  0.00     0.031 C 
ATOM     58  C   UNL A   1      43.086  29.313  35.471  1.00  0.00     0.029 A 
ATOM     59  C   UNL A   1      42.948  28.818  34.184  1.00  0.00     0.049 A 
ATOM     60  H   UNL A   1      41.443  29.220  32.761  1.00  0.00     0.167 HD
ATOM     61  C   UNL A   1      43.603  27.450  32.218  1.00  0.00     0.074 A 
ATOM     62  C   UNL A   1      44.480  26.522  31.532  1.00  0.00     0.031 C 
ATOM     63  C   UNL A   1      43.803  27.896  33.482  1.00  0.00     0.037 A 
BRANCH  50  64
ATOM     64  C   UNL A   1      39.510  31.866  35.493  1.00  0.00     0.064 A 
ATOM     65  C   UNL A   1      39.934  33.200  35.586  1.00  0.00     0.173 A 
ATOM     66  C   UNL A   1      38.592  31.404  36.448  1.00  0.00     0.173 A 
ATOM     67  F   UNL A   1      40.823  33.689  34.707  1.00  0.00    -0.203 F 
ATOM     68  C   UNL A   1      39.483  34.028  36.611  1.00  0.00     0.198 A 
ATOM     69  C   UNL A   1      38.118  32.243  37.453  1.00  0.00     0.198 A 
ATOM     70  F   UNL A   1      38.150  30.137  36.404  1.00  0.00    -0.203 F 
ATOM     71  F   UNL A   1      39.945  35.282  36.709  1.00  0.00    -0.200 F 
ATOM     72  C   UNL A   1      38.571  33.551  37.539  1.00  0.00     0.200 A 
ATOM     73  F   UNL A   1      37.228  31.785  38.344  1.00  0.00    -0.200 F 
ATOM     74  F   UNL A   1      38.133  34.350  38.522  1.00  0.00    -0.200 F 
ENDBRANCH  50  64
BRANCH  51  75
ATOM     75  C   UNL A   1      42.522  26.207  27.805  1.00  0.00     0.064 A 
ATOM     76  C   UNL A   1      43.466  26.706  26.897  1.00  0.00     0.173 A 
ATOM     77  C   UNL A   1      42.044  24.906  27.600  1.00  0.00     0.173 A 
ATOM     78  F   UNL A   1      43.941  27.952  27.043  1.00  0.00    -0.203 F 
ATOM     79  C   UNL A   1      43.898  25.944  25.815  1.00  0.00     0.198 A 
ATOM     80  C   UNL A   1      42.496  24.133  26.533  1.00  0.00     0.198 A 
ATOM     81  F   UNL A   1      41.147  24.378  28.447  1.00  0.00    -0.203 F 
ATOM     82  F   UNL A   1      44.770  26.460  24.939  1.00  0.00    -0.200 F 
ATOM     83  C   UNL A   1      43.417  24.655  25.637  1.00  0.00     0.200 A 
ATOM     84  F   UNL A   1      42.041  22.883  26.373  1.00  0.00    -0.200 F 
ATOM     85  F   UNL A   1      43.837  23.918  24.599  1.00  0.00    -0.200 F 
ENDBRANCH  51  75
BRANCH  63  86
ATOM     86  C   UNL A   1      45.003  27.364  34.208  1.00  0.00     0.064 A 
ATOM     87  C   UNL A   1      46.239  28.026  34.166  1.00  0.00     0.173 A 
ATOM     88  C   UNL A   1      44.908  26.191  34.972  1.00  0.00     0.173 A 
ATOM     89  F   UNL A   1      46.382  29.142  33.436  1.00  0.00    -0.203 F 
ATOM     90  C   UNL A   1      47.345  27.515  34.837  1.00  0.00     0.198 A 
ATOM     91  C   UNL A   1      46.009  25.701  35.667  1.00  0.00     0.198 A 
ATOM     92  F   UNL A   1      43.746  25.526  35.049  1.00  0.00    -0.203 F 
ATOM     93  F   UNL A   1      48.530  28.134  34.740  1.00  0.00    -0.200 F 
ATOM     94  C   UNL A   1      47.228  26.356  35.591  1.00  0.00     0.200 A 
ATOM     95  F   UNL A   1      45.892  24.588  36.405  1.00  0.00    -0.200 F 
ATOM     96  F   UNL A   1      48.294  25.867  36.238  1.00  0.00    -0.200 F 
ENDBRANCH  63  86
ENDBRANCH  37  38
ENDBRANCH  29  32
ENDBRANCH  27  28
ENDBRANCH  26  27
ENDBRANCH  25  26
ENDBRANCH   3  25
TORSDOF 15
ENDMDL
MODEL 2
REMARK VINA RESULT:     -12.3      4.636      8.404
REMARK SMILES C[C@@H]([NH2+]C[C@H]1CCC[C@@H]1C(=O)NCCCNC(=O)c1ccc(-c2c3nc(c(-c4c(F)c(F)c(F)c(F)c4F)c4ccc([nH]4)c(-c4c(F)c(F)c(F)c(F)c4F)c4nc(c(-c5c(F)c(F)c(F)c(F)c5F)c5ccc2[nH]5)C=C4)C=C3)cc1)c1cc(F)ccc1O
REMARK SMILES IDX 10 1 11 2 12 3 9 5 5 6 6 7 7 8 8 9 4 10 3 11 2 14 1 15 82 16
REMARK SMILES IDX 83 17 88 18 84 19 87 20 85 21 86 22 89 23 13 25 14 26 15 27
REMARK SMILES IDX 16 28 17 29 18 31 19 32 20 33 81 34 21 35 80 36 22 37 23 38
REMARK SMILES IDX 24 39 74 40 25 41 79 42 73 43 75 44 26 45 78 46 72 47 71 48
REMARK SMILES IDX 27 50 59 51 39 52 58 53 40 54 43 55 57 56 76 57 41 58 42 59
REMARK SMILES IDX 56 61 77 62 44 63 28 64 29 65 37 66 30 67 31 68 35 69 38 70
REMARK SMILES IDX 32 71 33 72 36 73 34 74 60 75 61 76 69 77 62 78 63 79 67 80
REMARK SMILES IDX 70 81 64 82 65 83 68 84 66 85 45 86 46 87 54 88 47 89 48 90
REMARK SMILES IDX 52 91 55 92 49 93 50 94 53 95 51 96
REMARK H PARENT 12 4 3 12 3 13 89 24 16 30 75 49 43 60
REMARK Flexibility Score: inf
ROOT
ATOM      1  C   UNL A   1      34.096  20.033  24.939  1.00  0.00     0.223 C 
ATOM      2  O   UNL A   1      33.267  19.116  24.884  1.00  0.00    -0.275 OA
ATOM      3  N   UNL A   1      35.396  19.656  24.940  1.00  0.00    -0.356 N 
ATOM      4  H   UNL A   1      35.523  18.680  24.935  1.00  0.00     0.163 HD
ENDROOT
BRANCH   1   5
ATOM      5  C   UNL A   1      33.594  21.481  24.934  1.00  0.00     0.087 C 
ATOM      6  C   UNL A   1      32.073  21.566  24.732  1.00  0.00     0.057 C 
ATOM      7  C   UNL A   1      31.962  21.806  23.215  1.00  0.00     0.010 C 
ATOM      8  C   UNL A   1      33.117  22.762  22.904  1.00  0.00     0.001 C 
ATOM      9  C   UNL A   1      34.197  22.470  23.946  1.00  0.00     0.014 C 
BRANCH   6  10
ATOM     10  C   UNL A   1      31.327  22.730  25.426  1.00  0.00     0.265 C 
BRANCH  10  11
ATOM     11  N   UNL A   1      32.018  23.933  25.869  1.00  0.00    -0.340 N 
ATOM     12  H   UNL A   1      32.226  23.810  26.860  1.00  0.00     0.346 HD
ATOM     13  H   UNL A   1      32.815  24.001  25.236  1.00  0.00     0.346 HD
BRANCH  11  14
ATOM     14  C   UNL A   1      31.353  25.240  25.731  1.00  0.00     0.214 C 
ATOM     15  C   UNL A   1      30.937  25.405  24.266  1.00  0.00     0.081 C 
BRANCH  14  16
ATOM     16  C   UNL A   1      32.122  26.477  26.182  1.00  0.00     0.054 A 
ATOM     17  C   UNL A   1      31.458  27.572  26.767  1.00  0.00     0.053 A 
ATOM     18  C   UNL A   1      33.514  26.594  26.005  1.00  0.00     0.124 A 
ATOM     19  C   UNL A   1      32.134  28.765  27.019  1.00  0.00     0.123 A 
ATOM     20  C   UNL A   1      34.190  27.787  26.278  1.00  0.00     0.050 A 
ATOM     21  F   UNL A   1      31.454  29.822  27.480  1.00  0.00    -0.207 F 
ATOM     22  C   UNL A   1      33.492  28.887  26.766  1.00  0.00     0.043 A 
BRANCH  18  23
ATOM     23  O   UNL A   1      34.297  25.587  25.514  1.00  0.00    -0.507 OA
ATOM     24  H   UNL A   1      34.799  25.055  26.101  1.00  0.00     0.293 HD
ENDBRANCH  18  23
ENDBRANCH  14  16
ENDBRANCH  11  14
ENDBRANCH  10  11
ENDBRANCH   6  10
ENDBRANCH   1   5
BRANCH   3  25
ATOM     25  C   UNL A   1      36.637  20.403  24.947  1.00  0.00     0.117 C 
BRANCH  25  26
ATOM     26  C   UNL A   1      37.867  19.508  25.007  1.00  0.00     0.042 C 
BRANCH  26  27
ATOM     27  C   UNL A   1      39.028  20.140  25.753  1.00  0.00     0.118 C 
BRANCH  27  28
ATOM     28  N   UNL A   1      40.139  19.211  25.917  1.00  0.00    -0.352 N 
ATOM     29  C   UNL A   1      41.478  19.442  26.103  1.00  0.00     0.251 C 
ATOM     30  H   UNL A   1      39.887  18.260  25.891  1.00  0.00     0.163 HD
ATOM     31  O   UNL A   1      42.278  18.530  25.933  1.00  0.00    -0.269 OA
BRANCH  29  32
ATOM     32  C   UNL A   1      41.960  20.778  26.510  1.00  0.00     0.039 A 
ATOM     33  C   UNL A   1      42.361  21.684  25.524  1.00  0.00     0.014 A 
ATOM     34  C   UNL A   1      42.069  21.122  27.859  1.00  0.00     0.014 A 
ATOM     35  C   UNL A   1      42.821  22.948  25.893  1.00  0.00     0.010 A 
ATOM     36  C   UNL A   1      42.425  22.414  28.222  1.00  0.00     0.010 A 
ATOM     37  C   UNL A   1      42.826  23.333  27.243  1.00  0.00    -0.014 A 
BRANCH  37  38
ATOM     38  C   UNL A   1      43.275  24.683  27.660  1.00  0.00     0.031 A 
ATOM     39  C   UNL A   1      42.261  25.734  28.018  1.00  0.00     0.074 A 
ATOM     40  C   UNL A   1      44.589  24.975  27.646  1.00  0.00     0.049 A 
ATOM     41  N   UNL A   1      42.449  26.987  28.347  1.00  0.00    -0.248 NA
ATOM     42  C   UNL A   1      40.845  25.336  27.965  1.00  0.00     0.031 C 
ATOM     43  C   UNL A   1      45.656  24.054  27.248  1.00  0.00     0.029 A 
ATOM     44  N   UNL A   1      45.251  26.131  27.970  1.00  0.00    -0.354 N 
ATOM     45  C   UNL A   1      41.180  27.527  28.515  1.00  0.00     0.074 A 
ATOM     46  C   UNL A   1      40.229  26.486  28.195  1.00  0.00     0.031 C 
ATOM     47  C   UNL A   1      46.840  24.669  27.383  1.00  0.00     0.029 A 
ATOM     48  C   UNL A   1      46.614  26.036  27.843  1.00  0.00     0.049 A 
ATOM     49  H   UNL A   1      44.792  26.950  28.264  1.00  0.00     0.167 HD
ATOM     50  C   UNL A   1      40.840  28.770  28.928  1.00  0.00     0.037 A 
ATOM     51  C   UNL A   1      47.572  26.951  28.076  1.00  0.00     0.037 A 
ATOM     52  C   UNL A   1      41.794  29.787  29.282  1.00  0.00     0.049 A 
ATOM     53  C   UNL A   1      47.171  28.312  28.572  1.00  0.00     0.074 A 
ATOM     54  C   UNL A   1      41.563  31.057  29.780  1.00  0.00     0.029 A 
ATOM     55  N   UNL A   1      43.171  29.642  29.179  1.00  0.00    -0.354 N 
ATOM     56  N   UNL A   1      45.971  28.789  28.798  1.00  0.00    -0.248 NA
ATOM     57  C   UNL A   1      48.257  29.259  28.855  1.00  0.00     0.031 C 
ATOM     58  C   UNL A   1      42.798  31.694  29.943  1.00  0.00     0.029 A 
ATOM     59  C   UNL A   1      43.802  30.805  29.591  1.00  0.00     0.049 A 
ATOM     60  H   UNL A   1      43.632  28.832  28.862  1.00  0.00     0.167 HD
ATOM     61  C   UNL A   1      46.156  30.081  29.271  1.00  0.00     0.074 A 
ATOM     62  C   UNL A   1      47.587  30.304  29.318  1.00  0.00     0.031 C 
ATOM     63  C   UNL A   1      45.227  31.002  29.630  1.00  0.00     0.037 A 
BRANCH  50  64
ATOM     64  C   UNL A   1      39.377  29.093  29.030  1.00  0.00     0.064 A 
ATOM     65  C   UNL A   1      38.697  29.047  30.257  1.00  0.00     0.173 A 
ATOM     66  C   UNL A   1      38.649  29.474  27.893  1.00  0.00     0.173 A 
ATOM     67  F   UNL A   1      39.343  28.673  31.372  1.00  0.00    -0.203 F 
ATOM     68  C   UNL A   1      37.338  29.339  30.337  1.00  0.00     0.198 A 
ATOM     69  C   UNL A   1      37.297  29.797  27.982  1.00  0.00     0.198 A 
ATOM     70  F   UNL A   1      39.250  29.539  26.695  1.00  0.00    -0.203 F 
ATOM     71  F   UNL A   1      36.700  29.235  31.511  1.00  0.00    -0.200 F 
ATOM     72  C   UNL A   1      36.641  29.721  29.201  1.00  0.00     0.200 A 
ATOM     73  F   UNL A   1      36.626  30.177  26.885  1.00  0.00    -0.200 F 
ATOM     74  F   UNL A   1      35.334  30.007  29.280  1.00  0.00    -0.200 F 
ENDBRANCH  50  64
BRANCH  51  75
ATOM     75  C   UNL A   1      49.002  26.592  27.889  1.00  0.00     0.064 A 
ATOM     76  C   UNL A   1      49.811  26.271  28.988  1.00  0.00     0.173 A 
ATOM     77  C   UNL A   1      49.586  26.552  26.615  1.00  0.00     0.173 A 
ATOM     78  F   UNL A   1      49.300  26.311  30.229  1.00  0.00    -0.203 F 
ATOM     79  C   UNL A   1      51.154  25.944  28.823  1.00  0.00     0.198 A 
ATOM     80  C   UNL A   1      50.922  26.198  26.448  1.00  0.00     0.198 A 
ATOM     81  F   UNL A   1      48.852  26.841  25.530  1.00  0.00    -0.203 F 
ATOM     82  F   UNL A   1      51.914  25.681  29.894  1.00  0.00    -0.200 F 
ATOM     83  C   UNL A   1      51.708  25.902  27.552  1.00  0.00     0.200 A 
ATOM     84  F   UNL A   1      51.450  26.143  25.217  1.00  0.00    -0.200 F 
ATOM     85  F   UNL A   1      52.999  25.581  27.392  1.00  0.00    -0.200 F 
ENDBRANCH  51  75
BRANCH  63  86
ATOM     86  C   UNL A   1      45.738  32.321  30.127  1.00  0.00     0.064 A 
ATOM     87  C   UNL A   1      46.025  32.534  31.483  1.00  0.00     0.173 A 
ATOM     88  C   UNL A   1      45.962  33.378  29.232  1.00  0.00     0.173 A 
ATOM     89  F   UNL A   1      45.811  31.558  32.379  1.00  0.00    -0.203 F 
ATOM     90  C   UNL A   1      46.489  33.766  31.930  1.00  0.00     0.198 A 
ATOM     91  C   UNL A   1      46.456  34.600  29.678  1.00  0.00     0.198 A 
ATOM     92  F   UNL A   1      45.709  33.222  27.923  1.00  0.00    -0.203 F 
ATOM     93  F   UNL A   1      46.707  33.965  33.237  1.00  0.00    -0.200 F 
ATOM     94  C   UNL A   1      46.709  34.797  31.027  1.00  0.00     0.200 A 
ATOM     95  F   UNL A   1      46.680  35.590  28.804  1.00  0.00    -0.200 F 
ATOM     96  F   UNL A   1      47.158  35.982  31.459  1.00  0.00    -0.200 F 
ENDBRANCH  63  86
ENDBRANCH  37  38
ENDBRANCH  29  32
ENDBRANCH  27  28
ENDBRANCH  26  27
ENDBRANCH  25  26
ENDBRANCH   3  25
TORSDOF 15
ENDMDL
MODEL 3
REMARK VINA RESULT:     -12.3      5.037     11.075
REMARK SMILES C[C@@H]([NH2+]C[C@H]1CCC[C@@H]1C(=O)NCCCNC(=O)c1ccc(-c2c3nc(c(-c4c(F)c(F)c(F)c(F)c4F)c4ccc([nH]4)c(-c4c(F)c(F)c(F)c(F)c4F)c4nc(c(-c5c(F)c(F)c(F)c(F)c5F)c5ccc2[nH]5)C=C4)C=C3)cc1)c1cc(F)ccc1O
REMARK SMILES IDX 10 1 11 2 12 3 9 5 5 6 6 7 7 8 8 9 4 10 3 11 2 14 1 15 82 16
REMARK SMILES IDX 83 17 88 18 84 19 87 20 85 21 86 22 89 23 13 25 14 26 15 27
REMARK SMILES IDX 16 28 17 29 18 31 19 32 20 33 81 34 21 35 80 36 22 37 23 38
REMARK SMILES IDX 24 39 74 40 25 41 79 42 73 43 75 44 26 45 78 46 72 47 71 48
REMARK SMILES IDX 27 50 59 51 39 52 58 53 40 54 43 55 57 56 76 57 41 58 42 59
REMARK SMILES IDX 56 61 77 62 44 63 28 64 29 65 37 66 30 67 31 68 35 69 38 70
REMARK SMILES IDX 32 71 33 72 36 73 34 74 60 75 61 76 69 77 62 78 63 79 67 80
REMARK SMILES IDX 70 81 64 82 65 83 68 84 66 85 45 86 46 87 54 88 47 89 48 90
REMARK SMILES IDX 52 91 55 92 49 93 50 94 53 95 51 96
REMARK H PARENT 12 4 3 12 3 13 89 24 16 30 75 49 43 60
REMARK Flexibility Score: inf
ROOT
ATOM      1  C   UNL A   1      45.065  23.671  24.900  1.00  0.00     0.223 C 
ATOM      2  O   UNL A   1      45.776  23.454  23.910  1.00  0.00    -0.275 OA
ATOM      3  N   UNL A   1      43.915  22.959  24.969  1.00  0.00    -0.356 N 
ATOM      4  H   UNL A   1      43.767  22.374  24.192  1.00  0.00     0.163 HD
ENDROOT
BRANCH   1   5
ATOM      5  C   UNL A   1      45.566  24.652  25.965  1.00  0.00     0.087 C 
ATOM      6  C   UNL A   1      45.713  26.079  25.415  1.00  0.00     0.057 C 
ATOM      7  C   UNL A   1      47.208  26.131  25.051  1.00  0.00     0.010 C 
ATOM      8  C   UNL A   1      47.895  25.369  26.187  1.00  0.00     0.001 C 
ATOM      9  C   UNL A   1      46.869  24.353  26.692  1.00  0.00     0.014 C 
BRANCH   6  10
ATOM     10  C   UNL A   1      45.449  27.249  26.393  1.00  0.00     0.265 C 
BRANCH  10  11
ATOM     11  N   UNL A   1      44.927  28.531  25.939  1.00  0.00    -0.340 N 
ATOM     12  H   UNL A   1      45.730  29.114  25.705  1.00  0.00     0.346 HD
ATOM     13  H   UNL A   1      44.303  28.279  25.172  1.00  0.00     0.346 HD
BRANCH  11  14
ATOM     14  C   UNL A   1      44.070  29.322  26.839  1.00  0.00     0.214 C 
ATOM     15  C   UNL A   1      42.653  29.326  26.257  1.00  0.00     0.081 C 
BRANCH  14  16
ATOM     16  C   UNL A   1      44.497  30.753  27.145  1.00  0.00     0.054 A 
ATOM     17  C   UNL A   1      43.778  31.544  28.060  1.00  0.00     0.053 A 
ATOM     18  C   UNL A   1      45.599  31.355  26.507  1.00  0.00     0.124 A 
ATOM     19  C   UNL A   1      44.064  32.901  28.209  1.00  0.00     0.123 A 
ATOM     20  C   UNL A   1      45.893  32.711  26.676  1.00  0.00     0.050 A 
ATOM     21  F   UNL A   1      43.297  33.652  29.010  1.00  0.00    -0.207 F 
ATOM     22  C   UNL A   1      45.106  33.495  27.513  1.00  0.00     0.043 A 
BRANCH  18  23
ATOM     23  O   UNL A   1      46.426  30.687  25.648  1.00  0.00    -0.507 OA
ATOM     24  H   UNL A   1      46.089  30.342  24.845  1.00  0.00     0.293 HD
ENDBRANCH  18  23
ENDBRANCH  14  16
ENDBRANCH  11  14
ENDBRANCH  10  11
ENDBRANCH   6  10
ENDBRANCH   1   5
BRANCH   3  25
ATOM     25  C   UNL A   1      42.862  22.888  25.960  1.00  0.00     0.117 C 
BRANCH  25  26
ATOM     26  C   UNL A   1      41.965  21.671  25.784  1.00  0.00     0.042 C 
BRANCH  26  27
ATOM     27  C   UNL A   1      40.755  21.684  26.701  1.00  0.00     0.118 C 
BRANCH  27  28
ATOM     28  N   UNL A   1      39.539  22.057  25.990  1.00  0.00    -0.352 N 
ATOM     29  C   UNL A   1      38.726  23.154  26.124  1.00  0.00     0.251 C 
ATOM     30  H   UNL A   1      39.254  21.418  25.299  1.00  0.00     0.163 HD
ATOM     31  O   UNL A   1      37.603  23.138  25.632  1.00  0.00    -0.269 OA
BRANCH  29  32
ATOM     32  C   UNL A   1      39.195  24.352  26.850  1.00  0.00     0.039 A 
ATOM     33  C   UNL A   1      39.969  25.297  26.171  1.00  0.00     0.014 A 
ATOM     34  C   UNL A   1      38.920  24.522  28.208  1.00  0.00     0.014 A 
ATOM     35  C   UNL A   1      40.421  26.432  26.844  1.00  0.00     0.010 A 
ATOM     36  C   UNL A   1      39.279  25.700  28.850  1.00  0.00     0.010 A 
ATOM     37  C   UNL A   1      40.053  26.656  28.181  1.00  0.00    -0.014 A 
BRANCH  37  38
ATOM     38  C   UNL A   1      40.488  27.872  28.908  1.00  0.00     0.031 A 
ATOM     39  C   UNL A   1      41.897  27.975  29.424  1.00  0.00     0.074 A 
ATOM     40  C   UNL A   1      39.593  28.846  29.160  1.00  0.00     0.049 A 
ATOM     41  N   UNL A   1      42.451  28.925  30.134  1.00  0.00    -0.248 NA
ATOM     42  C   UNL A   1      42.793  26.843  29.137  1.00  0.00     0.031 C 
ATOM     43  C   UNL A   1      38.183  28.821  28.768  1.00  0.00     0.029 A 
ATOM     44  N   UNL A   1      39.736  30.044  29.811  1.00  0.00    -0.354 N 
ATOM     45  C   UNL A   1      43.745  28.494  30.394  1.00  0.00     0.074 A 
ATOM     46  C   UNL A   1      43.879  27.174  29.820  1.00  0.00     0.031 C 
ATOM     47  C   UNL A   1      37.598  29.964  29.157  1.00  0.00     0.029 A 
ATOM     48  C   UNL A   1      38.582  30.786  29.853  1.00  0.00     0.049 A 
ATOM     49  H   UNL A   1      40.585  30.342  30.210  1.00  0.00     0.167 HD
ATOM     50  C   UNL A   1      44.743  29.153  31.029  1.00  0.00     0.037 A 
ATOM     51  C   UNL A   1      38.350  31.996  30.393  1.00  0.00     0.037 A 
ATOM     52  C   UNL A   1      44.613  30.484  31.563  1.00  0.00     0.049 A 
ATOM     53  C   UNL A   1      39.483  32.725  31.058  1.00  0.00     0.074 A 
ATOM     54  C   UNL A   1      45.576  31.275  32.162  1.00  0.00     0.029 A 
ATOM     55  N   UNL A   1      43.437  31.222  31.552  1.00  0.00    -0.354 N 
ATOM     56  N   UNL A   1      40.724  32.339  31.235  1.00  0.00    -0.248 NA
ATOM     57  C   UNL A   1      39.188  34.061  31.591  1.00  0.00     0.031 C 
ATOM     58  C   UNL A   1      44.975  32.477  32.549  1.00  0.00     0.029 A 
ATOM     59  C   UNL A   1      43.648  32.455  32.149  1.00  0.00     0.049 A 
ATOM     60  H   UNL A   1      42.581  30.916  31.176  1.00  0.00     0.167 HD
ATOM     61  C   UNL A   1      41.364  33.391  31.876  1.00  0.00     0.074 A 
ATOM     62  C   UNL A   1      40.376  34.439  32.038  1.00  0.00     0.031 C 
ATOM     63  C   UNL A   1      42.649  33.482  32.297  1.00  0.00     0.037 A 
BRANCH  50  64
ATOM     64  C   UNL A   1      46.062  28.450  31.169  1.00  0.00     0.064 A 
ATOM     65  C   UNL A   1      46.368  27.677  32.299  1.00  0.00     0.173 A 
ATOM     66  C   UNL A   1      47.025  28.530  30.152  1.00  0.00     0.173 A 
ATOM     67  F   UNL A   1      45.488  27.579  33.308  1.00  0.00    -0.203 F 
ATOM     68  C   UNL A   1      47.598  27.037  32.421  1.00  0.00     0.198 A 
ATOM     69  C   UNL A   1      48.243  27.863  30.262  1.00  0.00     0.198 A 
ATOM     70  F   UNL A   1      46.784  29.253  29.047  1.00  0.00    -0.203 F 
ATOM     71  F   UNL A   1      47.887  26.349  33.535  1.00  0.00    -0.200 F 
ATOM     72  C   UNL A   1      48.532  27.125  31.399  1.00  0.00     0.200 A 
ATOM     73  F   UNL A   1      49.140  27.940  29.269  1.00  0.00    -0.200 F 
ATOM     74  F   UNL A   1      49.714  26.504  31.515  1.00  0.00    -0.200 F 
ENDBRANCH  50  64
BRANCH  51  75
ATOM     75  C   UNL A   1      37.001  32.610  30.282  1.00  0.00     0.064 A 
ATOM     76  C   UNL A   1      36.641  33.350  29.148  1.00  0.00     0.173 A 
ATOM     77  C   UNL A   1      36.044  32.463  31.296  1.00  0.00     0.173 A 
ATOM     78  F   UNL A   1      37.528  33.532  28.158  1.00  0.00    -0.203 F 
ATOM     79  C   UNL A   1      35.383  33.938  29.040  1.00  0.00     0.198 A 
ATOM     80  C   UNL A   1      34.777  33.028  31.177  1.00  0.00     0.198 A 
ATOM     81  F   UNL A   1      36.336  31.756  32.398  1.00  0.00    -0.203 F 
ATOM     82  F   UNL A   1      35.079  34.674  27.963  1.00  0.00    -0.200 F 
ATOM     83  C   UNL A   1      34.449  33.771  30.052  1.00  0.00     0.200 A 
ATOM     84  F   UNL A   1      33.872  32.852  32.150  1.00  0.00    -0.200 F 
ATOM     85  F   UNL A   1      33.237  34.332  29.947  1.00  0.00    -0.200 F 
ENDBRANCH  51  75
BRANCH  63  86
ATOM     86  C   UNL A   1      43.061  34.768  32.949  1.00  0.00     0.064 A 
ATOM     87  C   UNL A   1      42.985  34.943  34.339  1.00  0.00     0.173 A 
ATOM     88  C   UNL A   1      43.557  35.828  32.177  1.00  0.00     0.173 A 
ATOM     89  F   UNL A   1      42.501  33.963  35.117  1.00  0.00    -0.203 F 
ATOM     90  C   UNL A   1      43.362  36.145  34.928  1.00  0.00     0.198 A 
ATOM     91  C   UNL A   1      43.962  37.018  32.773  1.00  0.00     0.198 A 
ATOM     92  F   UNL A   1      43.656  35.707  30.844  1.00  0.00    -0.203 F 
ATOM     93  F   UNL A   1      43.231  36.311  36.252  1.00  0.00    -0.200 F 
ATOM     94  C   UNL A   1      43.855  37.180  34.146  1.00  0.00     0.200 A 
ATOM     95  F   UNL A   1      44.450  38.012  32.019  1.00  0.00    -0.200 F 
ATOM     96  F   UNL A   1      44.219  38.336  34.716  1.00  0.00    -0.200 F 
ENDBRANCH  63  86
ENDBRANCH  37  38
ENDBRANCH  29  32
ENDBRANCH  27  28
ENDBRANCH  26  27
ENDBRANCH  25  26
ENDBRANCH   3  25
TORSDOF 15
ENDMDL
