MODEL 1
REMARK VINA RESULT:     -13.1      0.000      0.000
REMARK SMILES COc1ccc(S(=O)(=O)N2CCCC[C@@H]2C(=O)NCCCNC(=O)c2ccc(-c3c4nc(c(-c5c(F)c(F)c(F)c(F)c5F)c5ccc([nH]5)c(-c5c(F)c(F)c(F)c(F)c5F)c5nc(c(-c6c(F)c(F)c(F)c(F)c6F)c6ccc3[nH]6)C=C5)C=C4)cc2)cc1C
REMARK SMILES IDX 19 1 18 2 16 3 17 4 15 6 10 7 11 8 12 9 14 10 13 11 7 12
REMARK SMILES IDX 8 13 9 14 6 15 3 16 4 17 89 18 5 19 88 20 90 21 2 22 1 23
REMARK SMILES IDX 20 24 21 25 22 26 23 27 24 29 25 30 26 31 87 32 27 33 86 34
REMARK SMILES IDX 28 35 29 36 30 37 80 38 31 39 85 40 79 41 81 42 32 43 84 44
REMARK SMILES IDX 78 45 77 46 33 48 65 49 45 50 64 51 46 52 49 53 63 54 82 55
REMARK SMILES IDX 47 56 48 57 62 59 83 60 50 61 34 62 35 63 43 64 36 65 37 66
REMARK SMILES IDX 41 67 44 68 38 69 39 70 42 71 40 72 66 73 67 74 75 75 68 76
REMARK SMILES IDX 69 77 73 78 76 79 70 80 71 81 74 82 72 83 51 84 52 85 60 86
REMARK SMILES IDX 53 87 54 88 58 89 61 90 55 91 56 92 59 93 57 94
REMARK H PARENT 18 5 22 28 81 47 49 58
REMARK Flexibility Score: inf
ROOT
ATOM      1  C   UNL A   1      33.598  28.971  27.010  1.00  0.00     0.117 C 
ENDROOT
BRANCH   1   2
ATOM      2  N   UNL A   1      33.951  28.228  25.812  1.00  0.00    -0.355 N 
ATOM      3  C   UNL A   1      33.159  27.781  24.792  1.00  0.00     0.238 C 
ATOM      4  O   UNL A   1      33.680  27.081  23.919  1.00  0.00    -0.273 OA
ATOM      5  H   UNL A   1      34.907  28.013  25.721  1.00  0.00     0.163 HD
BRANCH   3   6
ATOM      6  C   UNL A   1      31.649  28.061  24.764  1.00  0.00     0.162 C 
ATOM      7  N   UNL A   1      30.806  26.819  24.732  1.00  0.00    -0.185 NA
ATOM      8  C   UNL A   1      29.432  26.880  24.171  1.00  0.00     0.103 C 
ATOM      9  C   UNL A   1      29.319  27.813  22.980  1.00  0.00     0.017 C 
ATOM     10  C   UNL A   1      31.349  29.048  23.632  1.00  0.00     0.030 C 
ATOM     11  C   UNL A   1      29.872  29.184  23.317  1.00  0.00     0.004 C 
BRANCH   7  12
ATOM     12  S   UNL A   1      30.988  25.715  26.042  1.00  0.00     0.243 S 
ATOM     13  O   UNL A   1      29.708  25.058  26.259  1.00  0.00    -0.207 OA
ATOM     14  O   UNL A   1      31.647  26.416  27.110  1.00  0.00    -0.207 OA
BRANCH  12  15
ATOM     15  C   UNL A   1      32.115  24.447  25.492  1.00  0.00     0.083 A 
ATOM     16  C   UNL A   1      33.852  22.368  24.773  1.00  0.00     0.121 A 
ATOM     17  C   UNL A   1      34.137  23.195  25.870  1.00  0.00     0.048 A 
ATOM     18  C   UNL A   1      32.671  22.559  24.044  1.00  0.00    -0.008 A 
ATOM     19  C   UNL A   1      33.272  24.227  26.238  1.00  0.00     0.025 A 
ATOM     20  C   UNL A   1      31.842  23.635  24.390  1.00  0.00     0.029 A 
ATOM     21  C   UNL A   1      32.196  21.663  22.937  1.00  0.00     0.048 C 
BRANCH  16  22
ATOM     22  O   UNL A   1      34.747  21.351  24.577  1.00  0.00    -0.496 OA
ATOM     23  C   UNL A   1      35.778  21.253  25.554  1.00  0.00     0.278 C 
ENDBRANCH  16  22
ENDBRANCH  12  15
ENDBRANCH   7  12
ENDBRANCH   3   6
ENDBRANCH   1   2
BRANCH   1  24
ATOM     24  C   UNL A   1      33.578  30.466  26.744  1.00  0.00     0.042 C 
BRANCH  24  25
ATOM     25  C   UNL A   1      33.585  31.289  28.012  1.00  0.00     0.118 C 
BRANCH  25  26
ATOM     26  N   UNL A   1      34.716  32.205  28.096  1.00  0.00    -0.352 N 
ATOM     27  C   UNL A   1      36.041  31.962  28.417  1.00  0.00     0.251 C 
ATOM     28  H   UNL A   1      34.504  33.144  27.894  1.00  0.00     0.163 HD
ATOM     29  O   UNL A   1      36.831  32.895  28.515  1.00  0.00    -0.269 OA
BRANCH  27  30
ATOM     30  C   UNL A   1      36.545  30.566  28.425  1.00  0.00     0.039 A 
ATOM     31  C   UNL A   1      36.752  30.020  29.698  1.00  0.00     0.014 A 
ATOM     32  C   UNL A   1      37.247  30.088  27.331  1.00  0.00     0.014 A 
ATOM     33  C   UNL A   1      37.910  29.297  29.931  1.00  0.00     0.010 A 
ATOM     34  C   UNL A   1      38.482  29.551  27.585  1.00  0.00     0.010 A 
ATOM     35  C   UNL A   1      38.834  29.229  28.901  1.00  0.00    -0.014 A 
BRANCH  35  36
ATOM     36  C   UNL A   1      40.196  28.771  29.054  1.00  0.00     0.031 A 
ATOM     37  C   UNL A   1      40.449  27.361  28.726  1.00  0.00     0.074 A 
ATOM     38  C   UNL A   1      41.169  29.682  29.279  1.00  0.00     0.049 A 
ATOM     39  N   UNL A   1      41.533  26.735  28.993  1.00  0.00    -0.248 NA
ATOM     40  C   UNL A   1      39.436  26.510  28.104  1.00  0.00     0.031 C 
ATOM     41  C   UNL A   1      42.608  29.529  29.089  1.00  0.00     0.029 A 
ATOM     42  N   UNL A   1      41.038  30.929  29.917  1.00  0.00    -0.354 N 
ATOM     43  C   UNL A   1      41.487  25.521  28.343  1.00  0.00     0.074 A 
ATOM     44  C   UNL A   1      40.127  25.388  27.897  1.00  0.00     0.031 C 
ATOM     45  C   UNL A   1      43.246  30.445  29.839  1.00  0.00     0.029 A 
ATOM     46  C   UNL A   1      42.236  31.096  30.656  1.00  0.00     0.049 A 
ATOM     47  H   UNL A   1      40.278  31.553  29.861  1.00  0.00     0.167 HD
ATOM     48  C   UNL A   1      42.665  24.862  28.163  1.00  0.00     0.037 A 
ATOM     49  C   UNL A   1      42.219  31.074  32.023  1.00  0.00     0.037 A 
ATOM     50  C   UNL A   1      43.709  25.527  28.945  1.00  0.00     0.049 A 
ATOM     51  C   UNL A   1      43.021  29.927  32.590  1.00  0.00     0.074 A 
ATOM     52  C   UNL A   1      44.671  26.469  28.616  1.00  0.00     0.029 A 
ATOM     53  N   UNL A   1      43.590  25.549  30.331  1.00  0.00    -0.354 N 
ATOM     54  N   UNL A   1      43.226  28.798  31.965  1.00  0.00    -0.248 NA
ATOM     55  C   UNL A   1      43.685  29.981  33.888  1.00  0.00     0.031 C 
ATOM     56  C   UNL A   1      45.072  27.112  29.819  1.00  0.00     0.029 A 
ATOM     57  C   UNL A   1      44.385  26.537  30.877  1.00  0.00     0.049 A 
ATOM     58  H   UNL A   1      43.015  24.942  30.852  1.00  0.00     0.167 HD
ATOM     59  C   UNL A   1      44.036  27.995  32.728  1.00  0.00     0.074 A 
ATOM     60  C   UNL A   1      44.298  28.785  33.917  1.00  0.00     0.031 C 
ATOM     61  C   UNL A   1      44.430  26.752  32.318  1.00  0.00     0.037 A 
BRANCH  48  62
ATOM     62  C   UNL A   1      42.956  23.797  27.123  1.00  0.00     0.064 A 
ATOM     63  C   UNL A   1      42.590  22.455  27.379  1.00  0.00     0.173 A 
ATOM     64  C   UNL A   1      43.657  23.980  25.914  1.00  0.00     0.173 A 
ATOM     65  F   UNL A   1      41.878  22.120  28.464  1.00  0.00    -0.203 F 
ATOM     66  C   UNL A   1      42.950  21.396  26.539  1.00  0.00     0.198 A 
ATOM     67  C   UNL A   1      44.022  22.921  25.076  1.00  0.00     0.198 A 
ATOM     68  F   UNL A   1      44.013  25.183  25.465  1.00  0.00    -0.203 F 
ATOM     69  F   UNL A   1      42.597  20.144  26.859  1.00  0.00    -0.200 F 
ATOM     70  C   UNL A   1      43.678  21.627  25.392  1.00  0.00     0.200 A 
ATOM     71  F   UNL A   1      44.719  23.174  23.957  1.00  0.00    -0.200 F 
ATOM     72  F   UNL A   1      44.038  20.614  24.593  1.00  0.00    -0.200 F 
ENDBRANCH  48  62
BRANCH  49  73
ATOM     73  C   UNL A   1      40.938  31.606  32.574  1.00  0.00     0.064 A 
ATOM     74  C   UNL A   1      40.647  32.966  32.331  1.00  0.00     0.173 A 
ATOM     75  C   UNL A   1      39.862  30.759  32.864  1.00  0.00     0.173 A 
ATOM     76  F   UNL A   1      41.646  33.827  32.082  1.00  0.00    -0.203 F 
ATOM     77  C   UNL A   1      39.336  33.409  32.182  1.00  0.00     0.198 A 
ATOM     78  C   UNL A   1      38.547  31.220  32.754  1.00  0.00     0.198 A 
ATOM     79  F   UNL A   1      40.068  29.459  33.116  1.00  0.00    -0.203 F 
ATOM     80  F   UNL A   1      39.096  34.664  31.776  1.00  0.00    -0.200 F 
ATOM     81  C   UNL A   1      38.287  32.524  32.355  1.00  0.00     0.200 A 
ATOM     82  F   UNL A   1      37.526  30.366  32.921  1.00  0.00    -0.200 F 
ATOM     83  F   UNL A   1      37.031  32.910  32.092  1.00  0.00    -0.200 F 
ENDBRANCH  49  73
BRANCH  61  84
ATOM     84  C   UNL A   1      44.987  25.652  33.204  1.00  0.00     0.064 A 
ATOM     85  C   UNL A   1      46.330  25.239  33.200  1.00  0.00     0.173 A 
ATOM     86  C   UNL A   1      44.189  25.068  34.224  1.00  0.00     0.173 A 
ATOM     87  F   UNL A   1      47.241  25.810  32.404  1.00  0.00    -0.203 F 
ATOM     88  C   UNL A   1      46.811  24.258  34.074  1.00  0.00     0.198 A 
ATOM     89  C   UNL A   1      44.694  24.154  35.148  1.00  0.00     0.198 A 
ATOM     90  F   UNL A   1      42.898  25.389  34.388  1.00  0.00    -0.203 F 
ATOM     91  F   UNL A   1      48.087  23.858  33.977  1.00  0.00    -0.200 F 
ATOM     92  C   UNL A   1      45.999  23.727  35.055  1.00  0.00     0.200 A 
ATOM     93  F   UNL A   1      43.910  23.710  36.140  1.00  0.00    -0.200 F 
ATOM     94  F   UNL A   1      46.479  22.827  35.923  1.00  0.00    -0.200 F 
ENDBRANCH  61  84
ENDBRANCH  35  36
ENDBRANCH  27  30
ENDBRANCH  25  26
ENDBRANCH  24  25
ENDBRANCH   1  24
TORSDOF 13
ENDMDL
MODEL 2
REMARK VINA RESULT:     -13.1      1.362      1.820
REMARK SMILES COc1ccc(S(=O)(=O)N2CCCC[C@@H]2C(=O)NCCCNC(=O)c2ccc(-c3c4nc(c(-c5c(F)c(F)c(F)c(F)c5F)c5ccc([nH]5)c(-c5c(F)c(F)c(F)c(F)c5F)c5nc(c(-c6c(F)c(F)c(F)c(F)c6F)c6ccc3[nH]6)C=C5)C=C4)cc2)cc1C
REMARK SMILES IDX 19 1 18 2 16 3 17 4 15 6 10 7 11 8 12 9 14 10 13 11 7 12
REMARK SMILES IDX 8 13 9 14 6 15 3 16 4 17 89 18 5 19 88 20 90 21 2 22 1 23
REMARK SMILES IDX 20 24 21 25 22 26 23 27 24 29 25 30 26 31 87 32 27 33 86 34
REMARK SMILES IDX 28 35 29 36 30 37 80 38 31 39 85 40 79 41 81 42 32 43 84 44
REMARK SMILES IDX 78 45 77 46 33 48 65 49 45 50 64 51 46 52 49 53 63 54 82 55
REMARK SMILES IDX 47 56 48 57 62 59 83 60 50 61 34 62 35 63 43 64 36 65 37 66
REMARK SMILES IDX 41 67 44 68 38 69 39 70 42 71 40 72 66 73 67 74 75 75 68 76
REMARK SMILES IDX 69 77 73 78 76 79 70 80 71 81 74 82 72 83 51 84 52 85 60 86
REMARK SMILES IDX 53 87 54 88 58 89 61 90 55 91 56 92 59 93 57 94
REMARK H PARENT 18 5 22 28 81 47 49 58
REMARK Flexibility Score: inf
ROOT
ATOM      1  C   UNL A   1      32.392  30.869  26.557  1.00  0.00     0.117 C 
ENDROOT
BRANCH   1   2
ATOM      2  N   UNL A   1      33.125  30.141  25.535  1.00  0.00    -0.355 N 
ATOM      3  C   UNL A   1      32.706  29.152  24.692  1.00  0.00     0.238 C 
ATOM      4  O   UNL A   1      33.548  28.615  23.966  1.00  0.00    -0.273 OA
ATOM      5  H   UNL A   1      34.069  30.400  25.437  1.00  0.00     0.163 HD
BRANCH   3   6
ATOM      6  C   UNL A   1      31.253  28.655  24.695  1.00  0.00     0.162 C 
ATOM      7  N   UNL A   1      31.127  27.160  24.756  1.00  0.00    -0.185 NA
ATOM      8  C   UNL A   1      29.900  26.506  24.234  1.00  0.00     0.103 C 
ATOM      9  C   UNL A   1      29.344  27.188  22.998  1.00  0.00     0.017 C 
ATOM     10  C   UNL A   1      30.507  29.296  23.520  1.00  0.00     0.030 C 
ATOM     11  C   UNL A   1      29.154  28.672  23.244  1.00  0.00     0.004 C 
BRANCH   7  12
ATOM     12  S   UNL A   1      31.827  26.370  26.117  1.00  0.00     0.243 S 
ATOM     13  O   UNL A   1      30.763  25.699  26.846  1.00  0.00    -0.207 OA
ATOM     14  O   UNL A   1      32.685  27.319  26.774  1.00  0.00    -0.207 OA
BRANCH  12  15
ATOM     15  C   UNL A   1      32.884  25.084  25.478  1.00  0.00     0.083 A 
ATOM     16  C   UNL A   1      34.620  23.055  24.626  1.00  0.00     0.121 A 
ATOM     17  C   UNL A   1      35.109  24.331  24.948  1.00  0.00     0.048 A 
ATOM     18  C   UNL A   1      33.254  22.778  24.760  1.00  0.00    -0.008 A 
ATOM     19  C   UNL A   1      34.250  25.343  25.381  1.00  0.00     0.025 A 
ATOM     20  C   UNL A   1      32.397  23.820  25.139  1.00  0.00     0.029 A 
ATOM     21  C   UNL A   1      32.635  21.423  24.571  1.00  0.00     0.048 C 
BRANCH  16  22
ATOM     22  O   UNL A   1      35.585  22.142  24.294  1.00  0.00    -0.496 OA
ATOM     23  C   UNL A   1      36.654  22.649  23.502  1.00  0.00     0.278 C 
ENDBRANCH  16  22
ENDBRANCH  12  15
ENDBRANCH   7  12
ENDBRANCH   3   6
ENDBRANCH   1   2
BRANCH   1  24
ATOM     24  C   UNL A   1      33.323  31.387  27.640  1.00  0.00     0.042 C 
BRANCH  24  25
ATOM     25  C   UNL A   1      34.676  30.711  27.624  1.00  0.00     0.118 C 
BRANCH  25  26
ATOM     26  N   UNL A   1      35.728  31.520  28.227  1.00  0.00    -0.352 N 
ATOM     27  C   UNL A   1      36.932  31.141  28.796  1.00  0.00     0.251 C 
ATOM     28  H   UNL A   1      35.555  32.489  28.230  1.00  0.00     0.163 HD
ATOM     29  O   UNL A   1      37.650  31.980  29.330  1.00  0.00    -0.269 OA
BRANCH  27  30
ATOM     30  C   UNL A   1      37.447  29.769  28.566  1.00  0.00     0.039 A 
ATOM     31  C   UNL A   1      37.483  28.953  29.704  1.00  0.00     0.014 A 
ATOM     32  C   UNL A   1      38.300  29.530  27.501  1.00  0.00     0.014 A 
ATOM     33  C   UNL A   1      38.606  28.176  29.930  1.00  0.00     0.010 A 
ATOM     34  C   UNL A   1      39.494  28.927  27.798  1.00  0.00     0.010 A 
ATOM     35  C   UNL A   1      39.665  28.318  29.047  1.00  0.00    -0.014 A 
BRANCH  35  36
ATOM     36  C   UNL A   1      40.998  27.813  29.281  1.00  0.00     0.031 A 
ATOM     37  C   UNL A   1      41.268  26.446  28.814  1.00  0.00     0.074 A 
ATOM     38  C   UNL A   1      41.953  28.668  29.711  1.00  0.00     0.049 A 
ATOM     39  N   UNL A   1      42.311  25.767  29.112  1.00  0.00    -0.248 NA
ATOM     40  C   UNL A   1      40.314  25.698  27.995  1.00  0.00     0.031 C 
ATOM     41  C   UNL A   1      43.402  28.503  29.651  1.00  0.00     0.029 A 
ATOM     42  N   UNL A   1      41.772  29.833  30.477  1.00  0.00    -0.354 N 
ATOM     43  C   UNL A   1      42.318  24.639  28.320  1.00  0.00     0.074 A 
ATOM     44  C   UNL A   1      41.010  24.592  27.726  1.00  0.00     0.031 C 
ATOM     45  C   UNL A   1      43.970  29.309  30.566  1.00  0.00     0.029 A 
ATOM     46  C   UNL A   1      42.888  29.883  31.348  1.00  0.00     0.049 A 
ATOM     47  H   UNL A   1      41.029  30.477  30.420  1.00  0.00     0.167 HD
ATOM     48  C   UNL A   1      43.501  23.979  28.183  1.00  0.00     0.037 A 
ATOM     49  C   UNL A   1      42.729  29.700  32.695  1.00  0.00     0.037 A 
ATOM     50  C   UNL A   1      44.466  24.521  29.141  1.00  0.00     0.049 A 
ATOM     51  C   UNL A   1      43.455  28.475  33.198  1.00  0.00     0.074 A 
ATOM     52  C   UNL A   1      45.467  25.472  29.027  1.00  0.00     0.029 A 
ATOM     53  N   UNL A   1      44.204  24.382  30.501  1.00  0.00    -0.354 N 
ATOM     54  N   UNL A   1      43.710  27.423  32.466  1.00  0.00    -0.248 NA
ATOM     55  C   UNL A   1      43.982  28.359  34.554  1.00  0.00     0.031 C 
ATOM     56  C   UNL A   1      45.749  25.958  30.333  1.00  0.00     0.029 A 
ATOM     57  C   UNL A   1      44.950  25.279  31.239  1.00  0.00     0.049 A 
ATOM     58  H   UNL A   1      43.571  23.731  30.884  1.00  0.00     0.167 HD
ATOM     59  C   UNL A   1      44.427  26.517  33.206  1.00  0.00     0.074 A 
ATOM     60  C   UNL A   1      44.574  27.154  34.502  1.00  0.00     0.031 C 
ATOM     61  C   UNL A   1      44.847  25.321  32.692  1.00  0.00     0.037 A 
BRANCH  48  62
ATOM     62  C   UNL A   1      43.885  23.037  27.058  1.00  0.00     0.064 A 
ATOM     63  C   UNL A   1      43.173  21.826  26.889  1.00  0.00     0.173 A 
ATOM     64  C   UNL A   1      44.972  23.192  26.174  1.00  0.00     0.173 A 
ATOM     65  F   UNL A   1      42.085  21.547  27.619  1.00  0.00    -0.203 F 
ATOM     66  C   UNL A   1      43.556  20.842  25.971  1.00  0.00     0.198 A 
ATOM     67  C   UNL A   1      45.358  22.206  25.259  1.00  0.00     0.198 A 
ATOM     68  F   UNL A   1      45.709  24.301  26.130  1.00  0.00    -0.203 F 
ATOM     69  F   UNL A   1      42.854  19.704  25.885  1.00  0.00    -0.200 F 
ATOM     70  C   UNL A   1      44.658  21.027  25.164  1.00  0.00     0.200 A 
ATOM     71  F   UNL A   1      46.427  22.416  24.475  1.00  0.00    -0.200 F 
ATOM     72  F   UNL A   1      45.036  20.081  24.295  1.00  0.00    -0.200 F 
ENDBRANCH  48  62
BRANCH  49  73
ATOM     73  C   UNL A   1      41.405  30.194  33.173  1.00  0.00     0.064 A 
ATOM     74  C   UNL A   1      41.164  31.582  33.084  1.00  0.00     0.173 A 
ATOM     75  C   UNL A   1      40.290  29.349  33.231  1.00  0.00     0.173 A 
ATOM     76  F   UNL A   1      42.198  32.438  33.060  1.00  0.00    -0.203 F 
ATOM     77  C   UNL A   1      39.884  32.080  32.857  1.00  0.00     0.198 A 
ATOM     78  C   UNL A   1      39.003  29.861  33.044  1.00  0.00     0.198 A 
ATOM     79  F   UNL A   1      40.447  28.021  33.327  1.00  0.00    -0.203 F 
ATOM     80  F   UNL A   1      39.710  33.385  32.600  1.00  0.00    -0.200 F 
ATOM     81  C   UNL A   1      38.809  31.213  32.798  1.00  0.00     0.200 A 
ATOM     82  F   UNL A   1      37.955  29.024  32.986  1.00  0.00    -0.200 F 
ATOM     83  F   UNL A   1      37.595  31.668  32.457  1.00  0.00    -0.200 F 
ENDBRANCH  49  73
BRANCH  61  84
ATOM     84  C   UNL A   1      45.297  24.112  33.492  1.00  0.00     0.064 A 
ATOM     85  C   UNL A   1      44.503  22.975  33.719  1.00  0.00     0.173 A 
ATOM     86  C   UNL A   1      46.640  23.997  33.939  1.00  0.00     0.173 A 
ATOM     87  F   UNL A   1      43.266  22.868  33.221  1.00  0.00    -0.203 F 
ATOM     88  C   UNL A   1      44.979  21.860  34.416  1.00  0.00     0.198 A 
ATOM     89  C   UNL A   1      47.135  22.850  34.559  1.00  0.00     0.198 A 
ATOM     90  F   UNL A   1      47.536  24.978  33.760  1.00  0.00    -0.203 F 
ATOM     91  F   UNL A   1      44.153  20.833  34.660  1.00  0.00    -0.200 F 
ATOM     92  C   UNL A   1      46.296  21.791  34.824  1.00  0.00     0.200 A 
ATOM     93  F   UNL A   1      48.435  22.773  34.875  1.00  0.00    -0.200 F 
ATOM     94  F   UNL A   1      46.761  20.699  35.444  1.00  0.00    -0.200 F 
ENDBRANCH  61  84
ENDBRANCH  35  36
ENDBRANCH  27  30
ENDBRANCH  25  26
ENDBRANCH  24  25
ENDBRANCH   1  24
TORSDOF 13
ENDMDL
MODEL 3
REMARK VINA RESULT:     -13.0      3.462      9.798
REMARK SMILES COc1ccc(S(=O)(=O)N2CCCC[C@@H]2C(=O)NCCCNC(=O)c2ccc(-c3c4nc(c(-c5c(F)c(F)c(F)c(F)c5F)c5ccc([nH]5)c(-c5c(F)c(F)c(F)c(F)c5F)c5nc(c(-c6c(F)c(F)c(F)c(F)c6F)c6ccc3[nH]6)C=C5)C=C4)cc2)cc1C
REMARK SMILES IDX 19 1 18 2 16 3 17 4 15 6 10 7 11 8 12 9 14 10 13 11 7 12
REMARK SMILES IDX 8 13 9 14 6 15 3 16 4 17 89 18 5 19 88 20 90 21 2 22 1 23
REMARK SMILES IDX 20 24 21 25 22 26 23 27 24 29 25 30 26 31 87 32 27 33 86 34
REMARK SMILES IDX 28 35 29 36 30 37 80 38 31 39 85 40 79 41 81 42 32 43 84 44
REMARK SMILES IDX 78 45 77 46 33 48 65 49 45 50 64 51 46 52 49 53 63 54 82 55
REMARK SMILES IDX 47 56 48 57 62 59 83 60 50 61 34 62 35 63 43 64 36 65 37 66
REMARK SMILES IDX 41 67 44 68 38 69 39 70 42 71 40 72 66 73 67 74 75 75 68 76
REMARK SMILES IDX 69 77 73 78 76 79 70 80 71 81 74 82 72 83 51 84 52 85 60 86
REMARK SMILES IDX 53 87 54 88 58 89 61 90 55 91 56 92 59 93 57 94
REMARK H PARENT 18 5 22 28 81 47 49 58
REMARK Flexibility Score: inf
ROOT
ATOM      1  C   UNL A   1      37.677  21.330  25.368  1.00  0.00     0.117 C 
ENDROOT
BRANCH   1   2
ATOM      2  N   UNL A   1      36.607  22.016  26.073  1.00  0.00    -0.355 N 
ATOM      3  C   UNL A   1      35.268  22.060  25.806  1.00  0.00     0.238 C 
ATOM      4  O   UNL A   1      34.563  22.796  26.502  1.00  0.00    -0.273 OA
ATOM      5  H   UNL A   1      36.891  22.529  26.863  1.00  0.00     0.163 HD
BRANCH   3   6
ATOM      6  C   UNL A   1      34.657  21.288  24.627  1.00  0.00     0.162 C 
ATOM      7  N   UNL A   1      33.616  22.063  23.873  1.00  0.00    -0.185 NA
ATOM      8  C   UNL A   1      32.577  21.336  23.101  1.00  0.00     0.103 C 
ATOM      9  C   UNL A   1      32.118  20.059  23.781  1.00  0.00     0.017 C 
ATOM     10  C   UNL A   1      34.177  19.921  25.126  1.00  0.00     0.030 C 
ATOM     11  C   UNL A   1      33.303  19.182  24.132  1.00  0.00     0.004 C 
BRANCH   7  12
ATOM     12  S   UNL A   1      34.110  23.554  23.166  1.00  0.00     0.243 S 
ATOM     13  O   UNL A   1      33.522  23.641  21.839  1.00  0.00    -0.207 OA
ATOM     14  O   UNL A   1      35.531  23.671  23.351  1.00  0.00    -0.207 OA
BRANCH  12  15
ATOM     15  C   UNL A   1      33.362  24.853  24.131  1.00  0.00     0.083 A 
ATOM     16  C   UNL A   1      32.175  26.989  25.505  1.00  0.00     0.121 A 
ATOM     17  C   UNL A   1      33.458  27.117  24.949  1.00  0.00     0.048 A 
ATOM     18  C   UNL A   1      31.463  25.794  25.348  1.00  0.00    -0.008 A 
ATOM     19  C   UNL A   1      34.051  26.059  24.257  1.00  0.00     0.025 A 
ATOM     20  C   UNL A   1      32.095  24.722  24.701  1.00  0.00     0.029 A 
ATOM     21  C   UNL A   1      30.042  25.583  25.782  1.00  0.00     0.048 C 
BRANCH  16  22
ATOM     22  O   UNL A   1      31.690  28.130  26.085  1.00  0.00    -0.496 OA
ATOM     23  C   UNL A   1      31.777  28.174  27.505  1.00  0.00     0.278 C 
ENDBRANCH  16  22
ENDBRANCH  12  15
ENDBRANCH   7  12
ENDBRANCH   3   6
ENDBRANCH   1   2
BRANCH   1  24
ATOM     24  C   UNL A   1      39.018  21.561  26.044  1.00  0.00     0.042 C 
BRANCH  24  25
ATOM     25  C   UNL A   1      39.344  23.027  26.218  1.00  0.00     0.118 C 
BRANCH  25  26
ATOM     26  N   UNL A   1      40.466  23.261  27.118  1.00  0.00    -0.352 N 
ATOM     27  C   UNL A   1      40.918  24.435  27.696  1.00  0.00     0.251 C 
ATOM     28  H   UNL A   1      40.985  22.458  27.352  1.00  0.00     0.163 HD
ATOM     29  O   UNL A   1      41.945  24.434  28.367  1.00  0.00    -0.269 OA
BRANCH  27  30
ATOM     30  C   UNL A   1      40.048  25.637  27.682  1.00  0.00     0.039 A 
ATOM     31  C   UNL A   1      40.470  26.663  26.827  1.00  0.00     0.014 A 
ATOM     32  C   UNL A   1      39.258  25.920  28.785  1.00  0.00     0.014 A 
ATOM     33  C   UNL A   1      40.434  27.969  27.286  1.00  0.00     0.010 A 
ATOM     34  C   UNL A   1      39.396  27.169  29.330  1.00  0.00     0.010 A 
ATOM     35  C   UNL A   1      40.055  28.168  28.604  1.00  0.00    -0.014 A 
BRANCH  35  36
ATOM     36  C   UNL A   1      40.230  29.407  29.327  1.00  0.00     0.031 A 
ATOM     37  C   UNL A   1      39.152  30.397  29.192  1.00  0.00     0.074 A 
ATOM     38  C   UNL A   1      41.237  29.502  30.223  1.00  0.00     0.049 A 
ATOM     39  N   UNL A   1      39.226  31.612  29.586  1.00  0.00    -0.248 NA
ATOM     40  C   UNL A   1      37.888  30.089  28.524  1.00  0.00     0.031 C 
ATOM     41  C   UNL A   1      41.384  30.460  31.314  1.00  0.00     0.029 A 
ATOM     42  N   UNL A   1      42.464  28.814  30.203  1.00  0.00    -0.354 N 
ATOM     43  C   UNL A   1      37.965  32.160  29.499  1.00  0.00     0.074 A 
ATOM     44  C   UNL A   1      37.199  31.211  28.737  1.00  0.00     0.031 C 
ATOM     45  C   UNL A   1      42.681  30.530  31.661  1.00  0.00     0.029 A 
ATOM     46  C   UNL A   1      43.418  29.743  30.686  1.00  0.00     0.049 A 
ATOM     47  H   UNL A   1      42.625  27.886  29.916  1.00  0.00     0.167 HD
ATOM     48  C   UNL A   1      37.724  33.293  30.214  1.00  0.00     0.037 A 
ATOM     49  C   UNL A   1      44.380  30.250  29.855  1.00  0.00     0.037 A 
ATOM     50  C   UNL A   1      38.990  33.805  30.742  1.00  0.00     0.049 A 
ATOM     51  C   UNL A   1      44.257  31.745  29.680  1.00  0.00     0.074 A 
ATOM     52  C   UNL A   1      39.618  33.668  31.970  1.00  0.00     0.029 A 
ATOM     53  N   UNL A   1      39.965  34.223  29.842  1.00  0.00    -0.354 N 
ATOM     54  N   UNL A   1      43.135  32.406  29.789  1.00  0.00    -0.248 NA
ATOM     55  C   UNL A   1      45.398  32.613  29.407  1.00  0.00     0.031 C 
ATOM     56  C   UNL A   1      41.000  33.936  31.777  1.00  0.00     0.029 A 
ATOM     57  C   UNL A   1      41.205  34.271  30.448  1.00  0.00     0.049 A 
ATOM     58  H   UNL A   1      39.794  34.454  28.899  1.00  0.00     0.167 HD
ATOM     59  C   UNL A   1      43.379  33.747  29.628  1.00  0.00     0.074 A 
ATOM     60  C   UNL A   1      44.810  33.822  29.398  1.00  0.00     0.031 C 
ATOM     61  C   UNL A   1      42.387  34.685  29.704  1.00  0.00     0.037 A 
BRANCH  48  62
ATOM     62  C   UNL A   1      36.368  33.813  30.654  1.00  0.00     0.064 A 
ATOM     63  C   UNL A   1      35.436  34.240  29.679  1.00  0.00     0.173 A 
ATOM     64  C   UNL A   1      35.941  34.012  31.982  1.00  0.00     0.173 A 
ATOM     65  F   UNL A   1      35.670  34.077  28.369  1.00  0.00    -0.203 F 
ATOM     66  C   UNL A   1      34.227  34.863  30.006  1.00  0.00     0.198 A 
ATOM     67  C   UNL A   1      34.735  34.640  32.310  1.00  0.00     0.198 A 
ATOM     68  F   UNL A   1      36.649  33.600  33.033  1.00  0.00    -0.203 F 
ATOM     69  F   UNL A   1      33.404  35.270  29.030  1.00  0.00    -0.200 F 
ATOM     70  C   UNL A   1      33.882  35.075  31.323  1.00  0.00     0.200 A 
ATOM     71  F   UNL A   1      34.415  34.823  33.600  1.00  0.00    -0.200 F 
ATOM     72  F   UNL A   1      32.732  35.686  31.640  1.00  0.00    -0.200 F 
ENDBRANCH  48  62
BRANCH  49  73
ATOM     73  C   UNL A   1      44.778  29.273  28.800  1.00  0.00     0.064 A 
ATOM     74  C   UNL A   1      45.438  28.100  29.225  1.00  0.00     0.173 A 
ATOM     75  C   UNL A   1      44.128  29.234  27.561  1.00  0.00     0.173 A 
ATOM     76  F   UNL A   1      46.105  28.095  30.390  1.00  0.00    -0.203 F 
ATOM     77  C   UNL A   1      45.282  26.896  28.544  1.00  0.00     0.198 A 
ATOM     78  C   UNL A   1      44.010  28.030  26.860  1.00  0.00     0.198 A 
ATOM     79  F   UNL A   1      43.491  30.315  27.092  1.00  0.00    -0.203 F 
ATOM     80  F   UNL A   1      45.774  25.763  29.067  1.00  0.00    -0.200 F 
ATOM     81  C   UNL A   1      44.533  26.855  27.382  1.00  0.00     0.200 A 
ATOM     82  F   UNL A   1      43.285  27.984  25.732  1.00  0.00    -0.200 F 
ATOM     83  F   UNL A   1      44.274  25.680  26.790  1.00  0.00    -0.200 F 
ENDBRANCH  49  73
BRANCH  61  84
ATOM     84  C   UNL A   1      42.460  36.108  29.180  1.00  0.00     0.064 A 
ATOM     85  C   UNL A   1      43.212  37.133  29.779  1.00  0.00     0.173 A 
ATOM     86  C   UNL A   1      41.875  36.453  27.932  1.00  0.00     0.173 A 
ATOM     87  F   UNL A   1      43.948  36.918  30.876  1.00  0.00    -0.203 F 
ATOM     88  C   UNL A   1      43.293  38.417  29.231  1.00  0.00     0.198 A 
ATOM     89  C   UNL A   1      42.029  37.709  27.347  1.00  0.00     0.198 A 
ATOM     90  F   UNL A   1      41.162  35.574  27.214  1.00  0.00    -0.203 F 
ATOM     91  F   UNL A   1      43.972  39.371  29.884  1.00  0.00    -0.200 F 
ATOM     92  C   UNL A   1      42.715  38.701  28.011  1.00  0.00     0.200 A 
ATOM     93  F   UNL A   1      41.527  37.940  26.127  1.00  0.00    -0.200 F 
ATOM     94  F   UNL A   1      42.841  39.917  27.464  1.00  0.00    -0.200 F 
ENDBRANCH  61  84
ENDBRANCH  35  36
ENDBRANCH  27  30
ENDBRANCH  25  26
ENDBRANCH  24  25
ENDBRANCH   1  24
TORSDOF 13
ENDMDL
