MODEL 1
REMARK VINA RESULT:     -12.5      0.000      0.000
REMARK SMILES O=C(CC[C@H]1CCC[N@@H+](Cc2cccc(C3CC3)c2)C1)NCCCNC(=O)c1ccc(-c2c3nc(c(-c4c(F)c(F)c(F)c(F)c4F)c4ccc([nH]4)c(-c4c(F)c(F)c(F)c(F)c4F)c4nc(c(-c5c(F)c(F)c(F)c(F)c5F)c5ccc2[nH]5)C=C4)C=C3)cc1
REMARK SMILES IDX 1 1 2 2 21 3 3 5 4 6 5 7 6 8 20 9 7 10 9 11 8 12 10 14 11 15
REMARK SMILES IDX 12 16 19 17 13 18 15 19 14 20 16 21 17 22 18 23 22 24 23 25
REMARK SMILES IDX 24 26 25 27 26 28 27 30 28 31 29 32 90 33 30 34 89 35 31 36
REMARK SMILES IDX 32 37 33 38 83 39 34 40 88 41 82 42 84 43 35 44 87 45 81 46
REMARK SMILES IDX 80 47 36 49 68 50 48 51 67 52 49 53 52 54 66 55 85 56 50 57
REMARK SMILES IDX 51 58 65 60 86 61 53 62 37 63 38 64 46 65 39 66 40 67 44 68
REMARK SMILES IDX 47 69 41 70 42 71 45 72 43 73 69 74 70 75 78 76 71 77 72 78
REMARK SMILES IDX 76 79 79 80 73 81 74 82 77 83 75 84 54 85 55 86 63 87 56 88
REMARK SMILES IDX 57 89 61 90 64 91 58 92 59 93 62 94 60 95
REMARK H PARENT 21 4 9 13 25 29 84 48 52 59
REMARK Flexibility Score: inf
ROOT
ATOM      1  O   UNL A   1      47.270  21.573  38.618  1.00  0.00    -0.275 OA
ATOM      2  C   UNL A   1      46.812  20.559  38.099  1.00  0.00     0.220 C 
ATOM      3  N   UNL A   1      46.046  20.581  36.961  1.00  0.00    -0.356 N 
ATOM      4  H   UNL A   1      45.698  19.727  36.619  1.00  0.00     0.163 HD
ENDROOT
BRANCH   2   5
ATOM      5  C   UNL A   1      47.168  19.177  38.617  1.00  0.00     0.100 C 
BRANCH   5   6
ATOM      6  C   UNL A   1      46.017  18.197  38.852  1.00  0.00     0.019 C 
BRANCH   6   7
ATOM      7  C   UNL A   1      46.118  17.206  40.040  1.00  0.00     0.045 C 
ATOM      8  C   UNL A   1      47.180  17.575  41.083  1.00  0.00     0.015 C 
ATOM      9  C   UNL A   1      44.745  17.121  40.736  1.00  0.00     0.265 C 
ATOM     10  C   UNL A   1      47.145  16.577  42.236  1.00  0.00     0.062 C 
ATOM     11  N   UNL A   1      44.722  16.203  41.881  1.00  0.00    -0.331 N 
ATOM     12  C   UNL A   1      45.756  16.523  42.872  1.00  0.00     0.262 C 
ATOM     13  H   UNL A   1      44.946  15.279  41.512  1.00  0.00     0.348 HD
BRANCH  11  14
ATOM     14  C   UNL A   1      43.375  16.099  42.496  1.00  0.00     0.299 C 
BRANCH  14  15
ATOM     15  C   UNL A   1      42.557  14.880  42.102  1.00  0.00     0.006 A 
ATOM     16  C   UNL A   1      41.964  14.784  40.840  1.00  0.00     0.009 A 
ATOM     17  C   UNL A   1      42.463  13.780  42.972  1.00  0.00     0.013 A 
ATOM     18  C   UNL A   1      41.348  13.598  40.447  1.00  0.00     0.001 A 
ATOM     19  C   UNL A   1      41.939  12.538  42.575  1.00  0.00    -0.044 A 
ATOM     20  C   UNL A   1      41.359  12.487  41.297  1.00  0.00     0.004 A 
BRANCH  19  21
ATOM     21  C   UNL A   1      42.046  11.285  43.427  1.00  0.00     0.019 C 
ATOM     22  C   UNL A   1      43.303  10.440  43.392  1.00  0.00     0.009 C 
ATOM     23  C   UNL A   1      42.953  11.215  44.630  1.00  0.00     0.009 C 
ENDBRANCH  19  21
ENDBRANCH  14  15
ENDBRANCH  11  14
ENDBRANCH   6   7
ENDBRANCH   5   6
ENDBRANCH   2   5
BRANCH   3  24
ATOM     24  C   UNL A   1      45.725  21.791  36.238  1.00  0.00     0.117 C 
BRANCH  24  25
ATOM     25  C   UNL A   1      46.718  22.052  35.108  1.00  0.00     0.042 C 
BRANCH  25  26
ATOM     26  C   UNL A   1      47.521  23.347  35.234  1.00  0.00     0.118 C 
BRANCH  26  27
ATOM     27  N   UNL A   1      47.433  23.965  36.548  1.00  0.00    -0.352 N 
ATOM     28  C   UNL A   1      46.735  25.065  36.972  1.00  0.00     0.251 C 
ATOM     29  H   UNL A   1      47.964  23.520  37.248  1.00  0.00     0.163 HD
ATOM     30  O   UNL A   1      46.908  25.476  38.122  1.00  0.00    -0.269 OA
BRANCH  28  31
ATOM     31  C   UNL A   1      45.801  25.790  36.080  1.00  0.00     0.039 A 
ATOM     32  C   UNL A   1      44.512  25.272  35.917  1.00  0.00     0.014 A 
ATOM     33  C   UNL A   1      46.179  26.934  35.371  1.00  0.00     0.014 A 
ATOM     34  C   UNL A   1      43.590  25.927  35.096  1.00  0.00     0.010 A 
ATOM     35  C   UNL A   1      45.237  27.626  34.604  1.00  0.00     0.010 A 
ATOM     36  C   UNL A   1      43.932  27.130  34.458  1.00  0.00    -0.014 A 
BRANCH  36  37
ATOM     37  C   UNL A   1      42.918  27.873  33.663  1.00  0.00     0.031 A 
ATOM     38  C   UNL A   1      42.749  27.625  32.189  1.00  0.00     0.074 A 
ATOM     39  C   UNL A   1      42.152  28.800  34.273  1.00  0.00     0.049 A 
ATOM     40  N   UNL A   1      41.894  28.160  31.353  1.00  0.00    -0.248 NA
ATOM     41  C   UNL A   1      43.677  26.670  31.567  1.00  0.00     0.031 C 
ATOM     42  C   UNL A   1      42.254  29.183  35.682  1.00  0.00     0.029 A 
ATOM     43  N   UNL A   1      41.135  29.585  33.789  1.00  0.00    -0.354 N 
ATOM     44  C   UNL A   1      42.183  27.612  30.109  1.00  0.00     0.074 A 
ATOM     45  C   UNL A   1      43.328  26.744  30.291  1.00  0.00     0.031 C 
ATOM     46  C   UNL A   1      41.316  30.104  35.957  1.00  0.00     0.029 A 
ATOM     47  C   UNL A   1      40.564  30.395  34.740  1.00  0.00     0.049 A 
ATOM     48  H   UNL A   1      40.843  29.571  32.848  1.00  0.00     0.167 HD
ATOM     49  C   UNL A   1      41.541  27.796  28.930  1.00  0.00     0.037 A 
ATOM     50  C   UNL A   1      39.541  31.267  34.648  1.00  0.00     0.037 A 
ATOM     51  C   UNL A   1      40.389  28.645  28.751  1.00  0.00     0.049 A 
ATOM     52  C   UNL A   1      38.829  31.432  33.334  1.00  0.00     0.074 A 
ATOM     53  C   UNL A   1      39.637  28.852  27.607  1.00  0.00     0.029 A 
ATOM     54  N   UNL A   1      39.825  29.431  29.744  1.00  0.00    -0.354 N 
ATOM     55  N   UNL A   1      39.063  30.847  32.184  1.00  0.00    -0.248 NA
ATOM     56  C   UNL A   1      37.699  32.371  33.310  1.00  0.00     0.031 C 
ATOM     57  C   UNL A   1      38.643  29.793  27.897  1.00  0.00     0.029 A 
ATOM     58  C   UNL A   1      38.745  30.137  29.236  1.00  0.00     0.049 A 
ATOM     59  H   UNL A   1      40.144  29.482  30.675  1.00  0.00     0.167 HD
ATOM     60  C   UNL A   1      38.095  31.323  31.311  1.00  0.00     0.074 A 
ATOM     61  C   UNL A   1      37.258  32.229  32.068  1.00  0.00     0.031 C 
ATOM     62  C   UNL A   1      37.917  31.036  29.998  1.00  0.00     0.037 A 
BRANCH  49  63
ATOM     63  C   UNL A   1      42.064  27.056  27.732  1.00  0.00     0.064 A 
ATOM     64  C   UNL A   1      42.995  27.638  26.858  1.00  0.00     0.173 A 
ATOM     65  C   UNL A   1      41.665  25.736  27.478  1.00  0.00     0.173 A 
ATOM     66  F   UNL A   1      43.403  28.902  27.050  1.00  0.00    -0.203 F 
ATOM     67  C   UNL A   1      43.484  26.936  25.759  1.00  0.00     0.198 A 
ATOM     68  C   UNL A   1      42.178  25.026  26.395  1.00  0.00     0.198 A 
ATOM     69  F   UNL A   1      40.782  25.128  28.286  1.00  0.00    -0.203 F 
ATOM     70  F   UNL A   1      44.336  27.530  24.912  1.00  0.00    -0.200 F 
ATOM     71  C   UNL A   1      43.081  25.628  25.533  1.00  0.00     0.200 A 
ATOM     72  F   UNL A   1      41.798  23.758  26.186  1.00  0.00    -0.200 F 
ATOM     73  F   UNL A   1      43.558  24.952  24.479  1.00  0.00    -0.200 F 
ENDBRANCH  49  63
BRANCH  50  74
ATOM     74  C   UNL A   1      39.098  32.018  35.851  1.00  0.00     0.064 A 
ATOM     75  C   UNL A   1      38.230  31.433  36.784  1.00  0.00     0.173 A 
ATOM     76  C   UNL A   1      39.524  33.333  36.087  1.00  0.00     0.173 A 
ATOM     77  F   UNL A   1      37.780  30.186  36.589  1.00  0.00    -0.203 F 
ATOM     78  C   UNL A   1      37.787  32.144  37.897  1.00  0.00     0.198 A 
ATOM     79  C   UNL A   1      39.103  34.031  37.216  1.00  0.00     0.198 A 
ATOM     80  F   UNL A   1      40.358  33.934  35.227  1.00  0.00    -0.203 F 
ATOM     81  F   UNL A   1      36.920  31.579  38.749  1.00  0.00    -0.200 F 
ATOM     82  C   UNL A   1      38.228  33.441  38.115  1.00  0.00     0.200 A 
ATOM     83  F   UNL A   1      39.541  35.280  37.430  1.00  0.00    -0.200 F 
ATOM     84  F   UNL A   1      37.803  34.123  39.188  1.00  0.00    -0.200 F 
ENDBRANCH  50  74
BRANCH  62  85
ATOM     85  C   UNL A   1      36.752  31.686  29.308  1.00  0.00     0.064 A 
ATOM     86  C   UNL A   1      36.742  33.057  29.010  1.00  0.00     0.173 A 
ATOM     87  C   UNL A   1      35.631  30.927  28.938  1.00  0.00     0.173 A 
ATOM     88  F   UNL A   1      37.782  33.830  29.357  1.00  0.00    -0.203 F 
ATOM     89  C   UNL A   1      35.638  33.651  28.404  1.00  0.00     0.198 A 
ATOM     90  C   UNL A   1      34.542  31.518  28.303  1.00  0.00     0.198 A 
ATOM     91  F   UNL A   1      35.592  29.610  29.193  1.00  0.00    -0.203 F 
ATOM     92  F   UNL A   1      35.625  34.973  28.187  1.00  0.00    -0.200 F 
ATOM     93  C   UNL A   1      34.542  32.880  28.047  1.00  0.00     0.200 A 
ATOM     94  F   UNL A   1      33.488  30.770  27.948  1.00  0.00    -0.200 F 
ATOM     95  F   UNL A   1      33.477  33.454  27.467  1.00  0.00    -0.200 F 
ENDBRANCH  62  85
ENDBRANCH  36  37
ENDBRANCH  28  31
ENDBRANCH  26  27
ENDBRANCH  25  26
ENDBRANCH  24  25
ENDBRANCH   3  24
TORSDOF 15
ENDMDL
MODEL 2
REMARK VINA RESULT:     -12.3      0.272      1.607
REMARK SMILES O=C(CC[C@H]1CCC[N@@H+](Cc2cccc(C3CC3)c2)C1)NCCCNC(=O)c1ccc(-c2c3nc(c(-c4c(F)c(F)c(F)c(F)c4F)c4ccc([nH]4)c(-c4c(F)c(F)c(F)c(F)c4F)c4nc(c(-c5c(F)c(F)c(F)c(F)c5F)c5ccc2[nH]5)C=C4)C=C3)cc1
REMARK SMILES IDX 1 1 2 2 21 3 3 5 4 6 5 7 6 8 20 9 7 10 9 11 8 12 10 14 11 15
REMARK SMILES IDX 12 16 19 17 13 18 15 19 14 20 16 21 17 22 18 23 22 24 23 25
REMARK SMILES IDX 24 26 25 27 26 28 27 30 28 31 29 32 90 33 30 34 89 35 31 36
REMARK SMILES IDX 32 37 33 38 83 39 34 40 88 41 82 42 84 43 35 44 87 45 81 46
REMARK SMILES IDX 80 47 36 49 68 50 48 51 67 52 49 53 52 54 66 55 85 56 50 57
REMARK SMILES IDX 51 58 65 60 86 61 53 62 37 63 38 64 46 65 39 66 40 67 44 68
REMARK SMILES IDX 47 69 41 70 42 71 45 72 43 73 69 74 70 75 78 76 71 77 72 78
REMARK SMILES IDX 76 79 79 80 73 81 74 82 77 83 75 84 54 85 55 86 63 87 56 88
REMARK SMILES IDX 57 89 61 90 64 91 58 92 59 93 62 94 60 95
REMARK H PARENT 21 4 9 13 25 29 84 48 52 59
REMARK Flexibility Score: inf
ROOT
ATOM      1  O   UNL A   1      47.644  21.727  38.745  1.00  0.00    -0.275 OA
ATOM      2  C   UNL A   1      47.016  20.745  38.360  1.00  0.00     0.220 C 
ATOM      3  N   UNL A   1      46.088  20.798  37.352  1.00  0.00    -0.356 N 
ATOM      4  H   UNL A   1      45.610  19.971  37.117  1.00  0.00     0.163 HD
ENDROOT
BRANCH   2   5
ATOM      5  C   UNL A   1      47.315  19.356  38.898  1.00  0.00     0.100 C 
BRANCH   5   6
ATOM      6  C   UNL A   1      46.192  18.320  38.826  1.00  0.00     0.019 C 
BRANCH   6   7
ATOM      7  C   UNL A   1      46.146  17.202  39.900  1.00  0.00     0.045 C 
ATOM      8  C   UNL A   1      47.177  17.363  41.025  1.00  0.00     0.015 C 
ATOM      9  C   UNL A   1      44.735  17.164  40.519  1.00  0.00     0.265 C 
ATOM     10  C   UNL A   1      46.997  16.254  42.056  1.00  0.00     0.062 C 
ATOM     11  N   UNL A   1      44.575  16.134  41.553  1.00  0.00    -0.331 N 
ATOM     12  C   UNL A   1      45.575  16.254  42.619  1.00  0.00     0.262 C 
ATOM     13  H   UNL A   1      44.741  15.238  41.094  1.00  0.00     0.348 HD
BRANCH  11  14
ATOM     14  C   UNL A   1      43.192  16.083  42.091  1.00  0.00     0.299 C 
BRANCH  14  15
ATOM     15  C   UNL A   1      42.500  14.732  42.018  1.00  0.00     0.006 A 
ATOM     16  C   UNL A   1      41.815  14.331  40.868  1.00  0.00     0.009 A 
ATOM     17  C   UNL A   1      42.620  13.818  43.081  1.00  0.00     0.013 A 
ATOM     18  C   UNL A   1      41.319  13.034  40.769  1.00  0.00     0.001 A 
ATOM     19  C   UNL A   1      42.220  12.475  42.976  1.00  0.00    -0.044 A 
ATOM     20  C   UNL A   1      41.542  12.116  41.801  1.00  0.00     0.004 A 
BRANCH  19  21
ATOM     21  C   UNL A   1      42.556  11.429  44.026  1.00  0.00     0.019 C 
ATOM     22  C   UNL A   1      43.933  10.800  44.068  1.00  0.00     0.009 C 
ATOM     23  C   UNL A   1      43.495  11.722  45.169  1.00  0.00     0.009 C 
ENDBRANCH  19  21
ENDBRANCH  14  15
ENDBRANCH  11  14
ENDBRANCH   6   7
ENDBRANCH   5   6
ENDBRANCH   2   5
BRANCH   3  24
ATOM     24  C   UNL A   1      45.775  22.003  36.617  1.00  0.00     0.117 C 
BRANCH  24  25
ATOM     25  C   UNL A   1      46.672  22.165  35.393  1.00  0.00     0.042 C 
BRANCH  25  26
ATOM     26  C   UNL A   1      47.524  23.435  35.373  1.00  0.00     0.118 C 
BRANCH  26  27
ATOM     27  N   UNL A   1      47.529  24.156  36.636  1.00  0.00    -0.352 N 
ATOM     28  C   UNL A   1      46.891  25.310  37.008  1.00  0.00     0.251 C 
ATOM     29  H   UNL A   1      48.083  23.748  37.341  1.00  0.00     0.163 HD
ATOM     30  O   UNL A   1      47.141  25.803  38.111  1.00  0.00    -0.269 OA
BRANCH  28  31
ATOM     31  C   UNL A   1      45.933  25.997  36.111  1.00  0.00     0.039 A 
ATOM     32  C   UNL A   1      44.642  25.471  36.003  1.00  0.00     0.014 A 
ATOM     33  C   UNL A   1      46.290  27.112  35.347  1.00  0.00     0.014 A 
ATOM     34  C   UNL A   1      43.698  26.091  35.180  1.00  0.00     0.010 A 
ATOM     35  C   UNL A   1      45.327  27.771  34.577  1.00  0.00     0.010 A 
ATOM     36  C   UNL A   1      44.021  27.268  34.484  1.00  0.00    -0.014 A 
BRANCH  36  37
ATOM     37  C   UNL A   1      42.985  27.977  33.687  1.00  0.00     0.031 A 
ATOM     38  C   UNL A   1      42.820  27.713  32.215  1.00  0.00     0.074 A 
ATOM     39  C   UNL A   1      42.196  28.888  34.291  1.00  0.00     0.049 A 
ATOM     40  N   UNL A   1      41.948  28.218  31.377  1.00  0.00    -0.248 NA
ATOM     41  C   UNL A   1      43.771  26.778  31.598  1.00  0.00     0.031 C 
ATOM     42  C   UNL A   1      42.291  29.285  35.697  1.00  0.00     0.029 A 
ATOM     43  N   UNL A   1      41.157  29.642  33.804  1.00  0.00    -0.354 N 
ATOM     44  C   UNL A   1      42.249  27.668  30.137  1.00  0.00     0.074 A 
ATOM     45  C   UNL A   1      43.418  26.833  30.322  1.00  0.00     0.031 C 
ATOM     46  C   UNL A   1      41.329  30.182  35.967  1.00  0.00     0.029 A 
ATOM     47  C   UNL A   1      40.566  30.443  34.750  1.00  0.00     0.049 A 
ATOM     48  H   UNL A   1      40.864  29.612  32.864  1.00  0.00     0.167 HD
ATOM     49  C   UNL A   1      41.599  27.825  28.958  1.00  0.00     0.037 A 
ATOM     50  C   UNL A   1      39.520  31.286  34.653  1.00  0.00     0.037 A 
ATOM     51  C   UNL A   1      40.425  28.641  28.775  1.00  0.00     0.049 A 
ATOM     52  C   UNL A   1      38.801  31.422  33.340  1.00  0.00     0.074 A 
ATOM     53  C   UNL A   1      39.664  28.818  27.632  1.00  0.00     0.029 A 
ATOM     54  N   UNL A   1      39.842  29.420  29.764  1.00  0.00    -0.354 N 
ATOM     55  N   UNL A   1      39.048  30.834  32.194  1.00  0.00    -0.248 NA
ATOM     56  C   UNL A   1      37.646  32.329  33.311  1.00  0.00     0.031 C 
ATOM     57  C   UNL A   1      38.647  29.735  27.917  1.00  0.00     0.029 A 
ATOM     58  C   UNL A   1      38.742  30.092  29.252  1.00  0.00     0.049 A 
ATOM     59  H   UNL A   1      40.162  29.486  30.693  1.00  0.00     0.167 HD
ATOM     60  C   UNL A   1      38.065  31.277  31.320  1.00  0.00     0.074 A 
ATOM     61  C   UNL A   1      37.206  32.166  32.072  1.00  0.00     0.031 C 
ATOM     62  C   UNL A   1      37.892  30.974  30.009  1.00  0.00     0.037 A 
BRANCH  49  63
ATOM     63  C   UNL A   1      42.139  27.090  27.765  1.00  0.00     0.064 A 
ATOM     64  C   UNL A   1      43.099  27.667  26.918  1.00  0.00     0.173 A 
ATOM     65  C   UNL A   1      41.727  25.778  27.487  1.00  0.00     0.173 A 
ATOM     66  F   UNL A   1      43.521  28.923  27.133  1.00  0.00    -0.203 F 
ATOM     67  C   UNL A   1      43.603  26.970  25.823  1.00  0.00     0.198 A 
ATOM     68  C   UNL A   1      42.255  25.073  26.409  1.00  0.00     0.198 A 
ATOM     69  F   UNL A   1      40.817  25.175  28.268  1.00  0.00    -0.203 F 
ATOM     70  F   UNL A   1      44.484  27.559  25.003  1.00  0.00    -0.200 F 
ATOM     71  C   UNL A   1      43.187  25.670  25.574  1.00  0.00     0.200 A 
ATOM     72  F   UNL A   1      41.862  23.812  26.177  1.00  0.00    -0.200 F 
ATOM     73  F   UNL A   1      43.679  24.998  24.525  1.00  0.00    -0.200 F 
ENDBRANCH  49  63
BRANCH  50  74
ATOM     74  C   UNL A   1      39.060  32.035  35.851  1.00  0.00     0.064 A 
ATOM     75  C   UNL A   1      39.469  33.357  36.074  1.00  0.00     0.173 A 
ATOM     76  C   UNL A   1      38.212  31.444  36.799  1.00  0.00     0.173 A 
ATOM     77  F   UNL A   1      40.297  33.956  35.206  1.00  0.00    -0.203 F 
ATOM     78  C   UNL A   1      39.066  34.053  37.211  1.00  0.00     0.198 A 
ATOM     79  C   UNL A   1      37.786  32.151  37.921  1.00  0.00     0.198 A 
ATOM     80  F   UNL A   1      37.789  30.184  36.629  1.00  0.00    -0.203 F 
ATOM     81  F   UNL A   1      39.510  35.299  37.424  1.00  0.00    -0.200 F 
ATOM     82  C   UNL A   1      38.220  33.452  38.131  1.00  0.00     0.200 A 
ATOM     83  F   UNL A   1      36.959  31.571  38.801  1.00  0.00    -0.200 F 
ATOM     84  F   UNL A   1      37.830  34.123  39.223  1.00  0.00    -0.200 F 
ENDBRANCH  50  74
BRANCH  62  85
ATOM     85  C   UNL A   1      36.708  31.587  29.317  1.00  0.00     0.064 A 
ATOM     86  C   UNL A   1      35.592  30.821  28.948  1.00  0.00     0.173 A 
ATOM     87  C   UNL A   1      36.688  32.959  29.023  1.00  0.00     0.173 A 
ATOM     88  F   UNL A   1      35.567  29.503  29.193  1.00  0.00    -0.203 F 
ATOM     89  C   UNL A   1      34.519  31.398  28.274  1.00  0.00     0.198 A 
ATOM     90  C   UNL A   1      35.600  33.538  28.377  1.00  0.00     0.198 A 
ATOM     91  F   UNL A   1      37.727  33.738  29.360  1.00  0.00    -0.203 F 
ATOM     92  F   UNL A   1      33.492  30.635  27.875  1.00  0.00    -0.200 F 
ATOM     93  C   UNL A   1      34.522  32.757  27.993  1.00  0.00     0.200 A 
ATOM     94  F   UNL A   1      35.599  34.853  28.117  1.00  0.00    -0.200 F 
ATOM     95  F   UNL A   1      33.489  33.310  27.340  1.00  0.00    -0.200 F 
ENDBRANCH  62  85
ENDBRANCH  36  37
ENDBRANCH  28  31
ENDBRANCH  26  27
ENDBRANCH  25  26
ENDBRANCH  24  25
ENDBRANCH   3  24
TORSDOF 15
ENDMDL
MODEL 3
REMARK VINA RESULT:     -12.3      7.310     14.969
REMARK SMILES O=C(CC[C@H]1CCC[N@@H+](Cc2cccc(C3CC3)c2)C1)NCCCNC(=O)c1ccc(-c2c3nc(c(-c4c(F)c(F)c(F)c(F)c4F)c4ccc([nH]4)c(-c4c(F)c(F)c(F)c(F)c4F)c4nc(c(-c5c(F)c(F)c(F)c(F)c5F)c5ccc2[nH]5)C=C4)C=C3)cc1
REMARK SMILES IDX 1 1 2 2 21 3 3 5 4 6 5 7 6 8 20 9 7 10 9 11 8 12 10 14 11 15
REMARK SMILES IDX 12 16 19 17 13 18 15 19 14 20 16 21 17 22 18 23 22 24 23 25
REMARK SMILES IDX 24 26 25 27 26 28 27 30 28 31 29 32 90 33 30 34 89 35 31 36
REMARK SMILES IDX 32 37 33 38 83 39 34 40 88 41 82 42 84 43 35 44 87 45 81 46
REMARK SMILES IDX 80 47 36 49 68 50 48 51 67 52 49 53 52 54 66 55 85 56 50 57
REMARK SMILES IDX 51 58 65 60 86 61 53 62 37 63 38 64 46 65 39 66 40 67 44 68
REMARK SMILES IDX 47 69 41 70 42 71 45 72 43 73 69 74 70 75 78 76 71 77 72 78
REMARK SMILES IDX 76 79 79 80 73 81 74 82 77 83 75 84 54 85 55 86 63 87 56 88
REMARK SMILES IDX 57 89 61 90 64 91 58 92 59 93 62 94 60 95
REMARK H PARENT 21 4 9 13 25 29 84 48 52 59
REMARK Flexibility Score: inf
ROOT
ATOM      1  O   UNL A   1      30.815  28.070  24.891  1.00  0.00    -0.275 OA
ATOM      2  C   UNL A   1      31.555  28.296  25.845  1.00  0.00     0.220 C 
ATOM      3  N   UNL A   1      31.894  29.564  26.244  1.00  0.00    -0.356 N 
ATOM      4  H   UNL A   1      32.510  29.662  27.005  1.00  0.00     0.163 HD
ENDROOT
BRANCH   2   5
ATOM      5  C   UNL A   1      32.057  27.176  26.738  1.00  0.00     0.100 C 
BRANCH   5   6
ATOM      6  C   UNL A   1      31.642  25.749  26.373  1.00  0.00     0.019 C 
BRANCH   6   7
ATOM      7  C   UNL A   1      32.643  24.867  25.583  1.00  0.00     0.045 C 
ATOM      8  C   UNL A   1      34.107  25.307  25.704  1.00  0.00     0.015 C 
ATOM      9  C   UNL A   1      32.519  23.411  26.074  1.00  0.00     0.265 C 
ATOM     10  C   UNL A   1      35.007  24.333  24.949  1.00  0.00     0.062 C 
ATOM     11  N   UNL A   1      33.423  22.480  25.389  1.00  0.00    -0.331 N 
ATOM     12  C   UNL A   1      34.825  22.906  25.467  1.00  0.00     0.262 C 
ATOM     13  H   UNL A   1      33.164  22.502  24.403  1.00  0.00     0.348 HD
BRANCH  11  14
ATOM     14  C   UNL A   1      33.242  21.077  25.843  1.00  0.00     0.299 C 
BRANCH  14  15
ATOM     15  C   UNL A   1      32.859  20.076  24.767  1.00  0.00     0.006 A 
ATOM     16  C   UNL A   1      32.413  20.497  23.511  1.00  0.00     0.009 A 
ATOM     17  C   UNL A   1      33.039  18.698  24.987  1.00  0.00     0.013 A 
ATOM     18  C   UNL A   1      32.211  19.567  22.495  1.00  0.00     0.001 A 
ATOM     19  C   UNL A   1      32.942  17.745  23.959  1.00  0.00    -0.044 A 
ATOM     20  C   UNL A   1      32.496  18.215  22.714  1.00  0.00     0.004 A 
BRANCH  19  21
ATOM     21  C   UNL A   1      33.360  16.295  24.135  1.00  0.00     0.019 C 
ATOM     22  C   UNL A   1      34.632  15.949  24.882  1.00  0.00     0.009 C 
ATOM     23  C   UNL A   1      33.295  15.604  25.474  1.00  0.00     0.009 C 
ENDBRANCH  19  21
ENDBRANCH  14  15
ENDBRANCH  11  14
ENDBRANCH   6   7
ENDBRANCH   5   6
ENDBRANCH   2   5
BRANCH   3  24
ATOM     24  C   UNL A   1      31.393  30.762  25.609  1.00  0.00     0.117 C 
BRANCH  24  25
ATOM     25  C   UNL A   1      31.240  31.907  26.606  1.00  0.00     0.042 C 
BRANCH  25  26
ATOM     26  C   UNL A   1      32.536  32.636  26.965  1.00  0.00     0.118 C 
BRANCH  26  27
ATOM     27  N   UNL A   1      32.327  33.969  27.507  1.00  0.00    -0.352 N 
ATOM     28  C   UNL A   1      32.998  34.649  28.490  1.00  0.00     0.251 C 
ATOM     29  H   UNL A   1      31.578  34.465  27.101  1.00  0.00     0.163 HD
ATOM     30  O   UNL A   1      32.561  35.739  28.867  1.00  0.00    -0.269 OA
BRANCH  28  31
ATOM     31  C   UNL A   1      34.214  34.098  29.130  1.00  0.00     0.039 A 
ATOM     32  C   UNL A   1      34.049  33.197  30.187  1.00  0.00     0.014 A 
ATOM     33  C   UNL A   1      35.502  34.481  28.746  1.00  0.00     0.014 A 
ATOM     34  C   UNL A   1      35.165  32.639  30.816  1.00  0.00     0.010 A 
ATOM     35  C   UNL A   1      36.617  33.873  29.329  1.00  0.00     0.010 A 
ATOM     36  C   UNL A   1      36.462  32.946  30.370  1.00  0.00    -0.014 A 
BRANCH  36  37
ATOM     37  C   UNL A   1      37.642  32.276  30.979  1.00  0.00     0.031 A 
ATOM     38  C   UNL A   1      38.123  32.647  32.355  1.00  0.00     0.074 A 
ATOM     39  C   UNL A   1      38.304  31.336  30.275  1.00  0.00     0.049 A 
ATOM     40  N   UNL A   1      39.115  32.143  33.049  1.00  0.00    -0.248 NA
ATOM     41  C   UNL A   1      37.416  33.743  33.033  1.00  0.00     0.031 C 
ATOM     42  C   UNL A   1      37.981  30.925  28.907  1.00  0.00     0.029 A 
ATOM     43  N   UNL A   1      39.380  30.553  30.611  1.00  0.00    -0.354 N 
ATOM     44  C   UNL A   1      39.152  32.862  34.238  1.00  0.00     0.074 A 
ATOM     45  C   UNL A   1      38.119  33.873  34.148  1.00  0.00     0.031 C 
ATOM     46  C   UNL A   1      38.818  29.944  28.534  1.00  0.00     0.029 A 
ATOM     47  C   UNL A   1      39.751  29.674  29.623  1.00  0.00     0.049 A 
ATOM     48  H   UNL A   1      39.844  30.617  31.478  1.00  0.00     0.167 HD
ATOM     49  C   UNL A   1      39.957  32.681  35.313  1.00  0.00     0.037 A 
ATOM     50  C   UNL A   1      40.726  28.745  29.599  1.00  0.00     0.037 A 
ATOM     51  C   UNL A   1      40.973  31.664  35.412  1.00  0.00     0.049 A 
ATOM     52  C   UNL A   1      41.587  28.548  30.816  1.00  0.00     0.074 A 
ATOM     53  C   UNL A   1      41.799  31.367  36.483  1.00  0.00     0.029 A 
ATOM     54  N   UNL A   1      41.303  30.776  34.399  1.00  0.00    -0.354 N 
ATOM     55  N   UNL A   1      41.559  29.181  31.964  1.00  0.00    -0.248 NA
ATOM     56  C   UNL A   1      42.608  27.494  30.738  1.00  0.00     0.031 C 
ATOM     57  C   UNL A   1      42.657  30.329  36.104  1.00  0.00     0.029 A 
ATOM     58  C   UNL A   1      42.332  29.943  34.814  1.00  0.00     0.049 A 
ATOM     59  H   UNL A   1      40.871  30.741  33.515  1.00  0.00     0.167 HD
ATOM     60  C   UNL A   1      42.534  28.586  32.751  1.00  0.00     0.074 A 
ATOM     61  C   UNL A   1      43.122  27.526  31.959  1.00  0.00     0.031 C 
ATOM     62  C   UNL A   1      42.910  28.891  34.018  1.00  0.00     0.037 A 
BRANCH  49  63
ATOM     63  C   UNL A   1      39.767  33.603  36.484  1.00  0.00     0.064 A 
ATOM     64  C   UNL A   1      38.890  33.287  37.533  1.00  0.00     0.173 A 
ATOM     65  C   UNL A   1      40.500  34.795  36.580  1.00  0.00     0.173 A 
ATOM     66  F   UNL A   1      38.158  32.164  37.486  1.00  0.00    -0.203 F 
ATOM     67  C   UNL A   1      38.733  34.144  38.621  1.00  0.00     0.198 A 
ATOM     68  C   UNL A   1      40.362  35.635  37.683  1.00  0.00     0.198 A 
ATOM     69  F   UNL A   1      41.358  35.143  35.610  1.00  0.00    -0.203 F 
ATOM     70  F   UNL A   1      37.855  33.842  39.587  1.00  0.00    -0.200 F 
ATOM     71  C   UNL A   1      39.475  35.312  38.698  1.00  0.00     0.200 A 
ATOM     72  F   UNL A   1      41.091  36.758  37.764  1.00  0.00    -0.200 F 
ATOM     73  F   UNL A   1      39.328  36.132  39.749  1.00  0.00    -0.200 F 
ENDBRANCH  49  63
BRANCH  50  74
ATOM     74  C   UNL A   1      40.910  27.896  28.394  1.00  0.00     0.064 A 
ATOM     75  C   UNL A   1      41.732  28.315  27.338  1.00  0.00     0.173 A 
ATOM     76  C   UNL A   1      40.265  26.657  28.270  1.00  0.00     0.173 A 
ATOM     77  F   UNL A   1      42.352  29.502  27.403  1.00  0.00    -0.203 F 
ATOM     78  C   UNL A   1      41.884  27.537  26.193  1.00  0.00     0.198 A 
ATOM     79  C   UNL A   1      40.442  25.867  27.136  1.00  0.00     0.198 A 
ATOM     80  F   UNL A   1      39.474  26.210  29.254  1.00  0.00    -0.203 F 
ATOM     81  F   UNL A   1      42.636  27.983  25.177  1.00  0.00    -0.200 F 
ATOM     82  C   UNL A   1      41.242  26.311  26.094  1.00  0.00     0.200 A 
ATOM     83  F   UNL A   1      39.831  24.677  27.051  1.00  0.00    -0.200 F 
ATOM     84  F   UNL A   1      41.391  25.562  24.993  1.00  0.00    -0.200 F 
ENDBRANCH  50  74
BRANCH  62  85
ATOM     85  C   UNL A   1      43.987  28.044  34.634  1.00  0.00     0.064 A 
ATOM     86  C   UNL A   1      45.339  28.415  34.580  1.00  0.00     0.173 A 
ATOM     87  C   UNL A   1      43.661  26.847  35.290  1.00  0.00     0.173 A 
ATOM     88  F   UNL A   1      45.704  29.542  33.951  1.00  0.00    -0.203 F 
ATOM     89  C   UNL A   1      46.328  27.600  35.123  1.00  0.00     0.198 A 
ATOM     90  C   UNL A   1      44.650  26.050  35.860  1.00  0.00     0.198 A 
ATOM     91  F   UNL A   1      42.383  26.449  35.377  1.00  0.00    -0.203 F 
ATOM     92  F   UNL A   1      47.618  27.943  35.004  1.00  0.00    -0.200 F 
ATOM     93  C   UNL A   1      45.982  26.420  35.767  1.00  0.00     0.200 A 
ATOM     94  F   UNL A   1      44.314  24.917  36.492  1.00  0.00    -0.200 F 
ATOM     95  F   UNL A   1      46.936  25.634  36.286  1.00  0.00    -0.200 F 
ENDBRANCH  62  85
ENDBRANCH  36  37
ENDBRANCH  28  31
ENDBRANCH  26  27
ENDBRANCH  25  26
ENDBRANCH  24  25
ENDBRANCH   3  24
TORSDOF 15
ENDMDL
