MODEL 1
REMARK VINA RESULT:     -12.8      0.000      0.000
REMARK SMILES C[C@@H]1C[N@H+]2CCC[C@@H]2CN1C(=O)N1CC(C(=O)NCCCNC(=O)c2ccc(-c3c4nc(c(-c5c(F)c(F)c(F)c(F)c5F)c5ccc([nH]5)c(-c5c(F)c(F)c(F)c(F)c5F)c5nc(c(-c6c(F)c(F)c(F)c(F)c6F)c6ccc3[nH]6)C=C5)C=C4)cc2)C1
REMARK SMILES IDX 20 1 19 2 18 3 16 4 17 5 15 7 11 8 12 9 13 10 14 11 88 12
REMARK SMILES IDX 10 13 1 14 2 15 3 16 4 17 9 18 5 19 8 20 6 22 7 23 21 24
REMARK SMILES IDX 22 25 23 26 24 28 25 29 26 30 87 31 27 32 86 33 28 34 29 35
REMARK SMILES IDX 30 36 80 37 31 38 85 39 79 40 81 41 32 42 84 43 78 44 77 45
REMARK SMILES IDX 33 47 65 48 45 49 64 50 46 51 49 52 63 53 82 54 47 55 48 56
REMARK SMILES IDX 62 58 83 59 50 60 34 61 35 62 43 63 36 64 37 65 41 66 44 67
REMARK SMILES IDX 38 68 39 69 42 70 40 71 66 72 67 73 75 74 68 75 69 76 73 77
REMARK SMILES IDX 76 78 70 79 71 80 74 81 72 82 51 83 52 84 60 85 53 86 54 87
REMARK SMILES IDX 58 88 61 89 55 90 56 91 59 92 57 93
REMARK H PARENT 18 6 4 21 22 27 81 46 49 57
REMARK Flexibility Score: inf
ROOT
ATOM      1  C   UNL A   1      31.445  32.201  26.785  1.00  0.00     0.042 C 
ENDROOT
BRANCH   1   2
ATOM      2  C   UNL A   1      31.655  30.731  26.438  1.00  0.00     0.117 C 
BRANCH   2   3
ATOM      3  N   UNL A   1      32.960  30.257  26.861  1.00  0.00    -0.356 N 
ATOM      4  C   UNL A   1      33.579  29.039  26.718  1.00  0.00     0.226 C 
ATOM      5  O   UNL A   1      34.699  28.951  27.243  1.00  0.00    -0.275 OA
ATOM      6  H   UNL A   1      33.499  30.930  27.337  1.00  0.00     0.163 HD
BRANCH   4   7
ATOM      7  C   UNL A   1      32.952  27.870  25.953  1.00  0.00     0.117 C 
ATOM      8  C   UNL A   1      32.135  24.617  25.890  1.00  0.00     0.320 C 
ATOM      9  O   UNL A   1      30.916  24.448  25.844  1.00  0.00    -0.248 OA
ATOM     10  N   UNL A   1      32.648  25.839  26.225  1.00  0.00    -0.323 N 
ATOM     11  C   UNL A   1      31.881  27.014  26.624  1.00  0.00     0.136 C 
ATOM     12  C   UNL A   1      33.743  26.602  25.639  1.00  0.00     0.136 C 
BRANCH   8  13
ATOM     13  N   UNL A   1      33.026  23.594  25.630  1.00  0.00    -0.310 N 
ATOM     14  C   UNL A   1      35.381  23.183  26.287  1.00  0.00     0.037 C 
ATOM     15  C   UNL A   1      33.910  22.958  26.639  1.00  0.00     0.139 C 
ATOM     16  C   UNL A   1      33.588  21.434  26.810  1.00  0.00     0.287 C 
ATOM     17  N   UNL A   1      33.492  20.750  25.518  1.00  0.00    -0.329 N 
ATOM     18  C   UNL A   1      32.876  22.841  24.369  1.00  0.00     0.186 C 
ATOM     19  C   UNL A   1      33.122  19.340  25.569  1.00  0.00     0.262 C 
ATOM     20  C   UNL A   1      32.464  21.404  24.685  1.00  0.00     0.204 C 
ATOM     21  H   UNL A   1      34.438  20.811  25.140  1.00  0.00     0.348 HD
ATOM     22  C   UNL A   1      32.466  19.080  24.207  1.00  0.00     0.068 C 
ATOM     23  C   UNL A   1      32.400  20.443  23.517  1.00  0.00     0.073 C 
ENDBRANCH   8  13
ENDBRANCH   4   7
ENDBRANCH   2   3
ENDBRANCH   1   2
BRANCH   1  24
ATOM     24  C   UNL A   1      32.725  32.947  27.156  1.00  0.00     0.118 C 
BRANCH  24  25
ATOM     25  N   UNL A   1      32.471  34.286  27.668  1.00  0.00    -0.352 N 
ATOM     26  C   UNL A   1      33.039  34.961  28.717  1.00  0.00     0.251 C 
ATOM     27  H   UNL A   1      31.778  34.788  27.181  1.00  0.00     0.163 HD
ATOM     28  O   UNL A   1      32.545  36.030  29.086  1.00  0.00    -0.269 OA
BRANCH  26  29
ATOM     29  C   UNL A   1      34.217  34.422  29.431  1.00  0.00     0.039 A 
ATOM     30  C   UNL A   1      34.017  33.721  30.624  1.00  0.00     0.014 A 
ATOM     31  C   UNL A   1      35.515  34.631  28.961  1.00  0.00     0.014 A 
ATOM     32  C   UNL A   1      35.106  33.172  31.305  1.00  0.00     0.010 A 
ATOM     33  C   UNL A   1      36.595  34.022  29.598  1.00  0.00     0.010 A 
ATOM     34  C   UNL A   1      36.402  33.285  30.776  1.00  0.00    -0.014 A 
BRANCH  34  35
ATOM     35  C   UNL A   1      37.566  32.639  31.440  1.00  0.00     0.031 A 
ATOM     36  C   UNL A   1      38.283  31.497  30.775  1.00  0.00     0.074 A 
ATOM     37  C   UNL A   1      37.941  33.046  32.668  1.00  0.00     0.049 A 
ATOM     38  N   UNL A   1      39.256  30.750  31.231  1.00  0.00    -0.248 NA
ATOM     39  C   UNL A   1      37.829  31.130  29.423  1.00  0.00     0.031 C 
ATOM     40  C   UNL A   1      37.308  34.120  33.436  1.00  0.00     0.029 A 
ATOM     41  N   UNL A   1      38.941  32.594  33.494  1.00  0.00    -0.354 N 
ATOM     42  C   UNL A   1      39.527  29.826  30.231  1.00  0.00     0.074 A 
ATOM     43  C   UNL A   1      38.577  30.067  29.165  1.00  0.00     0.031 C 
ATOM     44  C   UNL A   1      37.945  34.255  34.611  1.00  0.00     0.029 A 
ATOM     45  C   UNL A   1      39.003  33.254  34.698  1.00  0.00     0.049 A 
ATOM     46  H   UNL A   1      39.556  31.866  33.248  1.00  0.00     0.167 HD
ATOM     47  C   UNL A   1      40.495  28.880  30.191  1.00  0.00     0.037 A 
ATOM     48  C   UNL A   1      39.814  33.065  35.756  1.00  0.00     0.037 A 
ATOM     49  C   UNL A   1      41.450  28.650  31.243  1.00  0.00     0.049 A 
ATOM     50  C   UNL A   1      40.865  31.989  35.695  1.00  0.00     0.074 A 
ATOM     51  C   UNL A   1      42.483  27.728  31.287  1.00  0.00     0.029 A 
ATOM     52  N   UNL A   1      41.491  29.352  32.438  1.00  0.00    -0.354 N 
ATOM     53  N   UNL A   1      41.138  31.151  34.724  1.00  0.00    -0.248 NA
ATOM     54  C   UNL A   1      41.724  31.835  36.878  1.00  0.00     0.031 C 
ATOM     55  C   UNL A   1      43.128  27.851  32.522  1.00  0.00     0.029 A 
ATOM     56  C   UNL A   1      42.526  28.878  33.228  1.00  0.00     0.049 A 
ATOM     57  H   UNL A   1      40.877  30.080  32.688  1.00  0.00     0.167 HD
ATOM     58  C   UNL A   1      42.218  30.398  35.162  1.00  0.00     0.074 A 
ATOM     59  C   UNL A   1      42.560  30.886  36.482  1.00  0.00     0.031 C 
ATOM     60  C   UNL A   1      42.867  29.390  34.531  1.00  0.00     0.037 A 
BRANCH  47  61
ATOM     61  C   UNL A   1      40.583  28.029  28.956  1.00  0.00     0.064 A 
ATOM     62  C   UNL A   1      39.836  26.848  28.832  1.00  0.00     0.173 A 
ATOM     63  C   UNL A   1      41.379  28.420  27.870  1.00  0.00     0.173 A 
ATOM     64  F   UNL A   1      39.068  26.425  29.846  1.00  0.00    -0.203 F 
ATOM     65  C   UNL A   1      39.904  26.075  27.675  1.00  0.00     0.198 A 
ATOM     66  C   UNL A   1      41.422  27.661  26.704  1.00  0.00     0.198 A 
ATOM     67  F   UNL A   1      42.108  29.545  27.936  1.00  0.00    -0.203 F 
ATOM     68  F   UNL A   1      39.216  24.928  27.596  1.00  0.00    -0.200 F 
ATOM     69  C   UNL A   1      40.690  26.487  26.609  1.00  0.00     0.200 A 
ATOM     70  F   UNL A   1      42.173  28.065  25.669  1.00  0.00    -0.200 F 
ATOM     71  F   UNL A   1      40.747  25.747  25.493  1.00  0.00    -0.200 F 
ENDBRANCH  47  61
BRANCH  48  72
ATOM     72  C   UNL A   1      39.681  33.922  36.964  1.00  0.00     0.064 A 
ATOM     73  C   UNL A   1      38.911  33.505  38.060  1.00  0.00     0.173 A 
ATOM     74  C   UNL A   1      40.290  35.182  37.037  1.00  0.00     0.173 A 
ATOM     75  F   UNL A   1      38.291  32.316  38.028  1.00  0.00    -0.203 F 
ATOM     76  C   UNL A   1      38.730  34.329  39.167  1.00  0.00     0.198 A 
ATOM     77  C   UNL A   1      40.134  35.993  38.159  1.00  0.00     0.198 A 
ATOM     78  F   UNL A   1      41.042  35.626  36.019  1.00  0.00    -0.203 F 
ATOM     79  F   UNL A   1      37.942  33.930  40.176  1.00  0.00    -0.200 F 
ATOM     80  C   UNL A   1      39.344  35.572  39.219  1.00  0.00     0.200 A 
ATOM     81  F   UNL A   1      40.741  37.187  38.210  1.00  0.00    -0.200 F 
ATOM     82  F   UNL A   1      39.167  36.366  40.283  1.00  0.00    -0.200 F 
ENDBRANCH  48  72
BRANCH  60  83
ATOM     83  C   UNL A   1      44.043  28.781  35.237  1.00  0.00     0.064 A 
ATOM     84  C   UNL A   1      45.350  29.242  35.025  1.00  0.00     0.173 A 
ATOM     85  C   UNL A   1      43.853  27.742  36.161  1.00  0.00     0.173 A 
ATOM     86  F   UNL A   1      45.584  30.221  34.138  1.00  0.00    -0.203 F 
ATOM     87  C   UNL A   1      46.428  28.666  35.693  1.00  0.00     0.198 A 
ATOM     88  C   UNL A   1      44.929  27.190  36.850  1.00  0.00     0.198 A 
ATOM     89  F   UNL A   1      42.621  27.270  36.404  1.00  0.00    -0.203 F 
ATOM     90  F   UNL A   1      47.674  29.090  35.439  1.00  0.00    -0.200 F 
ATOM     91  C   UNL A   1      46.216  27.647  36.609  1.00  0.00     0.200 A 
ATOM     92  F   UNL A   1      44.721  26.214  37.743  1.00  0.00    -0.200 F 
ATOM     93  F   UNL A   1      47.255  27.100  37.255  1.00  0.00    -0.200 F 
ENDBRANCH  60  83
ENDBRANCH  34  35
ENDBRANCH  26  29
ENDBRANCH  24  25
ENDBRANCH   1  24
TORSDOF 11
ENDMDL
MODEL 2
REMARK VINA RESULT:     -12.8      0.093      1.135
REMARK SMILES C[C@@H]1C[N@H+]2CCC[C@@H]2CN1C(=O)N1CC(C(=O)NCCCNC(=O)c2ccc(-c3c4nc(c(-c5c(F)c(F)c(F)c(F)c5F)c5ccc([nH]5)c(-c5c(F)c(F)c(F)c(F)c5F)c5nc(c(-c6c(F)c(F)c(F)c(F)c6F)c6ccc3[nH]6)C=C5)C=C4)cc2)C1
REMARK SMILES IDX 20 1 19 2 18 3 16 4 17 5 15 7 11 8 12 9 13 10 14 11 88 12
REMARK SMILES IDX 10 13 1 14 2 15 3 16 4 17 9 18 5 19 8 20 6 22 7 23 21 24
REMARK SMILES IDX 22 25 23 26 24 28 25 29 26 30 87 31 27 32 86 33 28 34 29 35
REMARK SMILES IDX 30 36 80 37 31 38 85 39 79 40 81 41 32 42 84 43 78 44 77 45
REMARK SMILES IDX 33 47 65 48 45 49 64 50 46 51 49 52 63 53 82 54 47 55 48 56
REMARK SMILES IDX 62 58 83 59 50 60 34 61 35 62 43 63 36 64 37 65 41 66 44 67
REMARK SMILES IDX 38 68 39 69 42 70 40 71 66 72 67 73 75 74 68 75 69 76 73 77
REMARK SMILES IDX 76 78 70 79 71 80 74 81 72 82 51 83 52 84 60 85 53 86 54 87
REMARK SMILES IDX 58 88 61 89 55 90 56 91 59 92 57 93
REMARK H PARENT 18 6 4 21 22 27 81 46 49 57
REMARK Flexibility Score: inf
ROOT
ATOM      1  C   UNL A   1      31.411  32.240  26.703  1.00  0.00     0.042 C 
ENDROOT
BRANCH   1   2
ATOM      2  C   UNL A   1      31.566  30.738  26.490  1.00  0.00     0.117 C 
BRANCH   2   3
ATOM      3  N   UNL A   1      32.857  30.258  26.946  1.00  0.00    -0.356 N 
ATOM      4  C   UNL A   1      33.477  29.038  26.815  1.00  0.00     0.226 C 
ATOM      5  O   UNL A   1      34.581  28.945  27.370  1.00  0.00    -0.275 OA
ATOM      6  H   UNL A   1      33.385  30.927  27.440  1.00  0.00     0.163 HD
BRANCH   4   7
ATOM      7  C   UNL A   1      32.866  27.875  26.028  1.00  0.00     0.117 C 
ATOM      8  C   UNL A   1      32.072  24.618  25.916  1.00  0.00     0.320 C 
ATOM      9  O   UNL A   1      30.854  24.441  25.853  1.00  0.00    -0.248 OA
ATOM     10  N   UNL A   1      32.573  25.839  26.272  1.00  0.00    -0.323 N 
ATOM     11  C   UNL A   1      31.793  27.004  26.675  1.00  0.00     0.136 C 
ATOM     12  C   UNL A   1      33.670  26.615  25.710  1.00  0.00     0.136 C 
BRANCH   8  13
ATOM     13  N   UNL A   1      32.972  23.604  25.656  1.00  0.00    -0.310 N 
ATOM     14  C   UNL A   1      35.310  23.182  26.366  1.00  0.00     0.037 C 
ATOM     15  C   UNL A   1      33.831  22.945  26.673  1.00  0.00     0.139 C 
ATOM     16  C   UNL A   1      33.508  21.416  26.798  1.00  0.00     0.287 C 
ATOM     17  N   UNL A   1      33.450  20.764  25.487  1.00  0.00    -0.329 N 
ATOM     18  C   UNL A   1      32.859  22.882  24.373  1.00  0.00     0.186 C 
ATOM     19  C   UNL A   1      33.082  19.352  25.494  1.00  0.00     0.262 C 
ATOM     20  C   UNL A   1      32.442  21.436  24.642  1.00  0.00     0.204 C 
ATOM     21  H   UNL A   1      34.405  20.836  25.137  1.00  0.00     0.348 HD
ATOM     22  C   UNL A   1      32.465  19.124  24.108  1.00  0.00     0.068 C 
ATOM     23  C   UNL A   1      32.413  20.503  23.450  1.00  0.00     0.073 C 
ENDBRANCH   8  13
ENDBRANCH   4   7
ENDBRANCH   2   3
ENDBRANCH   1   2
BRANCH   1  24
ATOM     24  C   UNL A   1      32.691  32.946  27.145  1.00  0.00     0.118 C 
BRANCH  24  25
ATOM     25  N   UNL A   1      32.451  34.293  27.642  1.00  0.00    -0.352 N 
ATOM     26  C   UNL A   1      33.034  34.978  28.676  1.00  0.00     0.251 C 
ATOM     27  H   UNL A   1      31.756  34.793  27.157  1.00  0.00     0.163 HD
ATOM     28  O   UNL A   1      32.551  36.056  29.036  1.00  0.00    -0.269 OA
BRANCH  26  29
ATOM     29  C   UNL A   1      34.217  34.442  29.384  1.00  0.00     0.039 A 
ATOM     30  C   UNL A   1      34.032  33.807  30.616  1.00  0.00     0.014 A 
ATOM     31  C   UNL A   1      35.506  34.590  28.869  1.00  0.00     0.014 A 
ATOM     32  C   UNL A   1      35.125  33.261  31.293  1.00  0.00     0.010 A 
ATOM     33  C   UNL A   1      36.587  33.982  29.506  1.00  0.00     0.010 A 
ATOM     34  C   UNL A   1      36.407  33.310  30.724  1.00  0.00    -0.014 A 
BRANCH  34  35
ATOM     35  C   UNL A   1      37.571  32.665  31.388  1.00  0.00     0.031 A 
ATOM     36  C   UNL A   1      38.290  31.524  30.722  1.00  0.00     0.074 A 
ATOM     37  C   UNL A   1      37.946  33.070  32.617  1.00  0.00     0.049 A 
ATOM     38  N   UNL A   1      39.264  30.778  31.178  1.00  0.00    -0.248 NA
ATOM     39  C   UNL A   1      37.837  31.159  29.370  1.00  0.00     0.031 C 
ATOM     40  C   UNL A   1      37.311  34.142  33.386  1.00  0.00     0.029 A 
ATOM     41  N   UNL A   1      38.946  32.618  33.443  1.00  0.00    -0.354 N 
ATOM     42  C   UNL A   1      39.536  29.856  30.176  1.00  0.00     0.074 A 
ATOM     43  C   UNL A   1      38.587  30.097  29.111  1.00  0.00     0.031 C 
ATOM     44  C   UNL A   1      37.947  34.277  34.562  1.00  0.00     0.029 A 
ATOM     45  C   UNL A   1      39.007  33.277  34.648  1.00  0.00     0.049 A 
ATOM     46  H   UNL A   1      39.562  31.891  33.196  1.00  0.00     0.167 HD
ATOM     47  C   UNL A   1      40.505  28.911  30.136  1.00  0.00     0.037 A 
ATOM     48  C   UNL A   1      39.817  33.087  35.707  1.00  0.00     0.037 A 
ATOM     49  C   UNL A   1      41.460  28.679  31.189  1.00  0.00     0.049 A 
ATOM     50  C   UNL A   1      40.868  32.012  35.644  1.00  0.00     0.074 A 
ATOM     51  C   UNL A   1      42.494  27.759  31.232  1.00  0.00     0.029 A 
ATOM     52  N   UNL A   1      41.500  29.380  32.385  1.00  0.00    -0.354 N 
ATOM     53  N   UNL A   1      41.143  31.176  34.672  1.00  0.00    -0.248 NA
ATOM     54  C   UNL A   1      41.728  31.857  36.828  1.00  0.00     0.031 C 
ATOM     55  C   UNL A   1      43.138  27.881  32.468  1.00  0.00     0.029 A 
ATOM     56  C   UNL A   1      42.535  28.907  33.175  1.00  0.00     0.049 A 
ATOM     57  H   UNL A   1      40.884  30.107  32.635  1.00  0.00     0.167 HD
ATOM     58  C   UNL A   1      42.224  30.423  35.111  1.00  0.00     0.074 A 
ATOM     59  C   UNL A   1      42.565  30.910  36.431  1.00  0.00     0.031 C 
ATOM     60  C   UNL A   1      42.874  29.417  34.479  1.00  0.00     0.037 A 
BRANCH  47  61
ATOM     61  C   UNL A   1      40.595  28.061  28.901  1.00  0.00     0.064 A 
ATOM     62  C   UNL A   1      39.862  26.871  28.780  1.00  0.00     0.173 A 
ATOM     63  C   UNL A   1      41.380  28.462  27.809  1.00  0.00     0.173 A 
ATOM     64  F   UNL A   1      39.104  26.439  29.799  1.00  0.00    -0.203 F 
ATOM     65  C   UNL A   1      39.930  26.101  27.622  1.00  0.00     0.198 A 
ATOM     66  C   UNL A   1      41.424  27.704  26.642  1.00  0.00     0.198 A 
ATOM     67  F   UNL A   1      42.096  29.595  27.871  1.00  0.00    -0.203 F 
ATOM     68  F   UNL A   1      39.255  24.945  27.547  1.00  0.00    -0.200 F 
ATOM     69  C   UNL A   1      40.705  26.522  26.552  1.00  0.00     0.200 A 
ATOM     70  F   UNL A   1      42.163  28.117  25.603  1.00  0.00    -0.200 F 
ATOM     71  F   UNL A   1      40.762  25.783  25.435  1.00  0.00    -0.200 F 
ENDBRANCH  47  61
BRANCH  48  72
ATOM     72  C   UNL A   1      39.682  33.942  36.916  1.00  0.00     0.064 A 
ATOM     73  C   UNL A   1      38.882  33.540  37.995  1.00  0.00     0.173 A 
ATOM     74  C   UNL A   1      40.320  35.187  37.006  1.00  0.00     0.173 A 
ATOM     75  F   UNL A   1      38.234  32.366  37.947  1.00  0.00    -0.203 F 
ATOM     76  C   UNL A   1      38.700  34.364  39.103  1.00  0.00     0.198 A 
ATOM     77  C   UNL A   1      40.162  35.997  38.128  1.00  0.00     0.198 A 
ATOM     78  F   UNL A   1      41.101  35.616  36.003  1.00  0.00    -0.203 F 
ATOM     79  F   UNL A   1      37.884  33.980  40.095  1.00  0.00    -0.200 F 
ATOM     80  C   UNL A   1      39.343  35.590  39.171  1.00  0.00     0.200 A 
ATOM     81  F   UNL A   1      40.797  37.176  38.195  1.00  0.00    -0.200 F 
ATOM     82  F   UNL A   1      39.166  36.385  40.235  1.00  0.00    -0.200 F 
ENDBRANCH  48  72
BRANCH  60  83
ATOM     83  C   UNL A   1      44.050  28.808  35.184  1.00  0.00     0.064 A 
ATOM     84  C   UNL A   1      43.907  27.702  36.035  1.00  0.00     0.173 A 
ATOM     85  C   UNL A   1      45.341  29.319  34.980  1.00  0.00     0.173 A 
ATOM     86  F   UNL A   1      42.692  27.188  36.275  1.00  0.00    -0.203 F 
ATOM     87  C   UNL A   1      45.012  27.147  36.677  1.00  0.00     0.198 A 
ATOM     88  C   UNL A   1      46.446  28.743  35.600  1.00  0.00     0.198 A 
ATOM     89  F   UNL A   1      45.531  30.372  34.171  1.00  0.00    -0.203 F 
ATOM     90  F   UNL A   1      44.846  26.122  37.524  1.00  0.00    -0.200 F 
ATOM     91  C   UNL A   1      46.280  27.663  36.454  1.00  0.00     0.200 A 
ATOM     92  F   UNL A   1      47.671  29.235  35.373  1.00  0.00    -0.200 F 
ATOM     93  F   UNL A   1      47.341  27.123  37.068  1.00  0.00    -0.200 F 
ENDBRANCH  60  83
ENDBRANCH  34  35
ENDBRANCH  26  29
ENDBRANCH  24  25
ENDBRANCH   1  24
TORSDOF 11
ENDMDL
MODEL 3
REMARK VINA RESULT:     -12.8      5.595     10.867
REMARK SMILES C[C@@H]1C[N@H+]2CCC[C@@H]2CN1C(=O)N1CC(C(=O)NCCCNC(=O)c2ccc(-c3c4nc(c(-c5c(F)c(F)c(F)c(F)c5F)c5ccc([nH]5)c(-c5c(F)c(F)c(F)c(F)c5F)c5nc(c(-c6c(F)c(F)c(F)c(F)c6F)c6ccc3[nH]6)C=C5)C=C4)cc2)C1
REMARK SMILES IDX 20 1 19 2 18 3 16 4 17 5 15 7 11 8 12 9 13 10 14 11 88 12
REMARK SMILES IDX 10 13 1 14 2 15 3 16 4 17 9 18 5 19 8 20 6 22 7 23 21 24
REMARK SMILES IDX 22 25 23 26 24 28 25 29 26 30 87 31 27 32 86 33 28 34 29 35
REMARK SMILES IDX 30 36 80 37 31 38 85 39 79 40 81 41 32 42 84 43 78 44 77 45
REMARK SMILES IDX 33 47 65 48 45 49 64 50 46 51 49 52 63 53 82 54 47 55 48 56
REMARK SMILES IDX 62 58 83 59 50 60 34 61 35 62 43 63 36 64 37 65 41 66 44 67
REMARK SMILES IDX 38 68 39 69 42 70 40 71 66 72 67 73 75 74 68 75 69 76 73 77
REMARK SMILES IDX 76 78 70 79 71 80 74 81 72 82 51 83 52 84 60 85 53 86 54 87
REMARK SMILES IDX 58 88 61 89 55 90 56 91 59 92 57 93
REMARK H PARENT 18 6 4 21 22 27 81 46 49 57
REMARK Flexibility Score: inf
ROOT
ATOM      1  C   UNL A   1      37.922  19.494  24.998  1.00  0.00     0.042 C 
ENDROOT
BRANCH   1   2
ATOM      2  C   UNL A   1      36.718  20.431  25.001  1.00  0.00     0.117 C 
BRANCH   2   3
ATOM      3  N   UNL A   1      36.985  21.652  25.737  1.00  0.00    -0.356 N 
ATOM      4  C   UNL A   1      36.361  22.876  25.732  1.00  0.00     0.226 C 
ATOM      5  O   UNL A   1      36.877  23.735  26.462  1.00  0.00    -0.275 OA
ATOM      6  H   UNL A   1      37.752  21.593  26.352  1.00  0.00     0.163 HD
BRANCH   4   7
ATOM      7  C   UNL A   1      35.107  23.168  24.903  1.00  0.00     0.117 C 
ATOM      8  C   UNL A   1      33.389  25.335  23.004  1.00  0.00     0.320 C 
ATOM      9  O   UNL A   1      33.267  24.938  21.844  1.00  0.00    -0.248 OA
ATOM     10  N   UNL A   1      34.301  24.752  23.839  1.00  0.00    -0.323 N 
ATOM     11  C   UNL A   1      35.248  23.704  23.480  1.00  0.00     0.136 C 
ATOM     12  C   UNL A   1      34.185  24.341  25.232  1.00  0.00     0.136 C 
BRANCH   8  13
ATOM     13  N   UNL A   1      32.638  26.382  23.499  1.00  0.00    -0.310 N 
ATOM     14  C   UNL A   1      30.302  27.126  23.126  1.00  0.00     0.037 C 
ATOM     15  C   UNL A   1      31.238  26.273  23.983  1.00  0.00     0.139 C 
ATOM     16  C   UNL A   1      31.122  26.643  25.502  1.00  0.00     0.287 C 
ATOM     17  N   UNL A   1      31.812  27.899  25.809  1.00  0.00    -0.329 N 
ATOM     18  C   UNL A   1      33.341  27.618  23.897  1.00  0.00     0.186 C 
ATOM     19  C   UNL A   1      31.824  28.291  27.215  1.00  0.00     0.262 C 
ATOM     20  C   UNL A   1      33.230  27.797  25.411  1.00  0.00     0.204 C 
ATOM     21  H   UNL A   1      31.281  28.601  25.294  1.00  0.00     0.348 HD
ATOM     22  C   UNL A   1      33.079  29.164  27.345  1.00  0.00     0.068 C 
ATOM     23  C   UNL A   1      33.773  29.089  25.985  1.00  0.00     0.073 C 
ENDBRANCH   8  13
ENDBRANCH   4   7
ENDBRANCH   2   3
ENDBRANCH   1   2
BRANCH   1  24
ATOM     24  C   UNL A   1      39.138  20.035  25.749  1.00  0.00     0.118 C 
BRANCH  24  25
ATOM     25  N   UNL A   1      40.207  19.055  25.872  1.00  0.00    -0.352 N 
ATOM     26  C   UNL A   1      41.544  19.223  26.126  1.00  0.00     0.251 C 
ATOM     27  H   UNL A   1      39.925  18.119  25.753  1.00  0.00     0.163 HD
ATOM     28  O   UNL A   1      42.307  18.258  26.012  1.00  0.00    -0.269 OA
BRANCH  26  29
ATOM     29  C   UNL A   1      42.095  20.541  26.510  1.00  0.00     0.039 A 
ATOM     30  C   UNL A   1      42.523  21.410  25.502  1.00  0.00     0.014 A 
ATOM     31  C   UNL A   1      42.229  20.914  27.849  1.00  0.00     0.014 A 
ATOM     32  C   UNL A   1      43.017  22.674  25.831  1.00  0.00     0.010 A 
ATOM     33  C   UNL A   1      42.652  22.202  28.175  1.00  0.00     0.010 A 
ATOM     34  C   UNL A   1      43.049  23.096  27.169  1.00  0.00    -0.014 A 
BRANCH  34  35
ATOM     35  C   UNL A   1      43.495  24.466  27.537  1.00  0.00     0.031 A 
ATOM     36  C   UNL A   1      42.486  25.529  27.874  1.00  0.00     0.074 A 
ATOM     37  C   UNL A   1      44.807  24.769  27.511  1.00  0.00     0.049 A 
ATOM     38  N   UNL A   1      42.672  26.799  28.131  1.00  0.00    -0.248 NA
ATOM     39  C   UNL A   1      41.074  25.112  27.906  1.00  0.00     0.031 C 
ATOM     40  C   UNL A   1      45.885  23.840  27.167  1.00  0.00     0.029 A 
ATOM     41  N   UNL A   1      45.459  25.951  27.767  1.00  0.00    -0.354 N 
ATOM     42  C   UNL A   1      41.409  27.332  28.348  1.00  0.00     0.074 A 
ATOM     43  C   UNL A   1      40.457  26.262  28.137  1.00  0.00     0.031 C 
ATOM     44  C   UNL A   1      47.063  24.481  27.251  1.00  0.00     0.029 A 
ATOM     45  C   UNL A   1      46.823  25.873  27.614  1.00  0.00     0.049 A 
ATOM     46  H   UNL A   1      44.994  26.776  28.035  1.00  0.00     0.167 HD
ATOM     47  C   UNL A   1      41.072  28.591  28.715  1.00  0.00     0.037 A 
ATOM     48  C   UNL A   1      47.771  26.821  27.740  1.00  0.00     0.037 A 
ATOM     49  C   UNL A   1      42.018  29.652  28.940  1.00  0.00     0.049 A 
ATOM     50  C   UNL A   1      47.365  28.220  28.124  1.00  0.00     0.074 A 
ATOM     51  C   UNL A   1      41.777  30.958  29.336  1.00  0.00     0.029 A 
ATOM     52  N   UNL A   1      43.392  29.528  28.793  1.00  0.00    -0.354 N 
ATOM     53  N   UNL A   1      46.170  28.698  28.370  1.00  0.00    -0.248 NA
ATOM     54  C   UNL A   1      48.445  29.209  28.254  1.00  0.00     0.031 C 
ATOM     55  C   UNL A   1      43.001  31.631  29.396  1.00  0.00     0.029 A 
ATOM     56  C   UNL A   1      44.008  30.735  29.082  1.00  0.00     0.049 A 
ATOM     57  H   UNL A   1      43.860  28.705  28.524  1.00  0.00     0.167 HD
ATOM     58  C   UNL A   1      46.356  30.030  28.715  1.00  0.00     0.074 A 
ATOM     59  C   UNL A   1      47.781  30.281  28.661  1.00  0.00     0.031 C 
ATOM     60  C   UNL A   1      45.430  30.963  29.044  1.00  0.00     0.037 A 
BRANCH  47  61
ATOM     61  C   UNL A   1      39.614  28.889  28.915  1.00  0.00     0.064 A 
ATOM     62  C   UNL A   1      39.018  28.791  30.182  1.00  0.00     0.173 A 
ATOM     63  C   UNL A   1      38.816  29.322  27.846  1.00  0.00     0.173 A 
ATOM     64  F   UNL A   1      39.735  28.371  31.234  1.00  0.00    -0.203 F 
ATOM     65  C   UNL A   1      37.670  29.092  30.366  1.00  0.00     0.198 A 
ATOM     66  C   UNL A   1      37.476  29.650  28.039  1.00  0.00     0.198 A 
ATOM     67  F   UNL A   1      39.339  29.439  26.616  1.00  0.00    -0.203 F 
ATOM     68  F   UNL A   1      37.112  28.948  31.575  1.00  0.00    -0.200 F 
ATOM     69  C   UNL A   1      36.904  29.528  29.296  1.00  0.00     0.200 A 
ATOM     70  F   UNL A   1      36.739  30.084  27.008  1.00  0.00    -0.200 F 
ATOM     71  F   UNL A   1      35.609  29.826  29.476  1.00  0.00    -0.200 F 
ENDBRANCH  47  61
BRANCH  48  72
ATOM     72  C   UNL A   1      49.201  26.485  27.517  1.00  0.00     0.064 A 
ATOM     73  C   UNL A   1      50.076  26.310  28.599  1.00  0.00     0.173 A 
ATOM     74  C   UNL A   1      49.732  26.364  26.225  1.00  0.00     0.173 A 
ATOM     75  F   UNL A   1      49.620  26.436  29.855  1.00  0.00    -0.203 F 
ATOM     76  C   UNL A   1      51.430  26.057  28.397  1.00  0.00     0.198 A 
ATOM     77  C   UNL A   1      51.081  26.082  26.024  1.00  0.00     0.198 A 
ATOM     78  F   UNL A   1      48.937  26.518  25.155  1.00  0.00    -0.203 F 
ATOM     79  F   UNL A   1      52.255  25.951  29.449  1.00  0.00    -0.200 F 
ATOM     80  C   UNL A   1      51.932  25.941  27.110  1.00  0.00     0.200 A 
ATOM     81  F   UNL A   1      51.558  25.956  24.778  1.00  0.00    -0.200 F 
ATOM     82  F   UNL A   1      53.236  25.702  26.915  1.00  0.00    -0.200 F 
ENDBRANCH  48  72
BRANCH  60  83
ATOM     83  C   UNL A   1      45.931  32.327  29.420  1.00  0.00     0.064 A 
ATOM     84  C   UNL A   1      46.068  33.348  28.469  1.00  0.00     0.173 A 
ATOM     85  C   UNL A   1      46.248  32.622  30.754  1.00  0.00     0.173 A 
ATOM     86  F   UNL A   1      45.794  33.110  27.178  1.00  0.00    -0.203 F 
ATOM     87  C   UNL A   1      46.530  34.610  28.838  1.00  0.00     0.198 A 
ATOM     88  C   UNL A   1      46.680  33.892  31.124  1.00  0.00     0.198 A 
ATOM     89  F   UNL A   1      46.128  31.680  31.702  1.00  0.00    -0.203 F 
ATOM     90  F   UNL A   1      46.700  35.557  27.906  1.00  0.00    -0.200 F 
ATOM     91  C   UNL A   1      46.829  34.882  30.165  1.00  0.00     0.200 A 
ATOM     92  F   UNL A   1      46.957  34.156  32.408  1.00  0.00    -0.200 F 
ATOM     93  F   UNL A   1      47.267  36.098  30.517  1.00  0.00    -0.200 F 
ENDBRANCH  60  83
ENDBRANCH  34  35
ENDBRANCH  26  29
ENDBRANCH  24  25
ENDBRANCH   1  24
TORSDOF 11
ENDMDL
