MODEL 1
REMARK VINA RESULT:     -12.8      0.000      0.000
REMARK SMILES CC(=O)N[C@@H](CCc1nc2ccccc2[nH]1)C(=O)NCCCNC(=O)c1ccc(-c2c3nc(c(-c4c(F)c(F)c(F)c(F)c4F)c4ccc([nH]4)c(-c4c(F)c(F)c(F)c(F)c4F)c4nc(c(-c5c(F)c(F)c(F)c(F)c5F)c5ccc2[nH]5)C=C4)C=C3)cc1
REMARK SMILES IDX 20 1 19 2 17 3 18 4 5 6 4 7 1 8 2 9 3 10 6 12 7 13 8 14 9 15
REMARK SMILES IDX 16 16 10 17 15 18 11 20 14 21 12 22 13 23 21 24 22 25 23 26
REMARK SMILES IDX 24 27 25 29 26 30 27 31 88 32 28 33 87 34 29 35 30 36 31 37
REMARK SMILES IDX 81 38 32 39 86 40 80 41 82 42 33 43 85 44 79 45 78 46 34 48
REMARK SMILES IDX 66 49 46 50 65 51 47 52 50 53 64 54 83 55 48 56 49 57 63 59
REMARK SMILES IDX 84 60 51 61 35 62 36 63 44 64 37 65 38 66 42 67 45 68 39 69
REMARK SMILES IDX 40 70 43 71 41 72 67 73 68 74 76 75 69 76 70 77 74 78 77 79
REMARK SMILES IDX 71 80 72 81 75 82 73 83 52 84 53 85 61 86 54 87 55 88 59 89
REMARK SMILES IDX 62 90 56 91 57 92 60 93 58 94
REMARK H PARENT 19 5 4 11 16 19 23 28 82 47 50 58
REMARK Flexibility Score: inf
ROOT
ATOM      1  C   UNL A   1      33.520  28.562  25.121  1.00  0.00     0.117 C 
ENDROOT
BRANCH   1   2
ATOM      2  N   UNL A   1      34.111  28.563  23.799  1.00  0.00    -0.354 N 
ATOM      3  C   UNL A   1      33.671  28.069  22.604  1.00  0.00     0.242 C 
ATOM      4  O   UNL A   1      34.400  28.268  21.628  1.00  0.00    -0.273 OA
ATOM      5  H   UNL A   1      34.991  29.003  23.752  1.00  0.00     0.163 HD
BRANCH   3   6
ATOM      6  C   UNL A   1      32.308  27.353  22.424  1.00  0.00     0.171 C 
BRANCH   6   7
ATOM      7  N   UNL A   1      31.260  28.248  21.929  1.00  0.00    -0.345 N 
ATOM      8  C   UNL A   1      29.511  27.449  23.485  1.00  0.00     0.114 C 
ATOM      9  C   UNL A   1      30.012  28.426  22.455  1.00  0.00     0.217 C 
ATOM     10  O   UNL A   1      29.324  29.362  22.051  1.00  0.00    -0.275 OA
ATOM     11  H   UNL A   1      31.478  28.779  21.130  1.00  0.00     0.164 HD
ENDBRANCH   6   7
BRANCH   6  12
ATOM     12  C   UNL A   1      32.297  26.003  21.681  1.00  0.00     0.043 C 
BRANCH  12  13
ATOM     13  C   UNL A   1      32.270  24.703  22.493  1.00  0.00     0.078 C 
BRANCH  13  14
ATOM     14  C   UNL A   1      33.604  24.364  23.069  1.00  0.00     0.107 A 
ATOM     15  N   UNL A   1      34.505  23.575  22.523  1.00  0.00    -0.233 NA
ATOM     16  N   UNL A   1      34.043  24.825  24.286  1.00  0.00    -0.342 N 
ATOM     17  C   UNL A   1      35.458  23.376  23.487  1.00  0.00     0.089 A 
ATOM     18  C   UNL A   1      35.167  24.113  24.628  1.00  0.00     0.065 A 
ATOM     19  H   UNL A   1      33.627  25.539  24.820  1.00  0.00     0.168 HD
ATOM     20  C   UNL A   1      36.595  22.556  23.467  1.00  0.00     0.030 A 
ATOM     21  C   UNL A   1      35.933  24.050  25.793  1.00  0.00     0.028 A 
ATOM     22  C   UNL A   1      37.376  22.467  24.626  1.00  0.00     0.002 A 
ATOM     23  C   UNL A   1      37.041  23.192  25.771  1.00  0.00     0.002 A 
ENDBRANCH  13  14
ENDBRANCH  12  13
ENDBRANCH   6  12
ENDBRANCH   3   6
ENDBRANCH   1   2
BRANCH   1  24
ATOM     24  C   UNL A   1      32.564  29.718  25.374  1.00  0.00     0.042 C 
BRANCH  24  25
ATOM     25  C   UNL A   1      32.294  30.050  26.835  1.00  0.00     0.118 C 
BRANCH  25  26
ATOM     26  N   UNL A   1      32.350  31.470  27.152  1.00  0.00    -0.352 N 
ATOM     27  C   UNL A   1      33.397  32.248  27.596  1.00  0.00     0.251 C 
ATOM     28  H   UNL A   1      31.501  31.953  27.029  1.00  0.00     0.163 HD
ATOM     29  O   UNL A   1      33.218  33.434  27.830  1.00  0.00    -0.269 OA
BRANCH  27  30
ATOM     30  C   UNL A   1      34.713  31.620  27.848  1.00  0.00     0.039 A 
ATOM     31  C   UNL A   1      35.838  32.442  27.957  1.00  0.00     0.014 A 
ATOM     32  C   UNL A   1      34.813  30.250  28.093  1.00  0.00     0.014 A 
ATOM     33  C   UNL A   1      37.022  31.914  28.471  1.00  0.00     0.010 A 
ATOM     34  C   UNL A   1      35.954  29.752  28.705  1.00  0.00     0.010 A 
ATOM     35  C   UNL A   1      37.057  30.587  28.932  1.00  0.00    -0.014 A 
BRANCH  35  36
ATOM     36  C   UNL A   1      38.203  30.081  29.728  1.00  0.00     0.031 A 
ATOM     37  C   UNL A   1      38.411  30.547  31.138  1.00  0.00     0.074 A 
ATOM     38  C   UNL A   1      39.115  29.287  29.129  1.00  0.00     0.049 A 
ATOM     39  N   UNL A   1      39.392  30.279  31.960  1.00  0.00    -0.248 NA
ATOM     40  C   UNL A   1      37.403  31.470  31.684  1.00  0.00     0.031 C 
ATOM     41  C   UNL A   1      39.070  28.849  27.731  1.00  0.00     0.029 A 
ATOM     42  N   UNL A   1      40.264  28.716  29.615  1.00  0.00    -0.354 N 
ATOM     43  C   UNL A   1      39.133  31.016  33.107  1.00  0.00     0.074 A 
ATOM     44  C   UNL A   1      37.935  31.787  32.856  1.00  0.00     0.031 C 
ATOM     45  C   UNL A   1      40.121  28.050  27.485  1.00  0.00     0.029 A 
ATOM     46  C   UNL A   1      40.931  27.947  28.692  1.00  0.00     0.049 A 
ATOM     47  H   UNL A   1      40.580  28.845  30.539  1.00  0.00     0.167 HD
ATOM     48  C   UNL A   1      39.819  31.028  34.274  1.00  0.00     0.037 A 
ATOM     49  C   UNL A   1      42.068  27.236  28.810  1.00  0.00     0.037 A 
ATOM     50  C   UNL A   1      40.987  30.228  34.528  1.00  0.00     0.049 A 
ATOM     51  C   UNL A   1      42.778  27.218  30.134  1.00  0.00     0.074 A 
ATOM     52  C   UNL A   1      41.710  30.101  35.700  1.00  0.00     0.029 A 
ATOM     53  N   UNL A   1      41.600  29.411  33.588  1.00  0.00    -0.354 N 
ATOM     54  N   UNL A   1      42.471  27.848  31.243  1.00  0.00    -0.248 NA
ATOM     55  C   UNL A   1      43.984  26.385  30.229  1.00  0.00     0.031 C 
ATOM     56  C   UNL A   1      42.780  29.232  35.461  1.00  0.00     0.029 A 
ATOM     57  C   UNL A   1      42.701  28.787  34.150  1.00  0.00     0.049 A 
ATOM     58  H   UNL A   1      41.297  29.294  32.659  1.00  0.00     0.167 HD
ATOM     59  C   UNL A   1      43.430  27.473  32.172  1.00  0.00     0.074 A 
ATOM     60  C   UNL A   1      44.320  26.546  31.502  1.00  0.00     0.031 C 
ATOM     61  C   UNL A   1      43.565  27.862  33.463  1.00  0.00     0.037 A 
BRANCH  48  62
ATOM     62  C   UNL A   1      39.309  31.925  35.363  1.00  0.00     0.064 A 
ATOM     63  C   UNL A   1      39.650  33.285  35.413  1.00  0.00     0.173 A 
ATOM     64  C   UNL A   1      38.463  31.422  36.364  1.00  0.00     0.173 A 
ATOM     65  F   UNL A   1      40.468  33.809  34.489  1.00  0.00    -0.203 F 
ATOM     66  C   UNL A   1      39.194  34.101  36.445  1.00  0.00     0.198 A 
ATOM     67  C   UNL A   1      37.985  32.249  37.378  1.00  0.00     0.198 A 
ATOM     68  F   UNL A   1      38.104  30.131  36.361  1.00  0.00    -0.203 F 
ATOM     69  F   UNL A   1      39.580  35.383  36.503  1.00  0.00    -0.200 F 
ATOM     70  C   UNL A   1      38.357  33.584  37.423  1.00  0.00     0.200 A 
ATOM     71  F   UNL A   1      37.170  31.750  38.317  1.00  0.00    -0.200 F 
ATOM     72  F   UNL A   1      37.920  34.370  38.415  1.00  0.00    -0.200 F 
ENDBRANCH  48  62
BRANCH  49  73
ATOM     73  C   UNL A   1      42.574  26.444  27.658  1.00  0.00     0.064 A 
ATOM     74  C   UNL A   1      42.107  25.144  27.422  1.00  0.00     0.173 A 
ATOM     75  C   UNL A   1      43.520  26.970  26.766  1.00  0.00     0.173 A 
ATOM     76  F   UNL A   1      41.213  24.593  28.256  1.00  0.00    -0.203 F 
ATOM     77  C   UNL A   1      42.582  24.392  26.349  1.00  0.00     0.198 A 
ATOM     78  C   UNL A   1      43.976  26.225  25.680  1.00  0.00     0.198 A 
ATOM     79  F   UNL A   1      43.990  28.213  26.943  1.00  0.00    -0.203 F 
ATOM     80  F   UNL A   1      42.145  23.137  26.170  1.00  0.00    -0.200 F 
ATOM     81  C   UNL A   1      43.511  24.934  25.476  1.00  0.00     0.200 A 
ATOM     82  F   UNL A   1      44.863  26.758  24.829  1.00  0.00    -0.200 F 
ATOM     83  F   UNL A   1      43.963  24.212  24.442  1.00  0.00    -0.200 F 
ENDBRANCH  49  73
BRANCH  61  84
ATOM     84  C   UNL A   1      44.699  27.267  34.240  1.00  0.00     0.064 A 
ATOM     85  C   UNL A   1      44.559  26.050  34.924  1.00  0.00     0.173 A 
ATOM     86  C   UNL A   1      45.950  27.899  34.264  1.00  0.00     0.173 A 
ATOM     87  F   UNL A   1      43.376  25.418  34.942  1.00  0.00    -0.203 F 
ATOM     88  C   UNL A   1      45.630  25.495  35.619  1.00  0.00     0.198 A 
ATOM     89  C   UNL A   1      47.025  27.329  34.939  1.00  0.00     0.198 A 
ATOM     90  F   UNL A   1      46.132  29.062  33.622  1.00  0.00    -0.203 F 
ATOM     91  F   UNL A   1      45.465  24.352  36.297  1.00  0.00    -0.200 F 
ATOM     92  C   UNL A   1      46.864  26.131  35.620  1.00  0.00     0.200 A 
ATOM     93  F   UNL A   1      48.219  27.938  34.931  1.00  0.00    -0.200 F 
ATOM     94  F   UNL A   1      47.895  25.591  36.282  1.00  0.00    -0.200 F 
ENDBRANCH  61  84
ENDBRANCH  35  36
ENDBRANCH  27  30
ENDBRANCH  25  26
ENDBRANCH  24  25
ENDBRANCH   1  24
TORSDOF 14
ENDMDL
MODEL 2
REMARK VINA RESULT:     -12.6      1.420      3.688
REMARK SMILES CC(=O)N[C@@H](CCc1nc2ccccc2[nH]1)C(=O)NCCCNC(=O)c1ccc(-c2c3nc(c(-c4c(F)c(F)c(F)c(F)c4F)c4ccc([nH]4)c(-c4c(F)c(F)c(F)c(F)c4F)c4nc(c(-c5c(F)c(F)c(F)c(F)c5F)c5ccc2[nH]5)C=C4)C=C3)cc1
REMARK SMILES IDX 20 1 19 2 17 3 18 4 5 6 4 7 1 8 2 9 3 10 6 12 7 13 8 14 9 15
REMARK SMILES IDX 16 16 10 17 15 18 11 20 14 21 12 22 13 23 21 24 22 25 23 26
REMARK SMILES IDX 24 27 25 29 26 30 27 31 88 32 28 33 87 34 29 35 30 36 31 37
REMARK SMILES IDX 81 38 32 39 86 40 80 41 82 42 33 43 85 44 79 45 78 46 34 48
REMARK SMILES IDX 66 49 46 50 65 51 47 52 50 53 64 54 83 55 48 56 49 57 63 59
REMARK SMILES IDX 84 60 51 61 35 62 36 63 44 64 37 65 38 66 42 67 45 68 39 69
REMARK SMILES IDX 40 70 43 71 41 72 67 73 68 74 76 75 69 76 70 77 74 78 77 79
REMARK SMILES IDX 71 80 72 81 75 82 73 83 52 84 53 85 61 86 54 87 55 88 59 89
REMARK SMILES IDX 62 90 56 91 57 92 60 93 58 94
REMARK H PARENT 19 5 4 11 16 19 23 28 82 47 50 58
REMARK Flexibility Score: inf
ROOT
ATOM      1  C   UNL A   1      32.180  27.987  27.455  1.00  0.00     0.117 C 
ENDROOT
BRANCH   1   2
ATOM      2  N   UNL A   1      31.308  26.977  26.894  1.00  0.00    -0.354 N 
ATOM      3  C   UNL A   1      31.464  26.124  25.839  1.00  0.00     0.242 C 
ATOM      4  O   UNL A   1      30.537  25.335  25.632  1.00  0.00    -0.273 OA
ATOM      5  H   UNL A   1      30.445  26.886  27.360  1.00  0.00     0.163 HD
BRANCH   3   6
ATOM      6  C   UNL A   1      32.744  26.067  24.966  1.00  0.00     0.171 C 
BRANCH   6   7
ATOM      7  N   UNL A   1      32.953  24.753  24.354  1.00  0.00    -0.345 N 
ATOM      8  C   UNL A   1      35.172  24.365  25.376  1.00  0.00     0.114 C 
ATOM      9  C   UNL A   1      33.974  23.880  24.603  1.00  0.00     0.217 C 
ATOM     10  O   UNL A   1      33.897  22.734  24.164  1.00  0.00    -0.275 OA
ATOM     11  H   UNL A   1      32.285  24.467  23.690  1.00  0.00     0.164 HD
ENDBRANCH   6   7
BRANCH   6  12
ATOM     12  C   UNL A   1      32.977  27.206  23.954  1.00  0.00     0.043 C 
BRANCH  12  13
ATOM     13  C   UNL A   1      32.132  27.254  22.676  1.00  0.00     0.078 C 
BRANCH  13  14
ATOM     14  C   UNL A   1      30.974  28.187  22.793  1.00  0.00     0.107 A 
ATOM     15  N   UNL A   1      29.989  28.310  21.929  1.00  0.00    -0.233 NA
ATOM     16  N   UNL A   1      30.817  29.073  23.831  1.00  0.00    -0.342 N 
ATOM     17  C   UNL A   1      29.287  29.421  22.322  1.00  0.00     0.089 A 
ATOM     18  C   UNL A   1      29.818  29.952  23.490  1.00  0.00     0.065 A 
ATOM     19  H   UNL A   1      31.331  29.080  24.671  1.00  0.00     0.168 HD
ATOM     20  C   UNL A   1      28.195  30.051  21.712  1.00  0.00     0.030 A 
ATOM     21  C   UNL A   1      29.342  31.124  24.080  1.00  0.00     0.028 A 
ATOM     22  C   UNL A   1      27.703  31.235  22.277  1.00  0.00     0.002 A 
ATOM     23  C   UNL A   1      28.278  31.766  23.433  1.00  0.00     0.002 A 
ENDBRANCH  13  14
ENDBRANCH  12  13
ENDBRANCH   6  12
ENDBRANCH   3   6
ENDBRANCH   1   2
BRANCH   1  24
ATOM     24  C   UNL A   1      31.679  29.412  27.267  1.00  0.00     0.042 C 
BRANCH  24  25
ATOM     25  C   UNL A   1      32.628  30.362  26.550  1.00  0.00     0.118 C 
BRANCH  25  26
ATOM     26  N   UNL A   1      32.619  31.725  27.062  1.00  0.00    -0.352 N 
ATOM     27  C   UNL A   1      33.612  32.457  27.677  1.00  0.00     0.251 C 
ATOM     28  H   UNL A   1      31.765  32.201  26.951  1.00  0.00     0.163 HD
ATOM     29  O   UNL A   1      33.382  33.594  28.060  1.00  0.00    -0.269 OA
BRANCH  27  30
ATOM     30  C   UNL A   1      34.929  31.829  27.926  1.00  0.00     0.039 A 
ATOM     31  C   UNL A   1      36.034  32.656  28.145  1.00  0.00     0.014 A 
ATOM     32  C   UNL A   1      35.044  30.446  28.062  1.00  0.00     0.014 A 
ATOM     33  C   UNL A   1      37.208  32.105  28.658  1.00  0.00     0.010 A 
ATOM     34  C   UNL A   1      36.171  29.916  28.673  1.00  0.00     0.010 A 
ATOM     35  C   UNL A   1      37.250  30.745  29.010  1.00  0.00    -0.014 A 
BRANCH  35  36
ATOM     36  C   UNL A   1      38.374  30.192  29.804  1.00  0.00     0.031 A 
ATOM     37  C   UNL A   1      38.584  30.624  31.225  1.00  0.00     0.074 A 
ATOM     38  C   UNL A   1      39.269  29.384  29.197  1.00  0.00     0.049 A 
ATOM     39  N   UNL A   1      39.551  30.313  32.048  1.00  0.00    -0.248 NA
ATOM     40  C   UNL A   1      37.599  31.565  31.781  1.00  0.00     0.031 C 
ATOM     41  C   UNL A   1      39.223  28.974  27.791  1.00  0.00     0.029 A 
ATOM     42  N   UNL A   1      40.398  28.771  29.680  1.00  0.00    -0.354 N 
ATOM     43  C   UNL A   1      39.304  31.035  33.207  1.00  0.00     0.074 A 
ATOM     44  C   UNL A   1      38.130  31.844  32.962  1.00  0.00     0.031 C 
ATOM     45  C   UNL A   1      40.253  28.151  27.536  1.00  0.00     0.029 A 
ATOM     46  C   UNL A   1      41.050  28.002  28.747  1.00  0.00     0.049 A 
ATOM     47  H   UNL A   1      40.710  28.873  30.608  1.00  0.00     0.167 HD
ATOM     48  C   UNL A   1      39.981  31.005  34.380  1.00  0.00     0.037 A 
ATOM     49  C   UNL A   1      42.166  27.257  28.859  1.00  0.00     0.037 A 
ATOM     50  C   UNL A   1      41.124  30.167  34.627  1.00  0.00     0.049 A 
ATOM     51  C   UNL A   1      42.864  27.194  30.188  1.00  0.00     0.074 A 
ATOM     52  C   UNL A   1      41.834  29.998  35.801  1.00  0.00     0.029 A 
ATOM     53  N   UNL A   1      41.721  29.352  33.675  1.00  0.00    -0.354 N 
ATOM     54  N   UNL A   1      42.567  27.810  31.306  1.00  0.00    -0.248 NA
ATOM     55  C   UNL A   1      44.046  26.325  30.276  1.00  0.00     0.031 C 
ATOM     56  C   UNL A   1      42.881  29.103  35.553  1.00  0.00     0.029 A 
ATOM     57  C   UNL A   1      42.800  28.686  34.233  1.00  0.00     0.049 A 
ATOM     58  H   UNL A   1      41.422  29.261  32.742  1.00  0.00     0.167 HD
ATOM     59  C   UNL A   1      43.508  27.390  32.236  1.00  0.00     0.074 A 
ATOM     60  C   UNL A   1      44.377  26.452  31.554  1.00  0.00     0.031 C 
ATOM     61  C   UNL A   1      43.643  27.751  33.535  1.00  0.00     0.037 A 
BRANCH  48  62
ATOM     62  C   UNL A   1      39.487  31.895  35.482  1.00  0.00     0.064 A 
ATOM     63  C   UNL A   1      39.950  33.212  35.624  1.00  0.00     0.173 A 
ATOM     64  C   UNL A   1      38.535  31.430  36.403  1.00  0.00     0.173 A 
ATOM     65  F   UNL A   1      40.871  33.698  34.779  1.00  0.00    -0.203 F 
ATOM     66  C   UNL A   1      39.506  34.019  36.668  1.00  0.00     0.198 A 
ATOM     67  C   UNL A   1      38.072  32.250  37.429  1.00  0.00     0.198 A 
ATOM     68  F   UNL A   1      38.059  30.180  36.310  1.00  0.00    -0.203 F 
ATOM     69  F   UNL A   1      40.006  35.253  36.817  1.00  0.00    -0.200 F 
ATOM     70  C   UNL A   1      38.564  33.539  37.566  1.00  0.00     0.200 A 
ATOM     71  F   UNL A   1      37.156  31.789  38.290  1.00  0.00    -0.200 F 
ATOM     72  F   UNL A   1      38.139  34.317  38.571  1.00  0.00    -0.200 F 
ENDBRANCH  48  62
BRANCH  49  73
ATOM     73  C   UNL A   1      42.658  26.474  27.696  1.00  0.00     0.064 A 
ATOM     74  C   UNL A   1      42.163  25.189  27.436  1.00  0.00     0.173 A 
ATOM     75  C   UNL A   1      43.619  26.993  26.817  1.00  0.00     0.173 A 
ATOM     76  F   UNL A   1      41.254  24.644  28.258  1.00  0.00    -0.203 F 
ATOM     77  C   UNL A   1      42.625  24.444  26.353  1.00  0.00     0.198 A 
ATOM     78  C   UNL A   1      44.063  26.256  25.720  1.00  0.00     0.198 A 
ATOM     79  F   UNL A   1      44.117  28.222  27.016  1.00  0.00    -0.203 F 
ATOM     80  F   UNL A   1      42.162  23.203  26.151  1.00  0.00    -0.200 F 
ATOM     81  C   UNL A   1      43.570  24.980  25.492  1.00  0.00     0.200 A 
ATOM     82  F   UNL A   1      44.966  26.784  24.882  1.00  0.00    -0.200 F 
ATOM     83  F   UNL A   1      44.010  24.266  24.448  1.00  0.00    -0.200 F 
ENDBRANCH  49  73
BRANCH  61  84
ATOM     84  C   UNL A   1      44.754  27.109  34.308  1.00  0.00     0.064 A 
ATOM     85  C   UNL A   1      46.017  27.710  34.409  1.00  0.00     0.173 A 
ATOM     86  C   UNL A   1      44.538  25.904  34.991  1.00  0.00     0.173 A 
ATOM     87  F   UNL A   1      46.274  28.855  33.760  1.00  0.00    -0.203 F 
ATOM     88  C   UNL A   1      47.032  27.116  35.154  1.00  0.00     0.198 A 
ATOM     89  C   UNL A   1      45.547  25.326  35.756  1.00  0.00     0.198 A 
ATOM     90  F   UNL A   1      43.345  25.295  34.927  1.00  0.00    -0.203 F 
ATOM     91  F   UNL A   1      48.242  27.686  35.207  1.00  0.00    -0.200 F 
ATOM     92  C   UNL A   1      46.794  25.929  35.833  1.00  0.00     0.200 A 
ATOM     93  F   UNL A   1      45.314  24.185  36.418  1.00  0.00    -0.200 F 
ATOM     94  F   UNL A   1      47.769  25.363  36.555  1.00  0.00    -0.200 F 
ENDBRANCH  61  84
ENDBRANCH  35  36
ENDBRANCH  27  30
ENDBRANCH  25  26
ENDBRANCH  24  25
ENDBRANCH   1  24
TORSDOF 14
ENDMDL
MODEL 3
REMARK VINA RESULT:     -12.5      4.656      9.739
REMARK SMILES CC(=O)N[C@@H](CCc1nc2ccccc2[nH]1)C(=O)NCCCNC(=O)c1ccc(-c2c3nc(c(-c4c(F)c(F)c(F)c(F)c4F)c4ccc([nH]4)c(-c4c(F)c(F)c(F)c(F)c4F)c4nc(c(-c5c(F)c(F)c(F)c(F)c5F)c5ccc2[nH]5)C=C4)C=C3)cc1
REMARK SMILES IDX 20 1 19 2 17 3 18 4 5 6 4 7 1 8 2 9 3 10 6 12 7 13 8 14 9 15
REMARK SMILES IDX 16 16 10 17 15 18 11 20 14 21 12 22 13 23 21 24 22 25 23 26
REMARK SMILES IDX 24 27 25 29 26 30 27 31 88 32 28 33 87 34 29 35 30 36 31 37
REMARK SMILES IDX 81 38 32 39 86 40 80 41 82 42 33 43 85 44 79 45 78 46 34 48
REMARK SMILES IDX 66 49 46 50 65 51 47 52 50 53 64 54 83 55 48 56 49 57 63 59
REMARK SMILES IDX 84 60 51 61 35 62 36 63 44 64 37 65 38 66 42 67 45 68 39 69
REMARK SMILES IDX 40 70 43 71 41 72 67 73 68 74 76 75 69 76 70 77 74 78 77 79
REMARK SMILES IDX 71 80 72 81 75 82 73 83 52 84 53 85 61 86 54 87 55 88 59 89
REMARK SMILES IDX 62 90 56 91 57 92 60 93 58 94
REMARK H PARENT 19 5 4 11 16 19 23 28 82 47 50 58
REMARK Flexibility Score: inf
ROOT
ATOM      1  C   UNL A   1      36.566  23.276  23.835  1.00  0.00     0.117 C 
ENDROOT
BRANCH   1   2
ATOM      2  N   UNL A   1      35.818  23.899  24.906  1.00  0.00    -0.354 N 
ATOM      3  C   UNL A   1      34.487  24.164  25.053  1.00  0.00     0.242 C 
ATOM      4  O   UNL A   1      34.146  24.679  26.122  1.00  0.00    -0.273 OA
ATOM      5  H   UNL A   1      36.371  24.182  25.670  1.00  0.00     0.163 HD
BRANCH   3   6
ATOM      6  C   UNL A   1      33.418  23.793  23.992  1.00  0.00     0.171 C 
BRANCH   6   7
ATOM      7  N   UNL A   1      33.683  24.399  22.686  1.00  0.00    -0.345 N 
ATOM      8  C   UNL A   1      31.498  25.545  22.506  1.00  0.00     0.114 C 
ATOM      9  C   UNL A   1      32.904  25.304  22.023  1.00  0.00     0.217 C 
ATOM     10  O   UNL A   1      33.363  25.873  21.034  1.00  0.00    -0.275 OA
ATOM     11  H   UNL A   1      34.514  24.124  22.236  1.00  0.00     0.164 HD
ENDBRANCH   6   7
BRANCH   6  12
ATOM     12  C   UNL A   1      33.021  22.310  23.858  1.00  0.00     0.043 C 
BRANCH  12  13
ATOM     13  C   UNL A   1      32.689  21.508  25.122  1.00  0.00     0.078 C 
BRANCH  13  14
ATOM     14  C   UNL A   1      32.939  20.048  24.952  1.00  0.00     0.107 A 
ATOM     15  N   UNL A   1      32.089  19.081  25.225  1.00  0.00    -0.233 NA
ATOM     16  N   UNL A   1      34.131  19.529  24.508  1.00  0.00    -0.342 N 
ATOM     17  C   UNL A   1      32.808  17.917  25.134  1.00  0.00     0.089 A 
ATOM     18  C   UNL A   1      34.113  18.175  24.732  1.00  0.00     0.065 A 
ATOM     19  H   UNL A   1      34.869  20.038  24.102  1.00  0.00     0.168 HD
ATOM     20  C   UNL A   1      32.417  16.599  25.404  1.00  0.00     0.030 A 
ATOM     21  C   UNL A   1      35.086  17.180  24.620  1.00  0.00     0.028 A 
ATOM     22  C   UNL A   1      33.376  15.583  25.309  1.00  0.00     0.002 A 
ATOM     23  C   UNL A   1      34.690  15.874  24.936  1.00  0.00     0.002 A 
ENDBRANCH  13  14
ENDBRANCH  12  13
ENDBRANCH   6  12
ENDBRANCH   3   6
ENDBRANCH   1   2
BRANCH   1  24
ATOM     24  C   UNL A   1      36.978  21.839  24.120  1.00  0.00     0.042 C 
BRANCH  24  25
ATOM     25  C   UNL A   1      37.414  21.542  25.548  1.00  0.00     0.118 C 
BRANCH  25  26
ATOM     26  N   UNL A   1      38.639  20.761  25.656  1.00  0.00    -0.352 N 
ATOM     27  C   UNL A   1      39.844  21.064  26.252  1.00  0.00     0.251 C 
ATOM     28  H   UNL A   1      38.599  19.873  25.234  1.00  0.00     0.163 HD
ATOM     29  O   UNL A   1      40.765  20.263  26.203  1.00  0.00    -0.269 OA
BRANCH  27  30
ATOM     30  C   UNL A   1      40.028  22.386  26.889  1.00  0.00     0.039 A 
ATOM     31  C   UNL A   1      40.995  22.520  27.889  1.00  0.00     0.014 A 
ATOM     32  C   UNL A   1      39.339  23.504  26.420  1.00  0.00     0.014 A 
ATOM     33  C   UNL A   1      41.384  23.795  28.297  1.00  0.00     0.010 A 
ATOM     34  C   UNL A   1      39.800  24.772  26.745  1.00  0.00     0.010 A 
ATOM     35  C   UNL A   1      40.851  24.929  27.661  1.00  0.00    -0.014 A 
BRANCH  35  36
ATOM     36  C   UNL A   1      41.435  26.276  27.875  1.00  0.00     0.031 A 
ATOM     37  C   UNL A   1      42.816  26.590  27.380  1.00  0.00     0.074 A 
ATOM     38  C   UNL A   1      40.755  27.173  28.617  1.00  0.00     0.049 A 
ATOM     39  N   UNL A   1      43.522  27.679  27.541  1.00  0.00    -0.248 NA
ATOM     40  C   UNL A   1      43.512  25.524  26.642  1.00  0.00     0.031 C 
ATOM     41  C   UNL A   1      39.446  26.945  29.235  1.00  0.00     0.029 A 
ATOM     42  N   UNL A   1      41.073  28.456  28.990  1.00  0.00    -0.354 N 
ATOM     43  C   UNL A   1      44.750  27.421  26.946  1.00  0.00     0.074 A 
ATOM     44  C   UNL A   1      44.714  26.055  26.472  1.00  0.00     0.031 C 
ATOM     45  C   UNL A   1      39.058  28.058  29.877  1.00  0.00     0.029 A 
ATOM     46  C   UNL A   1      40.103  29.067  29.747  1.00  0.00     0.049 A 
ATOM     47  H   UNL A   1      41.917  28.895  28.738  1.00  0.00     0.167 HD
ATOM     48  C   UNL A   1      45.801  28.259  26.787  1.00  0.00     0.037 A 
ATOM     49  C   UNL A   1      40.061  30.306  30.273  1.00  0.00     0.037 A 
ATOM     50  C   UNL A   1      45.812  29.628  27.227  1.00  0.00     0.049 A 
ATOM     51  C   UNL A   1      41.216  31.236  30.030  1.00  0.00     0.074 A 
ATOM     52  C   UNL A   1      46.792  30.587  27.045  1.00  0.00     0.029 A 
ATOM     53  N   UNL A   1      44.785  30.234  27.936  1.00  0.00    -0.354 N 
ATOM     54  N   UNL A   1      42.335  31.010  29.385  1.00  0.00    -0.248 NA
ATOM     55  C   UNL A   1      41.101  32.593  30.578  1.00  0.00     0.031 C 
ATOM     56  C   UNL A   1      46.371  31.765  27.671  1.00  0.00     0.029 A 
ATOM     57  C   UNL A   1      45.112  31.551  28.211  1.00  0.00     0.049 A 
ATOM     58  H   UNL A   1      43.948  29.792  28.205  1.00  0.00     0.167 HD
ATOM     59  C   UNL A   1      43.048  32.199  29.430  1.00  0.00     0.074 A 
ATOM     60  C   UNL A   1      42.226  33.150  30.152  1.00  0.00     0.031 C 
ATOM     61  C   UNL A   1      44.273  32.479  28.923  1.00  0.00     0.037 A 
BRANCH  48  62
ATOM     62  C   UNL A   1      47.016  27.714  26.095  1.00  0.00     0.064 A 
ATOM     63  C   UNL A   1      47.143  27.750  24.698  1.00  0.00     0.173 A 
ATOM     64  C   UNL A   1      48.070  27.157  26.836  1.00  0.00     0.173 A 
ATOM     65  F   UNL A   1      46.155  28.258  23.945  1.00  0.00    -0.203 F 
ATOM     66  C   UNL A   1      48.261  27.215  24.065  1.00  0.00     0.198 A 
ATOM     67  C   UNL A   1      49.201  26.649  26.200  1.00  0.00     0.198 A 
ATOM     68  F   UNL A   1      48.001  27.100  28.173  1.00  0.00    -0.203 F 
ATOM     69  F   UNL A   1      48.332  27.209  22.727  1.00  0.00    -0.200 F 
ATOM     70  C   UNL A   1      49.292  26.671  24.817  1.00  0.00     0.200 A 
ATOM     71  F   UNL A   1      50.199  26.131  26.928  1.00  0.00    -0.200 F 
ATOM     72  F   UNL A   1      50.367  26.156  24.206  1.00  0.00    -0.200 F 
ENDBRANCH  48  62
BRANCH  49  73
ATOM     73  C   UNL A   1      38.864  30.751  31.034  1.00  0.00     0.064 A 
ATOM     74  C   UNL A   1      38.821  30.639  32.430  1.00  0.00     0.173 A 
ATOM     75  C   UNL A   1      37.748  31.303  30.388  1.00  0.00     0.173 A 
ATOM     76  F   UNL A   1      39.858  30.102  33.090  1.00  0.00    -0.203 F 
ATOM     77  C   UNL A   1      37.700  31.045  33.151  1.00  0.00     0.198 A 
ATOM     78  C   UNL A   1      36.637  31.731  31.113  1.00  0.00     0.198 A 
ATOM     79  F   UNL A   1      37.744  31.441  29.054  1.00  0.00    -0.203 F 
ATOM     80  F   UNL A   1      37.671  30.891  34.482  1.00  0.00    -0.200 F 
ATOM     81  C   UNL A   1      36.611  31.596  32.493  1.00  0.00     0.200 A 
ATOM     82  F   UNL A   1      35.593  32.277  30.475  1.00  0.00    -0.200 F 
ATOM     83  F   UNL A   1      35.536  31.991  33.187  1.00  0.00    -0.200 F 
ENDBRANCH  49  73
BRANCH  61  84
ATOM     84  C   UNL A   1      44.785  33.875  29.109  1.00  0.00     0.064 A 
ATOM     85  C   UNL A   1      45.576  34.223  30.213  1.00  0.00     0.173 A 
ATOM     86  C   UNL A   1      44.519  34.861  28.149  1.00  0.00     0.173 A 
ATOM     87  F   UNL A   1      45.843  33.316  31.165  1.00  0.00    -0.203 F 
ATOM     88  C   UNL A   1      46.068  35.516  30.359  1.00  0.00     0.198 A 
ATOM     89  C   UNL A   1      45.033  36.147  28.285  1.00  0.00     0.198 A 
ATOM     90  F   UNL A   1      43.770  34.574  27.074  1.00  0.00    -0.203 F 
ATOM     91  F   UNL A   1      46.790  35.839  31.440  1.00  0.00    -0.200 F 
ATOM     92  C   UNL A   1      45.803  36.475  29.391  1.00  0.00     0.200 A 
ATOM     93  F   UNL A   1      44.784  37.069  27.345  1.00  0.00    -0.200 F 
ATOM     94  F   UNL A   1      46.284  37.717  29.529  1.00  0.00    -0.200 F 
ENDBRANCH  61  84
ENDBRANCH  35  36
ENDBRANCH  27  30
ENDBRANCH  25  26
ENDBRANCH  24  25
ENDBRANCH   1  24
TORSDOF 14
ENDMDL
