MODEL 1
REMARK VINA RESULT:     -12.8      0.000      0.000
REMARK SMILES CSCC[C@H](C(=O)NCCCNC(=O)c1ccc(-c2c3nc(c(-c4c(F)c(F)c(F)c(F)c4F)c4ccc([nH]4)c(-c4c(F)c(F)c(F)c(F)c4F)c4nc(c(-c5c(F)c(F)c(F)c(F)c5F)c5ccc2[nH]5)C=C4)C=C3)cc1)N1C(=O)/C(=C/c2ccc3ncccc3c2)SC1=S
REMARK SMILES IDX 9 1 8 2 6 3 7 4 5 6 4 7 3 8 2 9 1 10 78 11 79 12 94 13 80 14
REMARK SMILES IDX 81 15 93 16 95 17 82 18 83 19 84 20 92 21 85 22 91 23 86 24
REMARK SMILES IDX 90 25 87 26 89 27 88 28 10 29 11 30 12 31 13 32 14 34 15 35
REMARK SMILES IDX 16 36 77 37 17 38 76 39 18 40 19 41 20 42 70 43 21 44 75 45
REMARK SMILES IDX 69 46 71 47 22 48 74 49 68 50 67 51 23 53 55 54 35 55 54 56
REMARK SMILES IDX 36 57 39 58 53 59 72 60 37 61 38 62 52 64 73 65 40 66 24 67
REMARK SMILES IDX 25 68 33 69 26 70 27 71 31 72 34 73 28 74 29 75 32 76 30 77
REMARK SMILES IDX 56 78 57 79 65 80 58 81 59 82 63 83 66 84 60 85 61 86 64 87
REMARK SMILES IDX 62 88 41 89 42 90 50 91 43 92 44 93 48 94 51 95 45 96 46 97
REMARK SMILES IDX 49 98 47 99
REMARK H PARENT 8 5 12 33 71 52 39 63
REMARK Flexibility Score: inf
ROOT
ATOM      1  C   UNL A   1      31.150  31.130  26.477  1.00  0.00     0.117 C 
ENDROOT
BRANCH   1   2
ATOM      2  N   UNL A   1      32.416  30.449  26.306  1.00  0.00    -0.354 N 
ATOM      3  C   UNL A   1      32.791  29.271  25.751  1.00  0.00     0.243 C 
ATOM      4  O   UNL A   1      33.988  28.989  25.912  1.00  0.00    -0.273 OA
ATOM      5  H   UNL A   1      33.175  30.956  26.675  1.00  0.00     0.163 HD
BRANCH   3   6
ATOM      6  C   UNL A   1      31.858  28.237  25.059  1.00  0.00     0.182 C 
BRANCH   6   7
ATOM      7  C   UNL A   1      30.972  28.983  24.039  1.00  0.00     0.046 C 
BRANCH   7   8
ATOM      8  C   UNL A   1      29.768  28.249  23.440  1.00  0.00     0.072 C 
BRANCH   8   9
ATOM      9  S   UNL A   1      28.525  29.297  22.620  1.00  0.00    -0.165 SA
ATOM     10  C   UNL A   1      28.816  30.878  23.452  1.00  0.00     0.085 C 
ENDBRANCH   8   9
ENDBRANCH   7   8
ENDBRANCH   6   7
BRANCH   6  11
ATOM     11  N   UNL A   1      32.444  26.941  24.663  1.00  0.00    -0.280 N 
ATOM     12  C   UNL A   1      32.252  25.906  25.585  1.00  0.00     0.266 C 
ATOM     13  C   UNL A   1      33.190  26.617  23.546  1.00  0.00     0.149 C 
ATOM     14  O   UNL A   1      31.730  26.004  26.683  1.00  0.00    -0.268 OA
ATOM     15  C   UNL A   1      32.811  24.633  25.073  1.00  0.00     0.081 C 
ATOM     16  S   UNL A   1      33.573  24.901  23.560  1.00  0.00    -0.054 SA
ATOM     17  S   UNL A   1      33.750  27.560  22.289  1.00  0.00    -0.052 S 
ATOM     18  C   UNL A   1      32.712  23.476  25.743  1.00  0.00     0.029 C 
BRANCH  18  19
ATOM     19  C   UNL A   1      33.336  22.241  25.261  1.00  0.00    -0.024 A 
ATOM     20  C   UNL A   1      34.600  21.852  25.698  1.00  0.00     0.010 A 
ATOM     21  C   UNL A   1      32.590  21.376  24.456  1.00  0.00     0.018 A 
ATOM     22  C   UNL A   1      35.079  20.575  25.381  1.00  0.00     0.029 A 
ATOM     23  C   UNL A   1      33.056  20.084  24.184  1.00  0.00     0.001 A 
ATOM     24  C   UNL A   1      34.316  19.665  24.657  1.00  0.00     0.070 A 
ATOM     25  C   UNL A   1      32.263  19.167  23.485  1.00  0.00     0.012 A 
ATOM     26  N   UNL A   1      34.773  18.418  24.452  1.00  0.00    -0.256 NA
ATOM     27  C   UNL A   1      32.723  17.873  23.295  1.00  0.00     0.021 A 
ATOM     28  C   UNL A   1      33.972  17.550  23.791  1.00  0.00     0.112 A 
ENDBRANCH  18  19
ENDBRANCH   6  11
ENDBRANCH   3   6
ENDBRANCH   1   2
BRANCH   1  29
ATOM     29  C   UNL A   1      31.332  32.642  26.510  1.00  0.00     0.042 C 
BRANCH  29  30
ATOM     30  C   UNL A   1      32.575  33.068  27.277  1.00  0.00     0.118 C 
BRANCH  30  31
ATOM     31  N   UNL A   1      32.469  34.453  27.726  1.00  0.00    -0.352 N 
ATOM     32  C   UNL A   1      33.027  35.082  28.812  1.00  0.00     0.251 C 
ATOM     33  H   UNL A   1      31.908  35.029  27.159  1.00  0.00     0.163 HD
ATOM     34  O   UNL A   1      32.555  36.147  29.198  1.00  0.00    -0.269 OA
BRANCH  32  35
ATOM     35  C   UNL A   1      34.187  34.492  29.517  1.00  0.00     0.039 A 
ATOM     36  C   UNL A   1      33.996  33.881  30.761  1.00  0.00     0.014 A 
ATOM     37  C   UNL A   1      35.474  34.592  28.988  1.00  0.00     0.014 A 
ATOM     38  C   UNL A   1      35.084  33.323  31.438  1.00  0.00     0.010 A 
ATOM     39  C   UNL A   1      36.535  33.941  29.605  1.00  0.00     0.010 A 
ATOM     40  C   UNL A   1      36.357  33.316  30.847  1.00  0.00    -0.014 A 
BRANCH  40  41
ATOM     41  C   UNL A   1      37.531  32.696  31.512  1.00  0.00     0.031 A 
ATOM     42  C   UNL A   1      38.235  31.536  30.859  1.00  0.00     0.074 A 
ATOM     43  C   UNL A   1      37.904  33.113  32.736  1.00  0.00     0.049 A 
ATOM     44  N   UNL A   1      39.187  30.770  31.330  1.00  0.00    -0.248 NA
ATOM     45  C   UNL A   1      37.778  31.160  29.511  1.00  0.00     0.031 C 
ATOM     46  C   UNL A   1      37.268  34.193  33.494  1.00  0.00     0.029 A 
ATOM     47  N   UNL A   1      38.900  32.667  33.569  1.00  0.00    -0.354 N 
ATOM     48  C   UNL A   1      39.417  29.810  30.351  1.00  0.00     0.074 A 
ATOM     49  C   UNL A   1      38.467  30.050  29.289  1.00  0.00     0.031 C 
ATOM     50  C   UNL A   1      37.902  34.340  34.668  1.00  0.00     0.029 A 
ATOM     51  C   UNL A   1      38.959  33.338  34.767  1.00  0.00     0.049 A 
ATOM     52  H   UNL A   1      39.515  31.935  33.331  1.00  0.00     0.167 HD
ATOM     53  C   UNL A   1      40.354  28.833  30.329  1.00  0.00     0.037 A 
ATOM     54  C   UNL A   1      39.765  33.155  35.829  1.00  0.00     0.037 A 
ATOM     55  C   UNL A   1      41.324  28.627  31.372  1.00  0.00     0.049 A 
ATOM     56  C   UNL A   1      40.804  32.067  35.777  1.00  0.00     0.074 A 
ATOM     57  C   UNL A   1      42.363  27.715  31.418  1.00  0.00     0.029 A 
ATOM     58  N   UNL A   1      41.372  29.350  32.556  1.00  0.00    -0.354 N 
ATOM     59  N   UNL A   1      41.057  31.209  34.818  1.00  0.00    -0.248 NA
ATOM     60  C   UNL A   1      41.673  31.926  36.953  1.00  0.00     0.031 C 
ATOM     61  C   UNL A   1      43.011  27.854  32.649  1.00  0.00     0.029 A 
ATOM     62  C   UNL A   1      42.410  28.889  33.348  1.00  0.00     0.049 A 
ATOM     63  H   UNL A   1      40.759  30.082  32.796  1.00  0.00     0.167 HD
ATOM     64  C   UNL A   1      42.129  30.447  35.261  1.00  0.00     0.074 A 
ATOM     65  C   UNL A   1      42.488  30.954  36.570  1.00  0.00     0.031 C 
ATOM     66  C   UNL A   1      42.759  29.417  34.643  1.00  0.00     0.037 A 
BRANCH  53  67
ATOM     67  C   UNL A   1      40.382  27.919  29.137  1.00  0.00     0.064 A 
ATOM     68  C   UNL A   1      39.624  26.738  29.093  1.00  0.00     0.173 A 
ATOM     69  C   UNL A   1      41.153  28.242  28.009  1.00  0.00     0.173 A 
ATOM     70  F   UNL A   1      38.877  26.376  30.148  1.00  0.00    -0.203 F 
ATOM     71  C   UNL A   1      39.663  25.900  27.982  1.00  0.00     0.198 A 
ATOM     72  C   UNL A   1      41.163  27.418  26.886  1.00  0.00     0.198 A 
ATOM     73  F   UNL A   1      41.893  29.361  27.994  1.00  0.00    -0.203 F 
ATOM     74  F   UNL A   1      38.974  24.750  27.988  1.00  0.00    -0.200 F 
ATOM     75  C   UNL A   1      40.426  26.244  26.878  1.00  0.00     0.200 A 
ATOM     76  F   UNL A   1      41.891  27.759  25.814  1.00  0.00    -0.200 F 
ATOM     77  F   UNL A   1      40.458  25.438  25.806  1.00  0.00    -0.200 F 
ENDBRANCH  53  67
BRANCH  54  78
ATOM     78  C   UNL A   1      39.639  34.036  37.019  1.00  0.00     0.064 A 
ATOM     79  C   UNL A   1      38.872  33.645  38.125  1.00  0.00     0.173 A 
ATOM     80  C   UNL A   1      40.283  35.282  37.081  1.00  0.00     0.173 A 
ATOM     81  F   UNL A   1      38.222  32.472  38.107  1.00  0.00    -0.203 F 
ATOM     82  C   UNL A   1      38.733  34.474  39.236  1.00  0.00     0.198 A 
ATOM     83  C   UNL A   1      40.167  36.097  38.206  1.00  0.00     0.198 A 
ATOM     84  F   UNL A   1      41.035  35.701  36.054  1.00  0.00    -0.203 F 
ATOM     85  F   UNL A   1      37.954  34.095  40.258  1.00  0.00    -0.200 F 
ATOM     86  C   UNL A   1      39.386  35.696  39.278  1.00  0.00     0.200 A 
ATOM     87  F   UNL A   1      40.812  37.270  38.248  1.00  0.00    -0.200 F 
ATOM     88  F   UNL A   1      39.255  36.491  40.349  1.00  0.00    -0.200 F 
ENDBRANCH  54  78
BRANCH  66  89
ATOM     89  C   UNL A   1      43.924  28.796  35.354  1.00  0.00     0.064 A 
ATOM     90  C   UNL A   1      43.760  27.715  36.233  1.00  0.00     0.173 A 
ATOM     91  C   UNL A   1      45.228  29.259  35.115  1.00  0.00     0.173 A 
ATOM     92  F   UNL A   1      42.533  27.247  36.506  1.00  0.00    -0.203 F 
ATOM     93  C   UNL A   1      44.858  27.135  36.863  1.00  0.00     0.198 A 
ATOM     94  C   UNL A   1      46.325  28.655  35.722  1.00  0.00     0.198 A 
ATOM     95  F   UNL A   1      45.438  30.285  34.277  1.00  0.00    -0.203 F 
ATOM     96  F   UNL A   1      44.674  26.134  37.735  1.00  0.00    -0.200 F 
ATOM     97  C   UNL A   1      46.138  27.599  36.602  1.00  0.00     0.200 A 
ATOM     98  F   UNL A   1      47.562  29.095  35.455  1.00  0.00    -0.200 F 
ATOM     99  F   UNL A   1      47.194  27.032  37.200  1.00  0.00    -0.200 F 
ENDBRANCH  66  89
ENDBRANCH  40  41
ENDBRANCH  32  35
ENDBRANCH  30  31
ENDBRANCH  29  30
ENDBRANCH   1  29
TORSDOF 15
ENDMDL
MODEL 2
REMARK VINA RESULT:     -12.8      0.169      1.895
REMARK SMILES CSCC[C@H](C(=O)NCCCNC(=O)c1ccc(-c2c3nc(c(-c4c(F)c(F)c(F)c(F)c4F)c4ccc([nH]4)c(-c4c(F)c(F)c(F)c(F)c4F)c4nc(c(-c5c(F)c(F)c(F)c(F)c5F)c5ccc2[nH]5)C=C4)C=C3)cc1)N1C(=O)/C(=C/c2ccc3ncccc3c2)SC1=S
REMARK SMILES IDX 9 1 8 2 6 3 7 4 5 6 4 7 3 8 2 9 1 10 78 11 79 12 94 13 80 14
REMARK SMILES IDX 81 15 93 16 95 17 82 18 83 19 84 20 92 21 85 22 91 23 86 24
REMARK SMILES IDX 90 25 87 26 89 27 88 28 10 29 11 30 12 31 13 32 14 34 15 35
REMARK SMILES IDX 16 36 77 37 17 38 76 39 18 40 19 41 20 42 70 43 21 44 75 45
REMARK SMILES IDX 69 46 71 47 22 48 74 49 68 50 67 51 23 53 55 54 35 55 54 56
REMARK SMILES IDX 36 57 39 58 53 59 72 60 37 61 38 62 52 64 73 65 40 66 24 67
REMARK SMILES IDX 25 68 33 69 26 70 27 71 31 72 34 73 28 74 29 75 32 76 30 77
REMARK SMILES IDX 56 78 57 79 65 80 58 81 59 82 63 83 66 84 60 85 61 86 64 87
REMARK SMILES IDX 62 88 41 89 42 90 50 91 43 92 44 93 48 94 51 95 45 96 46 97
REMARK SMILES IDX 49 98 47 99
REMARK H PARENT 8 5 12 33 71 52 39 63
REMARK Flexibility Score: inf
ROOT
ATOM      1  C   UNL A   1      31.158  31.087  26.356  1.00  0.00     0.117 C 
ENDROOT
BRANCH   1   2
ATOM      2  N   UNL A   1      32.418  30.422  26.100  1.00  0.00    -0.354 N 
ATOM      3  C   UNL A   1      32.771  29.249  25.520  1.00  0.00     0.243 C 
ATOM      4  O   UNL A   1      33.979  28.983  25.600  1.00  0.00    -0.273 OA
ATOM      5  H   UNL A   1      33.194  30.939  26.417  1.00  0.00     0.163 HD
BRANCH   3   6
ATOM      6  C   UNL A   1      31.806  28.203  24.891  1.00  0.00     0.182 C 
BRANCH   6   7
ATOM      7  C   UNL A   1      30.893  28.926  23.878  1.00  0.00     0.046 C 
BRANCH   7   8
ATOM      8  C   UNL A   1      29.621  28.218  23.404  1.00  0.00     0.072 C 
BRANCH   8   9
ATOM      9  S   UNL A   1      28.369  29.276  22.611  1.00  0.00    -0.165 SA
ATOM     10  C   UNL A   1      28.753  30.875  23.367  1.00  0.00     0.085 C 
ENDBRANCH   8   9
ENDBRANCH   7   8
ENDBRANCH   6   7
BRANCH   6  11
ATOM     11  N   UNL A   1      32.368  26.890  24.517  1.00  0.00    -0.280 N 
ATOM     12  C   UNL A   1      32.128  25.867  25.440  1.00  0.00     0.266 C 
ATOM     13  C   UNL A   1      33.132  26.540  23.420  1.00  0.00     0.149 C 
ATOM     14  O   UNL A   1      31.582  25.985  26.524  1.00  0.00    -0.268 OA
ATOM     15  C   UNL A   1      32.665  24.576  24.949  1.00  0.00     0.081 C 
ATOM     16  S   UNL A   1      33.470  24.816  23.453  1.00  0.00    -0.054 SA
ATOM     17  S   UNL A   1      33.746  27.461  22.171  1.00  0.00    -0.052 S 
ATOM     18  C   UNL A   1      32.521  23.426  25.623  1.00  0.00     0.029 C 
BRANCH  18  19
ATOM     19  C   UNL A   1      33.124  22.173  25.164  1.00  0.00    -0.024 A 
ATOM     20  C   UNL A   1      34.295  21.682  25.737  1.00  0.00     0.010 A 
ATOM     21  C   UNL A   1      32.436  21.393  24.230  1.00  0.00     0.018 A 
ATOM     22  C   UNL A   1      34.731  20.390  25.420  1.00  0.00     0.029 A 
ATOM     23  C   UNL A   1      32.852  20.086  23.956  1.00  0.00     0.001 A 
ATOM     24  C   UNL A   1      34.012  19.564  24.562  1.00  0.00     0.070 A 
ATOM     25  C   UNL A   1      32.101  19.253  23.119  1.00  0.00     0.012 A 
ATOM     26  N   UNL A   1      34.415  18.298  24.355  1.00  0.00    -0.256 NA
ATOM     27  C   UNL A   1      32.501  17.940  22.924  1.00  0.00     0.021 A 
ATOM     28  C   UNL A   1      33.653  17.513  23.557  1.00  0.00     0.112 A 
ENDBRANCH  18  19
ENDBRANCH   6  11
ENDBRANCH   3   6
ENDBRANCH   1   2
BRANCH   1  29
ATOM     29  C   UNL A   1      31.336  32.597  26.455  1.00  0.00     0.042 C 
BRANCH  29  30
ATOM     30  C   UNL A   1      32.546  32.994  27.285  1.00  0.00     0.118 C 
BRANCH  30  31
ATOM     31  N   UNL A   1      32.462  34.388  27.709  1.00  0.00    -0.352 N 
ATOM     32  C   UNL A   1      33.042  35.031  28.776  1.00  0.00     0.251 C 
ATOM     33  H   UNL A   1      31.899  34.959  27.140  1.00  0.00     0.163 HD
ATOM     34  O   UNL A   1      32.587  36.108  29.148  1.00  0.00    -0.269 OA
BRANCH  32  35
ATOM     35  C   UNL A   1      34.206  34.442  29.475  1.00  0.00     0.039 A 
ATOM     36  C   UNL A   1      34.012  33.776  30.690  1.00  0.00     0.014 A 
ATOM     37  C   UNL A   1      35.498  34.595  28.970  1.00  0.00     0.014 A 
ATOM     38  C   UNL A   1      35.103  33.218  31.361  1.00  0.00     0.010 A 
ATOM     39  C   UNL A   1      36.565  33.945  29.578  1.00  0.00     0.010 A 
ATOM     40  C   UNL A   1      36.385  33.267  30.791  1.00  0.00    -0.014 A 
BRANCH  40  41
ATOM     41  C   UNL A   1      37.564  32.649  31.449  1.00  0.00     0.031 A 
ATOM     42  C   UNL A   1      38.278  31.503  30.783  1.00  0.00     0.074 A 
ATOM     43  C   UNL A   1      37.933  33.056  32.678  1.00  0.00     0.049 A 
ATOM     44  N   UNL A   1      39.236  30.740  31.246  1.00  0.00    -0.248 NA
ATOM     45  C   UNL A   1      37.825  31.138  29.431  1.00  0.00     0.031 C 
ATOM     46  C   UNL A   1      37.288  34.122  33.448  1.00  0.00     0.029 A 
ATOM     47  N   UNL A   1      38.933  32.609  33.507  1.00  0.00    -0.354 N 
ATOM     48  C   UNL A   1      39.475  29.793  30.256  1.00  0.00     0.074 A 
ATOM     49  C   UNL A   1      38.523  30.037  29.197  1.00  0.00     0.031 C 
ATOM     50  C   UNL A   1      37.920  34.261  34.623  1.00  0.00     0.029 A 
ATOM     51  C   UNL A   1      38.986  33.267  34.711  1.00  0.00     0.049 A 
ATOM     52  H   UNL A   1      39.554  31.885  33.261  1.00  0.00     0.167 HD
ATOM     53  C   UNL A   1      40.421  28.824  30.224  1.00  0.00     0.037 A 
ATOM     54  C   UNL A   1      39.793  33.080  35.771  1.00  0.00     0.037 A 
ATOM     55  C   UNL A   1      41.392  28.615  31.265  1.00  0.00     0.049 A 
ATOM     56  C   UNL A   1      40.842  32.002  35.708  1.00  0.00     0.074 A 
ATOM     57  C   UNL A   1      42.439  27.712  31.301  1.00  0.00     0.029 A 
ATOM     58  N   UNL A   1      41.434  29.325  32.457  1.00  0.00    -0.354 N 
ATOM     59  N   UNL A   1      41.102  31.156  34.739  1.00  0.00    -0.248 NA
ATOM     60  C   UNL A   1      41.711  31.854  36.882  1.00  0.00     0.031 C 
ATOM     61  C   UNL A   1      43.085  27.843  32.533  1.00  0.00     0.029 A 
ATOM     62  C   UNL A   1      42.476  28.865  33.244  1.00  0.00     0.049 A 
ATOM     63  H   UNL A   1      40.814  30.049  32.705  1.00  0.00     0.167 HD
ATOM     64  C   UNL A   1      42.181  30.398  35.174  1.00  0.00     0.074 A 
ATOM     65  C   UNL A   1      42.536  30.894  36.489  1.00  0.00     0.031 C 
ATOM     66  C   UNL A   1      42.819  29.381  34.545  1.00  0.00     0.037 A 
BRANCH  53  67
ATOM     67  C   UNL A   1      40.457  27.924  29.022  1.00  0.00     0.064 A 
ATOM     68  C   UNL A   1      41.254  28.216  27.903  1.00  0.00     0.173 A 
ATOM     69  C   UNL A   1      39.709  26.737  28.997  1.00  0.00     0.173 A 
ATOM     70  F   UNL A   1      41.982  29.344  27.870  1.00  0.00    -0.203 F 
ATOM     71  C   UNL A   1      41.274  27.374  26.795  1.00  0.00     0.198 A 
ATOM     72  C   UNL A   1      39.758  25.880  27.900  1.00  0.00     0.198 A 
ATOM     73  F   UNL A   1      38.933  26.405  30.040  1.00  0.00    -0.203 F 
ATOM     74  F   UNL A   1      41.999  27.705  25.717  1.00  0.00    -0.200 F 
ATOM     75  C   UNL A   1      40.532  26.204  26.797  1.00  0.00     0.200 A 
ATOM     76  F   UNL A   1      39.050  24.742  27.910  1.00  0.00    -0.200 F 
ATOM     77  F   UNL A   1      40.557  25.390  25.732  1.00  0.00    -0.200 F 
ENDBRANCH  53  67
BRANCH  54  78
ATOM     78  C   UNL A   1      39.660  33.946  36.972  1.00  0.00     0.064 A 
ATOM     79  C   UNL A   1      40.291  35.197  37.027  1.00  0.00     0.173 A 
ATOM     80  C   UNL A   1      38.901  33.549  38.083  1.00  0.00     0.173 A 
ATOM     81  F   UNL A   1      41.042  35.614  35.998  1.00  0.00    -0.203 F 
ATOM     82  C   UNL A   1      40.188  36.006  38.157  1.00  0.00     0.198 A 
ATOM     83  C   UNL A   1      38.775  34.373  39.200  1.00  0.00     0.198 A 
ATOM     84  F   UNL A   1      38.271  32.366  38.078  1.00  0.00    -0.203 F 
ATOM     85  F   UNL A   1      40.841  37.176  38.202  1.00  0.00    -0.200 F 
ATOM     86  C   UNL A   1      39.425  35.597  39.240  1.00  0.00     0.200 A 
ATOM     87  F   UNL A   1      38.024  33.980  40.237  1.00  0.00    -0.200 F 
ATOM     88  F   UNL A   1      39.323  36.378  40.324  1.00  0.00    -0.200 F 
ENDBRANCH  54  78
BRANCH  66  89
ATOM     89  C   UNL A   1      43.990  28.762  35.249  1.00  0.00     0.064 A 
ATOM     90  C   UNL A   1      45.297  29.234  35.059  1.00  0.00     0.173 A 
ATOM     91  C   UNL A   1      43.794  27.715  36.164  1.00  0.00     0.173 A 
ATOM     92  F   UNL A   1      45.539  30.222  34.185  1.00  0.00    -0.203 F 
ATOM     93  C   UNL A   1      46.368  28.663  35.743  1.00  0.00     0.198 A 
ATOM     94  C   UNL A   1      44.862  27.170  36.868  1.00  0.00     0.198 A 
ATOM     95  F   UNL A   1      42.561  27.234  36.386  1.00  0.00    -0.203 F 
ATOM     96  F   UNL A   1      47.614  29.097  35.512  1.00  0.00    -0.200 F 
ATOM     97  C   UNL A   1      46.149  27.638  36.652  1.00  0.00     0.200 A 
ATOM     98  F   UNL A   1      44.646  26.191  37.758  1.00  0.00    -0.200 F 
ATOM     99  F   UNL A   1      47.179  27.099  37.317  1.00  0.00    -0.200 F 
ENDBRANCH  66  89
ENDBRANCH  40  41
ENDBRANCH  32  35
ENDBRANCH  30  31
ENDBRANCH  29  30
ENDBRANCH   1  29
TORSDOF 15
ENDMDL
MODEL 3
REMARK VINA RESULT:     -12.7      1.172      2.281
REMARK SMILES CSCC[C@H](C(=O)NCCCNC(=O)c1ccc(-c2c3nc(c(-c4c(F)c(F)c(F)c(F)c4F)c4ccc([nH]4)c(-c4c(F)c(F)c(F)c(F)c4F)c4nc(c(-c5c(F)c(F)c(F)c(F)c5F)c5ccc2[nH]5)C=C4)C=C3)cc1)N1C(=O)/C(=C/c2ccc3ncccc3c2)SC1=S
REMARK SMILES IDX 9 1 8 2 6 3 7 4 5 6 4 7 3 8 2 9 1 10 78 11 79 12 94 13 80 14
REMARK SMILES IDX 81 15 93 16 95 17 82 18 83 19 84 20 92 21 85 22 91 23 86 24
REMARK SMILES IDX 90 25 87 26 89 27 88 28 10 29 11 30 12 31 13 32 14 34 15 35
REMARK SMILES IDX 16 36 77 37 17 38 76 39 18 40 19 41 20 42 70 43 21 44 75 45
REMARK SMILES IDX 69 46 71 47 22 48 74 49 68 50 67 51 23 53 55 54 35 55 54 56
REMARK SMILES IDX 36 57 39 58 53 59 72 60 37 61 38 62 52 64 73 65 40 66 24 67
REMARK SMILES IDX 25 68 33 69 26 70 27 71 31 72 34 73 28 74 29 75 32 76 30 77
REMARK SMILES IDX 56 78 57 79 65 80 58 81 59 82 63 83 66 84 60 85 61 86 64 87
REMARK SMILES IDX 62 88 41 89 42 90 50 91 43 92 44 93 48 94 51 95 45 96 46 97
REMARK SMILES IDX 49 98 47 99
REMARK H PARENT 8 5 12 33 71 52 39 63
REMARK Flexibility Score: inf
ROOT
ATOM      1  C   UNL A   1      31.059  30.437  25.829  1.00  0.00     0.117 C 
ENDROOT
BRANCH   1   2
ATOM      2  N   UNL A   1      31.758  30.166  24.590  1.00  0.00    -0.354 N 
ATOM      3  C   UNL A   1      31.831  29.100  23.757  1.00  0.00     0.243 C 
ATOM      4  O   UNL A   1      32.652  29.227  22.836  1.00  0.00    -0.273 OA
ATOM      5  H   UNL A   1      32.302  30.928  24.284  1.00  0.00     0.163 HD
BRANCH   3   6
ATOM      6  C   UNL A   1      31.083  27.746  23.922  1.00  0.00     0.182 C 
BRANCH   6   7
ATOM      7  C   UNL A   1      29.791  27.794  23.079  1.00  0.00     0.046 C 
BRANCH   7   8
ATOM      8  C   UNL A   1      29.346  29.139  22.497  1.00  0.00     0.072 C 
BRANCH   8   9
ATOM      9  S   UNL A   1      27.671  29.688  22.954  1.00  0.00    -0.165 SA
ATOM     10  C   UNL A   1      28.020  31.354  23.571  1.00  0.00     0.085 C 
ENDBRANCH   8   9
ENDBRANCH   7   8
ENDBRANCH   6   7
BRANCH   6  11
ATOM     11  N   UNL A   1      31.890  26.510  23.899  1.00  0.00    -0.280 N 
ATOM     12  C   UNL A   1      32.306  26.059  25.156  1.00  0.00     0.266 C 
ATOM     13  C   UNL A   1      32.331  25.767  22.820  1.00  0.00     0.149 C 
ATOM     14  O   UNL A   1      32.131  26.627  26.221  1.00  0.00    -0.268 OA
ATOM     15  C   UNL A   1      33.047  24.781  25.040  1.00  0.00     0.081 C 
ATOM     16  S   UNL A   1      33.204  24.350  23.387  1.00  0.00    -0.054 SA
ATOM     17  S   UNL A   1      32.176  26.017  21.178  1.00  0.00    -0.052 S 
ATOM     18  C   UNL A   1      33.509  24.111  26.105  1.00  0.00     0.029 C 
BRANCH  18  19
ATOM     19  C   UNL A   1      34.306  22.889  25.971  1.00  0.00    -0.024 A 
ATOM     20  C   UNL A   1      33.721  21.683  25.593  1.00  0.00     0.010 A 
ATOM     21  C   UNL A   1      35.696  22.972  26.092  1.00  0.00     0.018 A 
ATOM     22  C   UNL A   1      34.536  20.589  25.276  1.00  0.00     0.029 A 
ATOM     23  C   UNL A   1      36.504  21.888  25.727  1.00  0.00     0.001 A 
ATOM     24  C   UNL A   1      35.924  20.676  25.303  1.00  0.00     0.070 A 
ATOM     25  C   UNL A   1      37.899  22.001  25.724  1.00  0.00     0.012 A 
ATOM     26  N   UNL A   1      36.670  19.632  24.904  1.00  0.00    -0.256 NA
ATOM     27  C   UNL A   1      38.669  20.934  25.289  1.00  0.00     0.021 A 
ATOM     28  C   UNL A   1      38.016  19.783  24.892  1.00  0.00     0.112 A 
ENDBRANCH  18  19
ENDBRANCH   6  11
ENDBRANCH   3   6
ENDBRANCH   1   2
BRANCH   1  29
ATOM     29  C   UNL A   1      31.086  31.922  26.169  1.00  0.00     0.042 C 
BRANCH  29  30
ATOM     30  C   UNL A   1      32.323  32.322  26.958  1.00  0.00     0.118 C 
BRANCH  30  31
ATOM     31  N   UNL A   1      32.274  33.730  27.340  1.00  0.00    -0.352 N 
ATOM     32  C   UNL A   1      32.937  34.407  28.334  1.00  0.00     0.251 C 
ATOM     33  H   UNL A   1      31.668  34.284  26.797  1.00  0.00     0.163 HD
ATOM     34  O   UNL A   1      32.513  35.498  28.705  1.00  0.00    -0.269 OA
BRANCH  32  35
ATOM     35  C   UNL A   1      34.152  33.838  28.959  1.00  0.00     0.039 A 
ATOM     36  C   UNL A   1      35.403  34.380  28.646  1.00  0.00     0.014 A 
ATOM     37  C   UNL A   1      34.071  32.733  29.807  1.00  0.00     0.014 A 
ATOM     38  C   UNL A   1      36.558  33.850  29.228  1.00  0.00     0.010 A 
ATOM     39  C   UNL A   1      35.204  32.278  30.471  1.00  0.00     0.010 A 
ATOM     40  C   UNL A   1      36.463  32.817  30.174  1.00  0.00    -0.014 A 
BRANCH  40  41
ATOM     41  C   UNL A   1      37.661  32.255  30.848  1.00  0.00     0.031 A 
ATOM     42  C   UNL A   1      38.455  31.165  30.178  1.00  0.00     0.074 A 
ATOM     43  C   UNL A   1      37.977  32.656  32.094  1.00  0.00     0.049 A 
ATOM     44  N   UNL A   1      39.444  30.448  30.648  1.00  0.00    -0.248 NA
ATOM     45  C   UNL A   1      38.055  30.803  28.808  1.00  0.00     0.031 C 
ATOM     46  C   UNL A   1      37.254  33.666  32.869  1.00  0.00     0.029 A 
ATOM     47  N   UNL A   1      38.982  32.249  32.937  1.00  0.00    -0.354 N 
ATOM     48  C   UNL A   1      39.760  29.538  29.647  1.00  0.00     0.074 A 
ATOM     49  C   UNL A   1      38.820  29.749  28.569  1.00  0.00     0.031 C 
ATOM     50  C   UNL A   1      37.850  33.817  34.061  1.00  0.00     0.029 A 
ATOM     51  C   UNL A   1      38.968  32.884  34.156  1.00  0.00     0.049 A 
ATOM     52  H   UNL A   1      39.649  31.568  32.692  1.00  0.00     0.167 HD
ATOM     53  C   UNL A   1      40.761  28.626  29.618  1.00  0.00     0.037 A 
ATOM     54  C   UNL A   1      39.760  32.721  35.231  1.00  0.00     0.037 A 
ATOM     55  C   UNL A   1      41.718  28.451  30.678  1.00  0.00     0.049 A 
ATOM     56  C   UNL A   1      40.871  31.706  35.172  1.00  0.00     0.074 A 
ATOM     57  C   UNL A   1      42.814  27.609  30.721  1.00  0.00     0.029 A 
ATOM     58  N   UNL A   1      41.691  29.137  31.884  1.00  0.00    -0.354 N 
ATOM     59  N   UNL A   1      41.202  30.898  34.194  1.00  0.00    -0.248 NA
ATOM     60  C   UNL A   1      41.720  31.584  36.364  1.00  0.00     0.031 C 
ATOM     61  C   UNL A   1      43.424  27.750  31.972  1.00  0.00     0.029 A 
ATOM     62  C   UNL A   1      42.740  28.720  32.687  1.00  0.00     0.049 A 
ATOM     63  H   UNL A   1      41.025  29.819  32.131  1.00  0.00     0.167 HD
ATOM     64  C   UNL A   1      42.312  30.193  34.640  1.00  0.00     0.074 A 
ATOM     65  C   UNL A   1      42.607  30.681  35.972  1.00  0.00     0.031 C 
ATOM     66  C   UNL A   1      43.022  29.228  34.006  1.00  0.00     0.037 A 
BRANCH  53  67
ATOM     67  C   UNL A   1      40.876  27.755  28.399  1.00  0.00     0.064 A 
ATOM     68  C   UNL A   1      40.212  26.521  28.307  1.00  0.00     0.173 A 
ATOM     69  C   UNL A   1      41.635  28.172  27.295  1.00  0.00     0.173 A 
ATOM     70  F   UNL A   1      39.481  26.070  29.338  1.00  0.00    -0.203 F 
ATOM     71  C   UNL A   1      40.333  25.723  27.173  1.00  0.00     0.198 A 
ATOM     72  C   UNL A   1      41.725  27.386  26.148  1.00  0.00     0.198 A 
ATOM     73  F   UNL A   1      42.287  29.344  27.325  1.00  0.00    -0.203 F 
ATOM     74  F   UNL A   1      39.735  24.524  27.133  1.00  0.00    -0.200 F 
ATOM     75  C   UNL A   1      41.082  26.159  26.092  1.00  0.00     0.200 A 
ATOM     76  F   UNL A   1      42.440  27.816  25.099  1.00  0.00    -0.200 F 
ATOM     77  F   UNL A   1      41.191  25.393  24.997  1.00  0.00    -0.200 F 
ENDBRANCH  53  67
BRANCH  54  78
ATOM     78  C   UNL A   1      39.550  33.553  36.445  1.00  0.00     0.064 A 
ATOM     79  C   UNL A   1      40.176  34.800  36.577  1.00  0.00     0.173 A 
ATOM     80  C   UNL A   1      38.721  33.125  37.493  1.00  0.00     0.173 A 
ATOM     81  F   UNL A   1      40.992  35.246  35.611  1.00  0.00    -0.203 F 
ATOM     82  C   UNL A   1      39.999  35.577  37.720  1.00  0.00     0.198 A 
ATOM     83  C   UNL A   1      38.522  33.917  38.622  1.00  0.00     0.198 A 
ATOM     84  F   UNL A   1      38.093  31.944  37.414  1.00  0.00    -0.203 F 
ATOM     85  F   UNL A   1      40.648  36.744  37.840  1.00  0.00    -0.200 F 
ATOM     86  C   UNL A   1      39.168  35.138  38.739  1.00  0.00     0.200 A 
ATOM     87  F   UNL A   1      37.706  33.496  39.598  1.00  0.00    -0.200 F 
ATOM     88  F   UNL A   1      38.996  35.888  39.836  1.00  0.00    -0.200 F 
ENDBRANCH  54  78
BRANCH  66  89
ATOM     89  C   UNL A   1      44.210  28.663  34.726  1.00  0.00     0.064 A 
ATOM     90  C   UNL A   1      45.472  29.271  34.657  1.00  0.00     0.173 A 
ATOM     91  C   UNL A   1      44.072  27.524  35.536  1.00  0.00     0.173 A 
ATOM     92  F   UNL A   1      45.659  30.353  33.886  1.00  0.00    -0.203 F 
ATOM     93  C   UNL A   1      46.557  28.746  35.355  1.00  0.00     0.198 A 
ATOM     94  C   UNL A   1      45.151  27.021  36.256  1.00  0.00     0.198 A 
ATOM     95  F   UNL A   1      42.884  26.910  35.641  1.00  0.00    -0.203 F 
ATOM     96  F   UNL A   1      47.764  29.316  35.238  1.00  0.00    -0.200 F 
ATOM     97  C   UNL A   1      46.394  27.628  36.159  1.00  0.00     0.200 A 
ATOM     98  F   UNL A   1      44.987  25.950  37.045  1.00  0.00    -0.200 F 
ATOM     99  F   UNL A   1      47.437  27.131  36.839  1.00  0.00    -0.200 F 
ENDBRANCH  66  89
ENDBRANCH  40  41
ENDBRANCH  32  35
ENDBRANCH  30  31
ENDBRANCH  29  30
ENDBRANCH   1  29
TORSDOF 15
ENDMDL
