MODEL 1
REMARK VINA RESULT:     -14.2      0.000      0.000
REMARK SMILES Cc1cccc(C[N@H+]2CC[C@@](C)(C(=O)NCCCNC(=O)c3ccc(-c4c5nc(c(-c6c(F)c(F)c(F)c(F)c6F)c6ccc([nH]6)c(-c6c(F)c(F)c(F)c(F)c6F)c6nc(c(-c7c(F)c(F)c(F)c(F)c7F)c7ccc4[nH]7)C=C6)C=C5)cc3)C2)n1
REMARK SMILES IDX 17 1 16 2 15 3 13 4 14 5 11 7 8 8 9 9 85 10 10 12 12 13 7 14
REMARK SMILES IDX 6 15 1 16 2 17 3 18 86 19 4 20 5 21 18 22 19 23 20 24 21 26
REMARK SMILES IDX 22 27 23 28 84 29 24 30 83 31 25 32 26 33 27 34 77 35 28 36
REMARK SMILES IDX 82 37 76 38 78 39 29 40 81 41 75 42 74 43 30 45 62 46 42 47
REMARK SMILES IDX 61 48 43 49 46 50 60 51 79 52 44 53 45 54 59 56 80 57 47 58
REMARK SMILES IDX 31 59 32 60 40 61 33 62 34 63 38 64 41 65 35 66 36 67 39 68
REMARK SMILES IDX 37 69 63 70 64 71 72 72 65 73 66 74 70 75 73 76 67 77 68 78
REMARK SMILES IDX 71 79 69 80 48 81 49 82 57 83 50 84 51 85 55 86 58 87 52 88
REMARK SMILES IDX 53 89 56 90 54 91
REMARK H PARENT 15 6 8 11 19 25 78 44 46 55
REMARK Flexibility Score: inf
ROOT
ATOM      1  C   UNL A   1      32.136  31.290  27.104  1.00  0.00     0.042 C 
ENDROOT
BRANCH   1   2
ATOM      2  C   UNL A   1      31.812  29.988  25.378  1.00  0.00     0.117 C 
BRANCH   2   3
ATOM      3  N   UNL A   1      32.718  29.531  24.209  1.00  0.00    -0.355 N 
ATOM      4  C   UNL A   1      33.406  28.387  23.998  1.00  0.00     0.231 C 
ATOM      5  O   UNL A   1      34.101  28.417  22.973  1.00  0.00    -0.274 OA
ATOM      6  H   UNL A   1      32.810  30.194  23.488  1.00  0.00     0.163 HD
BRANCH   4   7
ATOM      7  C   UNL A   1      33.265  27.095  24.852  1.00  0.00     0.100 C 
ATOM      8  N   UNL A   1      31.528  25.402  24.441  1.00  0.00    -0.329 N 
ATOM      9  C   UNL A   1      32.722  24.978  23.708  1.00  0.00     0.263 C 
ATOM     10  C   UNL A   1      31.861  26.600  25.239  1.00  0.00     0.279 C 
ATOM     11  H   UNL A   1      31.284  24.643  25.077  1.00  0.00     0.348 HD
ATOM     12  C   UNL A   1      33.880  25.888  24.132  1.00  0.00     0.084 C 
ATOM     13  C   UNL A   1      34.059  27.408  26.146  1.00  0.00     0.028 C 
BRANCH   8  14
ATOM     14  C   UNL A   1      30.251  25.461  23.682  1.00  0.00     0.319 C 
BRANCH  14  15
ATOM     15  C   UNL A   1      29.437  26.762  23.830  1.00  0.00     0.095 A 
ATOM     16  C   UNL A   1      29.582  30.529  21.583  1.00  0.00     0.067 C 
ATOM     17  C   UNL A   1      28.972  29.401  22.350  1.00  0.00     0.038 A 
ATOM     18  C   UNL A   1      27.204  29.284  22.650  1.00  0.00     0.023 A 
ATOM     19  N   UNL A   1      30.041  28.120  22.879  1.00  0.00    -0.252 NA
ATOM     20  C   UNL A   1      26.573  27.937  23.685  1.00  0.00     0.004 A 
ATOM     21  C   UNL A   1      27.696  26.628  24.220  1.00  0.00     0.030 A 
ENDBRANCH  14  15
ENDBRANCH   8  14
ENDBRANCH   4   7
ENDBRANCH   2   3
ENDBRANCH   1   2
BRANCH   1  22
ATOM     22  C   UNL A   1      33.284  32.536  27.483  1.00  0.00     0.118 C 
BRANCH  22  23
ATOM     23  N   UNL A   1      32.807  33.918  27.722  1.00  0.00    -0.352 N 
ATOM     24  C   UNL A   1      33.134  34.802  28.703  1.00  0.00     0.251 C 
ATOM     25  H   UNL A   1      32.150  34.248  27.068  1.00  0.00     0.163 HD
ATOM     26  O   UNL A   1      32.556  35.872  28.837  1.00  0.00    -0.269 OA
BRANCH  24  27
ATOM     27  C   UNL A   1      34.243  34.416  29.552  1.00  0.00     0.039 A 
ATOM     28  C   UNL A   1      33.989  33.729  30.735  1.00  0.00     0.014 A 
ATOM     29  C   UNL A   1      35.522  34.568  29.014  1.00  0.00     0.014 A 
ATOM     30  C   UNL A   1      35.062  33.147  31.388  1.00  0.00     0.010 A 
ATOM     31  C   UNL A   1      36.560  33.884  29.599  1.00  0.00     0.010 A 
ATOM     32  C   UNL A   1      36.339  33.202  30.804  1.00  0.00    -0.014 A 
BRANCH  32  33
ATOM     33  C   UNL A   1      37.504  32.599  31.467  1.00  0.00     0.031 A 
ATOM     34  C   UNL A   1      38.194  31.459  30.782  1.00  0.00     0.074 A 
ATOM     35  C   UNL A   1      37.849  33.018  32.695  1.00  0.00     0.049 A 
ATOM     36  N   UNL A   1      39.154  30.694  31.221  1.00  0.00    -0.248 NA
ATOM     37  C   UNL A   1      37.694  31.089  29.444  1.00  0.00     0.031 C 
ATOM     38  C   UNL A   1      37.168  34.070  33.456  1.00  0.00     0.029 A 
ATOM     39  N   UNL A   1      38.850  32.599  33.524  1.00  0.00    -0.354 N 
ATOM     40  C   UNL A   1      39.342  29.739  30.233  1.00  0.00     0.074 A 
ATOM     41  C   UNL A   1      38.346  29.963  29.215  1.00  0.00     0.031 C 
ATOM     42  C   UNL A   1      37.793  34.233  34.631  1.00  0.00     0.029 A 
ATOM     43  C   UNL A   1      38.883  33.268  34.722  1.00  0.00     0.049 A 
ATOM     44  H   UNL A   1      39.487  31.887  33.286  1.00  0.00     0.167 HD
ATOM     45  C   UNL A   1      40.294  28.783  30.173  1.00  0.00     0.037 A 
ATOM     46  C   UNL A   1      39.701  33.097  35.775  1.00  0.00     0.037 A 
ATOM     47  C   UNL A   1      41.301  28.624  31.183  1.00  0.00     0.049 A 
ATOM     48  C   UNL A   1      40.772  32.044  35.675  1.00  0.00     0.074 A 
ATOM     49  C   UNL A   1      42.384  27.770  31.195  1.00  0.00     0.029 A 
ATOM     50  N   UNL A   1      41.337  29.346  32.370  1.00  0.00    -0.354 N 
ATOM     51  N   UNL A   1      41.021  31.212  34.691  1.00  0.00    -0.248 NA
ATOM     52  C   UNL A   1      41.675  31.907  36.822  1.00  0.00     0.031 C 
ATOM     53  C   UNL A   1      43.039  27.926  32.421  1.00  0.00     0.029 A 
ATOM     54  C   UNL A   1      42.401  28.925  33.146  1.00  0.00     0.049 A 
ATOM     55  H   UNL A   1      40.699  30.053  32.622  1.00  0.00     0.167 HD
ATOM     56  C   UNL A   1      42.112  30.457  35.094  1.00  0.00     0.074 A 
ATOM     57  C   UNL A   1      42.492  30.951  36.403  1.00  0.00     0.031 C 
ATOM     58  C   UNL A   1      42.740  29.442  34.448  1.00  0.00     0.037 A 
BRANCH  45  59
ATOM     59  C   UNL A   1      40.277  27.857  28.992  1.00  0.00     0.064 A 
ATOM     60  C   UNL A   1      39.563  26.647  29.004  1.00  0.00     0.173 A 
ATOM     61  C   UNL A   1      40.995  28.179  27.832  1.00  0.00     0.173 A 
ATOM     62  F   UNL A   1      38.872  26.279  30.093  1.00  0.00    -0.203 F 
ATOM     63  C   UNL A   1      39.607  25.776  27.917  1.00  0.00     0.198 A 
ATOM     64  C   UNL A   1      41.004  27.326  26.732  1.00  0.00     0.198 A 
ATOM     65  F   UNL A   1      41.699  29.320  27.766  1.00  0.00    -0.203 F 
ATOM     66  F   UNL A   1      38.979  24.595  27.982  1.00  0.00    -0.200 F 
ATOM     67  C   UNL A   1      40.321  26.120  26.780  1.00  0.00     0.200 A 
ATOM     68  F   UNL A   1      41.686  27.665  25.629  1.00  0.00    -0.200 F 
ATOM     69  F   UNL A   1      40.360  25.283  25.734  1.00  0.00    -0.200 F 
ENDBRANCH  45  59
BRANCH  46  70
ATOM     70  C   UNL A   1      39.537  33.945  36.983  1.00  0.00     0.064 A 
ATOM     71  C   UNL A   1      40.096  35.228  37.047  1.00  0.00     0.173 A 
ATOM     72  C   UNL A   1      38.782  33.507  38.083  1.00  0.00     0.173 A 
ATOM     73  F   UNL A   1      40.832  35.690  36.025  1.00  0.00    -0.203 F 
ATOM     74  C   UNL A   1      39.921  36.036  38.171  1.00  0.00     0.198 A 
ATOM     75  C   UNL A   1      38.583  34.326  39.192  1.00  0.00     0.198 A 
ATOM     76  F   UNL A   1      38.213  32.293  38.067  1.00  0.00    -0.203 F 
ATOM     77  F   UNL A   1      40.495  37.245  38.220  1.00  0.00    -0.200 F 
ATOM     78  C   UNL A   1      39.158  35.586  39.239  1.00  0.00     0.200 A 
ATOM     79  F   UNL A   1      37.826  33.898  40.211  1.00  0.00    -0.200 F 
ATOM     80  F   UNL A   1      38.979  36.368  40.311  1.00  0.00    -0.200 F 
ENDBRANCH  46  70
BRANCH  58  81
ATOM     81  C   UNL A   1      43.899  28.801  35.150  1.00  0.00     0.064 A 
ATOM     82  C   UNL A   1      43.716  27.714  36.015  1.00  0.00     0.173 A 
ATOM     83  C   UNL A   1      45.210  29.224  34.884  1.00  0.00     0.173 A 
ATOM     84  F   UNL A   1      42.480  27.284  36.309  1.00  0.00    -0.203 F 
ATOM     85  C   UNL A   1      44.807  27.080  36.603  1.00  0.00     0.198 A 
ATOM     86  C   UNL A   1      46.299  28.566  35.445  1.00  0.00     0.198 A 
ATOM     87  F   UNL A   1      45.434  30.254  34.054  1.00  0.00    -0.203 F 
ATOM     88  F   UNL A   1      44.609  26.067  37.456  1.00  0.00    -0.200 F 
ATOM     89  C   UNL A   1      46.097  27.498  36.307  1.00  0.00     0.200 A 
ATOM     90  F   UNL A   1      47.544  28.956  35.142  1.00  0.00    -0.200 F 
ATOM     91  F   UNL A   1      47.146  26.872  36.856  1.00  0.00    -0.200 F 
ENDBRANCH  58  81
ENDBRANCH  32  33
ENDBRANCH  24  27
ENDBRANCH  22  23
ENDBRANCH   1  22
TORSDOF 12
ENDMDL
MODEL 2
REMARK VINA RESULT:     -14.1      6.190     11.456
REMARK SMILES Cc1cccc(C[N@H+]2CC[C@@](C)(C(=O)NCCCNC(=O)c3ccc(-c4c5nc(c(-c6c(F)c(F)c(F)c(F)c6F)c6ccc([nH]6)c(-c6c(F)c(F)c(F)c(F)c6F)c6nc(c(-c7c(F)c(F)c(F)c(F)c7F)c7ccc4[nH]7)C=C6)C=C5)cc3)C2)n1
REMARK SMILES IDX 17 1 16 2 15 3 13 4 14 5 11 7 8 8 9 9 85 10 10 12 12 13 7 14
REMARK SMILES IDX 6 15 1 16 2 17 3 18 86 19 4 20 5 21 18 22 19 23 20 24 21 26
REMARK SMILES IDX 22 27 23 28 84 29 24 30 83 31 25 32 26 33 27 34 77 35 28 36
REMARK SMILES IDX 82 37 76 38 78 39 29 40 81 41 75 42 74 43 30 45 62 46 42 47
REMARK SMILES IDX 61 48 43 49 46 50 60 51 79 52 44 53 45 54 59 56 80 57 47 58
REMARK SMILES IDX 31 59 32 60 40 61 33 62 34 63 38 64 41 65 35 66 36 67 39 68
REMARK SMILES IDX 37 69 63 70 64 71 72 72 65 73 66 74 70 75 73 76 67 77 68 78
REMARK SMILES IDX 71 79 69 80 48 81 49 82 57 83 50 84 51 85 55 86 58 87 52 88
REMARK SMILES IDX 53 89 56 90 54 91
REMARK H PARENT 15 6 8 11 19 25 78 44 46 55
REMARK Flexibility Score: inf
ROOT
ATOM      1  C   UNL A   1      38.117  20.829  25.044  1.00  0.00     0.042 C 
ENDROOT
BRANCH   1   2
ATOM      2  C   UNL A   1      35.955  20.991  25.325  1.00  0.00     0.117 C 
BRANCH   2   3
ATOM      3  N   UNL A   1      35.068  21.397  26.527  1.00  0.00    -0.355 N 
ATOM      4  C   UNL A   1      34.407  22.540  26.811  1.00  0.00     0.231 C 
ATOM      5  O   UNL A   1      33.865  22.527  27.925  1.00  0.00    -0.274 OA
ATOM      6  H   UNL A   1      34.969  20.694  27.209  1.00  0.00     0.163 HD
BRANCH   4   7
ATOM      7  C   UNL A   1      34.205  23.720  25.819  1.00  0.00     0.100 C 
ATOM      8  N   UNL A   1      32.394  23.776  24.155  1.00  0.00    -0.329 N 
ATOM      9  C   UNL A   1      31.908  24.482  25.341  1.00  0.00     0.263 C 
ATOM     10  C   UNL A   1      33.813  23.419  24.363  1.00  0.00     0.279 C 
ATOM     11  H   UNL A   1      32.333  24.428  23.373  1.00  0.00     0.348 HD
ATOM     12  C   UNL A   1      33.091  24.660  26.298  1.00  0.00     0.084 C 
ATOM     13  C   UNL A   1      35.568  24.459  25.826  1.00  0.00     0.028 C 
BRANCH   8  14
ATOM     14  C   UNL A   1      31.529  22.701  23.601  1.00  0.00     0.319 C 
BRANCH  14  15
ATOM     15  C   UNL A   1      32.225  21.359  23.302  1.00  0.00     0.095 A 
ATOM     16  C   UNL A   1      32.756  17.769  25.771  1.00  0.00     0.067 C 
ATOM     17  C   UNL A   1      32.539  18.573  24.529  1.00  0.00     0.038 A 
ATOM     18  C   UNL A   1      32.293  17.810  22.920  1.00  0.00     0.023 A 
ATOM     19  N   UNL A   1      32.435  20.311  24.705  1.00  0.00    -0.252 NA
ATOM     20  C   UNL A   1      32.147  18.871  21.457  1.00  0.00     0.004 A 
ATOM     21  C   UNL A   1      32.044  20.661  21.664  1.00  0.00     0.030 A 
ENDBRANCH  14  15
ENDBRANCH   8  14
ENDBRANCH   4   7
ENDBRANCH   2   3
ENDBRANCH   1   2
BRANCH   1  22
ATOM     22  C   UNL A   1      39.476  20.759  26.122  1.00  0.00     0.118 C 
BRANCH  22  23
ATOM     23  N   UNL A   1      40.342  19.557  26.125  1.00  0.00    -0.352 N 
ATOM     24  C   UNL A   1      41.699  19.451  26.125  1.00  0.00     0.251 C 
ATOM     25  H   UNL A   1      39.859  18.698  26.126  1.00  0.00     0.163 HD
ATOM     26  O   UNL A   1      42.270  18.378  26.002  1.00  0.00    -0.269 OA
BRANCH  24  27
ATOM     27  C   UNL A   1      42.424  20.690  26.328  1.00  0.00     0.039 A 
ATOM     28  C   UNL A   1      42.678  21.517  25.238  1.00  0.00     0.014 A 
ATOM     29  C   UNL A   1      42.631  21.081  27.652  1.00  0.00     0.014 A 
ATOM     30  C   UNL A   1      43.133  22.800  25.492  1.00  0.00     0.010 A 
ATOM     31  C   UNL A   1      42.961  22.391  27.899  1.00  0.00     0.010 A 
ATOM     32  C   UNL A   1      43.245  23.242  26.822  1.00  0.00    -0.014 A 
BRANCH  32  33
ATOM     33  C   UNL A   1      43.726  24.595  27.132  1.00  0.00     0.031 A 
ATOM     34  C   UNL A   1      42.734  25.599  27.635  1.00  0.00     0.074 A 
ATOM     35  C   UNL A   1      45.004  24.914  26.869  1.00  0.00     0.049 A 
ATOM     36  N   UNL A   1      42.892  26.875  27.856  1.00  0.00    -0.248 NA
ATOM     37  C   UNL A   1      41.358  25.116  27.858  1.00  0.00     0.031 C 
ATOM     38  C   UNL A   1      46.005  24.007  26.302  1.00  0.00     0.029 A 
ATOM     39  N   UNL A   1      45.673  26.094  27.028  1.00  0.00    -0.354 N 
ATOM     40  C   UNL A   1      41.635  27.343  28.206  1.00  0.00     0.074 A 
ATOM     41  C   UNL A   1      40.710  26.244  28.086  1.00  0.00     0.031 C 
ATOM     42  C   UNL A   1      47.172  24.659  26.189  1.00  0.00     0.029 A 
ATOM     43  C   UNL A   1      46.985  26.036  26.631  1.00  0.00     0.049 A 
ATOM     44  H   UNL A   1      45.255  26.907  27.394  1.00  0.00     0.167 HD
ATOM     45  C   UNL A   1      41.299  28.582  28.629  1.00  0.00     0.037 A 
ATOM     46  C   UNL A   1      47.918  27.005  26.616  1.00  0.00     0.037 A 
ATOM     47  C   UNL A   1      42.260  29.637  28.785  1.00  0.00     0.049 A 
ATOM     48  C   UNL A   1      47.528  28.369  27.116  1.00  0.00     0.074 A 
ATOM     49  C   UNL A   1      42.075  30.902  29.303  1.00  0.00     0.029 A 
ATOM     50  N   UNL A   1      43.595  29.538  28.414  1.00  0.00    -0.354 N 
ATOM     51  N   UNL A   1      46.363  28.786  27.554  1.00  0.00    -0.248 NA
ATOM     52  C   UNL A   1      48.576  29.395  27.126  1.00  0.00     0.031 C 
ATOM     53  C   UNL A   1      43.284  31.594  29.184  1.00  0.00     0.029 A 
ATOM     54  C   UNL A   1      44.240  30.738  28.650  1.00  0.00     0.049 A 
ATOM     55  H   UNL A   1      44.020  28.734  28.038  1.00  0.00     0.167 HD
ATOM     56  C   UNL A   1      46.536  30.118  27.898  1.00  0.00     0.074 A 
ATOM     57  C   UNL A   1      47.929  30.430  27.643  1.00  0.00     0.031 C 
ATOM     58  C   UNL A   1      45.629  31.007  28.375  1.00  0.00     0.037 A 
BRANCH  45  59
ATOM     59  C   UNL A   1      39.855  28.843  28.940  1.00  0.00     0.064 A 
ATOM     60  C   UNL A   1      39.320  28.646  30.224  1.00  0.00     0.173 A 
ATOM     61  C   UNL A   1      38.986  29.288  27.933  1.00  0.00     0.173 A 
ATOM     62  F   UNL A   1      40.100  28.204  31.221  1.00  0.00    -0.203 F 
ATOM     63  C   UNL A   1      37.964  28.841  30.475  1.00  0.00     0.198 A 
ATOM     64  C   UNL A   1      37.639  29.521  28.197  1.00  0.00     0.198 A 
ATOM     65  F   UNL A   1      39.441  29.490  26.686  1.00  0.00    -0.203 F 
ATOM     66  F   UNL A   1      37.464  28.573  31.689  1.00  0.00    -0.200 F 
ATOM     67  C   UNL A   1      37.127  29.285  29.464  1.00  0.00     0.200 A 
ATOM     68  F   UNL A   1      36.834  29.962  27.221  1.00  0.00    -0.200 F 
ATOM     69  F   UNL A   1      35.822  29.476  29.707  1.00  0.00    -0.200 F 
ENDBRANCH  45  59
BRANCH  46  70
ATOM     70  C   UNL A   1      49.286  26.703  26.125  1.00  0.00     0.064 A 
ATOM     71  C   UNL A   1      50.238  26.101  26.960  1.00  0.00     0.173 A 
ATOM     72  C   UNL A   1      49.661  26.973  24.800  1.00  0.00     0.173 A 
ATOM     73  F   UNL A   1      49.931  25.829  28.237  1.00  0.00    -0.203 F 
ATOM     74  C   UNL A   1      51.515  25.794  26.493  1.00  0.00     0.198 A 
ATOM     75  C   UNL A   1      50.928  26.639  24.326  1.00  0.00     0.198 A 
ATOM     76  F   UNL A   1      48.784  27.535  23.955  1.00  0.00    -0.203 F 
ATOM     77  F   UNL A   1      52.416  25.249  27.321  1.00  0.00    -0.200 F 
ATOM     78  C   UNL A   1      51.856  26.056  25.174  1.00  0.00     0.200 A 
ATOM     79  F   UNL A   1      51.245  26.873  23.046  1.00  0.00    -0.200 F 
ATOM     80  F   UNL A   1      53.079  25.748  24.722  1.00  0.00    -0.200 F 
ENDBRANCH  46  70
BRANCH  58  81
ATOM     81  C   UNL A   1      46.116  32.398  28.648  1.00  0.00     0.064 A 
ATOM     82  C   UNL A   1      46.684  32.743  29.881  1.00  0.00     0.173 A 
ATOM     83  C   UNL A   1      46.091  33.369  27.635  1.00  0.00     0.173 A 
ATOM     84  F   UNL A   1      46.716  31.851  30.883  1.00  0.00    -0.203 F 
ATOM     85  C   UNL A   1      47.200  34.017  30.098  1.00  0.00     0.198 A 
ATOM     86  C   UNL A   1      46.640  34.630  27.842  1.00  0.00     0.198 A 
ATOM     87  F   UNL A   1      45.567  33.082  26.434  1.00  0.00    -0.203 F 
ATOM     88  F   UNL A   1      47.705  34.338  31.296  1.00  0.00    -0.200 F 
ATOM     89  C   UNL A   1      47.189  34.954  29.075  1.00  0.00     0.200 A 
ATOM     90  F   UNL A   1      46.648  35.527  26.848  1.00  0.00    -0.200 F 
ATOM     91  F   UNL A   1      47.707  36.173  29.277  1.00  0.00    -0.200 F 
ENDBRANCH  58  81
ENDBRANCH  32  33
ENDBRANCH  24  27
ENDBRANCH  22  23
ENDBRANCH   1  22
TORSDOF 12
ENDMDL
MODEL 3
REMARK VINA RESULT:     -14.1      6.133     11.492
REMARK SMILES Cc1cccc(C[N@H+]2CC[C@@](C)(C(=O)NCCCNC(=O)c3ccc(-c4c5nc(c(-c6c(F)c(F)c(F)c(F)c6F)c6ccc([nH]6)c(-c6c(F)c(F)c(F)c(F)c6F)c6nc(c(-c7c(F)c(F)c(F)c(F)c7F)c7ccc4[nH]7)C=C6)C=C5)cc3)C2)n1
REMARK SMILES IDX 17 1 16 2 15 3 13 4 14 5 11 7 8 8 9 9 85 10 10 12 12 13 7 14
REMARK SMILES IDX 6 15 1 16 2 17 3 18 86 19 4 20 5 21 18 22 19 23 20 24 21 26
REMARK SMILES IDX 22 27 23 28 84 29 24 30 83 31 25 32 26 33 27 34 77 35 28 36
REMARK SMILES IDX 82 37 76 38 78 39 29 40 81 41 75 42 74 43 30 45 62 46 42 47
REMARK SMILES IDX 61 48 43 49 46 50 60 51 79 52 44 53 45 54 59 56 80 57 47 58
REMARK SMILES IDX 31 59 32 60 40 61 33 62 34 63 38 64 41 65 35 66 36 67 39 68
REMARK SMILES IDX 37 69 63 70 64 71 72 72 65 73 66 74 70 75 73 76 67 77 68 78
REMARK SMILES IDX 71 79 69 80 48 81 49 82 57 83 50 84 51 85 55 86 58 87 52 88
REMARK SMILES IDX 53 89 56 90 54 91
REMARK H PARENT 15 6 8 11 19 25 78 44 46 55
REMARK Flexibility Score: inf
ROOT
ATOM      1  C   UNL A   1      38.123  20.794  25.050  1.00  0.00     0.042 C 
ENDROOT
BRANCH   1   2
ATOM      2  C   UNL A   1      35.960  20.896  25.353  1.00  0.00     0.117 C 
BRANCH   2   3
ATOM      3  N   UNL A   1      35.075  21.345  26.541  1.00  0.00    -0.355 N 
ATOM      4  C   UNL A   1      34.443  22.510  26.801  1.00  0.00     0.231 C 
ATOM      5  O   UNL A   1      33.891  22.529  27.911  1.00  0.00    -0.274 OA
ATOM      6  H   UNL A   1      34.950  20.656  27.232  1.00  0.00     0.163 HD
BRANCH   4   7
ATOM      7  C   UNL A   1      34.284  23.680  25.790  1.00  0.00     0.100 C 
ATOM      8  N   UNL A   1      32.490  23.760  24.107  1.00  0.00    -0.329 N 
ATOM      9  C   UNL A   1      32.012  24.497  25.278  1.00  0.00     0.263 C 
ATOM     10  C   UNL A   1      33.896  23.367  24.335  1.00  0.00     0.279 C 
ATOM     11  H   UNL A   1      32.454  24.401  23.316  1.00  0.00     0.348 HD
ATOM     12  C   UNL A   1      33.191  24.657  26.244  1.00  0.00     0.084 C 
ATOM     13  C   UNL A   1      35.666  24.381  25.800  1.00  0.00     0.028 C 
BRANCH   8  14
ATOM     14  C   UNL A   1      31.601  22.701  23.562  1.00  0.00     0.319 C 
BRANCH  14  15
ATOM     15  C   UNL A   1      32.269  21.345  23.263  1.00  0.00     0.095 A 
ATOM     16  C   UNL A   1      32.752  17.756  25.743  1.00  0.00     0.067 C 
ATOM     17  C   UNL A   1      32.540  18.558  24.500  1.00  0.00     0.038 A 
ATOM     18  C   UNL A   1      32.266  17.793  22.896  1.00  0.00     0.023 A 
ATOM     19  N   UNL A   1      32.471  20.298  24.669  1.00  0.00    -0.252 NA
ATOM     20  C   UNL A   1      32.129  18.850  21.429  1.00  0.00     0.004 A 
ATOM     21  C   UNL A   1      32.062  20.643  21.630  1.00  0.00     0.030 A 
ENDBRANCH  14  15
ENDBRANCH   8  14
ENDBRANCH   4   7
ENDBRANCH   2   3
ENDBRANCH   1   2
BRANCH   1  22
ATOM     22  C   UNL A   1      39.492  20.709  26.114  1.00  0.00     0.118 C 
BRANCH  22  23
ATOM     23  N   UNL A   1      40.360  19.509  26.089  1.00  0.00    -0.352 N 
ATOM     24  C   UNL A   1      41.717  19.406  26.090  1.00  0.00     0.251 C 
ATOM     25  H   UNL A   1      39.880  18.650  26.068  1.00  0.00     0.163 HD
ATOM     26  O   UNL A   1      42.291  18.337  25.942  1.00  0.00    -0.269 OA
BRANCH  24  27
ATOM     27  C   UNL A   1      42.440  20.641  26.326  1.00  0.00     0.039 A 
ATOM     28  C   UNL A   1      42.777  21.449  25.245  1.00  0.00     0.014 A 
ATOM     29  C   UNL A   1      42.558  21.050  27.655  1.00  0.00     0.014 A 
ATOM     30  C   UNL A   1      43.226  22.732  25.512  1.00  0.00     0.010 A 
ATOM     31  C   UNL A   1      42.884  22.360  27.907  1.00  0.00     0.010 A 
ATOM     32  C   UNL A   1      43.251  23.193  26.839  1.00  0.00    -0.014 A 
BRANCH  32  33
ATOM     33  C   UNL A   1      43.723  24.546  27.164  1.00  0.00     0.031 A 
ATOM     34  C   UNL A   1      42.724  25.537  27.678  1.00  0.00     0.074 A 
ATOM     35  C   UNL A   1      44.998  24.876  26.903  1.00  0.00     0.049 A 
ATOM     36  N   UNL A   1      42.874  26.811  27.912  1.00  0.00    -0.248 NA
ATOM     37  C   UNL A   1      41.352  25.042  27.897  1.00  0.00     0.031 C 
ATOM     38  C   UNL A   1      46.005  23.981  26.326  1.00  0.00     0.029 A 
ATOM     39  N   UNL A   1      45.660  26.058  27.074  1.00  0.00    -0.354 N 
ATOM     40  C   UNL A   1      41.614  27.268  28.269  1.00  0.00     0.074 A 
ATOM     41  C   UNL A   1      40.697  26.164  28.137  1.00  0.00     0.031 C 
ATOM     42  C   UNL A   1      47.168  24.642  26.219  1.00  0.00     0.029 A 
ATOM     43  C   UNL A   1      46.972  26.013  26.675  1.00  0.00     0.049 A 
ATOM     44  H   UNL A   1      45.237  26.865  27.449  1.00  0.00     0.167 HD
ATOM     45  C   UNL A   1      41.271  28.500  28.705  1.00  0.00     0.037 A 
ATOM     46  C   UNL A   1      47.898  26.988  26.669  1.00  0.00     0.037 A 
ATOM     47  C   UNL A   1      42.224  29.559  28.871  1.00  0.00     0.049 A 
ATOM     48  C   UNL A   1      47.500  28.344  27.185  1.00  0.00     0.074 A 
ATOM     49  C   UNL A   1      42.032  30.817  29.403  1.00  0.00     0.029 A 
ATOM     50  N   UNL A   1      43.560  29.473  28.498  1.00  0.00    -0.354 N 
ATOM     51  N   UNL A   1      46.332  28.749  27.628  1.00  0.00    -0.248 NA
ATOM     52  C   UNL A   1      48.541  29.377  27.204  1.00  0.00     0.031 C 
ATOM     53  C   UNL A   1      43.236  31.519  29.289  1.00  0.00     0.029 A 
ATOM     54  C   UNL A   1      44.197  30.675  28.746  1.00  0.00     0.049 A 
ATOM     55  H   UNL A   1      43.990  28.676  28.113  1.00  0.00     0.167 HD
ATOM     56  C   UNL A   1      46.497  30.078  27.986  1.00  0.00     0.074 A 
ATOM     57  C   UNL A   1      47.887  30.403  27.733  1.00  0.00     0.031 C 
ATOM     58  C   UNL A   1      45.584  30.956  28.473  1.00  0.00     0.037 A 
BRANCH  45  59
ATOM     59  C   UNL A   1      39.825  28.748  29.019  1.00  0.00     0.064 A 
ATOM     60  C   UNL A   1      38.924  29.231  28.055  1.00  0.00     0.173 A 
ATOM     61  C   UNL A   1      39.332  28.510  30.310  1.00  0.00     0.173 A 
ATOM     62  F   UNL A   1      39.344  29.494  26.808  1.00  0.00    -0.203 F 
ATOM     63  C   UNL A   1      37.599  29.508  28.384  1.00  0.00     0.198 A 
ATOM     64  C   UNL A   1      37.997  28.749  30.625  1.00  0.00     0.198 A 
ATOM     65  F   UNL A   1      40.147  28.052  31.272  1.00  0.00    -0.203 F 
ATOM     66  F   UNL A   1      36.780  30.038  27.466  1.00  0.00    -0.200 F 
ATOM     67  C   UNL A   1      37.136  29.260  29.666  1.00  0.00     0.200 A 
ATOM     68  F   UNL A   1      37.548  28.498  31.862  1.00  0.00    -0.200 F 
ATOM     69  F   UNL A   1      35.859  29.523  29.981  1.00  0.00    -0.200 F 
ENDBRANCH  45  59
BRANCH  46  70
ATOM     70  C   UNL A   1      49.268  26.701  26.175  1.00  0.00     0.064 A 
ATOM     71  C   UNL A   1      50.240  26.145  27.018  1.00  0.00     0.173 A 
ATOM     72  C   UNL A   1      49.624  26.937  24.838  1.00  0.00     0.173 A 
ATOM     73  F   UNL A   1      49.952  25.907  28.306  1.00  0.00    -0.203 F 
ATOM     74  C   UNL A   1      51.520  25.852  26.548  1.00  0.00     0.198 A 
ATOM     75  C   UNL A   1      50.893  26.616  24.362  1.00  0.00     0.198 A 
ATOM     76  F   UNL A   1      48.727  27.454  23.985  1.00  0.00    -0.203 F 
ATOM     77  F   UNL A   1      52.440  25.353  27.383  1.00  0.00    -0.200 F 
ATOM     78  C   UNL A   1      51.842  26.080  25.218  1.00  0.00     0.200 A 
ATOM     79  F   UNL A   1      51.193  26.816  23.072  1.00  0.00    -0.200 F 
ATOM     80  F   UNL A   1      53.067  25.785  24.764  1.00  0.00    -0.200 F 
ENDBRANCH  46  70
BRANCH  58  81
ATOM     81  C   UNL A   1      46.062  32.348  28.760  1.00  0.00     0.064 A 
ATOM     82  C   UNL A   1      45.966  33.363  27.799  1.00  0.00     0.173 A 
ATOM     83  C   UNL A   1      46.539  32.685  30.036  1.00  0.00     0.173 A 
ATOM     84  F   UNL A   1      45.528  33.085  26.562  1.00  0.00    -0.203 F 
ATOM     85  C   UNL A   1      46.343  34.668  28.102  1.00  0.00     0.198 A 
ATOM     86  C   UNL A   1      46.881  33.996  30.345  1.00  0.00     0.198 A 
ATOM     87  F   UNL A   1      46.639  31.748  30.990  1.00  0.00    -0.203 F 
ATOM     88  F   UNL A   1      46.279  35.618  27.159  1.00  0.00    -0.200 F 
ATOM     89  C   UNL A   1      46.788  34.986  29.377  1.00  0.00     0.200 A 
ATOM     90  F   UNL A   1      47.291  34.305  31.583  1.00  0.00    -0.200 F 
ATOM     91  F   UNL A   1      47.130  36.247  29.673  1.00  0.00    -0.200 F 
ENDBRANCH  58  81
ENDBRANCH  32  33
ENDBRANCH  24  27
ENDBRANCH  22  23
ENDBRANCH   1  22
TORSDOF 12
ENDMDL
