MODEL 1
REMARK VINA RESULT:     -14.3      0.000      0.000
REMARK SMILES O=C(COc1ccc(NC(=O)c2ccc(Br)cc2)cc1-c1nc2ccccc2o1)NCCCNC(=O)c1ccc(-c2c3nc(c(-c4c(F)c(F)c(F)c(F)c4F)c4ccc([nH]4)c(-c4c(F)c(F)c(F)c(F)c4F)c4nc(c(-c5c(F)c(F)c(F)c(F)c5F)c5ccc2[nH]5)C=C4)C=C3)cc1
REMARK SMILES IDX 31 1 30 2 1 3 2 4 3 6 4 7 5 8 6 9 20 10 7 11 19 12 8 13
REMARK SMILES IDX 21 14 22 15 29 16 23 17 28 18 24 19 27 20 25 21 26 22 9 23
REMARK SMILES IDX 10 24 11 26 12 27 13 28 18 29 14 30 17 31 15 32 16 33 32 34
REMARK SMILES IDX 33 35 34 36 35 37 36 39 37 40 38 41 99 42 39 43 98 44 40 45
REMARK SMILES IDX 41 46 42 47 92 48 43 49 97 50 91 51 93 52 44 53 96 54 90 55
REMARK SMILES IDX 89 56 45 58 77 59 57 60 76 61 58 62 61 63 75 64 94 65 59 66
REMARK SMILES IDX 60 67 74 69 95 70 62 71 46 72 47 73 55 74 48 75 49 76 53 77
REMARK SMILES IDX 56 78 50 79 51 80 54 81 52 82 78 83 79 84 87 85 80 86 81 87
REMARK SMILES IDX 85 88 88 89 82 90 83 91 86 92 84 93 63 94 64 95 72 96 65 97
REMARK SMILES IDX 66 98 70 99 73 100 67 101 68 102 71 103 69 104
REMARK H PARENT 30 5 9 25 34 38 93 57 61 68
REMARK Flexibility Score: inf
ROOT
ATOM      1  C   UNL A   1      31.631  30.671  26.844  1.00  0.00     0.117 C 
ENDROOT
BRANCH   1   2
ATOM      2  N   UNL A   1      32.542  29.981  25.945  1.00  0.00    -0.353 N 
ATOM      3  O   UNL A   1      34.616  29.560  26.851  1.00  0.00    -0.271 OA
ATOM      4  C   UNL A   1      33.520  29.147  26.490  1.00  0.00     0.257 C 
ATOM      5  H   UNL A   1      32.472  30.100  24.970  1.00  0.00     0.163 HD
BRANCH   4   6
ATOM      6  C   UNL A   1      33.085  27.676  26.535  1.00  0.00     0.329 C 
BRANCH   6   7
ATOM      7  O   UNL A   1      31.747  27.735  26.043  1.00  0.00    -0.483 OA
BRANCH   7   8
ATOM      8  C   UNL A   1      31.226  26.682  25.357  1.00  0.00     0.132 A 
ATOM      9  C   UNL A   1      31.609  25.489  25.954  1.00  0.00     0.049 A 
ATOM     10  C   UNL A   1      30.772  26.744  24.015  1.00  0.00     0.081 A 
ATOM     11  C   UNL A   1      31.604  24.329  25.216  1.00  0.00     0.030 A 
ATOM     12  C   UNL A   1      30.750  25.530  23.290  1.00  0.00     0.043 A 
ATOM     13  C   UNL A   1      31.139  24.313  23.902  1.00  0.00     0.042 A 
BRANCH  10  14
ATOM     14  C   UNL A   1      30.360  28.045  23.451  1.00  0.00     0.231 A 
ATOM     15  N   UNL A   1      29.911  28.240  22.227  1.00  0.00    -0.209 NA
ATOM     16  O   UNL A   1      30.273  29.169  24.253  1.00  0.00    -0.436 OA
ATOM     17  C   UNL A   1      29.337  29.473  22.248  1.00  0.00     0.110 A 
ATOM     18  C   UNL A   1      29.595  30.084  23.463  1.00  0.00     0.155 A 
ATOM     19  C   UNL A   1      28.524  30.101  21.296  1.00  0.00     0.032 A 
ATOM     20  C   UNL A   1      29.154  31.370  23.768  1.00  0.00     0.049 A 
ATOM     21  C   UNL A   1      28.008  31.364  21.597  1.00  0.00     0.003 A 
ATOM     22  C   UNL A   1      28.341  31.996  22.801  1.00  0.00     0.004 A 
ENDBRANCH  10  14
BRANCH  13  23
ATOM     23  N   UNL A   1      31.109  23.105  23.169  1.00  0.00    -0.322 N 
ATOM     24  C   UNL A   1      32.149  22.264  22.791  1.00  0.00     0.255 C 
ATOM     25  H   UNL A   1      30.214  22.816  22.880  1.00  0.00     0.170 HD
ATOM     26  O   UNL A   1      31.988  21.453  21.880  1.00  0.00    -0.269 OA
BRANCH  24  27
ATOM     27  C   UNL A   1      33.461  22.277  23.500  1.00  0.00     0.040 A 
ATOM     28  C   UNL A   1      33.698  21.345  24.520  1.00  0.00     0.015 A 
ATOM     29  C   UNL A   1      34.478  23.166  23.120  1.00  0.00     0.015 A 
ATOM     30  C   UNL A   1      34.970  21.249  25.097  1.00  0.00     0.016 A 
ATOM     31  C   UNL A   1      35.752  23.055  23.685  1.00  0.00     0.016 A 
ATOM     32  C   UNL A   1      35.995  22.089  24.661  1.00  0.00     0.018 A 
ATOM     33  Br  UNL A   1      37.734  21.904  25.379  1.00  0.00    -0.051 Br
ENDBRANCH  24  27
ENDBRANCH  13  23
ENDBRANCH   7   8
ENDBRANCH   6   7
ENDBRANCH   4   6
ENDBRANCH   1   2
BRANCH   1  34
ATOM     34  C   UNL A   1      31.530  32.157  26.599  1.00  0.00     0.042 C 
BRANCH  34  35
ATOM     35  C   UNL A   1      32.721  32.883  27.176  1.00  0.00     0.118 C 
BRANCH  35  36
ATOM     36  N   UNL A   1      32.389  34.197  27.715  1.00  0.00    -0.352 N 
ATOM     37  C   UNL A   1      32.997  34.862  28.746  1.00  0.00     0.251 C 
ATOM     38  H   UNL A   1      31.634  34.662  27.287  1.00  0.00     0.163 HD
ATOM     39  O   UNL A   1      32.529  35.917  29.172  1.00  0.00    -0.269 OA
BRANCH  37  40
ATOM     40  C   UNL A   1      34.198  34.272  29.366  1.00  0.00     0.039 A 
ATOM     41  C   UNL A   1      34.038  33.384  30.428  1.00  0.00     0.014 A 
ATOM     42  C   UNL A   1      35.471  34.560  28.868  1.00  0.00     0.014 A 
ATOM     43  C   UNL A   1      35.162  32.765  30.969  1.00  0.00     0.010 A 
ATOM     44  C   UNL A   1      36.568  33.842  29.315  1.00  0.00     0.010 A 
ATOM     45  C   UNL A   1      36.431  32.972  30.401  1.00  0.00    -0.014 A 
BRANCH  45  46
ATOM     46  C   UNL A   1      37.630  32.324  30.976  1.00  0.00     0.031 A 
ATOM     47  C   UNL A   1      38.088  32.689  32.363  1.00  0.00     0.074 A 
ATOM     48  C   UNL A   1      38.302  31.416  30.244  1.00  0.00     0.049 A 
ATOM     49  N   UNL A   1      39.067  32.183  33.069  1.00  0.00    -0.248 NA
ATOM     50  C   UNL A   1      37.378  33.790  33.035  1.00  0.00     0.031 C 
ATOM     51  C   UNL A   1      37.994  31.052  28.859  1.00  0.00     0.029 A 
ATOM     52  N   UNL A   1      39.369  30.621  30.568  1.00  0.00    -0.354 N 
ATOM     53  C   UNL A   1      39.088  32.906  34.255  1.00  0.00     0.074 A 
ATOM     54  C   UNL A   1      38.086  33.939  34.143  1.00  0.00     0.031 C 
ATOM     55  C   UNL A   1      38.814  30.062  28.473  1.00  0.00     0.029 A 
ATOM     56  C   UNL A   1      39.720  29.744  29.571  1.00  0.00     0.049 A 
ATOM     57  H   UNL A   1      39.838  30.672  31.432  1.00  0.00     0.167 HD
ATOM     58  C   UNL A   1      39.847  32.701  35.356  1.00  0.00     0.037 A 
ATOM     59  C   UNL A   1      40.656  28.777  29.560  1.00  0.00     0.037 A 
ATOM     60  C   UNL A   1      40.824  31.651  35.462  1.00  0.00     0.049 A 
ATOM     61  C   UNL A   1      41.463  28.546  30.809  1.00  0.00     0.074 A 
ATOM     62  C   UNL A   1      41.615  31.311  36.543  1.00  0.00     0.029 A 
ATOM     63  N   UNL A   1      41.142  30.768  34.438  1.00  0.00    -0.354 N 
ATOM     64  N   UNL A   1      41.414  29.175  31.959  1.00  0.00    -0.248 NA
ATOM     65  C   UNL A   1      42.441  27.453  30.764  1.00  0.00     0.031 C 
ATOM     66  C   UNL A   1      42.447  30.254  36.158  1.00  0.00     0.029 A 
ATOM     67  C   UNL A   1      42.131  29.895  34.857  1.00  0.00     0.049 A 
ATOM     68  H   UNL A   1      40.726  30.764  33.547  1.00  0.00     0.167 HD
ATOM     69  C   UNL A   1      42.334  28.541  32.781  1.00  0.00     0.074 A 
ATOM     70  C   UNL A   1      42.903  27.458  32.005  1.00  0.00     0.031 C 
ATOM     71  C   UNL A   1      42.683  28.827  34.062  1.00  0.00     0.037 A 
BRANCH  58  72
ATOM     72  C   UNL A   1      39.641  33.622  36.524  1.00  0.00     0.064 A 
ATOM     73  C   UNL A   1      38.809  33.274  37.602  1.00  0.00     0.173 A 
ATOM     74  C   UNL A   1      40.294  34.862  36.579  1.00  0.00     0.173 A 
ATOM     75  F   UNL A   1      38.146  32.108  37.594  1.00  0.00    -0.203 F 
ATOM     76  C   UNL A   1      38.614  34.145  38.671  1.00  0.00     0.198 A 
ATOM     77  C   UNL A   1      40.123  35.716  37.667  1.00  0.00     0.198 A 
ATOM     78  F   UNL A   1      41.100  35.247  35.579  1.00  0.00    -0.203 F 
ATOM     79  F   UNL A   1      37.769  33.814  39.657  1.00  0.00    -0.200 F 
ATOM     80  C   UNL A   1      39.277  35.361  38.707  1.00  0.00     0.200 A 
ATOM     81  F   UNL A   1      40.775  36.886  37.706  1.00  0.00    -0.200 F 
ATOM     82  F   UNL A   1      39.095  36.195  39.739  1.00  0.00    -0.200 F 
ENDBRANCH  58  72
BRANCH  59  83
ATOM     83  C   UNL A   1      40.837  27.928  28.354  1.00  0.00     0.064 A 
ATOM     84  C   UNL A   1      40.171  26.701  28.227  1.00  0.00     0.173 A 
ATOM     85  C   UNL A   1      41.675  28.325  27.302  1.00  0.00     0.173 A 
ATOM     86  F   UNL A   1      39.367  26.270  29.211  1.00  0.00    -0.203 F 
ATOM     87  C   UNL A   1      40.360  25.890  27.110  1.00  0.00     0.198 A 
ATOM     88  C   UNL A   1      41.838  27.529  26.171  1.00  0.00     0.198 A 
ATOM     89  F   UNL A   1      42.326  29.496  27.367  1.00  0.00    -0.203 F 
ATOM     90  F   UNL A   1      39.751  24.698  27.039  1.00  0.00    -0.200 F 
ATOM     91  C   UNL A   1      41.188  26.307  26.080  1.00  0.00     0.200 A 
ATOM     92  F   UNL A   1      42.624  27.945  25.169  1.00  0.00    -0.200 F 
ATOM     93  F   UNL A   1      41.367  25.529  25.003  1.00  0.00    -0.200 F 
ENDBRANCH  59  83
BRANCH  71  94
ATOM     94  C   UNL A   1      43.704  27.932  34.701  1.00  0.00     0.064 A 
ATOM     95  C   UNL A   1      43.339  26.750  35.364  1.00  0.00     0.173 A 
ATOM     96  C   UNL A   1      45.067  28.262  34.649  1.00  0.00     0.173 A 
ATOM     97  F   UNL A   1      42.048  26.396  35.452  1.00  0.00    -0.203 F 
ATOM     98  C   UNL A   1      44.295  25.959  35.993  1.00  0.00     0.198 A 
ATOM     99  C   UNL A   1      46.024  27.447  35.245  1.00  0.00     0.198 A 
ATOM    100  F   UNL A   1      45.471  29.374  34.016  1.00  0.00    -0.203 F 
ATOM    101  F   UNL A   1      43.916  24.876  36.685  1.00  0.00    -0.200 F 
ATOM    102  C   UNL A   1      45.637  26.306  35.930  1.00  0.00     0.200 A 
ATOM    103  F   UNL A   1      47.321  27.775  35.168  1.00  0.00    -0.200 F 
ATOM    104  F   UNL A   1      46.557  25.546  36.541  1.00  0.00    -0.200 F 
ENDBRANCH  71  94
ENDBRANCH  45  46
ENDBRANCH  37  40
ENDBRANCH  35  36
ENDBRANCH  34  35
ENDBRANCH   1  34
TORSDOF 15
ENDMDL
MODEL 2
REMARK VINA RESULT:     -14.1      5.282     10.963
REMARK SMILES O=C(COc1ccc(NC(=O)c2ccc(Br)cc2)cc1-c1nc2ccccc2o1)NCCCNC(=O)c1ccc(-c2c3nc(c(-c4c(F)c(F)c(F)c(F)c4F)c4ccc([nH]4)c(-c4c(F)c(F)c(F)c(F)c4F)c4nc(c(-c5c(F)c(F)c(F)c(F)c5F)c5ccc2[nH]5)C=C4)C=C3)cc1
REMARK SMILES IDX 31 1 30 2 1 3 2 4 3 6 4 7 5 8 6 9 20 10 7 11 19 12 8 13
REMARK SMILES IDX 21 14 22 15 29 16 23 17 28 18 24 19 27 20 25 21 26 22 9 23
REMARK SMILES IDX 10 24 11 26 12 27 13 28 18 29 14 30 17 31 15 32 16 33 32 34
REMARK SMILES IDX 33 35 34 36 35 37 36 39 37 40 38 41 99 42 39 43 98 44 40 45
REMARK SMILES IDX 41 46 42 47 92 48 43 49 97 50 91 51 93 52 44 53 96 54 90 55
REMARK SMILES IDX 89 56 45 58 77 59 57 60 76 61 58 62 61 63 75 64 94 65 59 66
REMARK SMILES IDX 60 67 74 69 95 70 62 71 46 72 47 73 55 74 48 75 49 76 53 77
REMARK SMILES IDX 56 78 50 79 51 80 54 81 52 82 78 83 79 84 87 85 80 86 81 87
REMARK SMILES IDX 85 88 88 89 82 90 83 91 86 92 84 93 63 94 64 95 72 96 65 97
REMARK SMILES IDX 66 98 70 99 73 100 67 101 68 102 71 103 69 104
REMARK H PARENT 30 5 9 25 34 38 93 57 61 68
REMARK Flexibility Score: inf
ROOT
ATOM      1  C   UNL A   1      37.662  20.912  24.643  1.00  0.00     0.117 C 
ENDROOT
BRANCH   1   2
ATOM      2  N   UNL A   1      36.208  20.898  24.625  1.00  0.00    -0.353 N 
ATOM      3  O   UNL A   1      35.239  21.453  26.638  1.00  0.00    -0.271 OA
ATOM      4  C   UNL A   1      35.518  21.755  25.484  1.00  0.00     0.257 C 
ATOM      5  H   UNL A   1      35.719  20.295  24.020  1.00  0.00     0.163 HD
BRANCH   4   6
ATOM      6  C   UNL A   1      35.115  23.073  24.807  1.00  0.00     0.329 C 
BRANCH   6   7
ATOM      7  O   UNL A   1      34.570  22.627  23.566  1.00  0.00    -0.483 OA
BRANCH   7   8
ATOM      8  C   UNL A   1      33.344  23.060  23.165  1.00  0.00     0.132 A 
ATOM      9  C   UNL A   1      33.390  24.418  22.880  1.00  0.00     0.049 A 
ATOM     10  C   UNL A   1      32.127  22.385  23.435  1.00  0.00     0.081 A 
ATOM     11  C   UNL A   1      32.230  25.156  22.907  1.00  0.00     0.030 A 
ATOM     12  C   UNL A   1      30.948  23.165  23.428  1.00  0.00     0.043 A 
ATOM     13  C   UNL A   1      30.995  24.550  23.133  1.00  0.00     0.042 A 
BRANCH  10  14
ATOM     14  C   UNL A   1      32.151  20.935  23.711  1.00  0.00     0.231 A 
ATOM     15  N   UNL A   1      32.165  19.982  22.799  1.00  0.00    -0.209 NA
ATOM     16  O   UNL A   1      32.320  20.462  25.001  1.00  0.00    -0.436 OA
ATOM     17  C   UNL A   1      32.532  18.854  23.464  1.00  0.00     0.110 A 
ATOM     18  C   UNL A   1      32.579  19.112  24.824  1.00  0.00     0.155 A 
ATOM     19  C   UNL A   1      32.910  17.601  22.966  1.00  0.00     0.032 A 
ATOM     20  C   UNL A   1      32.903  18.137  25.764  1.00  0.00     0.049 A 
ATOM     21  C   UNL A   1      33.306  16.619  23.877  1.00  0.00     0.003 A 
ATOM     22  C   UNL A   1      33.276  16.877  25.253  1.00  0.00     0.004 A 
ENDBRANCH  10  14
BRANCH  13  23
ATOM     23  N   UNL A   1      29.810  25.318  23.124  1.00  0.00    -0.322 N 
ATOM     24  C   UNL A   1      29.427  26.380  23.937  1.00  0.00     0.255 C 
ATOM     25  H   UNL A   1      29.153  25.062  22.438  1.00  0.00     0.170 HD
ATOM     26  O   UNL A   1      28.243  26.703  24.015  1.00  0.00    -0.269 OA
BRANCH  24  27
ATOM     27  C   UNL A   1      30.430  27.186  24.691  1.00  0.00     0.040 A 
ATOM     28  C   UNL A   1      30.869  28.406  24.157  1.00  0.00     0.015 A 
ATOM     29  C   UNL A   1      30.891  26.773  25.949  1.00  0.00     0.015 A 
ATOM     30  C   UNL A   1      31.698  29.243  24.914  1.00  0.00     0.016 A 
ATOM     31  C   UNL A   1      31.703  27.618  26.710  1.00  0.00     0.016 A 
ATOM     32  C   UNL A   1      32.092  28.854  26.195  1.00  0.00     0.018 A 
ATOM     33  Br  UNL A   1      33.142  30.018  27.251  1.00  0.00    -0.051 Br
ENDBRANCH  24  27
ENDBRANCH  13  23
ENDBRANCH   7   8
ENDBRANCH   6   7
ENDBRANCH   4   6
ENDBRANCH   1   2
BRANCH   1  34
ATOM     34  C   UNL A   1      38.285  19.626  25.130  1.00  0.00     0.042 C 
BRANCH  34  35
ATOM     35  C   UNL A   1      39.440  19.903  26.061  1.00  0.00     0.118 C 
BRANCH  35  36
ATOM     36  N   UNL A   1      40.539  18.956  25.914  1.00  0.00    -0.352 N 
ATOM     37  C   UNL A   1      41.882  19.201  26.021  1.00  0.00     0.251 C 
ATOM     38  H   UNL A   1      40.285  18.027  25.710  1.00  0.00     0.163 HD
ATOM     39  O   UNL A   1      42.702  18.324  25.751  1.00  0.00    -0.269 OA
BRANCH  37  40
ATOM     40  C   UNL A   1      42.332  20.546  26.426  1.00  0.00     0.039 A 
ATOM     41  C   UNL A   1      42.605  21.489  25.437  1.00  0.00     0.014 A 
ATOM     42  C   UNL A   1      42.437  20.886  27.777  1.00  0.00     0.014 A 
ATOM     43  C   UNL A   1      42.956  22.783  25.812  1.00  0.00     0.010 A 
ATOM     44  C   UNL A   1      42.651  22.203  28.145  1.00  0.00     0.010 A 
ATOM     45  C   UNL A   1      42.959  23.155  27.167  1.00  0.00    -0.014 A 
BRANCH  45  46
ATOM     46  C   UNL A   1      43.340  24.526  27.573  1.00  0.00     0.031 A 
ATOM     47  C   UNL A   1      44.783  24.948  27.526  1.00  0.00     0.074 A 
ATOM     48  C   UNL A   1      42.384  25.379  27.986  1.00  0.00     0.049 A 
ATOM     49  N   UNL A   1      45.309  26.122  27.770  1.00  0.00    -0.248 NA
ATOM     50  C   UNL A   1      45.775  23.911  27.197  1.00  0.00     0.031 C 
ATOM     51  C   UNL A   1      40.967  25.045  28.150  1.00  0.00     0.029 A 
ATOM     52  N   UNL A   1      42.455  26.704  28.324  1.00  0.00    -0.354 N 
ATOM     53  C   UNL A   1      46.680  25.957  27.628  1.00  0.00     0.074 A 
ATOM     54  C   UNL A   1      46.917  24.558  27.362  1.00  0.00     0.031 C 
ATOM     55  C   UNL A   1      40.294  26.152  28.499  1.00  0.00     0.029 A 
ATOM     56  C   UNL A   1      41.234  27.262  28.609  1.00  0.00     0.049 A 
ATOM     57  H   UNL A   1      43.301  27.207  28.358  1.00  0.00     0.167 HD
ATOM     58  C   UNL A   1      47.653  26.897  27.674  1.00  0.00     0.037 A 
ATOM     59  C   UNL A   1      40.913  28.535  28.905  1.00  0.00     0.037 A 
ATOM     60  C   UNL A   1      47.399  28.291  27.914  1.00  0.00     0.049 A 
ATOM     61  C   UNL A   1      42.008  29.567  28.915  1.00  0.00     0.074 A 
ATOM     62  C   UNL A   1      48.295  29.344  27.931  1.00  0.00     0.029 A 
ATOM     63  N   UNL A   1      46.146  28.826  28.182  1.00  0.00    -0.354 N 
ATOM     64  N   UNL A   1      43.291  29.419  28.690  1.00  0.00    -0.248 NA
ATOM     65  C   UNL A   1      41.603  30.949  29.200  1.00  0.00     0.031 C 
ATOM     66  C   UNL A   1      47.591  30.509  28.259  1.00  0.00     0.029 A 
ATOM     67  C   UNL A   1      46.247  30.192  28.384  1.00  0.00     0.049 A 
ATOM     68  H   UNL A   1      45.309  28.310  28.222  1.00  0.00     0.167 HD
ATOM     69  C   UNL A   1      43.844  30.689  28.781  1.00  0.00     0.074 A 
ATOM     70  C   UNL A   1      42.748  31.598  29.051  1.00  0.00     0.031 C 
ATOM     71  C   UNL A   1      45.140  31.073  28.656  1.00  0.00     0.037 A 
BRANCH  58  72
ATOM     72  C   UNL A   1      49.068  26.444  27.451  1.00  0.00     0.064 A 
ATOM     73  C   UNL A   1      49.594  26.271  26.160  1.00  0.00     0.173 A 
ATOM     74  C   UNL A   1      49.917  26.194  28.540  1.00  0.00     0.173 A 
ATOM     75  F   UNL A   1      48.822  26.479  25.083  1.00  0.00    -0.203 F 
ATOM     76  C   UNL A   1      50.903  25.834  25.969  1.00  0.00     0.198 A 
ATOM     77  C   UNL A   1      51.236  25.791  28.344  1.00  0.00     0.198 A 
ATOM     78  F   UNL A   1      49.469  26.343  29.795  1.00  0.00    -0.203 F 
ATOM     79  F   UNL A   1      51.361  25.620  24.728  1.00  0.00    -0.200 F 
ATOM     80  C   UNL A   1      51.725  25.603  27.060  1.00  0.00     0.200 A 
ATOM     81  F   UNL A   1      52.034  25.580  29.400  1.00  0.00    -0.200 F 
ATOM     82  F   UNL A   1      52.986  25.190  26.875  1.00  0.00    -0.200 F 
ENDBRANCH  58  72
BRANCH  59  83
ATOM     83  C   UNL A   1      39.496  28.908  29.156  1.00  0.00     0.064 A 
ATOM     84  C   UNL A   1      38.941  28.818  30.441  1.00  0.00     0.173 A 
ATOM     85  C   UNL A   1      38.667  29.363  28.121  1.00  0.00     0.173 A 
ATOM     86  F   UNL A   1      39.688  28.376  31.463  1.00  0.00    -0.203 F 
ATOM     87  C   UNL A   1      37.606  29.140  30.674  1.00  0.00     0.198 A 
ATOM     88  C   UNL A   1      37.342  29.716  28.361  1.00  0.00     0.198 A 
ATOM     89  F   UNL A   1      39.152  29.479  26.875  1.00  0.00    -0.203 F 
ATOM     90  F   UNL A   1      37.088  28.995  31.902  1.00  0.00    -0.200 F 
ATOM     91  C   UNL A   1      36.808  29.595  29.636  1.00  0.00     0.200 A 
ATOM     92  F   UNL A   1      36.580  30.174  27.358  1.00  0.00    -0.200 F 
ATOM     93  F   UNL A   1      35.526  29.909  29.860  1.00  0.00    -0.200 F 
ENDBRANCH  59  83
BRANCH  71  94
ATOM     94  C   UNL A   1      45.426  32.541  28.782  1.00  0.00     0.064 A 
ATOM     95  C   UNL A   1      45.750  33.127  30.015  1.00  0.00     0.173 A 
ATOM     96  C   UNL A   1      45.375  33.372  27.652  1.00  0.00     0.173 A 
ATOM     97  F   UNL A   1      45.800  32.378  31.127  1.00  0.00    -0.203 F 
ATOM     98  C   UNL A   1      45.963  34.498  30.121  1.00  0.00     0.198 A 
ATOM     99  C   UNL A   1      45.628  34.736  27.755  1.00  0.00     0.198 A 
ATOM    100  F   UNL A   1      45.082  32.860  26.448  1.00  0.00    -0.203 F 
ATOM    101  F   UNL A   1      46.196  35.048  31.320  1.00  0.00    -0.200 F 
ATOM    102  C   UNL A   1      45.906  35.300  28.991  1.00  0.00     0.200 A 
ATOM    103  F   UNL A   1      45.590  35.507  26.660  1.00  0.00    -0.200 F 
ATOM    104  F   UNL A   1      46.106  36.622  29.094  1.00  0.00    -0.200 F 
ENDBRANCH  71  94
ENDBRANCH  45  46
ENDBRANCH  37  40
ENDBRANCH  35  36
ENDBRANCH  34  35
ENDBRANCH   1  34
TORSDOF 15
ENDMDL
MODEL 3
REMARK VINA RESULT:     -14.1      5.366     10.126
REMARK SMILES O=C(COc1ccc(NC(=O)c2ccc(Br)cc2)cc1-c1nc2ccccc2o1)NCCCNC(=O)c1ccc(-c2c3nc(c(-c4c(F)c(F)c(F)c(F)c4F)c4ccc([nH]4)c(-c4c(F)c(F)c(F)c(F)c4F)c4nc(c(-c5c(F)c(F)c(F)c(F)c5F)c5ccc2[nH]5)C=C4)C=C3)cc1
REMARK SMILES IDX 31 1 30 2 1 3 2 4 3 6 4 7 5 8 6 9 20 10 7 11 19 12 8 13
REMARK SMILES IDX 21 14 22 15 29 16 23 17 28 18 24 19 27 20 25 21 26 22 9 23
REMARK SMILES IDX 10 24 11 26 12 27 13 28 18 29 14 30 17 31 15 32 16 33 32 34
REMARK SMILES IDX 33 35 34 36 35 37 36 39 37 40 38 41 99 42 39 43 98 44 40 45
REMARK SMILES IDX 41 46 42 47 92 48 43 49 97 50 91 51 93 52 44 53 96 54 90 55
REMARK SMILES IDX 89 56 45 58 77 59 57 60 76 61 58 62 61 63 75 64 94 65 59 66
REMARK SMILES IDX 60 67 74 69 95 70 62 71 46 72 47 73 55 74 48 75 49 76 53 77
REMARK SMILES IDX 56 78 50 79 51 80 54 81 52 82 78 83 79 84 87 85 80 86 81 87
REMARK SMILES IDX 85 88 88 89 82 90 83 91 86 92 84 93 63 94 64 95 72 96 65 97
REMARK SMILES IDX 66 98 70 99 73 100 67 101 68 102 71 103 69 104
REMARK H PARENT 30 5 9 25 34 38 93 57 61 68
REMARK Flexibility Score: inf
ROOT
ATOM      1  C   UNL A   1      37.837  21.040  24.955  1.00  0.00     0.117 C 
ENDROOT
BRANCH   1   2
ATOM      2  N   UNL A   1      36.407  20.914  24.726  1.00  0.00    -0.353 N 
ATOM      3  O   UNL A   1      35.117  21.366  26.578  1.00  0.00    -0.271 OA
ATOM      4  C   UNL A   1      35.535  21.704  25.477  1.00  0.00     0.257 C 
ATOM      5  H   UNL A   1      36.059  20.284  24.055  1.00  0.00     0.163 HD
BRANCH   4   6
ATOM      6  C   UNL A   1      35.133  22.996  24.752  1.00  0.00     0.329 C 
BRANCH   6   7
ATOM      7  O   UNL A   1      34.539  22.503  23.552  1.00  0.00    -0.483 OA
BRANCH   7   8
ATOM      8  C   UNL A   1      33.301  22.927  23.180  1.00  0.00     0.132 A 
ATOM      9  C   UNL A   1      33.328  24.285  22.897  1.00  0.00     0.049 A 
ATOM     10  C   UNL A   1      32.096  22.240  23.476  1.00  0.00     0.081 A 
ATOM     11  C   UNL A   1      32.163  25.013  22.952  1.00  0.00     0.030 A 
ATOM     12  C   UNL A   1      30.910  23.010  23.497  1.00  0.00     0.043 A 
ATOM     13  C   UNL A   1      30.939  24.396  23.204  1.00  0.00     0.042 A 
BRANCH  10  14
ATOM     14  C   UNL A   1      32.138  20.790  23.748  1.00  0.00     0.231 A 
ATOM     15  N   UNL A   1      32.271  19.844  22.838  1.00  0.00    -0.209 NA
ATOM     16  O   UNL A   1      32.197  20.314  25.046  1.00  0.00    -0.436 OA
ATOM     17  C   UNL A   1      32.607  18.724  23.532  1.00  0.00     0.110 A 
ATOM     18  C   UNL A   1      32.514  18.974  24.890  1.00  0.00     0.155 A 
ATOM     19  C   UNL A   1      33.070  17.486  23.068  1.00  0.00     0.032 A 
ATOM     20  C   UNL A   1      32.775  18.003  25.854  1.00  0.00     0.049 A 
ATOM     21  C   UNL A   1      33.407  16.511  24.010  1.00  0.00     0.003 A 
ATOM     22  C   UNL A   1      33.235  16.759  25.377  1.00  0.00     0.004 A 
ENDBRANCH  10  14
BRANCH  13  23
ATOM     23  N   UNL A   1      29.747  25.154  23.224  1.00  0.00    -0.322 N 
ATOM     24  C   UNL A   1      29.379  26.220  24.039  1.00  0.00     0.255 C 
ATOM     25  H   UNL A   1      29.072  24.886  22.561  1.00  0.00     0.170 HD
ATOM     26  O   UNL A   1      28.195  26.533  24.149  1.00  0.00    -0.269 OA
BRANCH  24  27
ATOM     27  C   UNL A   1      30.397  27.041  24.755  1.00  0.00     0.040 A 
ATOM     28  C   UNL A   1      30.857  28.228  24.167  1.00  0.00     0.015 A 
ATOM     29  C   UNL A   1      30.852  26.677  26.031  1.00  0.00     0.015 A 
ATOM     30  C   UNL A   1      31.701  29.083  24.885  1.00  0.00     0.016 A 
ATOM     31  C   UNL A   1      31.680  27.541  26.753  1.00  0.00     0.016 A 
ATOM     32  C   UNL A   1      32.090  28.745  26.182  1.00  0.00     0.018 A 
ATOM     33  Br  UNL A   1      33.161  29.937  27.185  1.00  0.00    -0.051 Br
ENDBRANCH  24  27
ENDBRANCH  13  23
ENDBRANCH   7   8
ENDBRANCH   6   7
ENDBRANCH   4   6
ENDBRANCH   1   2
BRANCH   1  34
ATOM     34  C   UNL A   1      38.547  19.724  25.161  1.00  0.00     0.042 C 
BRANCH  34  35
ATOM     35  C   UNL A   1      39.630  19.851  26.205  1.00  0.00     0.118 C 
BRANCH  35  36
ATOM     36  N   UNL A   1      40.710  18.885  26.035  1.00  0.00    -0.352 N 
ATOM     37  C   UNL A   1      42.055  19.128  25.978  1.00  0.00     0.251 C 
ATOM     38  H   UNL A   1      40.437  17.943  25.949  1.00  0.00     0.163 HD
ATOM     39  O   UNL A   1      42.844  18.222  25.709  1.00  0.00    -0.269 OA
BRANCH  37  40
ATOM     40  C   UNL A   1      42.543  20.501  26.202  1.00  0.00     0.039 A 
ATOM     41  C   UNL A   1      42.861  21.290  25.098  1.00  0.00     0.014 A 
ATOM     42  C   UNL A   1      42.639  21.022  27.496  1.00  0.00     0.014 A 
ATOM     43  C   UNL A   1      43.249  22.613  25.298  1.00  0.00     0.010 A 
ATOM     44  C   UNL A   1      42.891  22.370  27.683  1.00  0.00     0.010 A 
ATOM     45  C   UNL A   1      43.244  23.168  26.590  1.00  0.00    -0.014 A 
BRANCH  45  46
ATOM     46  C   UNL A   1      43.663  24.570  26.810  1.00  0.00     0.031 A 
ATOM     47  C   UNL A   1      42.679  25.571  27.352  1.00  0.00     0.074 A 
ATOM     48  C   UNL A   1      44.925  24.932  26.515  1.00  0.00     0.049 A 
ATOM     49  N   UNL A   1      42.871  26.822  27.682  1.00  0.00    -0.248 NA
ATOM     50  C   UNL A   1      41.286  25.121  27.514  1.00  0.00     0.031 C 
ATOM     51  C   UNL A   1      45.934  24.063  25.906  1.00  0.00     0.029 A 
ATOM     52  N   UNL A   1      45.580  26.120  26.705  1.00  0.00    -0.354 N 
ATOM     53  C   UNL A   1      41.630  27.301  28.081  1.00  0.00     0.074 A 
ATOM     54  C   UNL A   1      40.675  26.238  27.873  1.00  0.00     0.031 C 
ATOM     55  C   UNL A   1      47.097  24.728  25.828  1.00  0.00     0.029 A 
ATOM     56  C   UNL A   1      46.907  26.074  26.355  1.00  0.00     0.049 A 
ATOM     57  H   UNL A   1      45.142  26.927  27.059  1.00  0.00     0.167 HD
ATOM     58  C   UNL A   1      41.321  28.507  28.612  1.00  0.00     0.037 A 
ATOM     59  C   UNL A   1      47.864  27.014  26.470  1.00  0.00     0.037 A 
ATOM     60  C   UNL A   1      42.288  29.547  28.837  1.00  0.00     0.049 A 
ATOM     61  C   UNL A   1      47.503  28.333  27.097  1.00  0.00     0.074 A 
ATOM     62  C   UNL A   1      42.105  30.789  29.416  1.00  0.00     0.029 A 
ATOM     63  N   UNL A   1      43.629  29.461  28.487  1.00  0.00    -0.354 N 
ATOM     64  N   UNL A   1      46.345  28.746  27.555  1.00  0.00    -0.248 NA
ATOM     65  C   UNL A   1      48.589  29.310  27.240  1.00  0.00     0.031 C 
ATOM     66  C   UNL A   1      43.325  31.473  29.372  1.00  0.00     0.029 A 
ATOM     67  C   UNL A   1      44.282  30.635  28.821  1.00  0.00     0.049 A 
ATOM     68  H   UNL A   1      44.052  28.681  28.063  1.00  0.00     0.167 HD
ATOM     69  C   UNL A   1      46.568  30.018  28.064  1.00  0.00     0.074 A 
ATOM     70  C   UNL A   1      47.979  30.293  27.884  1.00  0.00     0.031 C 
ATOM     71  C   UNL A   1      45.687  30.884  28.627  1.00  0.00     0.037 A 
BRANCH  58  72
ATOM     72  C   UNL A   1      39.888  28.753  28.990  1.00  0.00     0.064 A 
ATOM     73  C   UNL A   1      39.414  28.507  30.290  1.00  0.00     0.173 A 
ATOM     74  C   UNL A   1      38.978  29.257  28.049  1.00  0.00     0.173 A 
ATOM     75  F   UNL A   1      40.236  28.010  31.226  1.00  0.00    -0.203 F 
ATOM     76  C   UNL A   1      38.079  28.725  30.621  1.00  0.00     0.198 A 
ATOM     77  C   UNL A   1      37.652  29.505  28.394  1.00  0.00     0.198 A 
ATOM     78  F   UNL A   1      39.374  29.510  26.793  1.00  0.00    -0.203 F 
ATOM     79  F   UNL A   1      37.639  28.425  31.851  1.00  0.00    -0.200 F 
ATOM     80  C   UNL A   1      37.200  29.231  29.676  1.00  0.00     0.200 A 
ATOM     81  F   UNL A   1      36.807  30.007  27.482  1.00  0.00    -0.200 F 
ATOM     82  F   UNL A   1      35.918  29.447  29.998  1.00  0.00    -0.200 F 
ENDBRANCH  58  72
BRANCH  59  83
ATOM     83  C   UNL A   1      49.255  26.718  26.037  1.00  0.00     0.064 A 
ATOM     84  C   UNL A   1      50.167  26.103  26.906  1.00  0.00     0.173 A 
ATOM     85  C   UNL A   1      49.701  27.041  24.747  1.00  0.00     0.173 A 
ATOM     86  F   UNL A   1      49.794  25.785  28.154  1.00  0.00    -0.203 F 
ATOM     87  C   UNL A   1      51.479  25.849  26.511  1.00  0.00     0.198 A 
ATOM     88  C   UNL A   1      51.003  26.757  24.343  1.00  0.00     0.198 A 
ATOM     89  F   UNL A   1      48.865  27.620  23.872  1.00  0.00    -0.203 F 
ATOM     90  F   UNL A   1      52.345  25.307  27.379  1.00  0.00    -0.200 F 
ATOM     91  C   UNL A   1      51.895  26.171  25.229  1.00  0.00     0.200 A 
ATOM     92  F   UNL A   1      51.395  27.052  23.096  1.00  0.00    -0.200 F 
ATOM     93  F   UNL A   1      53.156  25.923  24.848  1.00  0.00    -0.200 F 
ENDBRANCH  59  83
BRANCH  71  94
ATOM     94  C   UNL A   1      46.241  32.192  29.111  1.00  0.00     0.064 A 
ATOM     95  C   UNL A   1      46.716  32.354  30.422  1.00  0.00     0.173 A 
ATOM     96  C   UNL A   1      46.298  33.300  28.251  1.00  0.00     0.173 A 
ATOM     97  F   UNL A   1      46.672  31.329  31.288  1.00  0.00    -0.203 F 
ATOM     98  C   UNL A   1      47.179  33.588  30.868  1.00  0.00     0.198 A 
ATOM     99  C   UNL A   1      46.800  34.521  28.689  1.00  0.00     0.198 A 
ATOM    100  F   UNL A   1      45.870  33.196  26.984  1.00  0.00    -0.203 F 
ATOM    101  F   UNL A   1      47.555  33.739  32.145  1.00  0.00    -0.200 F 
ATOM    102  C   UNL A   1      47.224  34.669  30.000  1.00  0.00     0.200 A 
ATOM    103  F   UNL A   1      46.860  35.560  27.844  1.00  0.00    -0.200 F 
ATOM    104  F   UNL A   1      47.667  35.858  30.431  1.00  0.00    -0.200 F 
ENDBRANCH  71  94
ENDBRANCH  45  46
ENDBRANCH  37  40
ENDBRANCH  35  36
ENDBRANCH  34  35
ENDBRANCH   1  34
TORSDOF 15
ENDMDL
