MODEL 1
REMARK VINA RESULT:     -12.4      0.000      0.000
REMARK SMILES CCC[C@H](CNC(=O)N1C[C@H]2CCC[N@H+]2C[C@@H]1C)C(=O)NCCCNC(=O)c1ccc(-c2c3nc(c(-c4c(F)c(F)c(F)c(F)c4F)c4ccc([nH]4)c(-c4c(F)c(F)c(F)c(F)c4F)c4nc(c(-c5c(F)c(F)c(F)c(F)c5F)c5ccc2[nH]5)C=C4)C=C3)cc1
REMARK SMILES IDX 22 1 21 2 19 3 20 4 4 6 3 7 2 8 1 9 5 10 6 11 7 12 8 14 9 15
REMARK SMILES IDX 10 16 17 17 11 18 16 19 18 20 12 21 15 22 13 23 14 24 23 26
REMARK SMILES IDX 24 27 25 28 26 29 27 31 28 32 29 33 90 34 30 35 89 36 31 37
REMARK SMILES IDX 32 38 33 39 83 40 34 41 88 42 82 43 84 44 35 45 87 46 81 47
REMARK SMILES IDX 80 48 36 50 68 51 48 52 67 53 49 54 52 55 66 56 85 57 50 58
REMARK SMILES IDX 51 59 65 61 86 62 53 63 37 64 38 65 46 66 39 67 40 68 44 69
REMARK SMILES IDX 47 70 41 71 42 72 45 73 43 74 69 75 70 76 78 77 71 78 72 79
REMARK SMILES IDX 76 80 79 81 73 82 74 83 77 84 75 85 54 86 55 87 63 88 56 89
REMARK SMILES IDX 57 90 61 91 64 92 58 93 59 94 62 95 60 96
REMARK H PARENT 21 5 6 13 15 25 25 30 84 49 52 60
REMARK Flexibility Score: inf
ROOT
ATOM      1  C   UNL A   1      31.425  30.785  26.538  1.00  0.00     0.117 C 
ENDROOT
BRANCH   1   2
ATOM      2  N   UNL A   1      31.641  30.201  25.227  1.00  0.00    -0.356 N 
ATOM      3  C   UNL A   1      31.737  28.895  24.853  1.00  0.00     0.224 C 
ATOM      4  O   UNL A   1      31.743  28.648  23.645  1.00  0.00    -0.275 OA
ATOM      5  H   UNL A   1      31.733  30.851  24.493  1.00  0.00     0.163 HD
BRANCH   3   6
ATOM      6  C   UNL A   1      31.893  27.782  25.879  1.00  0.00     0.097 C 
BRANCH   6   7
ATOM      7  C   UNL A   1      33.290  27.564  26.505  1.00  0.00     0.015 C 
BRANCH   7   8
ATOM      8  C   UNL A   1      34.429  28.587  26.382  1.00  0.00    -0.003 C 
ATOM      9  C   UNL A   1      34.713  29.440  27.611  1.00  0.00     0.004 C 
ENDBRANCH   7   8
ENDBRANCH   6   7
BRANCH   6  10
ATOM     10  C   UNL A   1      31.135  26.558  25.330  1.00  0.00     0.131 C 
BRANCH  10  11
ATOM     11  N   UNL A   1      30.564  25.670  26.312  1.00  0.00    -0.337 N 
ATOM     12  C   UNL A   1      30.693  24.336  26.472  1.00  0.00     0.318 C 
ATOM     13  H   UNL A   1      29.984  26.110  26.976  1.00  0.00     0.165 HD
ATOM     14  O   UNL A   1      29.867  23.790  27.208  1.00  0.00    -0.249 OA
BRANCH  12  15
ATOM     15  N   UNL A   1      31.646  23.631  25.787  1.00  0.00    -0.311 N 
ATOM     16  C   UNL A   1      33.014  23.748  26.285  1.00  0.00     0.186 C 
ATOM     17  C   UNL A   1      31.497  22.907  24.492  1.00  0.00     0.139 C 
ATOM     18  C   UNL A   1      34.010  24.178  25.199  1.00  0.00     0.204 C 
ATOM     19  C   UNL A   1      32.868  22.416  23.927  1.00  0.00     0.287 C 
ATOM     20  C   UNL A   1      30.735  23.728  23.449  1.00  0.00     0.037 C 
ATOM     21  C   UNL A   1      35.452  24.023  25.679  1.00  0.00     0.073 C 
ATOM     22  N   UNL A   1      33.926  23.435  23.918  1.00  0.00    -0.329 N 
ATOM     23  C   UNL A   1      36.220  23.725  24.410  1.00  0.00     0.068 C 
ATOM     24  C   UNL A   1      35.246  22.858  23.633  1.00  0.00     0.262 C 
ATOM     25  H   UNL A   1      33.665  24.080  23.172  1.00  0.00     0.348 HD
ENDBRANCH  12  15
ENDBRANCH  10  11
ENDBRANCH   6  10
ENDBRANCH   3   6
ENDBRANCH   1   2
BRANCH   1  26
ATOM     26  C   UNL A   1      31.458  32.300  26.522  1.00  0.00     0.042 C 
BRANCH  26  27
ATOM     27  C   UNL A   1      32.633  32.863  27.301  1.00  0.00     0.118 C 
BRANCH  27  28
ATOM     28  N   UNL A   1      32.448  34.268  27.655  1.00  0.00    -0.352 N 
ATOM     29  C   UNL A   1      33.029  35.014  28.653  1.00  0.00     0.251 C 
ATOM     30  H   UNL A   1      31.808  34.757  27.091  1.00  0.00     0.163 HD
ATOM     31  O   UNL A   1      32.596  36.123  28.929  1.00  0.00    -0.269 OA
BRANCH  29  32
ATOM     32  C   UNL A   1      34.167  34.450  29.405  1.00  0.00     0.039 A 
ATOM     33  C   UNL A   1      33.929  33.761  30.596  1.00  0.00     0.014 A 
ATOM     34  C   UNL A   1      35.465  34.575  28.907  1.00  0.00     0.014 A 
ATOM     35  C   UNL A   1      34.986  33.117  31.237  1.00  0.00     0.010 A 
ATOM     36  C   UNL A   1      36.492  33.842  29.481  1.00  0.00     0.010 A 
ATOM     37  C   UNL A   1      36.265  33.108  30.654  1.00  0.00    -0.014 A 
BRANCH  37  38
ATOM     38  C   UNL A   1      37.389  32.344  31.244  1.00  0.00     0.031 A 
ATOM     39  C   UNL A   1      37.892  32.695  32.616  1.00  0.00     0.074 A 
ATOM     40  C   UNL A   1      38.016  31.405  30.510  1.00  0.00     0.049 A 
ATOM     41  N   UNL A   1      38.928  32.230  33.264  1.00  0.00    -0.248 NA
ATOM     42  C   UNL A   1      37.152  33.741  33.339  1.00  0.00     0.031 C 
ATOM     43  C   UNL A   1      37.652  31.012  29.147  1.00  0.00     0.029 A 
ATOM     44  N   UNL A   1      39.098  30.617  30.804  1.00  0.00    -0.354 N 
ATOM     45  C   UNL A   1      38.977  32.942  34.454  1.00  0.00     0.074 A 
ATOM     46  C   UNL A   1      37.910  33.917  34.410  1.00  0.00     0.031 C 
ATOM     47  C   UNL A   1      38.470  30.030  28.739  1.00  0.00     0.029 A 
ATOM     48  C   UNL A   1      39.443  29.756  29.791  1.00  0.00     0.049 A 
ATOM     49  H   UNL A   1      39.583  30.665  31.659  1.00  0.00     0.167 HD
ATOM     50  C   UNL A   1      39.815  32.777  35.505  1.00  0.00     0.037 A 
ATOM     51  C   UNL A   1      40.435  28.849  29.723  1.00  0.00     0.037 A 
ATOM     52  C   UNL A   1      40.855  31.784  35.553  1.00  0.00     0.049 A 
ATOM     53  C   UNL A   1      41.368  28.697  30.893  1.00  0.00     0.074 A 
ATOM     54  C   UNL A   1      41.716  31.485  36.593  1.00  0.00     0.029 A 
ATOM     55  N   UNL A   1      41.174  30.928  34.508  1.00  0.00    -0.354 N 
ATOM     56  N   UNL A   1      41.364  29.327  32.043  1.00  0.00    -0.248 NA
ATOM     57  C   UNL A   1      42.446  27.708  30.752  1.00  0.00     0.031 C 
ATOM     58  C   UNL A   1      42.588  30.478  36.160  1.00  0.00     0.029 A 
ATOM     59  C   UNL A   1      42.238  30.117  34.868  1.00  0.00     0.049 A 
ATOM     60  H   UNL A   1      40.712  30.901  33.639  1.00  0.00     0.167 HD
ATOM     61  C   UNL A   1      42.415  28.793  32.774  1.00  0.00     0.074 A 
ATOM     62  C   UNL A   1      43.030  27.780  31.940  1.00  0.00     0.031 C 
ATOM     63  C   UNL A   1      42.833  29.111  34.025  1.00  0.00     0.037 A 
BRANCH  50  64
ATOM     64  C   UNL A   1      39.632  33.695  36.679  1.00  0.00     0.064 A 
ATOM     65  C   UNL A   1      38.837  33.335  37.779  1.00  0.00     0.173 A 
ATOM     66  C   UNL A   1      40.246  34.956  36.700  1.00  0.00     0.173 A 
ATOM     67  F   UNL A   1      38.215  32.147  37.803  1.00  0.00    -0.203 F 
ATOM     68  C   UNL A   1      38.625  34.222  38.832  1.00  0.00     0.198 A 
ATOM     69  C   UNL A   1      40.061  35.826  37.772  1.00  0.00     0.198 A 
ATOM     70  F   UNL A   1      41.021  35.351  35.679  1.00  0.00    -0.203 F 
ATOM     71  F   UNL A   1      37.802  33.884  39.834  1.00  0.00    -0.200 F 
ATOM     72  C   UNL A   1      39.240  35.465  38.829  1.00  0.00     0.200 A 
ATOM     73  F   UNL A   1      40.665  37.022  37.774  1.00  0.00    -0.200 F 
ATOM     74  F   UNL A   1      39.030  36.320  39.840  1.00  0.00    -0.200 F 
ENDBRANCH  50  64
BRANCH  51  75
ATOM     75  C   UNL A   1      40.562  27.981  28.524  1.00  0.00     0.064 A 
ATOM     76  C   UNL A   1      39.921  26.735  28.480  1.00  0.00     0.173 A 
ATOM     77  C   UNL A   1      41.299  28.376  27.400  1.00  0.00     0.173 A 
ATOM     78  F   UNL A   1      39.219  26.306  29.540  1.00  0.00    -0.203 F 
ATOM     79  C   UNL A   1      40.021  25.913  27.360  1.00  0.00     0.198 A 
ATOM     80  C   UNL A   1      41.378  27.564  26.270  1.00  0.00     0.198 A 
ATOM     81  F   UNL A   1      41.925  29.563  27.391  1.00  0.00    -0.203 F 
ATOM     82  F   UNL A   1      39.424  24.713  27.358  1.00  0.00    -0.200 F 
ATOM     83  C   UNL A   1      40.744  26.331  26.253  1.00  0.00     0.200 A 
ATOM     84  F   UNL A   1      42.066  27.978  25.198  1.00  0.00    -0.200 F 
ATOM     85  F   UNL A   1      40.833  25.544  25.173  1.00  0.00    -0.200 F 
ENDBRANCH  51  75
BRANCH  63  86
ATOM     86  C   UNL A   1      43.990  28.333  34.579  1.00  0.00     0.064 A 
ATOM     87  C   UNL A   1      45.313  28.776  34.430  1.00  0.00     0.173 A 
ATOM     88  C   UNL A   1      43.768  27.155  35.306  1.00  0.00     0.173 A 
ATOM     89  F   UNL A   1      45.577  29.888  33.729  1.00  0.00    -0.203 F 
ATOM     90  C   UNL A   1      46.372  28.054  34.972  1.00  0.00     0.198 A 
ATOM     91  C   UNL A   1      44.828  26.452  35.872  1.00  0.00     0.198 A 
ATOM     92  F   UNL A   1      42.521  26.692  35.481  1.00  0.00    -0.203 F 
ATOM     93  F   UNL A   1      47.631  28.471  34.780  1.00  0.00    -0.200 F 
ATOM     94  C   UNL A   1      46.128  26.898  35.699  1.00  0.00     0.200 A 
ATOM     95  F   UNL A   1      44.589  25.342  36.585  1.00  0.00    -0.200 F 
ATOM     96  F   UNL A   1      47.149  26.210  36.228  1.00  0.00    -0.200 F 
ENDBRANCH  63  86
ENDBRANCH  37  38
ENDBRANCH  29  32
ENDBRANCH  27  28
ENDBRANCH  26  27
ENDBRANCH   1  26
TORSDOF 15
ENDMDL
MODEL 2
REMARK VINA RESULT:     -12.2      1.011      7.385
REMARK SMILES CCC[C@H](CNC(=O)N1C[C@H]2CCC[N@H+]2C[C@@H]1C)C(=O)NCCCNC(=O)c1ccc(-c2c3nc(c(-c4c(F)c(F)c(F)c(F)c4F)c4ccc([nH]4)c(-c4c(F)c(F)c(F)c(F)c4F)c4nc(c(-c5c(F)c(F)c(F)c(F)c5F)c5ccc2[nH]5)C=C4)C=C3)cc1
REMARK SMILES IDX 22 1 21 2 19 3 20 4 4 6 3 7 2 8 1 9 5 10 6 11 7 12 8 14 9 15
REMARK SMILES IDX 10 16 17 17 11 18 16 19 18 20 12 21 15 22 13 23 14 24 23 26
REMARK SMILES IDX 24 27 25 28 26 29 27 31 28 32 29 33 90 34 30 35 89 36 31 37
REMARK SMILES IDX 32 38 33 39 83 40 34 41 88 42 82 43 84 44 35 45 87 46 81 47
REMARK SMILES IDX 80 48 36 50 68 51 48 52 67 53 49 54 52 55 66 56 85 57 50 58
REMARK SMILES IDX 51 59 65 61 86 62 53 63 37 64 38 65 46 66 39 67 40 68 44 69
REMARK SMILES IDX 47 70 41 71 42 72 45 73 43 74 69 75 70 76 78 77 71 78 72 79
REMARK SMILES IDX 76 80 79 81 73 82 74 83 77 84 75 85 54 86 55 87 63 88 56 89
REMARK SMILES IDX 57 90 61 91 64 92 58 93 59 94 62 95 60 96
REMARK H PARENT 21 5 6 13 15 25 25 30 84 49 52 60
REMARK Flexibility Score: inf
ROOT
ATOM      1  C   UNL A   1      32.059  30.616  26.199  1.00  0.00     0.117 C 
ENDROOT
BRANCH   1   2
ATOM      2  N   UNL A   1      31.634  29.630  27.176  1.00  0.00    -0.356 N 
ATOM      3  C   UNL A   1      31.602  28.271  27.094  1.00  0.00     0.224 C 
ATOM      4  O   UNL A   1      31.369  27.644  28.129  1.00  0.00    -0.275 OA
ATOM      5  H   UNL A   1      31.321  30.002  28.033  1.00  0.00     0.163 HD
BRANCH   3   6
ATOM      6  C   UNL A   1      31.785  27.549  25.767  1.00  0.00     0.097 C 
BRANCH   6   7
ATOM      7  C   UNL A   1      30.615  27.581  24.757  1.00  0.00     0.015 C 
BRANCH   7   8
ATOM      8  C   UNL A   1      30.630  28.444  23.488  1.00  0.00    -0.003 C 
ATOM      9  C   UNL A   1      29.683  29.635  23.462  1.00  0.00     0.004 C 
ENDBRANCH   7   8
ENDBRANCH   6   7
BRANCH   6  10
ATOM     10  C   UNL A   1      32.446  26.194  26.083  1.00  0.00     0.131 C 
BRANCH  10  11
ATOM     11  N   UNL A   1      31.646  25.254  26.828  1.00  0.00    -0.337 N 
ATOM     12  C   UNL A   1      31.595  23.905  26.774  1.00  0.00     0.318 C 
ATOM     13  H   UNL A   1      31.037  25.662  27.485  1.00  0.00     0.165 HD
ATOM     14  O   UNL A   1      30.619  23.373  27.306  1.00  0.00    -0.249 OA
BRANCH  12  15
ATOM     15  N   UNL A   1      32.543  23.189  26.094  1.00  0.00    -0.311 N 
ATOM     16  C   UNL A   1      33.906  23.270  26.616  1.00  0.00     0.186 C 
ATOM     17  C   UNL A   1      32.400  22.484  24.788  1.00  0.00     0.139 C 
ATOM     18  C   UNL A   1      34.928  23.692  25.551  1.00  0.00     0.204 C 
ATOM     19  C   UNL A   1      33.769  21.972  24.239  1.00  0.00     0.287 C 
ATOM     20  C   UNL A   1      31.672  23.335  23.744  1.00  0.00     0.037 C 
ATOM     21  C   UNL A   1      36.358  23.501  26.051  1.00  0.00     0.073 C 
ATOM     22  N   UNL A   1      34.848  22.968  24.259  1.00  0.00    -0.329 N 
ATOM     23  C   UNL A   1      37.140  23.202  24.790  1.00  0.00     0.068 C 
ATOM     24  C   UNL A   1      36.160  22.366  23.987  1.00  0.00     0.262 C 
ATOM     25  H   UNL A   1      34.613  23.628  23.517  1.00  0.00     0.348 HD
ENDBRANCH  12  15
ENDBRANCH  10  11
ENDBRANCH   6  10
ENDBRANCH   3   6
ENDBRANCH   1   2
BRANCH   1  26
ATOM     26  C   UNL A   1      31.693  32.033  26.594  1.00  0.00     0.042 C 
BRANCH  26  27
ATOM     27  C   UNL A   1      32.799  32.723  27.373  1.00  0.00     0.118 C 
BRANCH  27  28
ATOM     28  N   UNL A   1      32.497  34.125  27.652  1.00  0.00    -0.352 N 
ATOM     29  C   UNL A   1      32.995  34.962  28.622  1.00  0.00     0.251 C 
ATOM     30  H   UNL A   1      31.835  34.534  27.051  1.00  0.00     0.163 HD
ATOM     31  O   UNL A   1      32.471  36.045  28.833  1.00  0.00    -0.269 OA
BRANCH  29  32
ATOM     32  C   UNL A   1      34.155  34.527  29.424  1.00  0.00     0.039 A 
ATOM     33  C   UNL A   1      33.947  33.996  30.698  1.00  0.00     0.014 A 
ATOM     34  C   UNL A   1      35.444  34.612  28.894  1.00  0.00     0.014 A 
ATOM     35  C   UNL A   1      35.028  33.465  31.403  1.00  0.00     0.010 A 
ATOM     36  C   UNL A   1      36.494  33.984  29.544  1.00  0.00     0.010 A 
ATOM     37  C   UNL A   1      36.298  33.406  30.807  1.00  0.00    -0.014 A 
BRANCH  37  38
ATOM     38  C   UNL A   1      37.447  32.751  31.475  1.00  0.00     0.031 A 
ATOM     39  C   UNL A   1      38.126  31.584  30.817  1.00  0.00     0.074 A 
ATOM     40  C   UNL A   1      37.812  33.143  32.711  1.00  0.00     0.049 A 
ATOM     41  N   UNL A   1      39.069  30.803  31.280  1.00  0.00    -0.248 NA
ATOM     42  C   UNL A   1      37.653  31.219  29.473  1.00  0.00     0.031 C 
ATOM     43  C   UNL A   1      37.194  34.230  33.472  1.00  0.00     0.029 A 
ATOM     44  N   UNL A   1      38.787  32.664  33.548  1.00  0.00    -0.354 N 
ATOM     45  C   UNL A   1      39.281  29.847  30.297  1.00  0.00     0.074 A 
ATOM     46  C   UNL A   1      38.323  30.101  29.245  1.00  0.00     0.031 C 
ATOM     47  C   UNL A   1      37.831  34.362  34.646  1.00  0.00     0.029 A 
ATOM     48  C   UNL A   1      38.870  33.341  34.740  1.00  0.00     0.049 A 
ATOM     49  H   UNL A   1      39.372  31.906  33.317  1.00  0.00     0.167 HD
ATOM     50  C   UNL A   1      40.212  28.864  30.260  1.00  0.00     0.037 A 
ATOM     51  C   UNL A   1      39.692  33.155  35.788  1.00  0.00     0.037 A 
ATOM     52  C   UNL A   1      41.181  28.637  31.299  1.00  0.00     0.049 A 
ATOM     53  C   UNL A   1      40.704  32.043  35.735  1.00  0.00     0.074 A 
ATOM     54  C   UNL A   1      42.211  27.715  31.333  1.00  0.00     0.029 A 
ATOM     55  N   UNL A   1      41.235  29.344  32.492  1.00  0.00    -0.354 N 
ATOM     56  N   UNL A   1      40.944  31.187  34.772  1.00  0.00    -0.248 NA
ATOM     57  C   UNL A   1      41.559  31.873  36.918  1.00  0.00     0.031 C 
ATOM     58  C   UNL A   1      42.860  27.833  32.568  1.00  0.00     0.029 A 
ATOM     59  C   UNL A   1      42.265  28.861  33.282  1.00  0.00     0.049 A 
ATOM     60  H   UNL A   1      40.630  30.080  32.740  1.00  0.00     0.167 HD
ATOM     61  C   UNL A   1      41.993  30.396  35.216  1.00  0.00     0.074 A 
ATOM     62  C   UNL A   1      42.351  30.881  36.535  1.00  0.00     0.031 C 
ATOM     63  C   UNL A   1      42.608  29.362  34.590  1.00  0.00     0.037 A 
BRANCH  50  64
ATOM     64  C   UNL A   1      40.215  27.969  29.054  1.00  0.00     0.064 A 
ATOM     65  C   UNL A   1      39.498  26.762  29.030  1.00  0.00     0.173 A 
ATOM     66  C   UNL A   1      40.955  28.313  27.913  1.00  0.00     0.173 A 
ATOM     67  F   UNL A   1      38.786  26.379  30.100  1.00  0.00    -0.203 F 
ATOM     68  C   UNL A   1      39.562  25.910  27.930  1.00  0.00     0.198 A 
ATOM     69  C   UNL A   1      40.988  27.476  26.800  1.00  0.00     0.198 A 
ATOM     70  F   UNL A   1      41.655  29.456  27.878  1.00  0.00    -0.203 F 
ATOM     71  F   UNL A   1      38.929  24.730  27.962  1.00  0.00    -0.200 F 
ATOM     72  C   UNL A   1      40.303  26.270  26.815  1.00  0.00     0.200 A 
ATOM     73  F   UNL A   1      41.694  27.829  25.718  1.00  0.00    -0.200 F 
ATOM     74  F   UNL A   1      40.369  25.447  25.759  1.00  0.00    -0.200 F 
ENDBRANCH  50  64
BRANCH  51  75
ATOM     75  C   UNL A   1      39.625  34.074  36.953  1.00  0.00     0.064 A 
ATOM     76  C   UNL A   1      38.858  33.738  38.077  1.00  0.00     0.173 A 
ATOM     77  C   UNL A   1      40.331  35.284  36.981  1.00  0.00     0.173 A 
ATOM     78  F   UNL A   1      38.151  32.598  38.089  1.00  0.00    -0.203 F 
ATOM     79  C   UNL A   1      38.792  34.584  39.182  1.00  0.00     0.198 A 
ATOM     80  C   UNL A   1      40.284  36.118  38.096  1.00  0.00     0.198 A 
ATOM     81  F   UNL A   1      41.084  35.647  35.931  1.00  0.00    -0.203 F 
ATOM     82  F   UNL A   1      38.026  34.253  40.231  1.00  0.00    -0.200 F 
ATOM     83  C   UNL A   1      39.510  35.771  39.194  1.00  0.00     0.200 A 
ATOM     84  F   UNL A   1      40.990  37.256  38.110  1.00  0.00    -0.200 F 
ATOM     85  F   UNL A   1      39.453  36.580  40.260  1.00  0.00    -0.200 F 
ENDBRANCH  51  75
BRANCH  63  86
ATOM     86  C   UNL A   1      43.750  28.706  35.309  1.00  0.00     0.064 A 
ATOM     87  C   UNL A   1      43.545  27.652  36.210  1.00  0.00     0.173 A 
ATOM     88  C   UNL A   1      45.070  29.109  35.056  1.00  0.00     0.173 A 
ATOM     89  F   UNL A   1      42.300  27.242  36.497  1.00  0.00    -0.203 F 
ATOM     90  C   UNL A   1      44.619  27.040  36.850  1.00  0.00     0.198 A 
ATOM     91  C   UNL A   1      46.143  28.475  35.675  1.00  0.00     0.198 A 
ATOM     92  F   UNL A   1      45.320  30.109  34.198  1.00  0.00    -0.203 F 
ATOM     93  F   UNL A   1      44.397  26.064  37.741  1.00  0.00    -0.200 F 
ATOM     94  C   UNL A   1      45.916  27.446  36.575  1.00  0.00     0.200 A 
ATOM     95  F   UNL A   1      47.397  28.860  35.398  1.00  0.00    -0.200 F 
ATOM     96  F   UNL A   1      46.950  26.848  37.184  1.00  0.00    -0.200 F 
ENDBRANCH  63  86
ENDBRANCH  37  38
ENDBRANCH  29  32
ENDBRANCH  27  28
ENDBRANCH  26  27
ENDBRANCH   1  26
TORSDOF 15
ENDMDL
MODEL 3
REMARK VINA RESULT:     -12.2      5.361     10.992
REMARK SMILES CCC[C@H](CNC(=O)N1C[C@H]2CCC[N@H+]2C[C@@H]1C)C(=O)NCCCNC(=O)c1ccc(-c2c3nc(c(-c4c(F)c(F)c(F)c(F)c4F)c4ccc([nH]4)c(-c4c(F)c(F)c(F)c(F)c4F)c4nc(c(-c5c(F)c(F)c(F)c(F)c5F)c5ccc2[nH]5)C=C4)C=C3)cc1
REMARK SMILES IDX 22 1 21 2 19 3 20 4 4 6 3 7 2 8 1 9 5 10 6 11 7 12 8 14 9 15
REMARK SMILES IDX 10 16 17 17 11 18 16 19 18 20 12 21 15 22 13 23 14 24 23 26
REMARK SMILES IDX 24 27 25 28 26 29 27 31 28 32 29 33 90 34 30 35 89 36 31 37
REMARK SMILES IDX 32 38 33 39 83 40 34 41 88 42 82 43 84 44 35 45 87 46 81 47
REMARK SMILES IDX 80 48 36 50 68 51 48 52 67 53 49 54 52 55 66 56 85 57 50 58
REMARK SMILES IDX 51 59 65 61 86 62 53 63 37 64 38 65 46 66 39 67 40 68 44 69
REMARK SMILES IDX 47 70 41 71 42 72 45 73 43 74 69 75 70 76 78 77 71 78 72 79
REMARK SMILES IDX 76 80 79 81 73 82 74 83 77 84 75 85 54 86 55 87 63 88 56 89
REMARK SMILES IDX 57 90 61 91 64 92 58 93 59 94 62 95 60 96
REMARK H PARENT 21 5 6 13 15 25 25 30 84 49 52 60
REMARK Flexibility Score: inf
ROOT
ATOM      1  C   UNL A   1      37.176  20.420  24.806  1.00  0.00     0.117 C 
ENDROOT
BRANCH   1   2
ATOM      2  N   UNL A   1      35.840  20.118  25.287  1.00  0.00    -0.356 N 
ATOM      3  C   UNL A   1      34.724  20.898  25.326  1.00  0.00     0.224 C 
ATOM      4  O   UNL A   1      33.658  20.352  25.616  1.00  0.00    -0.275 OA
ATOM      5  H   UNL A   1      35.722  19.207  25.641  1.00  0.00     0.163 HD
BRANCH   3   6
ATOM      6  C   UNL A   1      34.791  22.399  25.080  1.00  0.00     0.097 C 
BRANCH   6   7
ATOM      7  C   UNL A   1      35.547  23.268  26.111  1.00  0.00     0.015 C 
BRANCH   7   8
ATOM      8  C   UNL A   1      36.792  24.093  25.756  1.00  0.00    -0.003 C 
ATOM      9  C   UNL A   1      38.135  23.521  26.188  1.00  0.00     0.004 C 
ENDBRANCH   7   8
ENDBRANCH   6   7
BRANCH   6  10
ATOM     10  C   UNL A   1      33.385  22.843  24.634  1.00  0.00     0.131 C 
BRANCH  10  11
ATOM     11  N   UNL A   1      32.420  23.049  25.685  1.00  0.00    -0.337 N 
ATOM     12  C   UNL A   1      31.927  24.189  26.215  1.00  0.00     0.318 C 
ATOM     13  H   UNL A   1      32.061  22.222  26.082  1.00  0.00     0.165 HD
ATOM     14  O   UNL A   1      31.340  24.082  27.294  1.00  0.00    -0.249 OA
BRANCH  12  15
ATOM     15  N   UNL A   1      32.142  25.399  25.612  1.00  0.00    -0.311 N 
ATOM     16  C   UNL A   1      33.208  26.220  26.180  1.00  0.00     0.186 C 
ATOM     17  C   UNL A   1      31.310  26.065  24.569  1.00  0.00     0.139 C 
ATOM     18  C   UNL A   1      32.741  27.635  26.548  1.00  0.00     0.204 C 
ATOM     19  C   UNL A   1      31.764  27.534  24.299  1.00  0.00     0.287 C 
ATOM     20  C   UNL A   1      29.814  26.001  24.887  1.00  0.00     0.037 C 
ATOM     21  C   UNL A   1      33.926  28.541  26.876  1.00  0.00     0.073 C 
ATOM     22  N   UNL A   1      31.960  28.346  25.507  1.00  0.00    -0.329 N 
ATOM     23  C   UNL A   1      33.449  29.916  26.460  1.00  0.00     0.068 C 
ATOM     24  C   UNL A   1      32.635  29.617  25.215  1.00  0.00     0.262 C 
ATOM     25  H   UNL A   1      31.020  28.530  25.858  1.00  0.00     0.348 HD
ENDBRANCH  12  15
ENDBRANCH  10  11
ENDBRANCH   6  10
ENDBRANCH   3   6
ENDBRANCH   1   2
BRANCH   1  26
ATOM     26  C   UNL A   1      38.188  19.353  25.169  1.00  0.00     0.042 C 
BRANCH  26  27
ATOM     27  C   UNL A   1      39.473  19.938  25.730  1.00  0.00     0.118 C 
BRANCH  27  28
ATOM     28  N   UNL A   1      40.515  18.931  25.911  1.00  0.00    -0.352 N 
ATOM     29  C   UNL A   1      41.869  19.080  26.095  1.00  0.00     0.251 C 
ATOM     30  H   UNL A   1      40.197  18.000  25.901  1.00  0.00     0.163 HD
ATOM     31  O   UNL A   1      42.614  18.114  26.021  1.00  0.00    -0.269 OA
BRANCH  29  32
ATOM     32  C   UNL A   1      42.417  20.425  26.358  1.00  0.00     0.039 A 
ATOM     33  C   UNL A   1      42.952  21.166  25.303  1.00  0.00     0.014 A 
ATOM     34  C   UNL A   1      42.365  20.962  27.645  1.00  0.00     0.014 A 
ATOM     35  C   UNL A   1      43.349  22.484  25.525  1.00  0.00     0.010 A 
ATOM     36  C   UNL A   1      42.652  22.304  27.840  1.00  0.00     0.010 A 
ATOM     37  C   UNL A   1      43.151  23.079  26.783  1.00  0.00    -0.014 A 
BRANCH  37  38
ATOM     38  C   UNL A   1      43.456  24.507  27.030  1.00  0.00     0.031 A 
ATOM     39  C   UNL A   1      44.842  25.029  26.780  1.00  0.00     0.074 A 
ATOM     40  C   UNL A   1      42.516  25.306  27.571  1.00  0.00     0.049 A 
ATOM     41  N   UNL A   1      45.344  26.210  27.037  1.00  0.00    -0.248 NA
ATOM     42  C   UNL A   1      45.807  24.081  26.199  1.00  0.00     0.031 C 
ATOM     43  C   UNL A   1      41.150  24.900  27.906  1.00  0.00     0.029 A 
ATOM     44  N   UNL A   1      42.570  26.625  27.942  1.00  0.00    -0.354 N 
ATOM     45  C   UNL A   1      46.681  26.137  26.673  1.00  0.00     0.074 A 
ATOM     46  C   UNL A   1      46.930  24.779  26.244  1.00  0.00     0.031 C 
ATOM     47  C   UNL A   1      40.484  25.958  28.395  1.00  0.00     0.029 A 
ATOM     48  C   UNL A   1      41.387  27.103  28.450  1.00  0.00     0.049 A 
ATOM     49  H   UNL A   1      43.381  27.177  27.853  1.00  0.00     0.167 HD
ATOM     50  C   UNL A   1      47.610  27.121  26.666  1.00  0.00     0.037 A 
ATOM     51  C   UNL A   1      41.072  28.327  28.910  1.00  0.00     0.037 A 
ATOM     52  C   UNL A   1      47.346  28.477  27.067  1.00  0.00     0.049 A 
ATOM     53  C   UNL A   1      42.126  29.400  28.914  1.00  0.00     0.074 A 
ATOM     54  C   UNL A   1      48.195  29.569  27.035  1.00  0.00     0.029 A 
ATOM     55  N   UNL A   1      46.135  28.925  27.576  1.00  0.00    -0.354 N 
ATOM     56  N   UNL A   1      43.370  29.341  28.503  1.00  0.00    -0.248 NA
ATOM     57  C   UNL A   1      41.731  30.710  29.448  1.00  0.00     0.031 C 
ATOM     58  C   UNL A   1      47.510  30.667  27.569  1.00  0.00     0.029 A 
ATOM     59  C   UNL A   1      46.221  30.271  27.888  1.00  0.00     0.049 A 
ATOM     60  H   UNL A   1      45.333  28.367  27.697  1.00  0.00     0.167 HD
ATOM     61  C   UNL A   1      43.898  30.609  28.700  1.00  0.00     0.074 A 
ATOM     62  C   UNL A   1      42.835  31.420  29.260  1.00  0.00     0.031 C 
ATOM     63  C   UNL A   1      45.149  31.062  28.440  1.00  0.00     0.037 A 
BRANCH  50  64
ATOM     64  C   UNL A   1      48.994  26.754  26.211  1.00  0.00     0.064 A 
ATOM     65  C   UNL A   1      49.421  26.984  24.893  1.00  0.00     0.173 A 
ATOM     66  C   UNL A   1      49.901  26.155  27.097  1.00  0.00     0.173 A 
ATOM     67  F   UNL A   1      48.589  27.541  24.001  1.00  0.00    -0.203 F 
ATOM     68  C   UNL A   1      50.685  26.581  24.467  1.00  0.00     0.198 A 
ATOM     69  C   UNL A   1      51.177  25.786  26.677  1.00  0.00     0.198 A 
ATOM     70  F   UNL A   1      49.549  25.917  28.370  1.00  0.00    -0.203 F 
ATOM     71  F   UNL A   1      51.040  26.742  23.185  1.00  0.00    -0.200 F 
ATOM     72  C   UNL A   1      51.562  25.986  25.361  1.00  0.00     0.200 A 
ATOM     73  F   UNL A   1      52.029  25.222  27.544  1.00  0.00    -0.200 F 
ATOM     74  F   UNL A   1      52.776  25.593  24.949  1.00  0.00    -0.200 F 
ENDBRANCH  50  64
BRANCH  51  75
ATOM     75  C   UNL A   1      39.684  28.615  29.354  1.00  0.00     0.064 A 
ATOM     76  C   UNL A   1      39.297  28.361  30.677  1.00  0.00     0.173 A 
ATOM     77  C   UNL A   1      38.729  29.163  28.488  1.00  0.00     0.173 A 
ATOM     78  F   UNL A   1      40.172  27.821  31.539  1.00  0.00    -0.203 F 
ATOM     79  C   UNL A   1      38.003  28.635  31.114  1.00  0.00     0.198 A 
ATOM     80  C   UNL A   1      37.442  29.459  28.932  1.00  0.00     0.198 A 
ATOM     81  F   UNL A   1      39.053  29.430  27.213  1.00  0.00    -0.203 F 
ATOM     82  F   UNL A   1      37.651  28.352  32.376  1.00  0.00    -0.200 F 
ATOM     83  C   UNL A   1      37.078  29.190  30.243  1.00  0.00     0.200 A 
ATOM     84  F   UNL A   1      36.555  30.008  28.091  1.00  0.00    -0.200 F 
ATOM     85  F   UNL A   1      35.836  29.461  30.665  1.00  0.00    -0.200 F 
ENDBRANCH  51  75
BRANCH  63  86
ATOM     86  C   UNL A   1      45.428  32.508  28.728  1.00  0.00     0.064 A 
ATOM     87  C   UNL A   1      45.981  32.922  29.948  1.00  0.00     0.173 A 
ATOM     88  C   UNL A   1      45.181  33.485  27.752  1.00  0.00     0.173 A 
ATOM     89  F   UNL A   1      46.219  32.028  30.920  1.00  0.00    -0.203 F 
ATOM     90  C   UNL A   1      46.255  34.266  30.189  1.00  0.00     0.198 A 
ATOM     91  C   UNL A   1      45.484  34.823  27.985  1.00  0.00     0.198 A 
ATOM     92  F   UNL A   1      44.658  33.139  26.565  1.00  0.00    -0.203 F 
ATOM     93  F   UNL A   1      46.741  34.645  31.378  1.00  0.00    -0.200 F 
ATOM     94  C   UNL A   1      46.014  35.213  29.204  1.00  0.00     0.200 A 
ATOM     95  F   UNL A   1      45.264  35.735  27.026  1.00  0.00    -0.200 F 
ATOM     96  F   UNL A   1      46.289  36.504  29.434  1.00  0.00    -0.200 F 
ENDBRANCH  63  86
ENDBRANCH  37  38
ENDBRANCH  29  32
ENDBRANCH  27  28
ENDBRANCH  26  27
ENDBRANCH   1  26
TORSDOF 15
ENDMDL
