MODEL 1
REMARK VINA RESULT:     -10.9      0.000      0.000
REMARK SMILES CCC[NH2+][C@@]1(C(=O)NCCCNC(=O)c2ccc(-c3c4nc(c(-c5c(F)c(F)c(F)c(F)c5F)c5ccc([nH]5)c(-c5c(F)c(F)c(F)c(F)c5F)c5nc(c(-c6c(F)c(F)c(F)c(F)c6F)c6ccc3[nH]6)C=C5)C=C4)cc2)CC[C@H]([N@@H+](C)CCC)C1
REMARK SMILES IDX 9 1 8 2 6 3 7 4 5 6 78 7 86 8 79 9 80 10 4 11 3 14 2 15 1 16
REMARK SMILES IDX 81 17 82 18 83 20 84 21 85 22 10 23 11 24 12 25 13 26 14 28
REMARK SMILES IDX 15 29 16 30 77 31 17 32 76 33 18 34 19 35 20 36 70 37 21 38
REMARK SMILES IDX 75 39 69 40 71 41 22 42 74 43 68 44 67 45 23 47 55 48 35 49
REMARK SMILES IDX 54 50 36 51 39 52 53 53 72 54 37 55 38 56 52 58 73 59 40 60
REMARK SMILES IDX 24 61 25 62 33 63 26 64 27 65 31 66 34 67 28 68 29 69 32 70
REMARK SMILES IDX 30 71 56 72 57 73 65 74 58 75 59 76 63 77 66 78 60 79 61 80
REMARK SMILES IDX 64 81 62 82 41 83 42 84 50 85 43 86 44 87 48 88 51 89 45 90
REMARK SMILES IDX 46 91 49 92 47 93
REMARK H PARENT 8 5 4 12 4 13 81 19 12 27 71 46 39 57
REMARK Flexibility Score: inf
ROOT
ATOM      1  C   UNL A   1      32.243  27.837  27.171  1.00  0.00     0.118 C 
ENDROOT
BRANCH   1   2
ATOM      2  N   UNL A   1      31.180  26.854  27.049  1.00  0.00    -0.351 N 
ATOM      3  C   UNL A   1      30.678  26.061  26.068  1.00  0.00     0.281 C 
ATOM      4  O   UNL A   1      29.825  25.266  26.502  1.00  0.00    -0.268 OA
ATOM      5  H   UNL A   1      30.700  26.729  27.901  1.00  0.00     0.163 HD
BRANCH   3   6
ATOM      6  C   UNL A   1      31.039  26.052  24.519  1.00  0.00     0.181 C 
ATOM      7  C   UNL A   1      30.184  25.164  23.608  1.00  0.00     0.085 C 
ATOM      8  C   UNL A   1      32.437  25.477  24.238  1.00  0.00     0.144 C 
ATOM      9  C   UNL A   1      30.927  23.811  23.503  1.00  0.00     0.072 C 
ATOM     10  C   UNL A   1      32.275  23.957  24.253  1.00  0.00     0.190 C 
BRANCH   6  11
ATOM     11  N   UNL A   1      30.935  27.467  24.005  1.00  0.00    -0.333 N 
ATOM     12  H   UNL A   1      29.947  27.689  23.876  1.00  0.00     0.347 HD
ATOM     13  H   UNL A   1      31.388  28.063  24.699  1.00  0.00     0.347 HD
BRANCH  11  14
ATOM     14  C   UNL A   1      31.631  27.705  22.729  1.00  0.00     0.261 C 
BRANCH  14  15
ATOM     15  C   UNL A   1      32.559  28.921  22.753  1.00  0.00     0.058 C 
ATOM     16  C   UNL A   1      34.028  28.578  22.928  1.00  0.00     0.010 C 
ENDBRANCH  14  15
ENDBRANCH  11  14
ENDBRANCH   6  11
BRANCH  10  17
ATOM     17  N   UNL A   1      32.265  23.314  25.591  1.00  0.00    -0.335 N 
ATOM     18  C   UNL A   1      32.059  21.866  25.437  1.00  0.00     0.332 C 
ATOM     19  H   UNL A   1      31.493  23.718  26.121  1.00  0.00     0.348 HD
BRANCH  17  20
ATOM     20  C   UNL A   1      33.493  23.590  26.373  1.00  0.00     0.261 C 
BRANCH  20  21
ATOM     21  C   UNL A   1      34.804  23.012  25.814  1.00  0.00     0.058 C 
ATOM     22  C   UNL A   1      35.839  24.074  25.485  1.00  0.00     0.010 C 
ENDBRANCH  20  21
ENDBRANCH  17  20
ENDBRANCH  10  17
ENDBRANCH   3   6
ENDBRANCH   1   2
BRANCH   1  23
ATOM     23  C   UNL A   1      31.775  29.296  27.214  1.00  0.00     0.042 C 
BRANCH  23  24
ATOM     24  C   UNL A   1      32.372  30.198  26.135  1.00  0.00     0.118 C 
BRANCH  24  25
ATOM     25  N   UNL A   1      32.495  31.567  26.615  1.00  0.00    -0.352 N 
ATOM     26  C   UNL A   1      33.366  32.203  27.458  1.00  0.00     0.251 C 
ATOM     27  H   UNL A   1      31.801  32.165  26.256  1.00  0.00     0.163 HD
ATOM     28  O   UNL A   1      33.011  33.289  27.914  1.00  0.00    -0.269 OA
BRANCH  26  29
ATOM     29  C   UNL A   1      34.714  31.693  27.829  1.00  0.00     0.039 A 
ATOM     30  C   UNL A   1      34.801  30.342  28.207  1.00  0.00     0.014 A 
ATOM     31  C   UNL A   1      35.829  32.511  28.021  1.00  0.00     0.014 A 
ATOM     32  C   UNL A   1      35.960  29.828  28.800  1.00  0.00     0.010 A 
ATOM     33  C   UNL A   1      37.012  31.984  28.571  1.00  0.00     0.010 A 
ATOM     34  C   UNL A   1      37.076  30.650  29.007  1.00  0.00    -0.014 A 
BRANCH  34  35
ATOM     35  C   UNL A   1      38.255  30.142  29.766  1.00  0.00     0.031 A 
ATOM     36  C   UNL A   1      38.477  30.563  31.198  1.00  0.00     0.074 A 
ATOM     37  C   UNL A   1      39.126  29.287  29.196  1.00  0.00     0.049 A 
ATOM     38  N   UNL A   1      39.458  30.256  32.014  1.00  0.00    -0.248 NA
ATOM     39  C   UNL A   1      37.468  31.455  31.788  1.00  0.00     0.031 C 
ATOM     40  C   UNL A   1      39.043  28.785  27.826  1.00  0.00     0.029 A 
ATOM     41  N   UNL A   1      40.255  28.687  29.704  1.00  0.00    -0.354 N 
ATOM     42  C   UNL A   1      39.198  30.938  33.197  1.00  0.00     0.074 A 
ATOM     43  C   UNL A   1      37.982  31.694  32.987  1.00  0.00     0.031 C 
ATOM     44  C   UNL A   1      40.066  27.941  27.606  1.00  0.00     0.029 A 
ATOM     45  C   UNL A   1      40.894  27.865  28.808  1.00  0.00     0.049 A 
ATOM     46  H   UNL A   1      40.573  28.832  30.623  1.00  0.00     0.167 HD
ATOM     47  C   UNL A   1      39.897  30.927  34.358  1.00  0.00     0.037 A 
ATOM     48  C   UNL A   1      42.020  27.136  28.936  1.00  0.00     0.037 A 
ATOM     49  C   UNL A   1      41.080  30.143  34.603  1.00  0.00     0.049 A 
ATOM     50  C   UNL A   1      42.775  27.135  30.238  1.00  0.00     0.074 A 
ATOM     51  C   UNL A   1      41.821  30.037  35.768  1.00  0.00     0.029 A 
ATOM     52  N   UNL A   1      41.689  29.322  33.668  1.00  0.00    -0.354 N 
ATOM     53  N   UNL A   1      42.502  27.766  31.353  1.00  0.00    -0.248 NA
ATOM     54  C   UNL A   1      43.995  26.315  30.297  1.00  0.00     0.031 C 
ATOM     55  C   UNL A   1      42.896  29.173  35.531  1.00  0.00     0.029 A 
ATOM     56  C   UNL A   1      42.804  28.716  34.227  1.00  0.00     0.049 A 
ATOM     57  H   UNL A   1      41.377  29.188  32.744  1.00  0.00     0.167 HD
ATOM     58  C   UNL A   1      43.498  27.403  32.249  1.00  0.00     0.074 A 
ATOM     59  C   UNL A   1      44.379  26.488  31.554  1.00  0.00     0.031 C 
ATOM     60  C   UNL A   1      43.667  27.797  33.535  1.00  0.00     0.037 A 
BRANCH  47  61
ATOM     61  C   UNL A   1      39.403  31.803  35.471  1.00  0.00     0.064 A 
ATOM     62  C   UNL A   1      38.507  31.327  36.439  1.00  0.00     0.173 A 
ATOM     63  C   UNL A   1      39.872  33.119  35.599  1.00  0.00     0.173 A 
ATOM     64  F   UNL A   1      38.025  30.078  36.354  1.00  0.00    -0.203 F 
ATOM     65  C   UNL A   1      38.079  32.145  37.481  1.00  0.00     0.198 A 
ATOM     66  C   UNL A   1      39.460  33.927  36.655  1.00  0.00     0.198 A 
ATOM     67  F   UNL A   1      40.738  33.619  34.704  1.00  0.00    -0.203 F 
ATOM     68  F   UNL A   1      37.193  31.681  38.373  1.00  0.00    -0.200 F 
ATOM     69  C   UNL A   1      38.559  33.441  37.592  1.00  0.00     0.200 A 
ATOM     70  F   UNL A   1      39.934  35.176  36.768  1.00  0.00    -0.200 F 
ATOM     71  F   UNL A   1      38.150  34.225  38.599  1.00  0.00    -0.200 F 
ENDBRANCH  47  61
BRANCH  48  72
ATOM     72  C   UNL A   1      42.503  26.324  27.791  1.00  0.00     0.064 A 
ATOM     73  C   UNL A   1      42.008  25.032  27.567  1.00  0.00     0.173 A 
ATOM     74  C   UNL A   1      43.475  26.817  26.910  1.00  0.00     0.173 A 
ATOM     75  F   UNL A   1      41.099  24.509  28.402  1.00  0.00    -0.203 F 
ATOM     76  C   UNL A   1      42.478  24.257  26.509  1.00  0.00     0.198 A 
ATOM     77  C   UNL A   1      43.927  26.050  25.839  1.00  0.00     0.198 A 
ATOM     78  F   UNL A   1      43.980  28.046  27.086  1.00  0.00    -0.203 F 
ATOM     79  F   UNL A   1      42.017  23.011  26.337  1.00  0.00    -0.200 F 
ATOM     80  C   UNL A   1      43.432  24.769  25.642  1.00  0.00     0.200 A 
ATOM     81  F   UNL A   1      44.844  26.551  24.999  1.00  0.00    -0.200 F 
ATOM     82  F   UNL A   1      43.882  24.025  24.623  1.00  0.00    -0.200 F 
ENDBRANCH  48  72
BRANCH  60  83
ATOM     83  C   UNL A   1      44.828  27.219  34.289  1.00  0.00     0.064 A 
ATOM     84  C   UNL A   1      46.067  27.872  34.340  1.00  0.00     0.173 A 
ATOM     85  C   UNL A   1      44.685  26.020  35.003  1.00  0.00     0.173 A 
ATOM     86  F   UNL A   1      46.256  29.015  33.661  1.00  0.00    -0.203 F 
ATOM     87  C   UNL A   1      47.129  27.338  35.066  1.00  0.00     0.198 A 
ATOM     88  C   UNL A   1      45.742  25.499  35.745  1.00  0.00     0.198 A 
ATOM     89  F   UNL A   1      43.518  25.359  34.989  1.00  0.00    -0.203 F 
ATOM     90  F   UNL A   1      48.315  27.961  35.074  1.00  0.00    -0.200 F 
ATOM     91  C   UNL A   1      46.963  26.154  35.772  1.00  0.00     0.200 A 
ATOM     92  F   UNL A   1      45.580  24.359  36.432  1.00  0.00    -0.200 F 
ATOM     93  F   UNL A   1      47.984  25.643  36.473  1.00  0.00    -0.200 F 
ENDBRANCH  60  83
ENDBRANCH  34  35
ENDBRANCH  26  29
ENDBRANCH  24  25
ENDBRANCH  23  24
ENDBRANCH   1  23
TORSDOF 16
ENDMDL
MODEL 2
REMARK VINA RESULT:     -10.8      1.236      2.330
REMARK SMILES CCC[NH2+][C@@]1(C(=O)NCCCNC(=O)c2ccc(-c3c4nc(c(-c5c(F)c(F)c(F)c(F)c5F)c5ccc([nH]5)c(-c5c(F)c(F)c(F)c(F)c5F)c5nc(c(-c6c(F)c(F)c(F)c(F)c6F)c6ccc3[nH]6)C=C5)C=C4)cc2)CC[C@H]([N@@H+](C)CCC)C1
REMARK SMILES IDX 9 1 8 2 6 3 7 4 5 6 78 7 86 8 79 9 80 10 4 11 3 14 2 15 1 16
REMARK SMILES IDX 81 17 82 18 83 20 84 21 85 22 10 23 11 24 12 25 13 26 14 28
REMARK SMILES IDX 15 29 16 30 77 31 17 32 76 33 18 34 19 35 20 36 70 37 21 38
REMARK SMILES IDX 75 39 69 40 71 41 22 42 74 43 68 44 67 45 23 47 55 48 35 49
REMARK SMILES IDX 54 50 36 51 39 52 53 53 72 54 37 55 38 56 52 58 73 59 40 60
REMARK SMILES IDX 24 61 25 62 33 63 26 64 27 65 31 66 34 67 28 68 29 69 32 70
REMARK SMILES IDX 30 71 56 72 57 73 65 74 58 75 59 76 63 77 66 78 60 79 61 80
REMARK SMILES IDX 64 81 62 82 41 83 42 84 50 85 43 86 44 87 48 88 51 89 45 90
REMARK SMILES IDX 46 91 49 92 47 93
REMARK H PARENT 8 5 4 12 4 13 81 19 12 27 71 46 39 57
REMARK Flexibility Score: inf
ROOT
ATOM      1  C   UNL A   1      33.596  28.463  25.284  1.00  0.00     0.118 C 
ENDROOT
BRANCH   1   2
ATOM      2  N   UNL A   1      33.930  27.877  23.997  1.00  0.00    -0.351 N 
ATOM      3  C   UNL A   1      33.248  27.364  22.940  1.00  0.00     0.281 C 
ATOM      4  O   UNL A   1      34.000  27.100  21.985  1.00  0.00    -0.268 OA
ATOM      5  H   UNL A   1      34.904  27.845  23.853  1.00  0.00     0.163 HD
BRANCH   3   6
ATOM      6  C   UNL A   1      31.690  27.075  22.812  1.00  0.00     0.181 C 
ATOM      7  C   UNL A   1      30.916  26.830  24.112  1.00  0.00     0.085 C 
ATOM      8  C   UNL A   1      31.388  25.771  22.057  1.00  0.00     0.144 C 
ATOM      9  C   UNL A   1      30.899  25.297  24.323  1.00  0.00     0.072 C 
ATOM     10  C   UNL A   1      31.556  24.647  23.079  1.00  0.00     0.190 C 
BRANCH   6  11
ATOM     11  N   UNL A   1      31.051  28.251  22.115  1.00  0.00    -0.333 N 
ATOM     12  H   UNL A   1      31.791  28.881  21.805  1.00  0.00     0.347 HD
ATOM     13  H   UNL A   1      30.505  27.869  21.342  1.00  0.00     0.347 HD
BRANCH  11  14
ATOM     14  C   UNL A   1      30.113  29.020  22.951  1.00  0.00     0.261 C 
BRANCH  14  15
ATOM     15  C   UNL A   1      29.135  29.878  22.146  1.00  0.00     0.058 C 
ATOM     16  C   UNL A   1      27.866  30.243  22.896  1.00  0.00     0.010 C 
ENDBRANCH  14  15
ENDBRANCH  11  14
ENDBRANCH   6  11
BRANCH  10  17
ATOM     17  N   UNL A   1      32.947  24.194  23.331  1.00  0.00    -0.335 N 
ATOM     18  C   UNL A   1      33.175  24.091  24.780  1.00  0.00     0.332 C 
ATOM     19  H   UNL A   1      33.575  24.892  22.931  1.00  0.00     0.348 HD
BRANCH  17  20
ATOM     20  C   UNL A   1      33.269  22.914  22.657  1.00  0.00     0.261 C 
BRANCH  20  21
ATOM     21  C   UNL A   1      32.216  21.800  22.768  1.00  0.00     0.058 C 
ATOM     22  C   UNL A   1      32.548  20.759  23.823  1.00  0.00     0.010 C 
ENDBRANCH  20  21
ENDBRANCH  17  20
ENDBRANCH  10  17
ENDBRANCH   3   6
ENDBRANCH   1   2
BRANCH   1  23
ATOM     23  C   UNL A   1      32.790  29.765  25.215  1.00  0.00     0.042 C 
BRANCH  23  24
ATOM     24  C   UNL A   1      32.100  30.169  26.517  1.00  0.00     0.118 C 
BRANCH  24  25
ATOM     25  N   UNL A   1      32.307  31.583  26.794  1.00  0.00    -0.352 N 
ATOM     26  C   UNL A   1      33.254  32.286  27.487  1.00  0.00     0.251 C 
ATOM     27  H   UNL A   1      31.614  32.158  26.398  1.00  0.00     0.163 HD
ATOM     28  O   UNL A   1      32.971  33.440  27.808  1.00  0.00    -0.269 OA
BRANCH  26  29
ATOM     29  C   UNL A   1      34.603  31.770  27.845  1.00  0.00     0.039 A 
ATOM     30  C   UNL A   1      34.686  30.421  28.234  1.00  0.00     0.014 A 
ATOM     31  C   UNL A   1      35.727  32.581  28.015  1.00  0.00     0.014 A 
ATOM     32  C   UNL A   1      35.849  29.905  28.817  1.00  0.00     0.010 A 
ATOM     33  C   UNL A   1      36.913  32.050  28.553  1.00  0.00     0.010 A 
ATOM     34  C   UNL A   1      36.973  30.720  29.000  1.00  0.00    -0.014 A 
BRANCH  34  35
ATOM     35  C   UNL A   1      38.159  30.211  29.748  1.00  0.00     0.031 A 
ATOM     36  C   UNL A   1      38.410  30.653  31.169  1.00  0.00     0.074 A 
ATOM     37  C   UNL A   1      39.010  29.336  29.178  1.00  0.00     0.049 A 
ATOM     38  N   UNL A   1      39.400  30.347  31.974  1.00  0.00    -0.248 NA
ATOM     39  C   UNL A   1      37.421  31.566  31.761  1.00  0.00     0.031 C 
ATOM     40  C   UNL A   1      38.898  28.813  27.818  1.00  0.00     0.029 A 
ATOM     41  N   UNL A   1      40.140  28.730  29.677  1.00  0.00    -0.354 N 
ATOM     42  C   UNL A   1      39.168  31.052  33.150  1.00  0.00     0.074 A 
ATOM     43  C   UNL A   1      37.958  31.818  32.947  1.00  0.00     0.031 C 
ATOM     44  C   UNL A   1      39.907  27.953  27.595  1.00  0.00     0.029 A 
ATOM     45  C   UNL A   1      40.754  27.887  28.785  1.00  0.00     0.049 A 
ATOM     46  H   UNL A   1      40.475  28.887  30.589  1.00  0.00     0.167 HD
ATOM     47  C   UNL A   1      39.886  31.051  34.299  1.00  0.00     0.037 A 
ATOM     48  C   UNL A   1      41.873  27.147  28.906  1.00  0.00     0.037 A 
ATOM     49  C   UNL A   1      41.063  30.257  34.537  1.00  0.00     0.049 A 
ATOM     50  C   UNL A   1      42.650  27.157  30.195  1.00  0.00     0.074 A 
ATOM     51  C   UNL A   1      41.822  30.161  35.692  1.00  0.00     0.029 A 
ATOM     52  N   UNL A   1      41.647  29.414  33.606  1.00  0.00    -0.354 N 
ATOM     53  N   UNL A   1      42.403  27.810  31.304  1.00  0.00    -0.248 NA
ATOM     54  C   UNL A   1      43.861  26.324  30.248  1.00  0.00     0.031 C 
ATOM     55  C   UNL A   1      42.883  29.280  35.451  1.00  0.00     0.029 A 
ATOM     56  C   UNL A   1      42.764  28.803  34.157  1.00  0.00     0.049 A 
ATOM     57  H   UNL A   1      41.318  29.268  32.690  1.00  0.00     0.167 HD
ATOM     58  C   UNL A   1      43.410  27.449  32.190  1.00  0.00     0.074 A 
ATOM     59  C   UNL A   1      44.268  26.513  31.496  1.00  0.00     0.031 C 
ATOM     60  C   UNL A   1      43.605  27.863  33.466  1.00  0.00     0.037 A 
BRANCH  47  61
ATOM     61  C   UNL A   1      39.421  31.951  35.406  1.00  0.00     0.064 A 
ATOM     62  C   UNL A   1      39.807  33.298  35.469  1.00  0.00     0.173 A 
ATOM     63  C   UNL A   1      38.539  31.472  36.386  1.00  0.00     0.173 A 
ATOM     64  F   UNL A   1      40.656  33.799  34.559  1.00  0.00    -0.203 F 
ATOM     65  C   UNL A   1      39.345  34.126  36.488  1.00  0.00     0.198 A 
ATOM     66  C   UNL A   1      38.061  32.309  37.390  1.00  0.00     0.198 A 
ATOM     67  F   UNL A   1      38.133  30.194  36.364  1.00  0.00    -0.203 F 
ATOM     68  F   UNL A   1      39.756  35.401  36.550  1.00  0.00    -0.200 F 
ATOM     69  C   UNL A   1      38.469  33.634  37.443  1.00  0.00     0.200 A 
ATOM     70  F   UNL A   1      37.205  31.836  38.306  1.00  0.00    -0.200 F 
ATOM     71  F   UNL A   1      38.021  34.436  38.420  1.00  0.00    -0.200 F 
ENDBRANCH  47  61
BRANCH  48  72
ATOM     72  C   UNL A   1      42.328  26.310  27.767  1.00  0.00     0.064 A 
ATOM     73  C   UNL A   1      41.790  25.034  27.553  1.00  0.00     0.173 A 
ATOM     74  C   UNL A   1      43.314  26.764  26.882  1.00  0.00     0.173 A 
ATOM     75  F   UNL A   1      40.864  24.548  28.393  1.00  0.00    -0.203 F 
ATOM     76  C   UNL A   1      42.232  24.236  26.501  1.00  0.00     0.198 A 
ATOM     77  C   UNL A   1      43.740  25.973  25.816  1.00  0.00     0.198 A 
ATOM     78  F   UNL A   1      43.861  27.976  27.048  1.00  0.00    -0.203 F 
ATOM     79  F   UNL A   1      41.730  23.004  26.339  1.00  0.00    -0.200 F 
ATOM     80  C   UNL A   1      43.202  24.708  25.629  1.00  0.00     0.200 A 
ATOM     81  F   UNL A   1      44.672  26.437  24.971  1.00  0.00    -0.200 F 
ATOM     82  F   UNL A   1      43.626  23.942  24.615  1.00  0.00    -0.200 F 
ENDBRANCH  48  72
BRANCH  60  83
ATOM     83  C   UNL A   1      44.771  27.283  34.211  1.00  0.00     0.064 A 
ATOM     84  C   UNL A   1      44.658  26.084  34.929  1.00  0.00     0.173 A 
ATOM     85  C   UNL A   1      46.024  27.911  34.169  1.00  0.00     0.173 A 
ATOM     86  F   UNL A   1      43.475  25.455  35.009  1.00  0.00    -0.203 F 
ATOM     87  C   UNL A   1      45.754  25.543  35.595  1.00  0.00     0.198 A 
ATOM     88  C   UNL A   1      47.124  27.356  34.819  1.00  0.00     0.198 A 
ATOM     89  F   UNL A   1      46.185  29.057  33.492  1.00  0.00    -0.203 F 
ATOM     90  F   UNL A   1      45.617  24.414  36.304  1.00  0.00    -0.200 F 
ATOM     91  C   UNL A   1      46.988  26.176  35.534  1.00  0.00     0.200 A 
ATOM     92  F   UNL A   1      48.316  27.965  34.755  1.00  0.00    -0.200 F 
ATOM     93  F   UNL A   1      48.043  25.652  36.172  1.00  0.00    -0.200 F 
ENDBRANCH  60  83
ENDBRANCH  34  35
ENDBRANCH  26  29
ENDBRANCH  24  25
ENDBRANCH  23  24
ENDBRANCH   1  23
TORSDOF 16
ENDMDL
MODEL 3
REMARK VINA RESULT:     -10.7      4.480     10.019
REMARK SMILES CCC[NH2+][C@@]1(C(=O)NCCCNC(=O)c2ccc(-c3c4nc(c(-c5c(F)c(F)c(F)c(F)c5F)c5ccc([nH]5)c(-c5c(F)c(F)c(F)c(F)c5F)c5nc(c(-c6c(F)c(F)c(F)c(F)c6F)c6ccc3[nH]6)C=C5)C=C4)cc2)CC[C@H]([N@@H+](C)CCC)C1
REMARK SMILES IDX 9 1 8 2 6 3 7 4 5 6 78 7 86 8 79 9 80 10 4 11 3 14 2 15 1 16
REMARK SMILES IDX 81 17 82 18 83 20 84 21 85 22 10 23 11 24 12 25 13 26 14 28
REMARK SMILES IDX 15 29 16 30 77 31 17 32 76 33 18 34 19 35 20 36 70 37 21 38
REMARK SMILES IDX 75 39 69 40 71 41 22 42 74 43 68 44 67 45 23 47 55 48 35 49
REMARK SMILES IDX 54 50 36 51 39 52 53 53 72 54 37 55 38 56 52 58 73 59 40 60
REMARK SMILES IDX 24 61 25 62 33 63 26 64 27 65 31 66 34 67 28 68 29 69 32 70
REMARK SMILES IDX 30 71 56 72 57 73 65 74 58 75 59 76 63 77 66 78 60 79 61 80
REMARK SMILES IDX 64 81 62 82 41 83 42 84 50 85 43 86 44 87 48 88 51 89 45 90
REMARK SMILES IDX 46 91 49 92 47 93
REMARK H PARENT 8 5 4 12 4 13 81 19 12 27 71 46 39 57
REMARK Flexibility Score: inf
ROOT
ATOM      1  C   UNL A   1      36.070  22.463  26.014  1.00  0.00     0.118 C 
ENDROOT
BRANCH   1   2
ATOM      2  N   UNL A   1      34.948  22.433  26.937  1.00  0.00    -0.351 N 
ATOM      3  C   UNL A   1      33.645  22.052  26.893  1.00  0.00     0.281 C 
ATOM      4  O   UNL A   1      33.109  22.097  28.015  1.00  0.00    -0.268 OA
ATOM      5  H   UNL A   1      35.198  22.777  27.826  1.00  0.00     0.163 HD
BRANCH   3   6
ATOM      6  C   UNL A   1      32.788  21.595  25.634  1.00  0.00     0.181 C 
ATOM      7  C   UNL A   1      33.346  21.938  24.249  1.00  0.00     0.085 C 
ATOM      8  C   UNL A   1      31.419  22.290  25.565  1.00  0.00     0.144 C 
ATOM      9  C   UNL A   1      32.703  23.286  23.845  1.00  0.00     0.072 C 
ATOM     10  C   UNL A   1      31.677  23.663  24.944  1.00  0.00     0.190 C 
BRANCH   6  11
ATOM     11  N   UNL A   1      32.619  20.097  25.701  1.00  0.00    -0.333 N 
ATOM     12  H   UNL A   1      33.293  19.729  26.373  1.00  0.00     0.347 HD
ATOM     13  H   UNL A   1      31.651  19.925  25.974  1.00  0.00     0.347 HD
BRANCH  11  14
ATOM     14  C   UNL A   1      32.823  19.403  24.418  1.00  0.00     0.261 C 
BRANCH  14  15
ATOM     15  C   UNL A   1      33.797  18.224  24.506  1.00  0.00     0.058 C 
ATOM     16  C   UNL A   1      33.695  17.248  23.348  1.00  0.00     0.010 C 
ENDBRANCH  14  15
ENDBRANCH  11  14
ENDBRANCH   6  11
BRANCH  10  17
ATOM     17  N   UNL A   1      32.178  24.713  25.866  1.00  0.00    -0.335 N 
ATOM     18  C   UNL A   1      33.368  25.351  25.283  1.00  0.00     0.332 C 
ATOM     19  H   UNL A   1      32.424  24.259  26.745  1.00  0.00     0.348 HD
BRANCH  17  20
ATOM     20  C   UNL A   1      31.149  25.727  26.199  1.00  0.00     0.261 C 
BRANCH  20  21
ATOM     21  C   UNL A   1      29.920  25.781  25.277  1.00  0.00     0.058 C 
ATOM     22  C   UNL A   1      29.979  26.906  24.258  1.00  0.00     0.010 C 
ENDBRANCH  20  21
ENDBRANCH  17  20
ENDBRANCH  10  17
ENDBRANCH   3   6
ENDBRANCH   1   2
BRANCH   1  23
ATOM     23  C   UNL A   1      36.603  21.088  25.595  1.00  0.00     0.042 C 
BRANCH  23  24
ATOM     24  C   UNL A   1      37.981  21.103  24.937  1.00  0.00     0.118 C 
BRANCH  24  25
ATOM     25  N   UNL A   1      38.920  20.278  25.684  1.00  0.00    -0.352 N 
ATOM     26  C   UNL A   1      40.026  20.548  26.443  1.00  0.00     0.251 C 
ATOM     27  H   UNL A   1      38.714  19.317  25.631  1.00  0.00     0.163 HD
ATOM     28  O   UNL A   1      40.788  19.609  26.675  1.00  0.00    -0.269 OA
BRANCH  26  29
ATOM     29  C   UNL A   1      40.350  21.876  27.029  1.00  0.00     0.039 A 
ATOM     30  C   UNL A   1      39.738  22.997  26.444  1.00  0.00     0.014 A 
ATOM     31  C   UNL A   1      41.364  22.085  27.968  1.00  0.00     0.014 A 
ATOM     32  C   UNL A   1      40.154  24.297  26.756  1.00  0.00     0.010 A 
ATOM     33  C   UNL A   1      41.748  23.391  28.319  1.00  0.00     0.010 A 
ATOM     34  C   UNL A   1      41.179  24.509  27.686  1.00  0.00    -0.014 A 
BRANCH  34  35
ATOM     35  C   UNL A   1      41.719  25.881  27.912  1.00  0.00     0.031 A 
ATOM     36  C   UNL A   1      43.067  26.270  27.356  1.00  0.00     0.074 A 
ATOM     37  C   UNL A   1      41.007  26.799  28.595  1.00  0.00     0.049 A 
ATOM     38  N   UNL A   1      43.722  27.402  27.472  1.00  0.00    -0.248 NA
ATOM     39  C   UNL A   1      43.779  25.249  26.574  1.00  0.00     0.031 C 
ATOM     40  C   UNL A   1      39.689  26.576  29.186  1.00  0.00     0.029 A 
ATOM     41  N   UNL A   1      41.294  28.108  28.903  1.00  0.00    -0.354 N 
ATOM     42  C   UNL A   1      44.927  27.216  26.806  1.00  0.00     0.074 A 
ATOM     43  C   UNL A   1      44.926  25.857  26.308  1.00  0.00     0.031 C 
ATOM     44  C   UNL A   1      39.275  27.712  29.772  1.00  0.00     0.029 A 
ATOM     45  C   UNL A   1      40.308  28.735  29.624  1.00  0.00     0.049 A 
ATOM     46  H   UNL A   1      42.129  28.553  28.631  1.00  0.00     0.167 HD
ATOM     47  C   UNL A   1      45.938  28.098  26.611  1.00  0.00     0.037 A 
ATOM     48  C   UNL A   1      40.243  29.988  30.115  1.00  0.00     0.037 A 
ATOM     49  C   UNL A   1      45.935  29.468  27.054  1.00  0.00     0.049 A 
ATOM     50  C   UNL A   1      41.375  30.951  29.880  1.00  0.00     0.074 A 
ATOM     51  C   UNL A   1      46.900  30.442  26.856  1.00  0.00     0.029 A 
ATOM     52  N   UNL A   1      44.914  30.061  27.778  1.00  0.00    -0.354 N 
ATOM     53  N   UNL A   1      42.496  30.767  29.228  1.00  0.00    -0.248 NA
ATOM     54  C   UNL A   1      41.229  32.299  30.449  1.00  0.00     0.031 C 
ATOM     55  C   UNL A   1      46.474  31.618  27.483  1.00  0.00     0.029 A 
ATOM     56  C   UNL A   1      45.230  31.384  28.044  1.00  0.00     0.049 A 
ATOM     57  H   UNL A   1      44.085  29.611  28.061  1.00  0.00     0.167 HD
ATOM     58  C   UNL A   1      43.175  31.976  29.288  1.00  0.00     0.074 A 
ATOM     59  C   UNL A   1      42.339  32.893  30.031  1.00  0.00     0.031 C 
ATOM     60  C   UNL A   1      44.387  32.295  28.772  1.00  0.00     0.037 A 
BRANCH  47  61
ATOM     61  C   UNL A   1      47.154  27.607  25.884  1.00  0.00     0.064 A 
ATOM     62  C   UNL A   1      47.269  27.712  24.489  1.00  0.00     0.173 A 
ATOM     63  C   UNL A   1      48.238  27.070  26.594  1.00  0.00     0.173 A 
ATOM     64  F   UNL A   1      46.255  28.211  23.766  1.00  0.00    -0.203 F 
ATOM     65  C   UNL A   1      48.415  27.275  23.832  1.00  0.00     0.198 A 
ATOM     66  C   UNL A   1      49.392  26.656  25.936  1.00  0.00     0.198 A 
ATOM     67  F   UNL A   1      48.181  26.957  27.930  1.00  0.00    -0.203 F 
ATOM     68  F   UNL A   1      48.489  27.351  22.496  1.00  0.00    -0.200 F 
ATOM     69  C   UNL A   1      49.477  26.753  24.555  1.00  0.00     0.200 A 
ATOM     70  F   UNL A   1      50.423  26.163  26.637  1.00  0.00    -0.200 F 
ATOM     71  F   UNL A   1      50.583  26.339  23.920  1.00  0.00    -0.200 F 
ENDBRANCH  47  61
BRANCH  48  72
ATOM     72  C   UNL A   1      39.043  30.417  30.876  1.00  0.00     0.064 A 
ATOM     73  C   UNL A   1      37.935  30.970  30.219  1.00  0.00     0.173 A 
ATOM     74  C   UNL A   1      38.986  30.295  32.271  1.00  0.00     0.173 A 
ATOM     75  F   UNL A   1      37.958  31.132  28.888  1.00  0.00    -0.203 F 
ATOM     76  C   UNL A   1      36.818  31.398  30.932  1.00  0.00     0.198 A 
ATOM     77  C   UNL A   1      37.859  30.702  32.981  1.00  0.00     0.198 A 
ATOM     78  F   UNL A   1      40.023  29.775  32.943  1.00  0.00    -0.203 F 
ATOM     79  F   UNL A   1      35.786  31.958  30.286  1.00  0.00    -0.200 F 
ATOM     80  C   UNL A   1      36.777  31.257  32.312  1.00  0.00     0.200 A 
ATOM     81  F   UNL A   1      37.820  30.558  34.313  1.00  0.00    -0.200 F 
ATOM     82  F   UNL A   1      35.702  31.666  32.998  1.00  0.00    -0.200 F 
ENDBRANCH  48  72
BRANCH  60  83
ATOM     83  C   UNL A   1      44.873  33.702  28.963  1.00  0.00     0.064 A 
ATOM     84  C   UNL A   1      45.672  34.058  30.059  1.00  0.00     0.173 A 
ATOM     85  C   UNL A   1      44.570  34.692  28.018  1.00  0.00     0.173 A 
ATOM     86  F   UNL A   1      45.975  33.148  30.997  1.00  0.00    -0.203 F 
ATOM     87  C   UNL A   1      46.137  35.362  30.210  1.00  0.00     0.198 A 
ATOM     88  C   UNL A   1      45.055  35.990  28.161  1.00  0.00     0.198 A 
ATOM     89  F   UNL A   1      43.813  34.400  26.950  1.00  0.00    -0.203 F 
ATOM     90  F   UNL A   1      46.871  35.690  31.282  1.00  0.00    -0.200 F 
ATOM     91  C   UNL A   1      45.833  36.325  29.258  1.00  0.00     0.200 A 
ATOM     92  F   UNL A   1      44.766  36.918  27.238  1.00  0.00    -0.200 F 
ATOM     93  F   UNL A   1      46.285  37.578  29.404  1.00  0.00    -0.200 F 
ENDBRANCH  60  83
ENDBRANCH  34  35
ENDBRANCH  26  29
ENDBRANCH  24  25
ENDBRANCH  23  24
ENDBRANCH   1  23
TORSDOF 16
ENDMDL
