MODEL 1
REMARK VINA RESULT:     -13.6      0.000      0.000
REMARK SMILES Cc1ccc(/C=C/C(=O)N[C@](C)(C(=O)NCCCNC(=O)c2ccc(-c3c4nc(c(-c5c(F)c(F)c(F)c(F)c5F)c5ccc([nH]5)c(-c5c(F)c(F)c(F)c(F)c5F)c5nc(c(-c6c(F)c(F)c(F)c(F)c6F)c6ccc3[nH]6)C=C5)C=C4)cc2)C(F)(F)F)cc1
REMARK SMILES IDX 16 1 15 2 13 3 14 4 11 6 12 7 10 8 8 9 9 10 7 12 6 13 5 14
REMARK SMILES IDX 1 15 2 16 3 17 90 18 4 19 89 20 85 21 86 22 87 23 88 24
REMARK SMILES IDX 17 25 18 26 19 27 20 28 21 30 22 31 23 32 84 33 24 34 83 35
REMARK SMILES IDX 25 36 26 37 27 38 77 39 28 40 82 41 76 42 78 43 29 44 81 45
REMARK SMILES IDX 75 46 74 47 30 49 62 50 42 51 61 52 43 53 46 54 60 55 79 56
REMARK SMILES IDX 44 57 45 58 59 60 80 61 47 62 31 63 32 64 40 65 33 66 34 67
REMARK SMILES IDX 38 68 41 69 35 70 36 71 39 72 37 73 63 74 64 75 72 76 65 77
REMARK SMILES IDX 66 78 70 79 73 80 67 81 68 82 71 83 69 84 48 85 49 86 57 87
REMARK SMILES IDX 50 88 51 89 55 90 58 91 52 92 53 93 56 94 54 95
REMARK H PARENT 15 5 10 11 19 29 78 48 46 59
REMARK Flexibility Score: inf
ROOT
ATOM      1  C   UNL A   1      32.249  30.250  25.760  1.00  0.00     0.117 C 
ENDROOT
BRANCH   1   2
ATOM      2  N   UNL A   1      33.071  29.704  24.683  1.00  0.00    -0.354 N 
ATOM      3  C   UNL A   1      32.818  28.810  23.674  1.00  0.00     0.254 C 
ATOM      4  O   UNL A   1      33.785  28.564  22.947  1.00  0.00    -0.272 OA
ATOM      5  H   UNL A   1      33.993  30.049  24.681  1.00  0.00     0.163 HD
BRANCH   3   6
ATOM      6  C   UNL A   1      31.499  28.005  23.578  1.00  0.00     0.212 C 
ATOM      7  C   UNL A   1      31.737  26.861  22.586  1.00  0.00     0.056 C 
BRANCH   6   8
ATOM      8  N   UNL A   1      31.082  27.625  24.966  1.00  0.00    -0.331 N 
ATOM      9  C   UNL A   1      31.425  26.694  25.886  1.00  0.00     0.245 C 
ATOM     10  O   UNL A   1      30.804  26.651  26.945  1.00  0.00    -0.270 OA
ATOM     11  H   UNL A   1      30.365  28.211  25.300  1.00  0.00     0.165 HD
BRANCH   9  12
ATOM     12  C   UNL A   1      32.625  25.863  25.725  1.00  0.00     0.072 C 
ATOM     13  C   UNL A   1      32.566  24.535  25.577  1.00  0.00     0.014 C 
BRANCH  13  14
ATOM     14  C   UNL A   1      33.778  23.743  25.352  1.00  0.00    -0.025 A 
ATOM     15  C   UNL A   1      37.404  21.521  24.625  1.00  0.00     0.044 C 
ATOM     16  C   UNL A   1      36.147  22.286  24.916  1.00  0.00    -0.051 A 
ATOM     17  C   UNL A   1      34.898  21.670  24.776  1.00  0.00     0.004 A 
ATOM     18  C   UNL A   1      36.203  23.634  25.280  1.00  0.00     0.004 A 
ATOM     19  C   UNL A   1      33.720  22.392  24.998  1.00  0.00     0.008 A 
ATOM     20  C   UNL A   1      35.028  24.356  25.490  1.00  0.00     0.008 A 
ENDBRANCH  13  14
ENDBRANCH   9  12
ENDBRANCH   6   8
BRANCH   6  21
ATOM     21  C   UNL A   1      30.437  28.942  22.953  1.00  0.00     0.420 C 
ATOM     22  F   UNL A   1      30.918  29.706  21.949  1.00  0.00    -0.168 F 
ATOM     23  F   UNL A   1      29.428  28.202  22.415  1.00  0.00    -0.168 F 
ATOM     24  F   UNL A   1      29.866  29.750  23.876  1.00  0.00    -0.168 F 
ENDBRANCH   6  21
ENDBRANCH   3   6
ENDBRANCH   1   2
BRANCH   1  25
ATOM     25  C   UNL A   1      32.891  30.116  27.136  1.00  0.00     0.042 C 
BRANCH  25  26
ATOM     26  C   UNL A   1      34.379  30.422  27.157  1.00  0.00     0.118 C 
BRANCH  26  27
ATOM     27  N   UNL A   1      34.808  31.244  28.283  1.00  0.00    -0.352 N 
ATOM     28  C   UNL A   1      35.902  31.065  29.116  1.00  0.00     0.251 C 
ATOM     29  H   UNL A   1      34.247  32.029  28.478  1.00  0.00     0.163 HD
ATOM     30  O   UNL A   1      36.153  31.858  30.006  1.00  0.00    -0.269 OA
BRANCH  28  31
ATOM     31  C   UNL A   1      36.835  29.953  28.818  1.00  0.00     0.039 A 
ATOM     32  C   UNL A   1      36.996  28.954  29.782  1.00  0.00     0.014 A 
ATOM     33  C   UNL A   1      37.707  30.044  27.737  1.00  0.00     0.014 A 
ATOM     34  C   UNL A   1      38.180  28.221  29.804  1.00  0.00     0.010 A 
ATOM     35  C   UNL A   1      38.926  29.402  27.822  1.00  0.00     0.010 A 
ATOM     36  C   UNL A   1      39.190  28.547  28.898  1.00  0.00    -0.014 A 
BRANCH  36  37
ATOM     37  C   UNL A   1      40.583  28.161  29.095  1.00  0.00     0.031 A 
ATOM     38  C   UNL A   1      41.110  26.899  28.538  1.00  0.00     0.074 A 
ATOM     39  C   UNL A   1      41.426  29.023  29.709  1.00  0.00     0.049 A 
ATOM     40  N   UNL A   1      42.172  26.301  28.963  1.00  0.00    -0.248 NA
ATOM     41  C   UNL A   1      40.432  26.169  27.475  1.00  0.00     0.031 C 
ATOM     42  C   UNL A   1      42.886  28.973  29.724  1.00  0.00     0.029 A 
ATOM     43  N   UNL A   1      41.103  30.042  30.625  1.00  0.00    -0.354 N 
ATOM     44  C   UNL A   1      42.481  25.296  28.072  1.00  0.00     0.074 A 
ATOM     45  C   UNL A   1      41.317  25.199  27.224  1.00  0.00     0.031 C 
ATOM     46  C   UNL A   1      43.332  29.670  30.780  1.00  0.00     0.029 A 
ATOM     47  C   UNL A   1      42.170  30.064  31.554  1.00  0.00     0.049 A 
ATOM     48  H   UNL A   1      40.305  30.618  30.619  1.00  0.00     0.167 HD
ATOM     49  C   UNL A   1      43.744  24.771  28.083  1.00  0.00     0.037 A 
ATOM     50  C   UNL A   1      41.983  29.786  32.877  1.00  0.00     0.037 A 
ATOM     51  C   UNL A   1      44.522  25.303  29.204  1.00  0.00     0.049 A 
ATOM     52  C   UNL A   1      42.823  28.644  33.390  1.00  0.00     0.074 A 
ATOM     53  C   UNL A   1      45.496  26.285  29.291  1.00  0.00     0.029 A 
ATOM     54  N   UNL A   1      44.141  25.012  30.511  1.00  0.00    -0.354 N 
ATOM     55  N   UNL A   1      43.357  27.737  32.622  1.00  0.00    -0.248 NA
ATOM     56  C   UNL A   1      43.088  28.405  34.806  1.00  0.00     0.031 C 
ATOM     57  C   UNL A   1      45.679  26.608  30.657  1.00  0.00     0.029 A 
ATOM     58  C   UNL A   1      44.823  25.816  31.404  1.00  0.00     0.049 A 
ATOM     59  H   UNL A   1      43.478  24.330  30.764  1.00  0.00     0.167 HD
ATOM     60  C   UNL A   1      43.996  26.802  33.395  1.00  0.00     0.074 A 
ATOM     61  C   UNL A   1      43.816  27.277  34.755  1.00  0.00     0.031 C 
ATOM     62  C   UNL A   1      44.600  25.711  32.838  1.00  0.00     0.037 A 
BRANCH  49  63
ATOM     63  C   UNL A   1      44.388  24.017  26.925  1.00  0.00     0.064 A 
ATOM     64  C   UNL A   1      44.043  22.668  26.665  1.00  0.00     0.173 A 
ATOM     65  C   UNL A   1      45.403  24.516  26.088  1.00  0.00     0.173 A 
ATOM     66  F   UNL A   1      43.007  22.077  27.274  1.00  0.00    -0.203 F 
ATOM     67  C   UNL A   1      44.744  21.865  25.758  1.00  0.00     0.198 A 
ATOM     68  C   UNL A   1      46.133  23.704  25.211  1.00  0.00     0.198 A 
ATOM     69  F   UNL A   1      45.687  25.818  26.025  1.00  0.00    -0.203 F 
ATOM     70  F   UNL A   1      44.378  20.588  25.579  1.00  0.00    -0.200 F 
ATOM     71  C   UNL A   1      45.816  22.373  25.059  1.00  0.00     0.200 A 
ATOM     72  F   UNL A   1      47.147  24.234  24.510  1.00  0.00    -0.200 F 
ATOM     73  F   UNL A   1      46.515  21.599  24.220  1.00  0.00    -0.200 F 
ENDBRANCH  49  63
BRANCH  50  74
ATOM     74  C   UNL A   1      40.624  30.124  33.366  1.00  0.00     0.064 A 
ATOM     75  C   UNL A   1      40.323  31.474  33.631  1.00  0.00     0.173 A 
ATOM     76  C   UNL A   1      39.551  29.237  33.213  1.00  0.00     0.173 A 
ATOM     77  F   UNL A   1      41.317  32.363  33.779  1.00  0.00    -0.203 F 
ATOM     78  C   UNL A   1      39.010  31.937  33.627  1.00  0.00     0.198 A 
ATOM     79  C   UNL A   1      38.235  29.704  33.222  1.00  0.00     0.198 A 
ATOM     80  F   UNL A   1      39.773  27.945  32.935  1.00  0.00    -0.203 F 
ATOM     81  F   UNL A   1      38.764  33.247  33.765  1.00  0.00    -0.200 F 
ATOM     82  C   UNL A   1      37.969  31.055  33.394  1.00  0.00     0.200 A 
ATOM     83  F   UNL A   1      37.227  28.859  32.960  1.00  0.00    -0.200 F 
ATOM     84  F   UNL A   1      36.713  31.513  33.286  1.00  0.00    -0.200 F 
ENDBRANCH  50  74
BRANCH  62  85
ATOM     85  C   UNL A   1      45.123  24.500  33.575  1.00  0.00     0.064 A 
ATOM     86  C   UNL A   1      44.385  23.323  33.784  1.00  0.00     0.173 A 
ATOM     87  C   UNL A   1      46.481  24.440  33.978  1.00  0.00     0.173 A 
ATOM     88  F   UNL A   1      43.127  23.200  33.340  1.00  0.00    -0.203 F 
ATOM     89  C   UNL A   1      44.939  22.200  34.405  1.00  0.00     0.198 A 
ATOM     90  C   UNL A   1      47.047  23.298  34.544  1.00  0.00     0.198 A 
ATOM     91  F   UNL A   1      47.310  25.480  33.809  1.00  0.00    -0.203 F 
ATOM     92  F   UNL A   1      44.178  21.116  34.616  1.00  0.00    -0.200 F 
ATOM     93  C   UNL A   1      46.271  22.182  34.772  1.00  0.00     0.200 A 
ATOM     94  F   UNL A   1      48.354  23.280  34.844  1.00  0.00    -0.200 F 
ATOM     95  F   UNL A   1      46.810  21.086  35.323  1.00  0.00    -0.200 F 
ENDBRANCH  62  85
ENDBRANCH  36  37
ENDBRANCH  28  31
ENDBRANCH  26  27
ENDBRANCH  25  26
ENDBRANCH   1  25
TORSDOF 14
ENDMDL
MODEL 2
REMARK VINA RESULT:     -13.5      4.358     10.349
REMARK SMILES Cc1ccc(/C=C/C(=O)N[C@](C)(C(=O)NCCCNC(=O)c2ccc(-c3c4nc(c(-c5c(F)c(F)c(F)c(F)c5F)c5ccc([nH]5)c(-c5c(F)c(F)c(F)c(F)c5F)c5nc(c(-c6c(F)c(F)c(F)c(F)c6F)c6ccc3[nH]6)C=C5)C=C4)cc2)C(F)(F)F)cc1
REMARK SMILES IDX 16 1 15 2 13 3 14 4 11 6 12 7 10 8 8 9 9 10 7 12 6 13 5 14
REMARK SMILES IDX 1 15 2 16 3 17 90 18 4 19 89 20 85 21 86 22 87 23 88 24
REMARK SMILES IDX 17 25 18 26 19 27 20 28 21 30 22 31 23 32 84 33 24 34 83 35
REMARK SMILES IDX 25 36 26 37 27 38 77 39 28 40 82 41 76 42 78 43 29 44 81 45
REMARK SMILES IDX 75 46 74 47 30 49 62 50 42 51 61 52 43 53 46 54 60 55 79 56
REMARK SMILES IDX 44 57 45 58 59 60 80 61 47 62 31 63 32 64 40 65 33 66 34 67
REMARK SMILES IDX 38 68 41 69 35 70 36 71 39 72 37 73 63 74 64 75 72 76 65 77
REMARK SMILES IDX 66 78 70 79 73 80 67 81 68 82 71 83 69 84 48 85 49 86 57 87
REMARK SMILES IDX 50 88 51 89 55 90 58 91 52 92 53 93 56 94 54 95
REMARK H PARENT 15 5 10 11 19 29 78 48 46 59
REMARK Flexibility Score: inf
ROOT
ATOM      1  C   UNL A   1      36.660  21.468  25.132  1.00  0.00     0.117 C 
ENDROOT
BRANCH   1   2
ATOM      2  N   UNL A   1      35.835  21.858  26.272  1.00  0.00    -0.354 N 
ATOM      3  C   UNL A   1      34.480  21.890  26.479  1.00  0.00     0.254 C 
ATOM      4  O   UNL A   1      34.135  22.309  27.588  1.00  0.00    -0.272 OA
ATOM      5  H   UNL A   1      36.358  22.158  27.050  1.00  0.00     0.163 HD
BRANCH   3   6
ATOM      6  C   UNL A   1      33.453  21.633  25.348  1.00  0.00     0.212 C 
ATOM      7  C   UNL A   1      32.115  22.224  25.808  1.00  0.00     0.056 C 
BRANCH   6   8
ATOM      8  N   UNL A   1      34.025  22.163  24.069  1.00  0.00    -0.331 N 
ATOM      9  C   UNL A   1      34.273  23.374  23.518  1.00  0.00     0.245 C 
ATOM     10  O   UNL A   1      34.724  23.423  22.376  1.00  0.00    -0.270 OA
ATOM     11  H   UNL A   1      34.295  21.433  23.466  1.00  0.00     0.165 HD
BRANCH   9  12
ATOM     12  C   UNL A   1      34.185  24.607  24.308  1.00  0.00     0.072 C 
ATOM     13  C   UNL A   1      33.751  25.763  23.793  1.00  0.00     0.014 C 
BRANCH  13  14
ATOM     14  C   UNL A   1      33.614  26.961  24.626  1.00  0.00    -0.025 A 
ATOM     15  C   UNL A   1      33.134  30.411  27.172  1.00  0.00     0.044 C 
ATOM     16  C   UNL A   1      33.339  29.216  26.289  1.00  0.00    -0.051 A 
ATOM     17  C   UNL A   1      33.246  29.342  24.897  1.00  0.00     0.004 A 
ATOM     18  C   UNL A   1      33.576  27.955  26.842  1.00  0.00     0.004 A 
ATOM     19  C   UNL A   1      33.388  28.223  24.070  1.00  0.00     0.008 A 
ATOM     20  C   UNL A   1      33.706  26.837  26.017  1.00  0.00     0.008 A 
ENDBRANCH  13  14
ENDBRANCH   9  12
ENDBRANCH   6   8
BRANCH   6  21
ATOM     21  C   UNL A   1      33.266  20.100  25.241  1.00  0.00     0.420 C 
ATOM     22  F   UNL A   1      32.126  19.740  24.613  1.00  0.00    -0.168 F 
ATOM     23  F   UNL A   1      34.284  19.561  24.515  1.00  0.00    -0.168 F 
ATOM     24  F   UNL A   1      33.302  19.498  26.452  1.00  0.00    -0.168 F 
ENDBRANCH   6  21
ENDBRANCH   3   6
ENDBRANCH   1   2
BRANCH   1  25
ATOM     25  C   UNL A   1      38.150  21.428  25.452  1.00  0.00     0.042 C 
BRANCH  25  26
ATOM     26  C   UNL A   1      38.673  22.686  26.125  1.00  0.00     0.118 C 
BRANCH  26  27
ATOM     27  N   UNL A   1      40.126  22.748  26.236  1.00  0.00    -0.352 N 
ATOM     28  C   UNL A   1      40.925  23.850  26.503  1.00  0.00     0.251 C 
ATOM     29  H   UNL A   1      40.602  21.897  26.105  1.00  0.00     0.163 HD
ATOM     30  O   UNL A   1      42.136  23.743  26.596  1.00  0.00    -0.269 OA
BRANCH  28  31
ATOM     31  C   UNL A   1      40.262  25.141  26.799  1.00  0.00     0.039 A 
ATOM     32  C   UNL A   1      40.739  26.288  26.157  1.00  0.00     0.014 A 
ATOM     33  C   UNL A   1      39.379  25.243  27.870  1.00  0.00     0.014 A 
ATOM     34  C   UNL A   1      40.540  27.529  26.755  1.00  0.00     0.010 A 
ATOM     35  C   UNL A   1      39.276  26.454  28.524  1.00  0.00     0.010 A 
ATOM     36  C   UNL A   1      39.921  27.582  28.005  1.00  0.00    -0.014 A 
BRANCH  36  37
ATOM     37  C   UNL A   1      40.038  28.731  28.897  1.00  0.00     0.031 A 
ATOM     38  C   UNL A   1      38.982  29.763  28.953  1.00  0.00     0.074 A 
ATOM     39  C   UNL A   1      41.081  28.795  29.756  1.00  0.00     0.049 A 
ATOM     40  N   UNL A   1      39.158  30.962  29.397  1.00  0.00    -0.248 NA
ATOM     41  C   UNL A   1      37.636  29.533  28.449  1.00  0.00     0.031 C 
ATOM     42  C   UNL A   1      41.216  29.668  30.920  1.00  0.00     0.029 A 
ATOM     43  N   UNL A   1      42.345  28.189  29.628  1.00  0.00    -0.354 N 
ATOM     44  C   UNL A   1      37.921  31.560  29.511  1.00  0.00     0.074 A 
ATOM     45  C   UNL A   1      37.025  30.662  28.820  1.00  0.00     0.031 C 
ATOM     46  C   UNL A   1      42.517  29.789  31.223  1.00  0.00     0.029 A 
ATOM     47  C   UNL A   1      43.263  29.115  30.176  1.00  0.00     0.049 A 
ATOM     48  H   UNL A   1      42.546  27.307  29.240  1.00  0.00     0.167 HD
ATOM     49  C   UNL A   1      37.795  32.669  30.300  1.00  0.00     0.037 A 
ATOM     50  C   UNL A   1      44.245  29.691  29.425  1.00  0.00     0.037 A 
ATOM     51  C   UNL A   1      39.105  33.124  30.775  1.00  0.00     0.049 A 
ATOM     52  C   UNL A   1      44.203  31.199  29.409  1.00  0.00     0.074 A 
ATOM     53  C   UNL A   1      39.766  32.984  31.985  1.00  0.00     0.029 A 
ATOM     54  N   UNL A   1      40.047  33.593  29.866  1.00  0.00    -0.354 N 
ATOM     55  N   UNL A   1      43.144  31.896  29.708  1.00  0.00    -0.248 NA
ATOM     56  C   UNL A   1      45.331  32.037  29.011  1.00  0.00     0.031 C 
ATOM     57  C   UNL A   1      41.122  33.342  31.792  1.00  0.00     0.029 A 
ATOM     58  C   UNL A   1      41.285  33.710  30.468  1.00  0.00     0.049 A 
ATOM     59  H   UNL A   1      39.859  33.812  28.925  1.00  0.00     0.167 HD
ATOM     60  C   UNL A   1      43.408  33.228  29.528  1.00  0.00     0.074 A 
ATOM     61  C   UNL A   1      44.798  33.267  29.111  1.00  0.00     0.031 C 
ATOM     62  C   UNL A   1      42.446  34.177  29.725  1.00  0.00     0.037 A 
BRANCH  49  63
ATOM     63  C   UNL A   1      36.488  33.176  30.897  1.00  0.00     0.064 A 
ATOM     64  C   UNL A   1      35.571  33.908  30.104  1.00  0.00     0.173 A 
ATOM     65  C   UNL A   1      36.105  33.057  32.246  1.00  0.00     0.173 A 
ATOM     66  F   UNL A   1      35.709  34.001  28.775  1.00  0.00    -0.203 F 
ATOM     67  C   UNL A   1      34.462  34.572  30.641  1.00  0.00     0.198 A 
ATOM     68  C   UNL A   1      35.020  33.754  32.793  1.00  0.00     0.198 A 
ATOM     69  F   UNL A   1      36.712  32.210  33.079  1.00  0.00    -0.203 F 
ATOM     70  F   UNL A   1      33.648  35.268  29.834  1.00  0.00    -0.200 F 
ATOM     71  C   UNL A   1      34.209  34.528  31.994  1.00  0.00     0.200 A 
ATOM     72  F   UNL A   1      34.771  33.662  34.108  1.00  0.00    -0.200 F 
ATOM     73  F   UNL A   1      33.173  35.195  32.518  1.00  0.00    -0.200 F 
ENDBRANCH  49  63
BRANCH  50  74
ATOM     74  C   UNL A   1      44.698  28.845  28.294  1.00  0.00     0.064 A 
ATOM     75  C   UNL A   1      45.521  27.736  28.573  1.00  0.00     0.173 A 
ATOM     76  C   UNL A   1      44.052  28.878  27.052  1.00  0.00     0.173 A 
ATOM     77  F   UNL A   1      46.156  27.656  29.753  1.00  0.00    -0.203 F 
ATOM     78  C   UNL A   1      45.599  26.656  27.700  1.00  0.00     0.198 A 
ATOM     79  C   UNL A   1      44.144  27.796  26.174  1.00  0.00     0.198 A 
ATOM     80  F   UNL A   1      43.238  29.894  26.738  1.00  0.00    -0.203 F 
ATOM     81  F   UNL A   1      46.297  25.565  28.049  1.00  0.00    -0.200 F 
ATOM     82  C   UNL A   1      44.888  26.675  26.513  1.00  0.00     0.200 A 
ATOM     83  F   UNL A   1      43.427  27.797  25.040  1.00  0.00    -0.200 F 
ATOM     84  F   UNL A   1      44.879  25.595  25.718  1.00  0.00    -0.200 F 
ENDBRANCH  50  74
BRANCH  62  85
ATOM     85  C   UNL A   1      42.530  35.636  29.339  1.00  0.00     0.064 A 
ATOM     86  C   UNL A   1      43.305  36.590  30.020  1.00  0.00     0.173 A 
ATOM     87  C   UNL A   1      41.921  36.096  28.144  1.00  0.00     0.173 A 
ATOM     88  F   UNL A   1      44.032  36.259  31.095  1.00  0.00    -0.203 F 
ATOM     89  C   UNL A   1      43.410  37.912  29.579  1.00  0.00     0.198 A 
ATOM     90  C   UNL A   1      42.076  37.399  27.675  1.00  0.00     0.198 A 
ATOM     91  F   UNL A   1      41.179  35.283  27.377  1.00  0.00    -0.203 F 
ATOM     92  F   UNL A   1      44.131  38.792  30.289  1.00  0.00    -0.200 F 
ATOM     93  C   UNL A   1      42.808  38.314  28.401  1.00  0.00     0.200 A 
ATOM     94  F   UNL A   1      41.530  37.756  26.503  1.00  0.00    -0.200 F 
ATOM     95  F   UNL A   1      42.952  39.569  27.958  1.00  0.00    -0.200 F 
ENDBRANCH  62  85
ENDBRANCH  36  37
ENDBRANCH  28  31
ENDBRANCH  26  27
ENDBRANCH  25  26
ENDBRANCH   1  25
TORSDOF 14
ENDMDL
MODEL 3
REMARK VINA RESULT:     -12.9      3.905      9.885
REMARK SMILES Cc1ccc(/C=C/C(=O)N[C@](C)(C(=O)NCCCNC(=O)c2ccc(-c3c4nc(c(-c5c(F)c(F)c(F)c(F)c5F)c5ccc([nH]5)c(-c5c(F)c(F)c(F)c(F)c5F)c5nc(c(-c6c(F)c(F)c(F)c(F)c6F)c6ccc3[nH]6)C=C5)C=C4)cc2)C(F)(F)F)cc1
REMARK SMILES IDX 16 1 15 2 13 3 14 4 11 6 12 7 10 8 8 9 9 10 7 12 6 13 5 14
REMARK SMILES IDX 1 15 2 16 3 17 90 18 4 19 89 20 85 21 86 22 87 23 88 24
REMARK SMILES IDX 17 25 18 26 19 27 20 28 21 30 22 31 23 32 84 33 24 34 83 35
REMARK SMILES IDX 25 36 26 37 27 38 77 39 28 40 82 41 76 42 78 43 29 44 81 45
REMARK SMILES IDX 75 46 74 47 30 49 62 50 42 51 61 52 43 53 46 54 60 55 79 56
REMARK SMILES IDX 44 57 45 58 59 60 80 61 47 62 31 63 32 64 40 65 33 66 34 67
REMARK SMILES IDX 38 68 41 69 35 70 36 71 39 72 37 73 63 74 64 75 72 76 65 77
REMARK SMILES IDX 66 78 70 79 73 80 67 81 68 82 71 83 69 84 48 85 49 86 57 87
REMARK SMILES IDX 50 88 51 89 55 90 58 91 52 92 53 93 56 94 54 95
REMARK H PARENT 15 5 10 11 19 29 78 48 46 59
REMARK Flexibility Score: inf
ROOT
ATOM      1  C   UNL A   1      37.189  22.143  25.617  1.00  0.00     0.117 C 
ENDROOT
BRANCH   1   2
ATOM      2  N   UNL A   1      36.093  21.304  25.140  1.00  0.00    -0.354 N 
ATOM      3  C   UNL A   1      34.735  21.483  25.081  1.00  0.00     0.254 C 
ATOM      4  O   UNL A   1      34.106  20.525  24.624  1.00  0.00    -0.272 OA
ATOM      5  H   UNL A   1      36.391  20.434  24.788  1.00  0.00     0.163 HD
BRANCH   3   6
ATOM      6  C   UNL A   1      34.019  22.693  25.732  1.00  0.00     0.212 C 
ATOM      7  C   UNL A   1      35.014  23.859  25.738  1.00  0.00     0.056 C 
BRANCH   6   8
ATOM      8  N   UNL A   1      32.723  22.909  25.014  1.00  0.00    -0.331 N 
ATOM      9  C   UNL A   1      31.877  23.939  24.779  1.00  0.00     0.245 C 
ATOM     10  O   UNL A   1      30.836  23.721  24.164  1.00  0.00    -0.270 OA
ATOM     11  H   UNL A   1      32.398  22.077  24.600  1.00  0.00     0.165 HD
BRANCH   9  12
ATOM     12  C   UNL A   1      32.255  25.324  25.081  1.00  0.00     0.072 C 
ATOM     13  C   UNL A   1      32.018  25.893  26.269  1.00  0.00     0.014 C 
BRANCH  13  14
ATOM     14  C   UNL A   1      32.468  27.257  26.560  1.00  0.00    -0.025 A 
ATOM     15  C   UNL A   1      33.910  31.220  27.467  1.00  0.00     0.044 C 
ATOM     16  C   UNL A   1      33.403  29.853  27.114  1.00  0.00    -0.051 A 
ATOM     17  C   UNL A   1      32.066  29.513  27.352  1.00  0.00     0.004 A 
ATOM     18  C   UNL A   1      34.268  28.887  26.592  1.00  0.00     0.004 A 
ATOM     19  C   UNL A   1      31.599  28.224  27.071  1.00  0.00     0.008 A 
ATOM     20  C   UNL A   1      33.804  27.599  26.323  1.00  0.00     0.008 A 
ENDBRANCH  13  14
ENDBRANCH   9  12
ENDBRANCH   6   8
BRANCH   6  21
ATOM     21  C   UNL A   1      33.742  22.317  27.208  1.00  0.00     0.420 C 
ATOM     22  F   UNL A   1      33.770  20.987  27.440  1.00  0.00    -0.168 F 
ATOM     23  F   UNL A   1      34.700  22.861  28.010  1.00  0.00    -0.168 F 
ATOM     24  F   UNL A   1      32.559  22.808  27.643  1.00  0.00    -0.168 F 
ENDBRANCH   6  21
ENDBRANCH   3   6
ENDBRANCH   1   2
BRANCH   1  25
ATOM     25  C   UNL A   1      38.564  21.522  25.396  1.00  0.00     0.042 C 
BRANCH  25  26
ATOM     26  C   UNL A   1      39.530  21.729  26.551  1.00  0.00     0.118 C 
BRANCH  26  27
ATOM     27  N   UNL A   1      40.886  22.080  26.145  1.00  0.00    -0.352 N 
ATOM     28  C   UNL A   1      41.466  23.338  26.069  1.00  0.00     0.251 C 
ATOM     29  H   UNL A   1      41.466  21.326  25.892  1.00  0.00     0.163 HD
ATOM     30  O   UNL A   1      42.631  23.475  25.737  1.00  0.00    -0.269 OA
BRANCH  28  31
ATOM     31  C   UNL A   1      40.674  24.504  26.523  1.00  0.00     0.039 A 
ATOM     32  C   UNL A   1      40.924  25.742  25.925  1.00  0.00     0.014 A 
ATOM     33  C   UNL A   1      39.903  24.416  27.679  1.00  0.00     0.014 A 
ATOM     34  C   UNL A   1      40.628  26.905  26.630  1.00  0.00     0.010 A 
ATOM     35  C   UNL A   1      39.712  25.560  28.429  1.00  0.00     0.010 A 
ATOM     36  C   UNL A   1      40.143  26.796  27.935  1.00  0.00    -0.014 A 
BRANCH  36  37
ATOM     37  C   UNL A   1      40.202  27.894  28.894  1.00  0.00     0.031 A 
ATOM     38  C   UNL A   1      39.236  29.010  28.835  1.00  0.00     0.074 A 
ATOM     39  C   UNL A   1      41.091  27.833  29.912  1.00  0.00     0.049 A 
ATOM     40  N   UNL A   1      39.429  30.170  29.365  1.00  0.00    -0.248 NA
ATOM     41  C   UNL A   1      37.977  28.917  28.109  1.00  0.00     0.031 C 
ATOM     42  C   UNL A   1      41.100  28.644  31.128  1.00  0.00     0.029 A 
ATOM     43  N   UNL A   1      42.307  27.126  29.956  1.00  0.00    -0.354 N 
ATOM     44  C   UNL A   1      38.242  30.868  29.311  1.00  0.00     0.074 A 
ATOM     45  C   UNL A   1      37.404  30.080  28.438  1.00  0.00     0.031 C 
ATOM     46  C   UNL A   1      42.340  28.640  31.642  1.00  0.00     0.029 A 
ATOM     47  C   UNL A   1      43.193  27.946  30.694  1.00  0.00     0.049 A 
ATOM     48  H   UNL A   1      42.500  26.246  29.559  1.00  0.00     0.167 HD
ATOM     49  C   UNL A   1      38.075  31.952  30.127  1.00  0.00     0.037 A 
ATOM     50  C   UNL A   1      44.327  28.466  30.142  1.00  0.00     0.037 A 
ATOM     51  C   UNL A   1      39.320  32.272  30.831  1.00  0.00     0.049 A 
ATOM     52  C   UNL A   1      44.407  29.971  30.200  1.00  0.00     0.074 A 
ATOM     53  C   UNL A   1      39.760  32.027  32.122  1.00  0.00     0.029 A 
ATOM     54  N   UNL A   1      40.433  32.695  30.111  1.00  0.00    -0.354 N 
ATOM     55  N   UNL A   1      43.371  30.744  30.362  1.00  0.00    -0.248 NA
ATOM     56  C   UNL A   1      45.647  30.724  30.034  1.00  0.00     0.031 C 
ATOM     57  C   UNL A   1      41.153  32.274  32.169  1.00  0.00     0.029 A 
ATOM     58  C   UNL A   1      41.561  32.680  30.910  1.00  0.00     0.049 A 
ATOM     59  H   UNL A   1      40.420  32.966  29.165  1.00  0.00     0.167 HD
ATOM     60  C   UNL A   1      43.765  32.055  30.299  1.00  0.00     0.074 A 
ATOM     61  C   UNL A   1      45.203  31.990  30.113  1.00  0.00     0.031 C 
ATOM     62  C   UNL A   1      42.861  33.075  30.389  1.00  0.00     0.037 A 
BRANCH  49  63
ATOM     63  C   UNL A   1      36.731  32.544  30.533  1.00  0.00     0.064 A 
ATOM     64  C   UNL A   1      36.053  33.444  29.675  1.00  0.00     0.173 A 
ATOM     65  C   UNL A   1      36.090  32.347  31.770  1.00  0.00     0.173 A 
ATOM     66  F   UNL A   1      36.449  33.643  28.410  1.00  0.00    -0.203 F 
ATOM     67  C   UNL A   1      34.929  34.177  30.075  1.00  0.00     0.198 A 
ATOM     68  C   UNL A   1      34.991  33.108  32.188  1.00  0.00     0.198 A 
ATOM     69  F   UNL A   1      36.447  31.364  32.599  1.00  0.00    -0.203 F 
ATOM     70  F   UNL A   1      34.352  35.031  29.217  1.00  0.00    -0.200 F 
ATOM     71  C   UNL A   1      34.422  34.038  31.347  1.00  0.00     0.200 A 
ATOM     72  F   UNL A   1      34.489  32.924  33.418  1.00  0.00    -0.200 F 
ATOM     73  F   UNL A   1      33.372  34.765  31.748  1.00  0.00    -0.200 F 
ENDBRANCH  49  63
BRANCH  50  74
ATOM     74  C   UNL A   1      44.892  27.630  29.055  1.00  0.00     0.064 A 
ATOM     75  C   UNL A   1      44.561  27.948  27.724  1.00  0.00     0.173 A 
ATOM     76  C   UNL A   1      46.006  26.808  29.268  1.00  0.00     0.173 A 
ATOM     77  F   UNL A   1      43.506  28.738  27.468  1.00  0.00    -0.203 F 
ATOM     78  C   UNL A   1      45.373  27.559  26.663  1.00  0.00     0.198 A 
ATOM     79  C   UNL A   1      46.811  26.410  28.199  1.00  0.00     0.198 A 
ATOM     80  F   UNL A   1      46.386  26.491  30.513  1.00  0.00    -0.203 F 
ATOM     81  F   UNL A   1      45.095  27.977  25.420  1.00  0.00    -0.200 F 
ATOM     82  C   UNL A   1      46.514  26.813  26.905  1.00  0.00     0.200 A 
ATOM     83  F   UNL A   1      47.936  25.719  28.435  1.00  0.00    -0.200 F 
ATOM     84  F   UNL A   1      47.353  26.525  25.900  1.00  0.00    -0.200 F 
ENDBRANCH  50  74
BRANCH  62  85
ATOM     85  C   UNL A   1      43.122  34.535  30.101  1.00  0.00     0.064 A 
ATOM     86  C   UNL A   1      43.314  35.514  31.090  1.00  0.00     0.173 A 
ATOM     87  C   UNL A   1      43.334  34.974  28.768  1.00  0.00     0.173 A 
ATOM     88  F   UNL A   1      43.266  35.208  32.393  1.00  0.00    -0.203 F 
ATOM     89  C   UNL A   1      43.628  36.839  30.772  1.00  0.00     0.198 A 
ATOM     90  C   UNL A   1      43.705  36.282  28.459  1.00  0.00     0.198 A 
ATOM     91  F   UNL A   1      43.216  34.138  27.727  1.00  0.00    -0.203 F 
ATOM     92  F   UNL A   1      43.762  37.742  31.754  1.00  0.00    -0.200 F 
ATOM     93  C   UNL A   1      43.836  37.219  29.460  1.00  0.00     0.200 A 
ATOM     94  F   UNL A   1      43.955  36.620  27.186  1.00  0.00    -0.200 F 
ATOM     95  F   UNL A   1      44.185  38.479  29.165  1.00  0.00    -0.200 F 
ENDBRANCH  62  85
ENDBRANCH  36  37
ENDBRANCH  28  31
ENDBRANCH  26  27
ENDBRANCH  25  26
ENDBRANCH   1  25
TORSDOF 14
ENDMDL
