MODEL 1
REMARK VINA RESULT:     -13.4      0.000      0.000
REMARK SMILES COc1ccc(OC)c(N2C(=O)c3ccc(C(=O)NCCCNC(=O)c4ccc(-c5c6nc(c(-c7c(F)c(F)c(F)c(F)c7F)c7ccc([nH]7)c(-c7c(F)c(F)c(F)c(F)c7F)c7nc(c(-c8c(F)c(F)c(F)c(F)c8F)c8ccc5[nH]8)C=C7)C=C6)cc4)cc3C2=O)c1
REMARK SMILES IDX 21 1 20 2 19 3 17 4 18 5 16 7 10 8 11 9 91 10 12 11 13 12
REMARK SMILES IDX 90 13 92 14 14 15 89 16 15 17 9 18 3 19 4 20 93 21 5 22 6 23
REMARK SMILES IDX 2 24 1 25 7 26 8 27 22 28 23 29 24 30 25 32 26 33 27 34
REMARK SMILES IDX 88 35 28 36 87 37 29 38 30 39 31 40 81 41 32 42 86 43 80 44
REMARK SMILES IDX 82 45 33 46 85 47 79 48 78 49 34 51 66 52 46 53 65 54 47 55
REMARK SMILES IDX 50 56 64 57 83 58 48 59 49 60 63 62 84 63 51 64 35 65 36 66
REMARK SMILES IDX 44 67 37 68 38 69 42 70 45 71 39 72 40 73 43 74 41 75 67 76
REMARK SMILES IDX 68 77 76 78 69 79 70 80 74 81 77 82 71 83 72 84 75 85 73 86
REMARK SMILES IDX 52 87 53 88 61 89 54 90 55 91 59 92 62 93 56 94 57 95 60 96
REMARK SMILES IDX 58 97
REMARK H PARENT 19 6 23 31 82 50 50 61
REMARK Flexibility Score: inf
ROOT
ATOM      1  C   UNL A   1      31.360  32.204  26.501  1.00  0.00     0.042 C 
ENDROOT
BRANCH   1   2
ATOM      2  C   UNL A   1      31.539  30.821  25.887  1.00  0.00     0.118 C 
BRANCH   2   3
ATOM      3  N   UNL A   1      30.653  30.595  24.758  1.00  0.00    -0.352 N 
ATOM      4  C   UNL A   1      30.500  29.630  23.805  1.00  0.00     0.251 C 
ATOM      5  O   UNL A   1      29.668  29.875  22.927  1.00  0.00    -0.269 OA
ATOM      6  H   UNL A   1      29.998  31.322  24.656  1.00  0.00     0.163 HD
BRANCH   4   7
ATOM      7  C   UNL A   1      31.238  28.334  23.729  1.00  0.00     0.040 A 
ATOM      8  N   UNL A   1      32.546  23.924  24.099  1.00  0.00    -0.238 N 
ATOM      9  C   UNL A   1      33.374  24.730  23.349  1.00  0.00     0.266 C 
ATOM     10  C   UNL A   1      31.492  24.649  24.606  1.00  0.00     0.266 C 
ATOM     11  O   UNL A   1      34.403  24.490  22.742  1.00  0.00    -0.268 OA
ATOM     12  C   UNL A   1      32.788  26.059  23.354  1.00  0.00     0.053 A 
ATOM     13  C   UNL A   1      31.615  26.002  24.067  1.00  0.00     0.054 A 
ATOM     14  O   UNL A   1      30.671  24.408  25.472  1.00  0.00    -0.268 OA
ATOM     15  C   UNL A   1      33.245  27.228  22.796  1.00  0.00     0.015 A 
ATOM     16  C   UNL A   1      30.800  27.110  24.243  1.00  0.00     0.028 A 
ATOM     17  C   UNL A   1      32.466  28.370  23.004  1.00  0.00     0.015 A 
BRANCH   8  18
ATOM     18  C   UNL A   1      32.833  22.562  24.372  1.00  0.00     0.098 A 
ATOM     19  C   UNL A   1      32.581  20.228  23.676  1.00  0.00     0.121 A 
ATOM     20  C   UNL A   1      33.184  19.819  24.863  1.00  0.00     0.050 A 
ATOM     21  C   UNL A   1      32.427  21.592  23.437  1.00  0.00     0.077 A 
ATOM     22  C   UNL A   1      33.623  20.762  25.800  1.00  0.00     0.052 A 
ATOM     23  C   UNL A   1      33.452  22.131  25.556  1.00  0.00     0.143 A 
BRANCH  19  24
ATOM     24  O   UNL A   1      32.153  19.227  22.846  1.00  0.00    -0.497 OA
ATOM     25  C   UNL A   1      32.757  17.946  23.018  1.00  0.00     0.278 C 
ENDBRANCH  19  24
BRANCH  23  26
ATOM     26  O   UNL A   1      33.658  23.015  26.584  1.00  0.00    -0.495 OA
ATOM     27  C   UNL A   1      33.062  22.579  27.806  1.00  0.00     0.278 C 
ENDBRANCH  23  26
ENDBRANCH   8  18
ENDBRANCH   4   7
ENDBRANCH   2   3
ENDBRANCH   1   2
BRANCH   1  28
ATOM     28  C   UNL A   1      32.604  32.755  27.190  1.00  0.00     0.118 C 
BRANCH  28  29
ATOM     29  N   UNL A   1      32.438  34.136  27.626  1.00  0.00    -0.352 N 
ATOM     30  C   UNL A   1      33.038  34.832  28.645  1.00  0.00     0.251 C 
ATOM     31  H   UNL A   1      31.787  34.656  27.101  1.00  0.00     0.163 HD
ATOM     32  O   UNL A   1      32.591  35.929  28.972  1.00  0.00    -0.269 OA
BRANCH  30  33
ATOM     33  C   UNL A   1      34.206  34.278  29.365  1.00  0.00     0.039 A 
ATOM     34  C   UNL A   1      33.993  33.572  30.554  1.00  0.00     0.014 A 
ATOM     35  C   UNL A   1      35.509  34.496  28.910  1.00  0.00     0.014 A 
ATOM     36  C   UNL A   1      35.080  33.031  31.248  1.00  0.00     0.010 A 
ATOM     37  C   UNL A   1      36.582  33.889  29.557  1.00  0.00     0.010 A 
ATOM     38  C   UNL A   1      36.380  33.155  30.736  1.00  0.00    -0.014 A 
BRANCH  38  39
ATOM     39  C   UNL A   1      37.544  32.534  31.418  1.00  0.00     0.031 A 
ATOM     40  C   UNL A   1      38.266  31.379  30.781  1.00  0.00     0.074 A 
ATOM     41  C   UNL A   1      37.903  32.961  32.644  1.00  0.00     0.049 A 
ATOM     42  N   UNL A   1      39.240  30.644  31.259  1.00  0.00    -0.248 NA
ATOM     43  C   UNL A   1      37.814  30.976  29.440  1.00  0.00     0.031 C 
ATOM     44  C   UNL A   1      37.252  34.041  33.387  1.00  0.00     0.029 A 
ATOM     45  N   UNL A   1      38.893  32.528  33.489  1.00  0.00    -0.354 N 
ATOM     46  C   UNL A   1      39.500  29.685  30.288  1.00  0.00     0.074 A 
ATOM     47  C   UNL A   1      38.553  29.900  29.217  1.00  0.00     0.031 C 
ATOM     48  C   UNL A   1      37.871  34.198  34.567  1.00  0.00     0.029 A 
ATOM     49  C   UNL A   1      38.935  33.206  34.682  1.00  0.00     0.049 A 
ATOM     50  H   UNL A   1      39.514  31.799  33.262  1.00  0.00     0.167 HD
ATOM     51  C   UNL A   1      40.459  28.728  30.283  1.00  0.00     0.037 A 
ATOM     52  C   UNL A   1      39.736  33.040  35.753  1.00  0.00     0.037 A 
ATOM     53  C   UNL A   1      41.420  28.538  31.337  1.00  0.00     0.049 A 
ATOM     54  C   UNL A   1      40.794  31.972  35.719  1.00  0.00     0.074 A 
ATOM     55  C   UNL A   1      42.470  27.639  31.398  1.00  0.00     0.029 A 
ATOM     56  N   UNL A   1      41.448  29.264  32.520  1.00  0.00    -0.354 N 
ATOM     57  N   UNL A   1      41.073  31.113  34.769  1.00  0.00    -0.248 NA
ATOM     58  C   UNL A   1      41.653  31.854  36.905  1.00  0.00     0.031 C 
ATOM     59  C   UNL A   1      43.107  27.791  32.634  1.00  0.00     0.029 A 
ATOM     60  C   UNL A   1      42.484  28.819  33.325  1.00  0.00     0.049 A 
ATOM     61  H   UNL A   1      40.823  29.989  32.753  1.00  0.00     0.167 HD
ATOM     62  C   UNL A   1      42.154  30.373  35.229  1.00  0.00     0.074 A 
ATOM     63  C   UNL A   1      42.489  30.894  36.538  1.00  0.00     0.031 C 
ATOM     64  C   UNL A   1      42.809  29.354  34.621  1.00  0.00     0.037 A 
BRANCH  51  65
ATOM     65  C   UNL A   1      40.519  27.812  29.095  1.00  0.00     0.064 A 
ATOM     66  C   UNL A   1      39.717  26.662  29.010  1.00  0.00     0.173 A 
ATOM     67  C   UNL A   1      41.359  28.105  28.010  1.00  0.00     0.173 A 
ATOM     68  F   UNL A   1      38.903  26.331  30.024  1.00  0.00    -0.203 F 
ATOM     69  C   UNL A   1      39.778  25.826  27.898  1.00  0.00     0.198 A 
ATOM     70  C   UNL A   1      41.395  27.283  26.887  1.00  0.00     0.198 A 
ATOM     71  F   UNL A   1      42.142  29.195  28.036  1.00  0.00    -0.203 F 
ATOM     72  F   UNL A   1      39.041  24.708  27.863  1.00  0.00    -0.200 F 
ATOM     73  C   UNL A   1      40.611  26.140  26.835  1.00  0.00     0.200 A 
ATOM     74  F   UNL A   1      42.191  27.594  25.855  1.00  0.00    -0.200 F 
ATOM     75  F   UNL A   1      40.663  25.338  25.764  1.00  0.00    -0.200 F 
ENDBRANCH  51  65
BRANCH  52  76
ATOM     76  C   UNL A   1      39.583  33.926  36.936  1.00  0.00     0.064 A 
ATOM     77  C   UNL A   1      38.822  33.522  38.042  1.00  0.00     0.173 A 
ATOM     78  C   UNL A   1      40.190  35.189  36.987  1.00  0.00     0.173 A 
ATOM     79  F   UNL A   1      38.206  32.330  38.031  1.00  0.00    -0.203 F 
ATOM     80  C   UNL A   1      38.658  34.355  39.146  1.00  0.00     0.198 A 
ATOM     81  C   UNL A   1      40.048  36.010  38.104  1.00  0.00     0.198 A 
ATOM     82  F   UNL A   1      40.932  35.621  35.957  1.00  0.00    -0.203 F 
ATOM     83  F   UNL A   1      37.891  33.961  40.171  1.00  0.00    -0.200 F 
ATOM     84  C   UNL A   1      39.276  35.596  39.179  1.00  0.00     0.200 A 
ATOM     85  F   UNL A   1      40.659  37.203  38.138  1.00  0.00    -0.200 F 
ATOM     86  F   UNL A   1      39.123  36.395  40.244  1.00  0.00    -0.200 F 
ENDBRANCH  52  76
BRANCH  64  87
ATOM     87  C   UNL A   1      43.978  28.758  35.349  1.00  0.00     0.064 A 
ATOM     88  C   UNL A   1      43.825  27.668  36.220  1.00  0.00     0.173 A 
ATOM     89  C   UNL A   1      45.272  29.259  35.144  1.00  0.00     0.173 A 
ATOM     90  F   UNL A   1      42.605  27.164  36.462  1.00  0.00    -0.203 F 
ATOM     91  C   UNL A   1      44.923  27.117  36.875  1.00  0.00     0.198 A 
ATOM     92  C   UNL A   1      46.371  28.687  35.778  1.00  0.00     0.198 A 
ATOM     93  F   UNL A   1      45.472  30.295  34.316  1.00  0.00    -0.203 F 
ATOM     94  F   UNL A   1      44.747  26.107  37.738  1.00  0.00    -0.200 F 
ATOM     95  C   UNL A   1      46.195  27.622  36.649  1.00  0.00     0.200 A 
ATOM     96  F   UNL A   1      47.601  29.167  35.549  1.00  0.00    -0.200 F 
ATOM     97  F   UNL A   1      47.251  27.085  37.275  1.00  0.00    -0.200 F 
ENDBRANCH  64  87
ENDBRANCH  38  39
ENDBRANCH  30  33
ENDBRANCH  28  29
ENDBRANCH   1  28
TORSDOF 13
ENDMDL
MODEL 2
REMARK VINA RESULT:     -13.4      2.316      8.172
REMARK SMILES COc1ccc(OC)c(N2C(=O)c3ccc(C(=O)NCCCNC(=O)c4ccc(-c5c6nc(c(-c7c(F)c(F)c(F)c(F)c7F)c7ccc([nH]7)c(-c7c(F)c(F)c(F)c(F)c7F)c7nc(c(-c8c(F)c(F)c(F)c(F)c8F)c8ccc5[nH]8)C=C7)C=C6)cc4)cc3C2=O)c1
REMARK SMILES IDX 21 1 20 2 19 3 17 4 18 5 16 7 10 8 11 9 91 10 12 11 13 12
REMARK SMILES IDX 90 13 92 14 14 15 89 16 15 17 9 18 3 19 4 20 93 21 5 22 6 23
REMARK SMILES IDX 2 24 1 25 7 26 8 27 22 28 23 29 24 30 25 32 26 33 27 34
REMARK SMILES IDX 88 35 28 36 87 37 29 38 30 39 31 40 81 41 32 42 86 43 80 44
REMARK SMILES IDX 82 45 33 46 85 47 79 48 78 49 34 51 66 52 46 53 65 54 47 55
REMARK SMILES IDX 50 56 64 57 83 58 48 59 49 60 63 62 84 63 51 64 35 65 36 66
REMARK SMILES IDX 44 67 37 68 38 69 42 70 45 71 39 72 40 73 43 74 41 75 67 76
REMARK SMILES IDX 68 77 76 78 69 79 70 80 74 81 77 82 71 83 72 84 75 85 73 86
REMARK SMILES IDX 52 87 53 88 61 89 54 90 55 91 59 92 62 93 56 94 57 95 60 96
REMARK SMILES IDX 58 97
REMARK H PARENT 19 6 23 31 82 50 50 61
REMARK Flexibility Score: inf
ROOT
ATOM      1  C   UNL A   1      33.303  34.978  29.129  1.00  0.00     0.042 C 
ENDROOT
BRANCH   1   2
ATOM      2  C   UNL A   1      34.235  34.877  27.928  1.00  0.00     0.118 C 
BRANCH   2   3
ATOM      3  N   UNL A   1      35.526  34.305  28.273  1.00  0.00    -0.352 N 
ATOM      4  C   UNL A   1      36.074  33.055  28.295  1.00  0.00     0.251 C 
ATOM      5  O   UNL A   1      37.209  32.979  28.773  1.00  0.00    -0.269 OA
ATOM      6  H   UNL A   1      36.166  34.993  28.564  1.00  0.00     0.163 HD
BRANCH   4   7
ATOM      7  C   UNL A   1      35.433  31.797  27.807  1.00  0.00     0.040 A 
ATOM      8  N   UNL A   1      32.516  28.658  26.095  1.00  0.00    -0.238 N 
ATOM      9  C   UNL A   1      33.788  28.203  26.366  1.00  0.00     0.266 C 
ATOM     10  C   UNL A   1      32.392  29.986  26.433  1.00  0.00     0.266 C 
ATOM     11  O   UNL A   1      34.303  27.108  26.223  1.00  0.00    -0.268 OA
ATOM     12  C   UNL A   1      34.539  29.334  26.884  1.00  0.00     0.053 A 
ATOM     13  C   UNL A   1      33.713  30.432  26.873  1.00  0.00     0.054 A 
ATOM     14  O   UNL A   1      31.424  30.712  26.570  1.00  0.00    -0.268 OA
ATOM     15  C   UNL A   1      35.831  29.400  27.345  1.00  0.00     0.015 A 
ATOM     16  C   UNL A   1      34.138  31.683  27.293  1.00  0.00     0.028 A 
ATOM     17  C   UNL A   1      36.266  30.640  27.821  1.00  0.00     0.015 A 
BRANCH   8  18
ATOM     18  C   UNL A   1      31.476  27.812  25.631  1.00  0.00     0.098 A 
ATOM     19  C   UNL A   1      30.139  25.797  26.015  1.00  0.00     0.121 A 
ATOM     20  C   UNL A   1      29.551  25.960  24.763  1.00  0.00     0.050 A 
ATOM     21  C   UNL A   1      31.080  26.731  26.441  1.00  0.00     0.077 A 
ATOM     22  C   UNL A   1      29.904  27.041  23.946  1.00  0.00     0.052 A 
ATOM     23  C   UNL A   1      30.862  27.968  24.379  1.00  0.00     0.143 A 
BRANCH  19  24
ATOM     24  O   UNL A   1      29.753  24.687  26.718  1.00  0.00    -0.497 OA
ATOM     25  C   UNL A   1      30.616  23.552  26.653  1.00  0.00     0.278 C 
ENDBRANCH  19  24
BRANCH  23  26
ATOM     26  O   UNL A   1      31.369  28.863  23.473  1.00  0.00    -0.495 OA
ATOM     27  C   UNL A   1      30.406  29.252  22.493  1.00  0.00     0.278 C 
ENDBRANCH  23  26
ENDBRANCH   8  18
ENDBRANCH   4   7
ENDBRANCH   2   3
ENDBRANCH   1   2
BRANCH   1  28
ATOM     28  C   UNL A   1      33.289  36.344  29.805  1.00  0.00     0.118 C 
BRANCH  28  29
ATOM     29  N   UNL A   1      32.389  36.393  30.951  1.00  0.00    -0.352 N 
ATOM     30  C   UNL A   1      32.454  35.762  32.168  1.00  0.00     0.251 C 
ATOM     31  H   UNL A   1      31.606  36.976  30.832  1.00  0.00     0.163 HD
ATOM     32  O   UNL A   1      31.475  35.779  32.909  1.00  0.00    -0.269 OA
BRANCH  30  33
ATOM     33  C   UNL A   1      33.680  35.053  32.597  1.00  0.00     0.039 A 
ATOM     34  C   UNL A   1      33.565  33.751  33.097  1.00  0.00     0.014 A 
ATOM     35  C   UNL A   1      34.929  35.677  32.565  1.00  0.00     0.014 A 
ATOM     36  C   UNL A   1      34.709  33.056  33.501  1.00  0.00     0.010 A 
ATOM     37  C   UNL A   1      36.075  34.957  32.891  1.00  0.00     0.010 A 
ATOM     38  C   UNL A   1      35.978  33.641  33.368  1.00  0.00    -0.014 A 
BRANCH  38  39
ATOM     39  C   UNL A   1      37.214  32.900  33.727  1.00  0.00     0.031 A 
ATOM     40  C   UNL A   1      37.942  33.217  35.004  1.00  0.00     0.074 A 
ATOM     41  C   UNL A   1      37.719  31.994  32.868  1.00  0.00     0.049 A 
ATOM     42  N   UNL A   1      39.083  32.749  35.446  1.00  0.00    -0.248 NA
ATOM     43  C   UNL A   1      37.321  34.216  35.887  1.00  0.00     0.031 C 
ATOM     44  C   UNL A   1      37.130  31.632  31.578  1.00  0.00     0.029 A 
ATOM     45  N   UNL A   1      38.853  31.224  32.943  1.00  0.00    -0.354 N 
ATOM     46  C   UNL A   1      39.323  33.410  36.644  1.00  0.00     0.074 A 
ATOM     47  C   UNL A   1      38.236  34.344  36.837  1.00  0.00     0.031 C 
ATOM     48  C   UNL A   1      37.896  30.697  30.992  1.00  0.00     0.029 A 
ATOM     49  C   UNL A   1      39.049  30.425  31.845  1.00  0.00     0.049 A 
ATOM     50  H   UNL A   1      39.467  31.243  33.712  1.00  0.00     0.167 HD
ATOM     51  C   UNL A   1      40.346  33.234  37.515  1.00  0.00     0.037 A 
ATOM     52  C   UNL A   1      40.051  29.573  31.553  1.00  0.00     0.037 A 
ATOM     53  C   UNL A   1      41.408  32.280  37.335  1.00  0.00     0.049 A 
ATOM     54  C   UNL A   1      41.173  29.395  32.539  1.00  0.00     0.074 A 
ATOM     55  C   UNL A   1      42.455  31.982  38.189  1.00  0.00     0.029 A 
ATOM     56  N   UNL A   1      41.558  31.468  36.220  1.00  0.00    -0.354 N 
ATOM     57  N   UNL A   1      41.356  29.977  33.699  1.00  0.00    -0.248 NA
ATOM     58  C   UNL A   1      42.226  28.435  32.177  1.00  0.00     0.031 C 
ATOM     59  C   UNL A   1      43.263  31.020  37.573  1.00  0.00     0.029 A 
ATOM     60  C   UNL A   1      42.693  30.683  36.355  1.00  0.00     0.049 A 
ATOM     61  H   UNL A   1      40.949  31.452  35.446  1.00  0.00     0.167 HD
ATOM     62  C   UNL A   1      42.525  29.437  34.217  1.00  0.00     0.074 A 
ATOM     63  C   UNL A   1      43.001  28.469  33.251  1.00  0.00     0.031 C 
ATOM     64  C   UNL A   1      43.147  29.718  35.388  1.00  0.00     0.037 A 
BRANCH  51  65
ATOM     65  C   UNL A   1      40.363  34.092  38.748  1.00  0.00     0.064 A 
ATOM     66  C   UNL A   1      41.014  35.335  38.772  1.00  0.00     0.173 A 
ATOM     67  C   UNL A   1      39.688  33.684  39.908  1.00  0.00     0.173 A 
ATOM     68  F   UNL A   1      41.682  35.767  37.691  1.00  0.00    -0.203 F 
ATOM     69  C   UNL A   1      41.015  36.122  39.920  1.00  0.00     0.198 A 
ATOM     70  C   UNL A   1      39.666  34.487  41.045  1.00  0.00     0.198 A 
ATOM     71  F   UNL A   1      39.044  32.508  39.939  1.00  0.00    -0.203 F 
ATOM     72  F   UNL A   1      41.687  37.281  39.934  1.00  0.00    -0.200 F 
ATOM     73  C   UNL A   1      40.336  35.702  41.053  1.00  0.00     0.200 A 
ATOM     74  F   UNL A   1      38.998  34.086  42.136  1.00  0.00    -0.200 F 
ATOM     75  F   UNL A   1      40.333  36.463  42.155  1.00  0.00    -0.200 F 
ENDBRANCH  51  65
BRANCH  52  76
ATOM     76  C   UNL A   1      40.024  28.805  30.281  1.00  0.00     0.064 A 
ATOM     77  C   UNL A   1      39.438  27.533  30.223  1.00  0.00     0.173 A 
ATOM     78  C   UNL A   1      40.581  29.322  29.103  1.00  0.00     0.173 A 
ATOM     79  F   UNL A   1      38.910  26.988  31.329  1.00  0.00    -0.203 F 
ATOM     80  C   UNL A   1      39.426  26.799  29.039  1.00  0.00     0.198 A 
ATOM     81  C   UNL A   1      40.544  28.598  27.913  1.00  0.00     0.198 A 
ATOM     82  F   UNL A   1      41.150  30.536  29.103  1.00  0.00    -0.203 F 
ATOM     83  F   UNL A   1      38.897  25.568  29.023  1.00  0.00    -0.200 F 
ATOM     84  C   UNL A   1      39.974  27.334  27.883  1.00  0.00     0.200 A 
ATOM     85  F   UNL A   1      41.062  29.125  26.794  1.00  0.00    -0.200 F 
ATOM     86  F   UNL A   1      39.958  26.630  26.744  1.00  0.00    -0.200 F 
ENDBRANCH  52  76
BRANCH  64  87
ATOM     87  C   UNL A   1      44.392  28.944  35.707  1.00  0.00     0.064 A 
ATOM     88  C   UNL A   1      45.660  29.389  35.302  1.00  0.00     0.173 A 
ATOM     89  C   UNL A   1      44.320  27.762  36.460  1.00  0.00     0.173 A 
ATOM     90  F   UNL A   1      45.780  30.504  34.566  1.00  0.00    -0.203 F 
ATOM     91  C   UNL A   1      46.807  28.666  35.620  1.00  0.00     0.198 A 
ATOM     92  C   UNL A   1      45.470  27.058  36.801  1.00  0.00     0.198 A 
ATOM     93  F   UNL A   1      43.132  27.298  36.877  1.00  0.00    -0.203 F 
ATOM     94  F   UNL A   1      48.002  29.084  35.184  1.00  0.00    -0.200 F 
ATOM     95  C   UNL A   1      46.711  27.506  36.375  1.00  0.00     0.200 A 
ATOM     96  F   UNL A   1      45.378  25.944  37.541  1.00  0.00    -0.200 F 
ATOM     97  F   UNL A   1      47.817  26.816  36.686  1.00  0.00    -0.200 F 
ENDBRANCH  64  87
ENDBRANCH  38  39
ENDBRANCH  30  33
ENDBRANCH  28  29
ENDBRANCH   1  28
TORSDOF 13
ENDMDL
MODEL 3
REMARK VINA RESULT:     -13.3      0.531      1.673
REMARK SMILES COc1ccc(OC)c(N2C(=O)c3ccc(C(=O)NCCCNC(=O)c4ccc(-c5c6nc(c(-c7c(F)c(F)c(F)c(F)c7F)c7ccc([nH]7)c(-c7c(F)c(F)c(F)c(F)c7F)c7nc(c(-c8c(F)c(F)c(F)c(F)c8F)c8ccc5[nH]8)C=C7)C=C6)cc4)cc3C2=O)c1
REMARK SMILES IDX 21 1 20 2 19 3 17 4 18 5 16 7 10 8 11 9 91 10 12 11 13 12
REMARK SMILES IDX 90 13 92 14 14 15 89 16 15 17 9 18 3 19 4 20 93 21 5 22 6 23
REMARK SMILES IDX 2 24 1 25 7 26 8 27 22 28 23 29 24 30 25 32 26 33 27 34
REMARK SMILES IDX 88 35 28 36 87 37 29 38 30 39 31 40 81 41 32 42 86 43 80 44
REMARK SMILES IDX 82 45 33 46 85 47 79 48 78 49 34 51 66 52 46 53 65 54 47 55
REMARK SMILES IDX 50 56 64 57 83 58 48 59 49 60 63 62 84 63 51 64 35 65 36 66
REMARK SMILES IDX 44 67 37 68 38 69 42 70 45 71 39 72 40 73 43 74 41 75 67 76
REMARK SMILES IDX 68 77 76 78 69 79 70 80 74 81 77 82 71 83 72 84 75 85 73 86
REMARK SMILES IDX 52 87 53 88 61 89 54 90 55 91 59 92 62 93 56 94 57 95 60 96
REMARK SMILES IDX 58 97
REMARK H PARENT 19 6 23 31 82 50 50 61
REMARK Flexibility Score: inf
ROOT
ATOM      1  C   UNL A   1      31.364  32.202  26.498  1.00  0.00     0.042 C 
ENDROOT
BRANCH   1   2
ATOM      2  C   UNL A   1      31.541  30.811  25.902  1.00  0.00     0.118 C 
BRANCH   2   3
ATOM      3  N   UNL A   1      30.645  30.567  24.784  1.00  0.00    -0.352 N 
ATOM      4  C   UNL A   1      30.510  29.607  23.823  1.00  0.00     0.251 C 
ATOM      5  O   UNL A   1      29.656  29.833  22.961  1.00  0.00    -0.269 OA
ATOM      6  H   UNL A   1      29.964  31.272  24.699  1.00  0.00     0.163 HD
BRANCH   4   7
ATOM      7  C   UNL A   1      31.289  28.337  23.722  1.00  0.00     0.040 A 
ATOM      8  N   UNL A   1      32.930  24.061  24.283  1.00  0.00    -0.238 N 
ATOM      9  C   UNL A   1      33.498  24.787  23.258  1.00  0.00     0.266 C 
ATOM     10  C   UNL A   1      31.987  24.812  24.946  1.00  0.00     0.266 C 
ATOM     11  O   UNL A   1      34.361  24.502  22.447  1.00  0.00    -0.268 OA
ATOM     12  C   UNL A   1      32.845  26.084  23.249  1.00  0.00     0.053 A 
ATOM     13  C   UNL A   1      31.887  26.084  24.234  1.00  0.00     0.054 A 
ATOM     14  O   UNL A   1      31.419  24.661  26.012  1.00  0.00    -0.268 OA
ATOM     15  C   UNL A   1      33.076  27.184  22.458  1.00  0.00     0.015 A 
ATOM     16  C   UNL A   1      31.070  27.179  24.473  1.00  0.00     0.028 A 
ATOM     17  C   UNL A   1      32.298  28.316  22.714  1.00  0.00     0.015 A 
BRANCH   8  18
ATOM     18  C   UNL A   1      33.363  22.758  24.638  1.00  0.00     0.098 A 
ATOM     19  C   UNL A   1      32.857  20.362  24.676  1.00  0.00     0.121 A 
ATOM     20  C   UNL A   1      34.011  20.140  25.423  1.00  0.00     0.050 A 
ATOM     21  C   UNL A   1      32.554  21.663  24.278  1.00  0.00     0.077 A 
ATOM     22  C   UNL A   1      34.849  21.205  25.772  1.00  0.00     0.052 A 
ATOM     23  C   UNL A   1      34.529  22.512  25.379  1.00  0.00     0.143 A 
BRANCH  19  24
ATOM     24  O   UNL A   1      32.086  19.259  24.421  1.00  0.00    -0.497 OA
ATOM     25  C   UNL A   1      32.487  18.433  23.328  1.00  0.00     0.278 C 
ENDBRANCH  19  24
BRANCH  23  26
ATOM     26  O   UNL A   1      35.220  23.556  25.938  1.00  0.00    -0.495 OA
ATOM     27  C   UNL A   1      36.509  23.735  25.348  1.00  0.00     0.278 C 
ENDBRANCH  23  26
ENDBRANCH   8  18
ENDBRANCH   4   7
ENDBRANCH   2   3
ENDBRANCH   1   2
BRANCH   1  28
ATOM     28  C   UNL A   1      32.586  32.733  27.238  1.00  0.00     0.118 C 
BRANCH  28  29
ATOM     29  N   UNL A   1      32.439  34.128  27.635  1.00  0.00    -0.352 N 
ATOM     30  C   UNL A   1      33.056  34.845  28.629  1.00  0.00     0.251 C 
ATOM     31  H   UNL A   1      31.791  34.640  27.101  1.00  0.00     0.163 HD
ATOM     32  O   UNL A   1      32.625  35.957  28.927  1.00  0.00    -0.269 OA
BRANCH  30  33
ATOM     33  C   UNL A   1      34.224  34.299  29.355  1.00  0.00     0.039 A 
ATOM     34  C   UNL A   1      34.006  33.554  30.519  1.00  0.00     0.014 A 
ATOM     35  C   UNL A   1      35.529  34.562  28.933  1.00  0.00     0.014 A 
ATOM     36  C   UNL A   1      35.092  33.019  31.218  1.00  0.00     0.010 A 
ATOM     37  C   UNL A   1      36.605  33.963  29.584  1.00  0.00     0.010 A 
ATOM     38  C   UNL A   1      36.398  33.190  30.736  1.00  0.00    -0.014 A 
BRANCH  38  39
ATOM     39  C   UNL A   1      37.564  32.577  31.423  1.00  0.00     0.031 A 
ATOM     40  C   UNL A   1      38.302  31.433  30.785  1.00  0.00     0.074 A 
ATOM     41  C   UNL A   1      37.910  33.001  32.653  1.00  0.00     0.049 A 
ATOM     42  N   UNL A   1      39.280  30.705  31.266  1.00  0.00    -0.248 NA
ATOM     43  C   UNL A   1      37.863  31.032  29.440  1.00  0.00     0.031 C 
ATOM     44  C   UNL A   1      37.243  34.072  33.396  1.00  0.00     0.029 A 
ATOM     45  N   UNL A   1      38.899  32.574  33.503  1.00  0.00    -0.354 N 
ATOM     46  C   UNL A   1      39.557  29.754  30.292  1.00  0.00     0.074 A 
ATOM     47  C   UNL A   1      38.614  29.963  29.215  1.00  0.00     0.031 C 
ATOM     48  C   UNL A   1      37.854  34.229  34.582  1.00  0.00     0.029 A 
ATOM     49  C   UNL A   1      38.927  33.247  34.699  1.00  0.00     0.049 A 
ATOM     50  H   UNL A   1      39.530  31.853  33.276  1.00  0.00     0.167 HD
ATOM     51  C   UNL A   1      40.525  28.806  30.289  1.00  0.00     0.037 A 
ATOM     52  C   UNL A   1      39.722  33.084  35.774  1.00  0.00     0.037 A 
ATOM     53  C   UNL A   1      41.481  28.621  31.348  1.00  0.00     0.049 A 
ATOM     54  C   UNL A   1      40.792  32.027  35.742  1.00  0.00     0.074 A 
ATOM     55  C   UNL A   1      42.539  27.732  31.411  1.00  0.00     0.029 A 
ATOM     56  N   UNL A   1      41.493  29.342  32.534  1.00  0.00    -0.354 N 
ATOM     57  N   UNL A   1      41.086  31.176  34.789  1.00  0.00    -0.248 NA
ATOM     58  C   UNL A   1      41.643  31.912  36.934  1.00  0.00     0.031 C 
ATOM     59  C   UNL A   1      43.167  27.885  32.653  1.00  0.00     0.029 A 
ATOM     60  C   UNL A   1      42.529  28.903  33.344  1.00  0.00     0.049 A 
ATOM     61  H   UNL A   1      40.859  30.058  32.767  1.00  0.00     0.167 HD
ATOM     62  C   UNL A   1      42.171  30.445  35.253  1.00  0.00     0.074 A 
ATOM     63  C   UNL A   1      42.492  30.963  36.567  1.00  0.00     0.031 C 
ATOM     64  C   UNL A   1      42.840  29.435  34.645  1.00  0.00     0.037 A 
BRANCH  51  65
ATOM     65  C   UNL A   1      40.601  27.896  29.096  1.00  0.00     0.064 A 
ATOM     66  C   UNL A   1      39.788  26.757  28.985  1.00  0.00     0.173 A 
ATOM     67  C   UNL A   1      41.471  28.186  28.034  1.00  0.00     0.173 A 
ATOM     68  F   UNL A   1      38.947  26.430  29.978  1.00  0.00    -0.203 F 
ATOM     69  C   UNL A   1      39.865  25.927  27.870  1.00  0.00     0.198 A 
ATOM     70  C   UNL A   1      41.524  27.370  26.907  1.00  0.00     0.198 A 
ATOM     71  F   UNL A   1      42.266  29.265  28.085  1.00  0.00    -0.203 F 
ATOM     72  F   UNL A   1      39.116  24.818  27.811  1.00  0.00    -0.200 F 
ATOM     73  C   UNL A   1      40.727  26.237  26.829  1.00  0.00     0.200 A 
ATOM     74  F   UNL A   1      42.347  27.678  25.895  1.00  0.00    -0.200 F 
ATOM     75  F   UNL A   1      40.795  25.441  25.754  1.00  0.00    -0.200 F 
ENDBRANCH  51  65
BRANCH  52  76
ATOM     76  C   UNL A   1      39.553  33.963  36.960  1.00  0.00     0.064 A 
ATOM     77  C   UNL A   1      40.166  35.222  37.015  1.00  0.00     0.173 A 
ATOM     78  C   UNL A   1      38.780  33.565  38.060  1.00  0.00     0.173 A 
ATOM     79  F   UNL A   1      40.932  35.638  35.994  1.00  0.00    -0.203 F 
ATOM     80  C   UNL A   1      40.028  36.043  38.131  1.00  0.00     0.198 A 
ATOM     81  C   UNL A   1      38.620  34.398  39.165  1.00  0.00     0.198 A 
ATOM     82  F   UNL A   1      38.168  32.372  38.057  1.00  0.00    -0.203 F 
ATOM     83  F   UNL A   1      40.660  37.223  38.174  1.00  0.00    -0.200 F 
ATOM     84  C   UNL A   1      39.250  35.633  39.204  1.00  0.00     0.200 A 
ATOM     85  F   UNL A   1      37.855  34.005  40.194  1.00  0.00    -0.200 F 
ATOM     86  F   UNL A   1      39.113  36.425  40.276  1.00  0.00    -0.200 F 
ENDBRANCH  52  76
BRANCH  64  87
ATOM     87  C   UNL A   1      44.010  28.848  35.378  1.00  0.00     0.064 A 
ATOM     88  C   UNL A   1      45.315  29.329  35.190  1.00  0.00     0.173 A 
ATOM     89  C   UNL A   1      43.818  27.816  36.309  1.00  0.00     0.173 A 
ATOM     90  F   UNL A   1      45.552  30.303  34.299  1.00  0.00    -0.203 F 
ATOM     91  C   UNL A   1      46.386  28.782  35.891  1.00  0.00     0.198 A 
ATOM     92  C   UNL A   1      44.887  27.292  37.029  1.00  0.00     0.198 A 
ATOM     93  F   UNL A   1      42.589  27.325  36.530  1.00  0.00    -0.203 F 
ATOM     94  F   UNL A   1      47.630  29.226  35.662  1.00  0.00    -0.200 F 
ATOM     95  C   UNL A   1      46.170  27.770  36.814  1.00  0.00     0.200 A 
ATOM     96  F   UNL A   1      44.676  26.322  37.931  1.00  0.00    -0.200 F 
ATOM     97  F   UNL A   1      47.203  27.250  37.493  1.00  0.00    -0.200 F 
ENDBRANCH  64  87
ENDBRANCH  38  39
ENDBRANCH  30  33
ENDBRANCH  28  29
ENDBRANCH   1  28
TORSDOF 13
ENDMDL
