MODEL 1
REMARK VINA RESULT:     -13.1      0.000      0.000
REMARK SMILES COC(=O)c1ccc(Cl)c(-c2ccc(F)cc2C(=O)NCCCNC(=O)c2ccc(-c3c4nc(c(-c5c(F)c(F)c(F)c(F)c5F)c5ccc([nH]5)c(-c5c(F)c(F)c(F)c(F)c5F)c5nc(c(-c6c(F)c(F)c(F)c(F)c6F)c6ccc3[nH]6)C=C5)C=C4)cc2)c1
REMARK SMILES IDX 21 1 20 2 18 3 19 4 17 6 11 7 12 8 13 9 16 10 14 11 15 12
REMARK SMILES IDX 10 13 5 14 6 15 90 16 7 17 8 18 9 19 3 20 4 21 2 22 1 23
REMARK SMILES IDX 22 24 23 25 24 26 25 27 26 29 27 30 28 31 89 32 29 33 88 34
REMARK SMILES IDX 30 35 31 36 32 37 82 38 33 39 87 40 81 41 83 42 34 43 86 44
REMARK SMILES IDX 80 45 79 46 35 48 67 49 47 50 66 51 48 52 51 53 65 54 84 55
REMARK SMILES IDX 49 56 50 57 64 59 85 60 52 61 36 62 37 63 45 64 38 65 39 66
REMARK SMILES IDX 43 67 46 68 40 69 41 70 44 71 42 72 68 73 69 74 77 75 70 76
REMARK SMILES IDX 71 77 75 78 78 79 72 80 73 81 76 82 74 83 53 84 54 85 62 86
REMARK SMILES IDX 55 87 56 88 60 89 63 90 57 91 58 92 61 93 59 94
REMARK H PARENT 20 5 24 28 83 47 51 58
REMARK Flexibility Score: inf
ROOT
ATOM      1  C   UNL A   1      33.547  28.762  22.680  1.00  0.00     0.118 C 
ENDROOT
BRANCH   1   2
ATOM      2  N   UNL A   1      33.709  27.512  22.006  1.00  0.00    -0.352 N 
ATOM      3  C   UNL A   1      32.954  26.366  22.001  1.00  0.00     0.252 C 
ATOM      4  O   UNL A   1      33.274  25.583  21.095  1.00  0.00    -0.269 OA
ATOM      5  H   UNL A   1      34.511  27.465  21.438  1.00  0.00     0.163 HD
BRANCH   3   6
ATOM      6  C   UNL A   1      31.866  25.917  22.964  1.00  0.00     0.050 A 
ATOM      7  C   UNL A   1      31.739  24.812  23.860  1.00  0.00    -0.004 A 
ATOM      8  C   UNL A   1      30.583  24.741  24.693  1.00  0.00     0.012 A 
ATOM      9  C   UNL A   1      29.561  25.682  24.644  1.00  0.00     0.040 A 
ATOM     10  C   UNL A   1      30.794  26.853  22.949  1.00  0.00     0.053 A 
ATOM     11  C   UNL A   1      29.675  26.732  23.764  1.00  0.00     0.124 A 
ATOM     12  F   UNL A   1      28.700  27.647  23.693  1.00  0.00    -0.207 F 
BRANCH   7  13
ATOM     13  C   UNL A   1      32.658  23.665  24.031  1.00  0.00     0.002 A 
ATOM     14  C   UNL A   1      33.052  21.250  23.992  1.00  0.00     0.060 A 
ATOM     15  C   UNL A   1      34.288  21.428  24.628  1.00  0.00     0.017 A 
ATOM     16  C   UNL A   1      32.265  22.368  23.650  1.00  0.00     0.026 A 
ATOM     17  C   UNL A   1      34.734  22.710  24.939  1.00  0.00     0.022 A 
ATOM     18  C   UNL A   1      33.929  23.819  24.652  1.00  0.00     0.048 A 
ATOM     19  Cl  UNL A   1      34.489  25.352  25.240  1.00  0.00    -0.084 Cl
BRANCH  14  20
ATOM     20  C   UNL A   1      32.470  19.895  23.783  1.00  0.00     0.337 C 
ATOM     21  O   UNL A   1      32.130  19.467  22.702  1.00  0.00    -0.246 OA
BRANCH  20  22
ATOM     22  O   UNL A   1      32.277  19.301  24.989  1.00  0.00    -0.465 OA
ATOM     23  C   UNL A   1      32.417  17.879  24.976  1.00  0.00     0.282 C 
ENDBRANCH  20  22
ENDBRANCH  14  20
ENDBRANCH   7  13
ENDBRANCH   3   6
ENDBRANCH   1   2
BRANCH   1  24
ATOM     24  C   UNL A   1      34.243  28.930  24.009  1.00  0.00     0.042 C 
BRANCH  24  25
ATOM     25  C   UNL A   1      33.351  28.703  25.212  1.00  0.00     0.118 C 
BRANCH  25  26
ATOM     26  N   UNL A   1      32.739  29.924  25.740  1.00  0.00    -0.352 N 
ATOM     27  C   UNL A   1      33.108  30.806  26.728  1.00  0.00     0.251 C 
ATOM     28  H   UNL A   1      31.892  30.162  25.297  1.00  0.00     0.163 HD
ATOM     29  O   UNL A   1      32.350  31.723  27.032  1.00  0.00    -0.269 OA
BRANCH  27  30
ATOM     30  C   UNL A   1      34.389  30.667  27.450  1.00  0.00     0.039 A 
ATOM     31  C   UNL A   1      35.224  31.782  27.598  1.00  0.00     0.014 A 
ATOM     32  C   UNL A   1      34.800  29.433  27.942  1.00  0.00     0.014 A 
ATOM     33  C   UNL A   1      36.424  31.668  28.308  1.00  0.00     0.010 A 
ATOM     34  C   UNL A   1      35.914  29.348  28.761  1.00  0.00     0.010 A 
ATOM     35  C   UNL A   1      36.754  30.457  28.931  1.00  0.00    -0.014 A 
BRANCH  35  36
ATOM     36  C   UNL A   1      38.001  30.258  29.707  1.00  0.00     0.031 A 
ATOM     37  C   UNL A   1      39.072  29.368  29.136  1.00  0.00     0.074 A 
ATOM     38  C   UNL A   1      38.113  30.760  30.951  1.00  0.00     0.049 A 
ATOM     39  N   UNL A   1      40.111  28.834  29.724  1.00  0.00    -0.248 NA
ATOM     40  C   UNL A   1      38.917  28.977  27.723  1.00  0.00     0.031 C 
ATOM     41  C   UNL A   1      37.125  31.609  31.616  1.00  0.00     0.029 A 
ATOM     42  N   UNL A   1      39.103  30.603  31.889  1.00  0.00    -0.354 N 
ATOM     43  C   UNL A   1      40.696  28.010  28.771  1.00  0.00     0.074 A 
ATOM     44  C   UNL A   1      39.870  28.069  27.587  1.00  0.00     0.031 C 
ATOM     45  C   UNL A   1      37.568  31.918  32.845  1.00  0.00     0.029 A 
ATOM     46  C   UNL A   1      38.841  31.244  33.075  1.00  0.00     0.049 A 
ATOM     47  H   UNL A   1      39.922  30.081  31.727  1.00  0.00     0.167 HD
ATOM     48  C   UNL A   1      41.836  27.290  28.872  1.00  0.00     0.037 A 
ATOM     49  C   UNL A   1      39.545  31.266  34.223  1.00  0.00     0.037 A 
ATOM     50  C   UNL A   1      42.683  27.304  30.032  1.00  0.00     0.049 A 
ATOM     51  C   UNL A   1      40.829  30.484  34.301  1.00  0.00     0.074 A 
ATOM     52  C   UNL A   1      43.896  26.669  30.222  1.00  0.00     0.029 A 
ATOM     53  N   UNL A   1      42.409  28.010  31.195  1.00  0.00    -0.354 N 
ATOM     54  N   UNL A   1      41.386  29.721  33.390  1.00  0.00    -0.248 NA
ATOM     55  C   UNL A   1      41.581  30.561  35.560  1.00  0.00     0.031 C 
ATOM     56  C   UNL A   1      44.342  26.967  31.512  1.00  0.00     0.029 A 
ATOM     57  C   UNL A   1      43.430  27.823  32.109  1.00  0.00     0.049 A 
ATOM     58  H   UNL A   1      41.607  28.561  31.347  1.00  0.00     0.167 HD
ATOM     59  C   UNL A   1      42.563  29.251  33.953  1.00  0.00     0.074 A 
ATOM     60  C   UNL A   1      42.645  29.819  35.283  1.00  0.00     0.031 C 
ATOM     61  C   UNL A   1      43.492  28.422  33.419  1.00  0.00     0.037 A 
BRANCH  48  62
ATOM     62  C   UNL A   1      42.249  26.455  27.694  1.00  0.00     0.064 A 
ATOM     63  C   UNL A   1      41.710  25.173  27.505  1.00  0.00     0.173 A 
ATOM     64  C   UNL A   1      43.214  26.900  26.778  1.00  0.00     0.173 A 
ATOM     65  F   UNL A   1      40.786  24.696  28.353  1.00  0.00    -0.203 F 
ATOM     66  C   UNL A   1      42.129  24.367  26.450  1.00  0.00     0.198 A 
ATOM     67  C   UNL A   1      43.606  26.104  25.704  1.00  0.00     0.198 A 
ATOM     68  F   UNL A   1      43.750  28.123  26.902  1.00  0.00    -0.203 F 
ATOM     69  F   UNL A   1      41.621  23.134  26.308  1.00  0.00    -0.200 F 
ATOM     70  C   UNL A   1      43.071  24.834  25.547  1.00  0.00     0.200 A 
ATOM     71  F   UNL A   1      44.494  26.571  24.816  1.00  0.00    -0.200 F 
ATOM     72  F   UNL A   1      43.461  24.063  24.523  1.00  0.00    -0.200 F 
ENDBRANCH  48  62
BRANCH  49  73
ATOM     73  C   UNL A   1      39.068  32.091  35.363  1.00  0.00     0.064 A 
ATOM     74  C   UNL A   1      39.377  33.455  35.468  1.00  0.00     0.173 A 
ATOM     75  C   UNL A   1      38.330  31.509  36.403  1.00  0.00     0.173 A 
ATOM     76  F   UNL A   1      40.089  34.058  34.506  1.00  0.00    -0.203 F 
ATOM     77  C   UNL A   1      38.984  34.199  36.580  1.00  0.00     0.198 A 
ATOM     78  C   UNL A   1      37.916  32.258  37.501  1.00  0.00     0.198 A 
ATOM     79  F   UNL A   1      37.997  30.211  36.340  1.00  0.00    -0.203 F 
ATOM     80  F   UNL A   1      39.326  35.490  36.675  1.00  0.00    -0.200 F 
ATOM     81  C   UNL A   1      38.251  33.600  37.593  1.00  0.00     0.200 A 
ATOM     82  F   UNL A   1      37.192  31.680  38.470  1.00  0.00    -0.200 F 
ATOM     83  F   UNL A   1      37.870  34.317  38.660  1.00  0.00    -0.200 F 
ENDBRANCH  49  73
BRANCH  61  84
ATOM     84  C   UNL A   1      44.700  28.103  34.245  1.00  0.00     0.064 A 
ATOM     85  C   UNL A   1      44.679  27.018  35.135  1.00  0.00     0.173 A 
ATOM     86  C   UNL A   1      45.828  28.934  34.241  1.00  0.00     0.173 A 
ATOM     87  F   UNL A   1      43.615  26.202  35.182  1.00  0.00    -0.203 F 
ATOM     88  C   UNL A   1      45.736  26.792  36.010  1.00  0.00     0.198 A 
ATOM     89  C   UNL A   1      46.896  28.688  35.100  1.00  0.00     0.198 A 
ATOM     90  F   UNL A   1      45.895  29.977  33.400  1.00  0.00    -0.203 F 
ATOM     91  F   UNL A   1      45.676  25.777  36.884  1.00  0.00    -0.200 F 
ATOM     92  C   UNL A   1      46.843  27.627  35.991  1.00  0.00     0.200 A 
ATOM     93  F   UNL A   1      47.973  29.484  35.069  1.00  0.00    -0.200 F 
ATOM     94  F   UNL A   1      47.861  27.410  36.836  1.00  0.00    -0.200 F 
ENDBRANCH  61  84
ENDBRANCH  35  36
ENDBRANCH  27  30
ENDBRANCH  25  26
ENDBRANCH  24  25
ENDBRANCH   1  24
TORSDOF 13
ENDMDL
MODEL 2
REMARK VINA RESULT:     -13.1      1.769      2.977
REMARK SMILES COC(=O)c1ccc(Cl)c(-c2ccc(F)cc2C(=O)NCCCNC(=O)c2ccc(-c3c4nc(c(-c5c(F)c(F)c(F)c(F)c5F)c5ccc([nH]5)c(-c5c(F)c(F)c(F)c(F)c5F)c5nc(c(-c6c(F)c(F)c(F)c(F)c6F)c6ccc3[nH]6)C=C5)C=C4)cc2)c1
REMARK SMILES IDX 21 1 20 2 18 3 19 4 17 6 11 7 12 8 13 9 16 10 14 11 15 12
REMARK SMILES IDX 10 13 5 14 6 15 90 16 7 17 8 18 9 19 3 20 4 21 2 22 1 23
REMARK SMILES IDX 22 24 23 25 24 26 25 27 26 29 27 30 28 31 89 32 29 33 88 34
REMARK SMILES IDX 30 35 31 36 32 37 82 38 33 39 87 40 81 41 83 42 34 43 86 44
REMARK SMILES IDX 80 45 79 46 35 48 67 49 47 50 66 51 48 52 51 53 65 54 84 55
REMARK SMILES IDX 49 56 50 57 64 59 85 60 52 61 36 62 37 63 45 64 38 65 39 66
REMARK SMILES IDX 43 67 46 68 40 69 41 70 44 71 42 72 68 73 69 74 77 75 70 76
REMARK SMILES IDX 71 77 75 78 78 79 72 80 73 81 76 82 74 83 53 84 54 85 62 86
REMARK SMILES IDX 55 87 56 88 60 89 63 90 57 91 58 92 61 93 59 94
REMARK H PARENT 20 5 24 28 83 47 51 58
REMARK Flexibility Score: inf
ROOT
ATOM      1  C   UNL A   1      33.149  26.324  25.032  1.00  0.00     0.118 C 
ENDROOT
BRANCH   1   2
ATOM      2  N   UNL A   1      32.782  25.238  25.884  1.00  0.00    -0.352 N 
ATOM      3  C   UNL A   1      33.441  24.090  26.246  1.00  0.00     0.252 C 
ATOM      4  O   UNL A   1      32.909  23.512  27.205  1.00  0.00    -0.269 OA
ATOM      5  H   UNL A   1      31.889  25.331  26.288  1.00  0.00     0.163 HD
BRANCH   3   6
ATOM      6  C   UNL A   1      34.650  23.423  25.607  1.00  0.00     0.050 A 
ATOM      7  C   UNL A   1      34.804  22.354  24.674  1.00  0.00    -0.004 A 
ATOM      8  C   UNL A   1      36.119  22.032  24.221  1.00  0.00     0.012 A 
ATOM      9  C   UNL A   1      37.255  22.691  24.676  1.00  0.00     0.040 A 
ATOM     10  C   UNL A   1      35.841  24.067  26.045  1.00  0.00     0.053 A 
ATOM     11  C   UNL A   1      37.104  23.705  25.593  1.00  0.00     0.124 A 
ATOM     12  F   UNL A   1      38.183  24.351  26.051  1.00  0.00    -0.207 F 
BRANCH   7  13
ATOM     13  C   UNL A   1      33.757  21.474  24.112  1.00  0.00     0.002 A 
ATOM     14  C   UNL A   1      32.689  19.275  23.985  1.00  0.00     0.060 A 
ATOM     15  C   UNL A   1      31.966  19.676  22.854  1.00  0.00     0.017 A 
ATOM     16  C   UNL A   1      33.541  20.186  24.640  1.00  0.00     0.026 A 
ATOM     17  C   UNL A   1      32.102  20.973  22.363  1.00  0.00     0.022 A 
ATOM     18  C   UNL A   1      32.991  21.863  22.977  1.00  0.00     0.048 A 
ATOM     19  Cl  UNL A   1      33.224  23.389  22.186  1.00  0.00    -0.084 Cl
BRANCH  14  20
ATOM     20  C   UNL A   1      32.691  17.859  24.447  1.00  0.00     0.337 C 
ATOM     21  O   UNL A   1      32.641  17.530  25.612  1.00  0.00    -0.246 OA
BRANCH  20  22
ATOM     22  O   UNL A   1      32.883  17.041  23.380  1.00  0.00    -0.465 OA
ATOM     23  C   UNL A   1      34.252  16.727  23.117  1.00  0.00     0.282 C 
ENDBRANCH  20  22
ENDBRANCH  14  20
ENDBRANCH   7  13
ENDBRANCH   3   6
ENDBRANCH   1   2
BRANCH   1  24
ATOM     24  C   UNL A   1      32.454  27.647  25.253  1.00  0.00     0.042 C 
BRANCH  24  25
ATOM     25  C   UNL A   1      33.380  28.845  25.244  1.00  0.00     0.118 C 
BRANCH  25  26
ATOM     26  N   UNL A   1      32.789  30.058  25.814  1.00  0.00    -0.352 N 
ATOM     27  C   UNL A   1      33.178  30.905  26.826  1.00  0.00     0.251 C 
ATOM     28  H   UNL A   1      31.942  30.320  25.386  1.00  0.00     0.163 HD
ATOM     29  O   UNL A   1      32.434  31.821  27.164  1.00  0.00    -0.269 OA
BRANCH  27  30
ATOM     30  C   UNL A   1      34.462  30.727  27.532  1.00  0.00     0.039 A 
ATOM     31  C   UNL A   1      35.342  31.811  27.651  1.00  0.00     0.014 A 
ATOM     32  C   UNL A   1      34.833  29.485  28.037  1.00  0.00     0.014 A 
ATOM     33  C   UNL A   1      36.546  31.661  28.347  1.00  0.00     0.010 A 
ATOM     34  C   UNL A   1      35.954  29.369  28.842  1.00  0.00     0.010 A 
ATOM     35  C   UNL A   1      36.838  30.447  28.983  1.00  0.00    -0.014 A 
BRANCH  35  36
ATOM     36  C   UNL A   1      38.088  30.212  29.746  1.00  0.00     0.031 A 
ATOM     37  C   UNL A   1      39.120  29.281  29.169  1.00  0.00     0.074 A 
ATOM     38  C   UNL A   1      38.234  30.719  30.984  1.00  0.00     0.049 A 
ATOM     39  N   UNL A   1      40.148  28.717  29.748  1.00  0.00    -0.248 NA
ATOM     40  C   UNL A   1      38.934  28.884  27.761  1.00  0.00     0.031 C 
ATOM     41  C   UNL A   1      37.283  31.608  31.654  1.00  0.00     0.029 A 
ATOM     42  N   UNL A   1      39.229  30.536  31.910  1.00  0.00    -0.354 N 
ATOM     43  C   UNL A   1      40.691  27.865  28.794  1.00  0.00     0.074 A 
ATOM     44  C   UNL A   1      39.853  27.942  27.621  1.00  0.00     0.031 C 
ATOM     45  C   UNL A   1      37.753  31.911  32.875  1.00  0.00     0.029 A 
ATOM     46  C   UNL A   1      39.005  31.195  33.094  1.00  0.00     0.049 A 
ATOM     47  H   UNL A   1      40.028  29.986  31.742  1.00  0.00     0.167 HD
ATOM     48  C   UNL A   1      41.808  27.107  28.887  1.00  0.00     0.037 A 
ATOM     49  C   UNL A   1      39.725  31.203  34.233  1.00  0.00     0.037 A 
ATOM     50  C   UNL A   1      42.669  27.101  30.037  1.00  0.00     0.049 A 
ATOM     51  C   UNL A   1      40.981  30.378  34.301  1.00  0.00     0.074 A 
ATOM     52  C   UNL A   1      43.863  26.426  30.217  1.00  0.00     0.029 A 
ATOM     53  N   UNL A   1      42.435  27.825  31.197  1.00  0.00    -0.354 N 
ATOM     54  N   UNL A   1      41.500  29.589  33.390  1.00  0.00    -0.248 NA
ATOM     55  C   UNL A   1      41.752  30.439  35.549  1.00  0.00     0.031 C 
ATOM     56  C   UNL A   1      44.335  26.719  31.498  1.00  0.00     0.029 A 
ATOM     57  C   UNL A   1      43.461  27.611  32.099  1.00  0.00     0.049 A 
ATOM     58  H   UNL A   1      41.654  28.405  31.354  1.00  0.00     0.167 HD
ATOM     59  C   UNL A   1      42.667  29.082  33.942  1.00  0.00     0.074 A 
ATOM     60  C   UNL A   1      42.786  29.659  35.266  1.00  0.00     0.031 C 
ATOM     61  C   UNL A   1      43.561  28.218  33.403  1.00  0.00     0.037 A 
BRANCH  48  62
ATOM     62  C   UNL A   1      42.176  26.249  27.711  1.00  0.00     0.064 A 
ATOM     63  C   UNL A   1      41.590  24.985  27.540  1.00  0.00     0.173 A 
ATOM     64  C   UNL A   1      43.145  26.652  26.780  1.00  0.00     0.173 A 
ATOM     65  F   UNL A   1      40.660  24.548  28.402  1.00  0.00    -0.203 F 
ATOM     66  C   UNL A   1      41.967  24.156  26.486  1.00  0.00     0.198 A 
ATOM     67  C   UNL A   1      43.496  25.834  25.709  1.00  0.00     0.198 A 
ATOM     68  F   UNL A   1      43.727  27.856  26.888  1.00  0.00    -0.203 F 
ATOM     69  F   UNL A   1      41.414  22.942  26.360  1.00  0.00    -0.200 F 
ATOM     70  C   UNL A   1      42.914  24.583  25.569  1.00  0.00     0.200 A 
ATOM     71  F   UNL A   1      44.390  26.262  24.806  1.00  0.00    -0.200 F 
ATOM     72  F   UNL A   1      43.264  23.791  24.546  1.00  0.00    -0.200 F 
ENDBRANCH  48  62
BRANCH  49  73
ATOM     73  C   UNL A   1      39.290  32.053  35.371  1.00  0.00     0.064 A 
ATOM     74  C   UNL A   1      38.479  31.552  36.400  1.00  0.00     0.173 A 
ATOM     75  C   UNL A   1      39.642  33.409  35.422  1.00  0.00     0.173 A 
ATOM     76  F   UNL A   1      38.105  30.265  36.394  1.00  0.00    -0.203 F 
ATOM     77  C   UNL A   1      38.019  32.381  37.422  1.00  0.00     0.198 A 
ATOM     78  C   UNL A   1      39.203  34.230  36.457  1.00  0.00     0.198 A 
ATOM     79  F   UNL A   1      40.429  33.931  34.469  1.00  0.00    -0.203 F 
ATOM     80  F   UNL A   1      37.212  31.886  38.371  1.00  0.00    -0.200 F 
ATOM     81  C   UNL A   1      38.384  33.718  37.452  1.00  0.00     0.200 A 
ATOM     82  F   UNL A   1      39.574  35.518  36.492  1.00  0.00    -0.200 F 
ATOM     83  F   UNL A   1      37.945  34.513  38.438  1.00  0.00    -0.200 F 
ENDBRANCH  49  73
BRANCH  61  84
ATOM     84  C   UNL A   1      44.767  27.864  34.217  1.00  0.00     0.064 A 
ATOM     85  C   UNL A   1      45.949  28.609  34.086  1.00  0.00     0.173 A 
ATOM     86  C   UNL A   1      44.788  26.727  35.035  1.00  0.00     0.173 A 
ATOM     87  F   UNL A   1      45.978  29.699  33.305  1.00  0.00    -0.203 F 
ATOM     88  C   UNL A   1      47.118  28.210  34.726  1.00  0.00     0.198 A 
ATOM     89  C   UNL A   1      45.954  26.347  35.695  1.00  0.00     0.198 A 
ATOM     90  F   UNL A   1      43.678  25.990  35.197  1.00  0.00    -0.203 F 
ATOM     91  F   UNL A   1      48.248  28.910  34.551  1.00  0.00    -0.200 F 
ATOM     92  C   UNL A   1      47.119  27.081  35.530  1.00  0.00     0.200 A 
ATOM     93  F   UNL A   1      45.949  25.266  36.487  1.00  0.00    -0.200 F 
ATOM     94  F   UNL A   1      48.246  26.697  36.145  1.00  0.00    -0.200 F 
ENDBRANCH  61  84
ENDBRANCH  35  36
ENDBRANCH  27  30
ENDBRANCH  25  26
ENDBRANCH  24  25
ENDBRANCH   1  24
TORSDOF 13
ENDMDL
MODEL 3
REMARK VINA RESULT:     -13.1      2.179      3.186
REMARK SMILES COC(=O)c1ccc(Cl)c(-c2ccc(F)cc2C(=O)NCCCNC(=O)c2ccc(-c3c4nc(c(-c5c(F)c(F)c(F)c(F)c5F)c5ccc([nH]5)c(-c5c(F)c(F)c(F)c(F)c5F)c5nc(c(-c6c(F)c(F)c(F)c(F)c6F)c6ccc3[nH]6)C=C5)C=C4)cc2)c1
REMARK SMILES IDX 21 1 20 2 18 3 19 4 17 6 11 7 12 8 13 9 16 10 14 11 15 12
REMARK SMILES IDX 10 13 5 14 6 15 90 16 7 17 8 18 9 19 3 20 4 21 2 22 1 23
REMARK SMILES IDX 22 24 23 25 24 26 25 27 26 29 27 30 28 31 89 32 29 33 88 34
REMARK SMILES IDX 30 35 31 36 32 37 82 38 33 39 87 40 81 41 83 42 34 43 86 44
REMARK SMILES IDX 80 45 79 46 35 48 67 49 47 50 66 51 48 52 51 53 65 54 84 55
REMARK SMILES IDX 49 56 50 57 64 59 85 60 52 61 36 62 37 63 45 64 38 65 39 66
REMARK SMILES IDX 43 67 46 68 40 69 41 70 44 71 42 72 68 73 69 74 77 75 70 76
REMARK SMILES IDX 71 77 75 78 78 79 72 80 73 81 76 82 74 83 53 84 54 85 62 86
REMARK SMILES IDX 55 87 56 88 60 89 63 90 57 91 58 92 61 93 59 94
REMARK H PARENT 20 5 24 28 83 47 51 58
REMARK Flexibility Score: inf
ROOT
ATOM      1  C   UNL A   1      31.715  30.202  26.619  1.00  0.00     0.118 C 
ENDROOT
BRANCH   1   2
ATOM      2  N   UNL A   1      32.419  29.684  25.489  1.00  0.00    -0.352 N 
ATOM      3  C   UNL A   1      31.987  29.216  24.273  1.00  0.00     0.252 C 
ATOM      4  O   UNL A   1      32.907  29.091  23.452  1.00  0.00    -0.269 OA
ATOM      5  H   UNL A   1      33.396  29.659  25.603  1.00  0.00     0.163 HD
BRANCH   3   6
ATOM      6  C   UNL A   1      30.595  28.783  23.839  1.00  0.00     0.050 A 
ATOM      7  C   UNL A   1      29.947  27.515  23.738  1.00  0.00    -0.004 A 
ATOM      8  C   UNL A   1      28.572  27.483  23.357  1.00  0.00     0.012 A 
ATOM      9  C   UNL A   1      27.849  28.630  23.048  1.00  0.00     0.040 A 
ATOM     10  C   UNL A   1      29.816  29.928  23.511  1.00  0.00     0.053 A 
ATOM     11  C   UNL A   1      28.484  29.848  23.124  1.00  0.00     0.124 A 
ATOM     12  F   UNL A   1      27.812  30.966  22.825  1.00  0.00    -0.207 F 
BRANCH   7  13
ATOM     13  C   UNL A   1      30.529  26.172  23.947  1.00  0.00     0.002 A 
ATOM     14  C   UNL A   1      31.047  24.302  25.439  1.00  0.00     0.060 A 
ATOM     15  C   UNL A   1      31.884  23.739  24.466  1.00  0.00     0.017 A 
ATOM     16  C   UNL A   1      30.334  25.485  25.161  1.00  0.00     0.026 A 
ATOM     17  C   UNL A   1      32.027  24.360  23.227  1.00  0.00     0.022 A 
ATOM     18  C   UNL A   1      31.365  25.565  22.968  1.00  0.00     0.048 A 
ATOM     19  Cl  UNL A   1      31.748  26.349  21.468  1.00  0.00    -0.084 Cl
BRANCH  14  20
ATOM     20  C   UNL A   1      30.987  23.759  26.825  1.00  0.00     0.337 C 
ATOM     21  O   UNL A   1      31.942  23.290  27.406  1.00  0.00    -0.246 OA
BRANCH  20  22
ATOM     22  O   UNL A   1      29.698  23.762  27.251  1.00  0.00    -0.465 OA
ATOM     23  C   UNL A   1      29.073  22.478  27.251  1.00  0.00     0.282 C 
ENDBRANCH  20  22
ENDBRANCH  14  20
ENDBRANCH   7  13
ENDBRANCH   3   6
ENDBRANCH   1   2
BRANCH   1  24
ATOM     24  C   UNL A   1      31.461  31.691  26.657  1.00  0.00     0.042 C 
BRANCH  24  25
ATOM     25  C   UNL A   1      32.704  32.529  26.874  1.00  0.00     0.118 C 
BRANCH  25  26
ATOM     26  N   UNL A   1      32.442  33.840  27.472  1.00  0.00    -0.352 N 
ATOM     27  C   UNL A   1      33.020  34.528  28.513  1.00  0.00     0.251 C 
ATOM     28  H   UNL A   1      31.701  34.326  27.043  1.00  0.00     0.163 HD
ATOM     29  O   UNL A   1      32.536  35.599  28.869  1.00  0.00    -0.269 OA
BRANCH  27  30
ATOM     30  C   UNL A   1      34.199  34.001  29.228  1.00  0.00     0.039 A 
ATOM     31  C   UNL A   1      34.028  33.030  30.223  1.00  0.00     0.014 A 
ATOM     32  C   UNL A   1      35.473  34.492  28.960  1.00  0.00     0.014 A 
ATOM     33  C   UNL A   1      35.142  32.501  30.883  1.00  0.00     0.010 A 
ATOM     34  C   UNL A   1      36.584  33.874  29.510  1.00  0.00     0.010 A 
ATOM     35  C   UNL A   1      36.432  32.891  30.498  1.00  0.00    -0.014 A 
BRANCH  35  36
ATOM     36  C   UNL A   1      37.662  32.371  31.142  1.00  0.00     0.031 A 
ATOM     37  C   UNL A   1      38.449  31.301  30.435  1.00  0.00     0.074 A 
ATOM     38  C   UNL A   1      37.990  32.758  32.389  1.00  0.00     0.049 A 
ATOM     39  N   UNL A   1      39.385  30.514  30.898  1.00  0.00    -0.248 NA
ATOM     40  C   UNL A   1      38.091  31.042  29.029  1.00  0.00     0.031 C 
ATOM     41  C   UNL A   1      37.281  33.764  33.180  1.00  0.00     0.029 A 
ATOM     42  N   UNL A   1      38.993  32.327  33.220  1.00  0.00    -0.354 N 
ATOM     43  C   UNL A   1      39.683  29.639  29.861  1.00  0.00     0.074 A 
ATOM     44  C   UNL A   1      38.796  29.954  28.765  1.00  0.00     0.031 C 
ATOM     45  C   UNL A   1      37.885  33.891  34.372  1.00  0.00     0.029 A 
ATOM     46  C   UNL A   1      38.986  32.936  34.451  1.00  0.00     0.049 A 
ATOM     47  H   UNL A   1      39.655  31.646  32.959  1.00  0.00     0.167 HD
ATOM     48  C   UNL A   1      40.634  28.678  29.822  1.00  0.00     0.037 A 
ATOM     49  C   UNL A   1      39.771  32.730  35.526  1.00  0.00     0.037 A 
ATOM     50  C   UNL A   1      41.556  28.431  30.896  1.00  0.00     0.049 A 
ATOM     51  C   UNL A   1      40.844  31.678  35.448  1.00  0.00     0.074 A 
ATOM     52  C   UNL A   1      42.604  27.531  30.942  1.00  0.00     0.029 A 
ATOM     53  N   UNL A   1      41.549  29.108  32.107  1.00  0.00    -0.354 N 
ATOM     54  N   UNL A   1      41.134  30.867  34.458  1.00  0.00    -0.248 NA
ATOM     55  C   UNL A   1      41.698  31.507  36.631  1.00  0.00     0.031 C 
ATOM     56  C   UNL A   1      43.214  27.642  32.194  1.00  0.00     0.029 A 
ATOM     57  C   UNL A   1      42.574  28.642  32.910  1.00  0.00     0.049 A 
ATOM     58  H   UNL A   1      40.910  29.814  32.358  1.00  0.00     0.167 HD
ATOM     59  C   UNL A   1      42.215  30.112  34.886  1.00  0.00     0.074 A 
ATOM     60  C   UNL A   1      42.537  30.565  36.224  1.00  0.00     0.031 C 
ATOM     61  C   UNL A   1      42.882  29.130  34.231  1.00  0.00     0.037 A 
BRANCH  48  62
ATOM     62  C   UNL A   1      40.744  27.846  28.577  1.00  0.00     0.064 A 
ATOM     63  C   UNL A   1      40.068  26.620  28.477  1.00  0.00     0.173 A 
ATOM     64  C   UNL A   1      41.557  28.234  27.502  1.00  0.00     0.173 A 
ATOM     65  F   UNL A   1      39.280  26.198  29.478  1.00  0.00    -0.203 F 
ATOM     66  C   UNL A   1      40.210  25.812  27.352  1.00  0.00     0.198 A 
ATOM     67  C   UNL A   1      41.670  27.440  26.364  1.00  0.00     0.198 A 
ATOM     68  F   UNL A   1      42.213  29.403  27.538  1.00  0.00    -0.203 F 
ATOM     69  F   UNL A   1      39.577  24.632  27.292  1.00  0.00    -0.200 F 
ATOM     70  C   UNL A   1      41.005  26.225  26.294  1.00  0.00     0.200 A 
ATOM     71  F   UNL A   1      42.415  27.856  25.330  1.00  0.00    -0.200 F 
ATOM     72  F   UNL A   1      41.127  25.454  25.205  1.00  0.00    -0.200 F 
ENDBRANCH  48  62
BRANCH  49  73
ATOM     73  C   UNL A   1      39.592  33.569  36.739  1.00  0.00     0.064 A 
ATOM     74  C   UNL A   1      38.769  33.167  37.801  1.00  0.00     0.173 A 
ATOM     75  C   UNL A   1      40.208  34.825  36.833  1.00  0.00     0.173 A 
ATOM     76  F   UNL A   1      38.148  31.980  37.757  1.00  0.00    -0.203 F 
ATOM     77  C   UNL A   1      38.553  33.998  38.899  1.00  0.00     0.198 A 
ATOM     78  C   UNL A   1      40.012  35.644  37.942  1.00  0.00     0.198 A 
ATOM     79  F   UNL A   1      41.017  35.247  35.849  1.00  0.00    -0.203 F 
ATOM     80  F   UNL A   1      37.730  33.607  39.881  1.00  0.00    -0.200 F 
ATOM     81  C   UNL A   1      39.177  35.234  38.970  1.00  0.00     0.200 A 
ATOM     82  F   UNL A   1      40.632  36.830  38.015  1.00  0.00    -0.200 F 
ATOM     83  F   UNL A   1      38.972  36.031  40.028  1.00  0.00    -0.200 F 
ENDBRANCH  49  73
BRANCH  61  84
ATOM     84  C   UNL A   1      44.051  28.499  34.924  1.00  0.00     0.064 A 
ATOM     85  C   UNL A   1      43.865  27.363  35.727  1.00  0.00     0.173 A 
ATOM     86  C   UNL A   1      45.324  29.083  34.887  1.00  0.00     0.173 A 
ATOM     87  F   UNL A   1      42.661  26.777  35.801  1.00  0.00    -0.203 F 
ATOM     88  C   UNL A   1      44.910  26.849  36.488  1.00  0.00     0.198 A 
ATOM     89  C   UNL A   1      46.373  28.549  35.630  1.00  0.00     0.198 A 
ATOM     90  F   UNL A   1      45.549  30.165  34.126  1.00  0.00    -0.203 F 
ATOM     91  F   UNL A   1      44.699  25.790  37.283  1.00  0.00    -0.200 F 
ATOM     92  C   UNL A   1      46.162  27.442  36.439  1.00  0.00     0.200 A 
ATOM     93  F   UNL A   1      47.588  29.111  35.568  1.00  0.00    -0.200 F 
ATOM     94  F   UNL A   1      47.167  26.947  37.174  1.00  0.00    -0.200 F 
ENDBRANCH  61  84
ENDBRANCH  35  36
ENDBRANCH  27  30
ENDBRANCH  25  26
ENDBRANCH  24  25
ENDBRANCH   1  24
TORSDOF 13
ENDMDL
