MODEL 1
REMARK VINA RESULT:     -12.7      0.000      0.000
REMARK SMILES COc1ccc(OCc2cccs2)c(C(=O)NCCCNC(=O)c2ccc(-c3c4nc(c(-c5c(F)c(F)c(F)c(F)c5F)c5ccc([nH]5)c(-c5c(F)c(F)c(F)c(F)c5F)c5nc(c(-c6c(F)c(F)c(F)c(F)c6F)c6ccc3[nH]6)C=C5)C=C4)cc2)c1
REMARK SMILES IDX 18 1 17 2 15 3 16 4 14 6 3 7 4 8 87 9 5 10 6 11 2 12 1 13
REMARK SMILES IDX 7 14 8 15 9 16 10 17 13 18 11 19 12 20 19 21 20 22 21 23
REMARK SMILES IDX 22 24 23 26 24 27 25 28 86 29 26 30 85 31 27 32 28 33 29 34
REMARK SMILES IDX 79 35 30 36 84 37 78 38 80 39 31 40 83 41 77 42 76 43 32 45
REMARK SMILES IDX 64 46 44 47 63 48 45 49 48 50 62 51 81 52 46 53 47 54 61 56
REMARK SMILES IDX 82 57 49 58 33 59 34 60 42 61 35 62 36 63 40 64 43 65 37 66
REMARK SMILES IDX 38 67 41 68 39 69 65 70 66 71 74 72 67 73 68 74 72 75 75 76
REMARK SMILES IDX 69 77 70 78 73 79 71 80 50 81 51 82 59 83 52 84 53 85 57 86
REMARK SMILES IDX 60 87 54 88 55 89 58 90 56 91
REMARK H PARENT 17 5 21 25 80 44 48 55
REMARK Flexibility Score: inf
ROOT
ATOM      1  C   UNL A   1      31.688  30.635  26.620  1.00  0.00     0.118 C 
ENDROOT
BRANCH   1   2
ATOM      2  N   UNL A   1      32.139  30.244  25.292  1.00  0.00    -0.352 N 
ATOM      3  C   UNL A   1      32.086  29.112  24.528  1.00  0.00     0.255 C 
ATOM      4  O   UNL A   1      32.828  29.104  23.546  1.00  0.00    -0.269 OA
ATOM      5  H   UNL A   1      32.600  30.980  24.829  1.00  0.00     0.163 HD
BRANCH   3   6
ATOM      6  C   UNL A   1      31.230  27.938  24.809  1.00  0.00     0.085 A 
ATOM      7  C   UNL A   1      30.987  25.836  26.041  1.00  0.00     0.119 A 
ATOM      8  C   UNL A   1      30.127  25.369  25.058  1.00  0.00     0.050 A 
ATOM      9  C   UNL A   1      31.578  27.087  25.874  1.00  0.00     0.064 A 
ATOM     10  C   UNL A   1      29.756  26.206  24.004  1.00  0.00     0.051 A 
ATOM     11  C   UNL A   1      30.240  27.522  23.904  1.00  0.00     0.132 A 
BRANCH   7  12
ATOM     12  O   UNL A   1      31.259  24.970  27.064  1.00  0.00    -0.497 OA
ATOM     13  C   UNL A   1      31.836  23.719  26.698  1.00  0.00     0.278 C 
ENDBRANCH   7  12
BRANCH  11  14
ATOM     14  O   UNL A   1      29.661  28.183  22.858  1.00  0.00    -0.487 OA
BRANCH  14  15
ATOM     15  C   UNL A   1      28.363  28.788  22.907  1.00  0.00     0.276 C 
BRANCH  15  16
ATOM     16  C   UNL A   1      28.397  30.280  22.747  1.00  0.00     0.042 A 
ATOM     17  C   UNL A   1      28.726  31.236  23.690  1.00  0.00     0.019 A 
ATOM     18  S   UNL A   1      28.134  31.001  21.214  1.00  0.00    -0.145 S 
ATOM     19  C   UNL A   1      28.720  32.557  23.169  1.00  0.00     0.012 A 
ATOM     20  C   UNL A   1      28.451  32.570  21.821  1.00  0.00     0.065 A 
ENDBRANCH  15  16
ENDBRANCH  14  15
ENDBRANCH  11  14
ENDBRANCH   3   6
ENDBRANCH   1   2
BRANCH   1  21
ATOM     21  C   UNL A   1      31.563  32.156  26.648  1.00  0.00     0.042 C 
BRANCH  21  22
ATOM     22  C   UNL A   1      32.729  32.782  27.404  1.00  0.00     0.118 C 
BRANCH  22  23
ATOM     23  N   UNL A   1      32.511  34.209  27.621  1.00  0.00    -0.352 N 
ATOM     24  C   UNL A   1      33.014  35.010  28.615  1.00  0.00     0.251 C 
ATOM     25  H   UNL A   1      31.926  34.656  26.967  1.00  0.00     0.163 HD
ATOM     26  O   UNL A   1      32.521  36.110  28.846  1.00  0.00    -0.269 OA
BRANCH  24  27
ATOM     27  C   UNL A   1      34.151  34.515  29.409  1.00  0.00     0.039 A 
ATOM     28  C   UNL A   1      33.925  33.899  30.640  1.00  0.00     0.014 A 
ATOM     29  C   UNL A   1      35.443  34.621  28.889  1.00  0.00     0.014 A 
ATOM     30  C   UNL A   1      34.999  33.329  31.322  1.00  0.00     0.010 A 
ATOM     31  C   UNL A   1      36.482  33.945  29.506  1.00  0.00     0.010 A 
ATOM     32  C   UNL A   1      36.278  33.315  30.742  1.00  0.00    -0.014 A 
BRANCH  32  33
ATOM     33  C   UNL A   1      37.444  32.703  31.421  1.00  0.00     0.031 A 
ATOM     34  C   UNL A   1      38.166  31.566  30.751  1.00  0.00     0.074 A 
ATOM     35  C   UNL A   1      37.794  33.103  32.657  1.00  0.00     0.049 A 
ATOM     36  N   UNL A   1      39.121  30.800  31.214  1.00  0.00    -0.248 NA
ATOM     37  C   UNL A   1      37.721  31.210  29.392  1.00  0.00     0.031 C 
ATOM     38  C   UNL A   1      37.135  34.161  33.426  1.00  0.00     0.029 A 
ATOM     39  N   UNL A   1      38.785  32.655  33.492  1.00  0.00    -0.354 N 
ATOM     40  C   UNL A   1      39.365  29.864  30.217  1.00  0.00     0.074 A 
ATOM     41  C   UNL A   1      38.410  30.105  29.160  1.00  0.00     0.031 C 
ATOM     42  C   UNL A   1      37.759  34.301  34.606  1.00  0.00     0.029 A 
ATOM     43  C   UNL A   1      38.829  33.311  34.698  1.00  0.00     0.049 A 
ATOM     44  H   UNL A   1      39.407  31.931  33.250  1.00  0.00     0.167 HD
ATOM     45  C   UNL A   1      40.324  28.911  30.172  1.00  0.00     0.037 A 
ATOM     46  C   UNL A   1      39.638  33.125  35.757  1.00  0.00     0.037 A 
ATOM     47  C   UNL A   1      41.293  28.705  31.213  1.00  0.00     0.049 A 
ATOM     48  C   UNL A   1      40.694  32.054  35.686  1.00  0.00     0.074 A 
ATOM     49  C   UNL A   1      42.345  27.809  31.247  1.00  0.00     0.029 A 
ATOM     50  N   UNL A   1      41.324  29.409  32.408  1.00  0.00    -0.354 N 
ATOM     51  N   UNL A   1      40.962  31.218  34.712  1.00  0.00    -0.248 NA
ATOM     52  C   UNL A   1      41.564  31.905  36.860  1.00  0.00     0.031 C 
ATOM     53  C   UNL A   1      42.982  27.935  32.486  1.00  0.00     0.029 A 
ATOM     54  C   UNL A   1      42.367  28.953  33.197  1.00  0.00     0.049 A 
ATOM     55  H   UNL A   1      40.697  30.126  32.659  1.00  0.00     0.167 HD
ATOM     56  C   UNL A   1      42.053  30.471  35.138  1.00  0.00     0.074 A 
ATOM     57  C   UNL A   1      42.402  30.962  36.456  1.00  0.00     0.031 C 
ATOM     58  C   UNL A   1      42.707  29.470  34.498  1.00  0.00     0.037 A 
BRANCH  45  59
ATOM     59  C   UNL A   1      40.371  28.031  28.955  1.00  0.00     0.064 A 
ATOM     60  C   UNL A   1      41.114  28.382  27.816  1.00  0.00     0.173 A 
ATOM     61  C   UNL A   1      39.675  26.813  28.930  1.00  0.00     0.173 A 
ATOM     62  F   UNL A   1      41.786  29.543  27.780  1.00  0.00    -0.203 F 
ATOM     63  C   UNL A   1      41.125  27.568  26.687  1.00  0.00     0.198 A 
ATOM     64  C   UNL A   1      39.721  25.982  27.813  1.00  0.00     0.198 A 
ATOM     65  F   UNL A   1      38.950  26.426  29.991  1.00  0.00    -0.203 F 
ATOM     66  F   UNL A   1      41.789  27.958  25.589  1.00  0.00    -0.200 F 
ATOM     67  C   UNL A   1      40.436  26.366  26.690  1.00  0.00     0.200 A 
ATOM     68  F   UNL A   1      39.064  24.814  27.822  1.00  0.00    -0.200 F 
ATOM     69  F   UNL A   1      40.454  25.580  25.603  1.00  0.00    -0.200 F 
ENDBRANCH  45  59
BRANCH  46  70
ATOM     70  C   UNL A   1      39.505  33.989  36.960  1.00  0.00     0.064 A 
ATOM     71  C   UNL A   1      38.765  33.563  38.072  1.00  0.00     0.173 A 
ATOM     72  C   UNL A   1      40.104  35.256  37.025  1.00  0.00     0.173 A 
ATOM     73  F   UNL A   1      38.158  32.367  38.053  1.00  0.00    -0.203 F 
ATOM     74  C   UNL A   1      38.606  34.380  39.190  1.00  0.00     0.198 A 
ATOM     75  C   UNL A   1      39.973  36.059  38.156  1.00  0.00     0.198 A 
ATOM     76  F   UNL A   1      40.832  35.709  35.993  1.00  0.00    -0.203 F 
ATOM     77  F   UNL A   1      37.851  33.967  40.217  1.00  0.00    -0.200 F 
ATOM     78  C   UNL A   1      39.215  35.625  39.234  1.00  0.00     0.200 A 
ATOM     79  F   UNL A   1      40.578  37.253  38.202  1.00  0.00    -0.200 F 
ATOM     80  F   UNL A   1      39.067  36.409  40.310  1.00  0.00    -0.200 F 
ENDBRANCH  46  70
BRANCH  58  81
ATOM     81  C   UNL A   1      43.902  28.876  35.185  1.00  0.00     0.064 A 
ATOM     82  C   UNL A   1      45.197  29.377  34.988  1.00  0.00     0.173 A 
ATOM     83  C   UNL A   1      43.737  27.823  36.099  1.00  0.00     0.173 A 
ATOM     84  F   UNL A   1      45.409  30.373  34.115  1.00  0.00    -0.203 F 
ATOM     85  C   UNL A   1      46.286  28.827  35.659  1.00  0.00     0.198 A 
ATOM     86  C   UNL A   1      44.822  27.301  36.795  1.00  0.00     0.198 A 
ATOM     87  F   UNL A   1      42.518  27.314  36.332  1.00  0.00    -0.203 F 
ATOM     88  F   UNL A   1      47.521  29.288  35.417  1.00  0.00    -0.200 F 
ATOM     89  C   UNL A   1      46.096  27.797  36.569  1.00  0.00     0.200 A 
ATOM     90  F   UNL A   1      44.634  26.319  37.688  1.00  0.00    -0.200 F 
ATOM     91  F   UNL A   1      47.145  27.279  37.223  1.00  0.00    -0.200 F 
ENDBRANCH  58  81
ENDBRANCH  32  33
ENDBRANCH  24  27
ENDBRANCH  22  23
ENDBRANCH  21  22
ENDBRANCH   1  21
TORSDOF 14
ENDMDL
MODEL 2
REMARK VINA RESULT:     -12.7      0.098      1.613
REMARK SMILES COc1ccc(OCc2cccs2)c(C(=O)NCCCNC(=O)c2ccc(-c3c4nc(c(-c5c(F)c(F)c(F)c(F)c5F)c5ccc([nH]5)c(-c5c(F)c(F)c(F)c(F)c5F)c5nc(c(-c6c(F)c(F)c(F)c(F)c6F)c6ccc3[nH]6)C=C5)C=C4)cc2)c1
REMARK SMILES IDX 18 1 17 2 15 3 16 4 14 6 3 7 4 8 87 9 5 10 6 11 2 12 1 13
REMARK SMILES IDX 7 14 8 15 9 16 10 17 13 18 11 19 12 20 19 21 20 22 21 23
REMARK SMILES IDX 22 24 23 26 24 27 25 28 86 29 26 30 85 31 27 32 28 33 29 34
REMARK SMILES IDX 79 35 30 36 84 37 78 38 80 39 31 40 83 41 77 42 76 43 32 45
REMARK SMILES IDX 64 46 44 47 63 48 45 49 48 50 62 51 81 52 46 53 47 54 61 56
REMARK SMILES IDX 82 57 49 58 33 59 34 60 42 61 35 62 36 63 40 64 43 65 37 66
REMARK SMILES IDX 38 67 41 68 39 69 65 70 66 71 74 72 67 73 68 74 72 75 75 76
REMARK SMILES IDX 69 77 70 78 73 79 71 80 50 81 51 82 59 83 52 84 53 85 57 86
REMARK SMILES IDX 60 87 54 88 55 89 58 90 56 91
REMARK H PARENT 17 5 21 25 80 44 48 55
REMARK Flexibility Score: inf
ROOT
ATOM      1  C   UNL A   1      31.700  30.658  26.692  1.00  0.00     0.118 C 
ENDROOT
BRANCH   1   2
ATOM      2  N   UNL A   1      32.230  30.258  25.396  1.00  0.00    -0.352 N 
ATOM      3  C   UNL A   1      32.221  29.122  24.637  1.00  0.00     0.255 C 
ATOM      4  O   UNL A   1      33.021  29.107  23.702  1.00  0.00    -0.269 OA
ATOM      5  H   UNL A   1      32.719  30.991  24.957  1.00  0.00     0.163 HD
BRANCH   3   6
ATOM      6  C   UNL A   1      31.347  27.951  24.872  1.00  0.00     0.085 A 
ATOM      7  C   UNL A   1      31.069  25.812  26.032  1.00  0.00     0.119 A 
ATOM      8  C   UNL A   1      30.208  25.390  25.028  1.00  0.00     0.050 A 
ATOM      9  C   UNL A   1      31.677  27.060  25.911  1.00  0.00     0.064 A 
ATOM     10  C   UNL A   1      29.857  26.267  24.000  1.00  0.00     0.051 A 
ATOM     11  C   UNL A   1      30.358  27.579  23.948  1.00  0.00     0.132 A 
BRANCH   7  12
ATOM     12  O   UNL A   1      31.321  24.908  27.026  1.00  0.00    -0.497 OA
ATOM     13  C   UNL A   1      31.874  23.658  26.620  1.00  0.00     0.278 C 
ENDBRANCH   7  12
BRANCH  11  14
ATOM     14  O   UNL A   1      29.795  28.283  22.921  1.00  0.00    -0.487 OA
BRANCH  14  15
ATOM     15  C   UNL A   1      28.464  28.813  22.943  1.00  0.00     0.276 C 
BRANCH  15  16
ATOM     16  C   UNL A   1      28.411  30.294  22.703  1.00  0.00     0.042 A 
ATOM     17  C   UNL A   1      28.664  31.317  23.597  1.00  0.00     0.019 A 
ATOM     18  S   UNL A   1      28.135  30.914  21.128  1.00  0.00    -0.145 S 
ATOM     19  C   UNL A   1      28.588  32.606  23.004  1.00  0.00     0.012 A 
ATOM     20  C   UNL A   1      28.345  32.530  21.653  1.00  0.00     0.065 A 
ENDBRANCH  15  16
ENDBRANCH  14  15
ENDBRANCH  11  14
ENDBRANCH   3   6
ENDBRANCH   1   2
BRANCH   1  21
ATOM     21  C   UNL A   1      31.561  32.178  26.697  1.00  0.00     0.042 C 
BRANCH  21  22
ATOM     22  C   UNL A   1      32.760  32.829  27.377  1.00  0.00     0.118 C 
BRANCH  22  23
ATOM     23  N   UNL A   1      32.518  34.248  27.624  1.00  0.00    -0.352 N 
ATOM     24  C   UNL A   1      32.998  35.033  28.642  1.00  0.00     0.251 C 
ATOM     25  H   UNL A   1      31.935  34.701  26.974  1.00  0.00     0.163 HD
ATOM     26  O   UNL A   1      32.486  36.120  28.893  1.00  0.00    -0.269 OA
BRANCH  24  27
ATOM     27  C   UNL A   1      34.133  34.535  29.438  1.00  0.00     0.039 A 
ATOM     28  C   UNL A   1      33.904  33.928  30.672  1.00  0.00     0.014 A 
ATOM     29  C   UNL A   1      35.425  34.631  28.917  1.00  0.00     0.014 A 
ATOM     30  C   UNL A   1      34.975  33.355  31.357  1.00  0.00     0.010 A 
ATOM     31  C   UNL A   1      36.460  33.953  29.536  1.00  0.00     0.010 A 
ATOM     32  C   UNL A   1      36.253  33.331  30.776  1.00  0.00    -0.014 A 
BRANCH  32  33
ATOM     33  C   UNL A   1      37.417  32.716  31.457  1.00  0.00     0.031 A 
ATOM     34  C   UNL A   1      38.135  31.574  30.791  1.00  0.00     0.074 A 
ATOM     35  C   UNL A   1      37.767  33.118  32.693  1.00  0.00     0.049 A 
ATOM     36  N   UNL A   1      39.086  30.806  31.256  1.00  0.00    -0.248 NA
ATOM     37  C   UNL A   1      37.689  31.217  29.433  1.00  0.00     0.031 C 
ATOM     38  C   UNL A   1      37.113  34.181  33.458  1.00  0.00     0.029 A 
ATOM     39  N   UNL A   1      38.756  32.668  33.529  1.00  0.00    -0.354 N 
ATOM     40  C   UNL A   1      39.327  29.866  30.262  1.00  0.00     0.074 A 
ATOM     41  C   UNL A   1      38.374  30.108  29.204  1.00  0.00     0.031 C 
ATOM     42  C   UNL A   1      37.736  34.321  34.639  1.00  0.00     0.029 A 
ATOM     43  C   UNL A   1      38.802  33.328  34.733  1.00  0.00     0.049 A 
ATOM     44  H   UNL A   1      39.375  31.941  33.290  1.00  0.00     0.167 HD
ATOM     45  C   UNL A   1      40.282  28.909  30.221  1.00  0.00     0.037 A 
ATOM     46  C   UNL A   1      39.610  33.141  35.794  1.00  0.00     0.037 A 
ATOM     47  C   UNL A   1      41.249  28.701  31.264  1.00  0.00     0.049 A 
ATOM     48  C   UNL A   1      40.661  32.065  35.727  1.00  0.00     0.074 A 
ATOM     49  C   UNL A   1      42.298  27.801  31.301  1.00  0.00     0.029 A 
ATOM     50  N   UNL A   1      41.282  29.408  32.456  1.00  0.00    -0.354 N 
ATOM     51  N   UNL A   1      40.927  31.225  34.755  1.00  0.00    -0.248 NA
ATOM     52  C   UNL A   1      41.530  31.916  36.902  1.00  0.00     0.031 C 
ATOM     53  C   UNL A   1      42.934  27.928  32.540  1.00  0.00     0.029 A 
ATOM     54  C   UNL A   1      42.323  28.950  33.248  1.00  0.00     0.049 A 
ATOM     55  H   UNL A   1      40.659  30.129  32.705  1.00  0.00     0.167 HD
ATOM     56  C   UNL A   1      42.014  30.475  35.184  1.00  0.00     0.074 A 
ATOM     57  C   UNL A   1      42.365  30.968  36.500  1.00  0.00     0.031 C 
ATOM     58  C   UNL A   1      42.664  29.470  34.547  1.00  0.00     0.037 A 
BRANCH  45  59
ATOM     59  C   UNL A   1      40.326  28.025  29.007  1.00  0.00     0.064 A 
ATOM     60  C   UNL A   1      41.080  28.364  27.872  1.00  0.00     0.173 A 
ATOM     61  C   UNL A   1      39.616  26.816  28.980  1.00  0.00     0.173 A 
ATOM     62  F   UNL A   1      41.766  29.517  27.836  1.00  0.00    -0.203 F 
ATOM     63  C   UNL A   1      41.089  27.548  26.745  1.00  0.00     0.198 A 
ATOM     64  C   UNL A   1      39.659  25.981  27.866  1.00  0.00     0.198 A 
ATOM     65  F   UNL A   1      38.880  26.439  30.038  1.00  0.00    -0.203 F 
ATOM     66  F   UNL A   1      41.764  27.927  25.650  1.00  0.00    -0.200 F 
ATOM     67  C   UNL A   1      40.386  26.353  26.746  1.00  0.00     0.200 A 
ATOM     68  F   UNL A   1      38.989  24.821  27.874  1.00  0.00    -0.200 F 
ATOM     69  F   UNL A   1      40.401  25.565  25.662  1.00  0.00    -0.200 F 
ENDBRANCH  45  59
BRANCH  46  70
ATOM     70  C   UNL A   1      39.479  34.009  36.995  1.00  0.00     0.064 A 
ATOM     71  C   UNL A   1      40.113  35.258  37.051  1.00  0.00     0.173 A 
ATOM     72  C   UNL A   1      38.726  33.611  38.110  1.00  0.00     0.173 A 
ATOM     73  F   UNL A   1      40.858  35.677  36.016  1.00  0.00    -0.203 F 
ATOM     74  C   UNL A   1      40.023  36.063  38.185  1.00  0.00     0.198 A 
ATOM     75  C   UNL A   1      38.610  34.431  39.230  1.00  0.00     0.198 A 
ATOM     76  F   UNL A   1      38.091  32.430  38.105  1.00  0.00    -0.203 F 
ATOM     77  F   UNL A   1      40.681  37.230  38.230  1.00  0.00    -0.200 F 
ATOM     78  C   UNL A   1      39.267  35.652  39.272  1.00  0.00     0.200 A 
ATOM     79  F   UNL A   1      37.863  34.038  40.271  1.00  0.00    -0.200 F 
ATOM     80  F   UNL A   1      39.176  36.428  40.360  1.00  0.00    -0.200 F 
ENDBRANCH  46  70
BRANCH  58  81
ATOM     81  C   UNL A   1      43.857  28.873  35.237  1.00  0.00     0.064 A 
ATOM     82  C   UNL A   1      43.737  27.798  36.130  1.00  0.00     0.173 A 
ATOM     83  C   UNL A   1      45.146  29.352  34.955  1.00  0.00     0.173 A 
ATOM     84  F   UNL A   1      42.526  27.313  36.442  1.00  0.00    -0.203 F 
ATOM     85  C   UNL A   1      44.861  27.244  36.735  1.00  0.00     0.198 A 
ATOM     86  C   UNL A   1      46.270  28.772  35.534  1.00  0.00     0.198 A 
ATOM     87  F   UNL A   1      45.317  30.372  34.100  1.00  0.00    -0.203 F 
ATOM     88  F   UNL A   1      44.719  26.250  37.623  1.00  0.00    -0.200 F 
ATOM     89  C   UNL A   1      46.126  27.723  36.429  1.00  0.00     0.200 A 
ATOM     90  F   UNL A   1      47.492  29.225  35.222  1.00  0.00    -0.200 F 
ATOM     91  F   UNL A   1      47.208  27.179  37.003  1.00  0.00    -0.200 F 
ENDBRANCH  58  81
ENDBRANCH  32  33
ENDBRANCH  24  27
ENDBRANCH  22  23
ENDBRANCH  21  22
ENDBRANCH   1  21
TORSDOF 14
ENDMDL
MODEL 3
REMARK VINA RESULT:     -12.5      0.683      7.350
REMARK SMILES COc1ccc(OCc2cccs2)c(C(=O)NCCCNC(=O)c2ccc(-c3c4nc(c(-c5c(F)c(F)c(F)c(F)c5F)c5ccc([nH]5)c(-c5c(F)c(F)c(F)c(F)c5F)c5nc(c(-c6c(F)c(F)c(F)c(F)c6F)c6ccc3[nH]6)C=C5)C=C4)cc2)c1
REMARK SMILES IDX 18 1 17 2 15 3 16 4 14 6 3 7 4 8 87 9 5 10 6 11 2 12 1 13
REMARK SMILES IDX 7 14 8 15 9 16 10 17 13 18 11 19 12 20 19 21 20 22 21 23
REMARK SMILES IDX 22 24 23 26 24 27 25 28 86 29 26 30 85 31 27 32 28 33 29 34
REMARK SMILES IDX 79 35 30 36 84 37 78 38 80 39 31 40 83 41 77 42 76 43 32 45
REMARK SMILES IDX 64 46 44 47 63 48 45 49 48 50 62 51 81 52 46 53 47 54 61 56
REMARK SMILES IDX 82 57 49 58 33 59 34 60 42 61 35 62 36 63 40 64 43 65 37 66
REMARK SMILES IDX 38 67 41 68 39 69 65 70 66 71 74 72 67 73 68 74 72 75 75 76
REMARK SMILES IDX 69 77 70 78 73 79 71 80 50 81 51 82 59 83 52 84 53 85 57 86
REMARK SMILES IDX 60 87 54 88 55 89 58 90 56 91
REMARK H PARENT 17 5 21 25 80 44 48 55
REMARK Flexibility Score: inf
ROOT
ATOM      1  C   UNL A   1      31.350  30.895  26.503  1.00  0.00     0.118 C 
ENDROOT
BRANCH   1   2
ATOM      2  N   UNL A   1      32.100  30.427  25.347  1.00  0.00    -0.352 N 
ATOM      3  C   UNL A   1      32.251  29.242  24.684  1.00  0.00     0.255 C 
ATOM      4  O   UNL A   1      33.197  29.194  23.899  1.00  0.00    -0.269 OA
ATOM      5  H   UNL A   1      32.635  31.148  24.940  1.00  0.00     0.163 HD
BRANCH   3   6
ATOM      6  C   UNL A   1      31.384  28.056  24.861  1.00  0.00     0.085 A 
ATOM      7  C   UNL A   1      31.075  25.901  25.983  1.00  0.00     0.119 A 
ATOM      8  C   UNL A   1      30.278  25.477  24.930  1.00  0.00     0.050 A 
ATOM      9  C   UNL A   1      31.670  27.159  25.907  1.00  0.00     0.064 A 
ATOM     10  C   UNL A   1      29.969  26.359  23.892  1.00  0.00     0.051 A 
ATOM     11  C   UNL A   1      30.453  27.678  23.880  1.00  0.00     0.132 A 
BRANCH   7  12
ATOM     12  O   UNL A   1      31.287  24.991  26.981  1.00  0.00    -0.497 OA
ATOM     13  C   UNL A   1      31.490  23.639  26.574  1.00  0.00     0.278 C 
ENDBRANCH   7  12
BRANCH  11  14
ATOM     14  O   UNL A   1      29.936  28.385  22.830  1.00  0.00    -0.487 OA
BRANCH  14  15
ATOM     15  C   UNL A   1      28.599  28.898  22.786  1.00  0.00     0.276 C 
BRANCH  15  16
ATOM     16  C   UNL A   1      28.542  30.393  22.666  1.00  0.00     0.042 A 
ATOM     17  C   UNL A   1      28.889  31.343  23.608  1.00  0.00     0.019 A 
ATOM     18  S   UNL A   1      28.126  31.135  21.176  1.00  0.00    -0.145 S 
ATOM     19  C   UNL A   1      28.774  32.674  23.126  1.00  0.00     0.012 A 
ATOM     20  C   UNL A   1      28.404  32.704  21.801  1.00  0.00     0.065 A 
ENDBRANCH  15  16
ENDBRANCH  14  15
ENDBRANCH  11  14
ENDBRANCH   3   6
ENDBRANCH   1   2
BRANCH   1  21
ATOM     21  C   UNL A   1      31.407  32.421  26.519  1.00  0.00     0.042 C 
BRANCH  21  22
ATOM     22  C   UNL A   1      32.655  32.908  27.245  1.00  0.00     0.118 C 
BRANCH  22  23
ATOM     23  N   UNL A   1      32.526  34.311  27.631  1.00  0.00    -0.352 N 
ATOM     24  C   UNL A   1      33.084  34.958  28.704  1.00  0.00     0.251 C 
ATOM     25  H   UNL A   1      31.964  34.865  27.042  1.00  0.00     0.163 HD
ATOM     26  O   UNL A   1      32.660  36.051  29.069  1.00  0.00    -0.269 OA
BRANCH  24  27
ATOM     27  C   UNL A   1      34.195  34.306  29.417  1.00  0.00     0.039 A 
ATOM     28  C   UNL A   1      33.931  33.472  30.504  1.00  0.00     0.014 A 
ATOM     29  C   UNL A   1      35.502  34.491  28.959  1.00  0.00     0.014 A 
ATOM     30  C   UNL A   1      34.981  32.769  31.092  1.00  0.00     0.010 A 
ATOM     31  C   UNL A   1      36.517  33.697  29.461  1.00  0.00     0.010 A 
ATOM     32  C   UNL A   1      36.275  32.848  30.551  1.00  0.00    -0.014 A 
BRANCH  32  33
ATOM     33  C   UNL A   1      37.417  32.103  31.130  1.00  0.00     0.031 A 
ATOM     34  C   UNL A   1      37.903  32.464  32.508  1.00  0.00     0.074 A 
ATOM     35  C   UNL A   1      38.064  31.178  30.397  1.00  0.00     0.049 A 
ATOM     36  N   UNL A   1      38.957  32.040  33.155  1.00  0.00    -0.248 NA
ATOM     37  C   UNL A   1      37.121  33.477  33.239  1.00  0.00     0.031 C 
ATOM     38  C   UNL A   1      37.715  30.780  29.032  1.00  0.00     0.029 A 
ATOM     39  N   UNL A   1      39.161  30.412  30.695  1.00  0.00    -0.354 N 
ATOM     40  C   UNL A   1      38.975  32.753  34.347  1.00  0.00     0.074 A 
ATOM     41  C   UNL A   1      37.877  33.689  34.303  1.00  0.00     0.031 C 
ATOM     42  C   UNL A   1      38.563  29.823  28.622  1.00  0.00     0.029 A 
ATOM     43  C   UNL A   1      39.543  29.575  29.676  1.00  0.00     0.049 A 
ATOM     44  H   UNL A   1      39.632  30.458  31.559  1.00  0.00     0.167 HD
ATOM     45  C   UNL A   1      39.813  32.612  35.400  1.00  0.00     0.037 A 
ATOM     46  C   UNL A   1      40.574  28.712  29.601  1.00  0.00     0.037 A 
ATOM     47  C   UNL A   1      40.880  31.650  35.449  1.00  0.00     0.049 A 
ATOM     48  C   UNL A   1      41.496  28.579  30.784  1.00  0.00     0.074 A 
ATOM     49  C   UNL A   1      41.752  31.381  36.487  1.00  0.00     0.029 A 
ATOM     50  N   UNL A   1      41.218  30.799  34.407  1.00  0.00    -0.354 N 
ATOM     51  N   UNL A   1      41.466  29.208  31.934  1.00  0.00    -0.248 NA
ATOM     52  C   UNL A   1      42.593  27.609  30.660  1.00  0.00     0.031 C 
ATOM     53  C   UNL A   1      42.653  30.402  36.055  1.00  0.00     0.029 A 
ATOM     54  C   UNL A   1      42.301  30.016  34.771  1.00  0.00     0.049 A 
ATOM     55  H   UNL A   1      40.757  30.758  33.538  1.00  0.00     0.167 HD
ATOM     56  C   UNL A   1      42.512  28.685  32.684  1.00  0.00     0.074 A 
ATOM     57  C   UNL A   1      43.151  27.679  31.860  1.00  0.00     0.031 C 
ATOM     58  C   UNL A   1      42.908  29.008  33.940  1.00  0.00     0.037 A 
BRANCH  45  59
ATOM     59  C   UNL A   1      39.599  33.516  36.582  1.00  0.00     0.064 A 
ATOM     60  C   UNL A   1      40.215  34.774  36.672  1.00  0.00     0.173 A 
ATOM     61  C   UNL A   1      38.757  33.125  37.634  1.00  0.00     0.173 A 
ATOM     62  F   UNL A   1      41.043  35.192  35.703  1.00  0.00    -0.203 F 
ATOM     63  C   UNL A   1      40.028  35.588  37.786  1.00  0.00     0.198 A 
ATOM     64  C   UNL A   1      38.540  33.958  38.728  1.00  0.00     0.198 A 
ATOM     65  F   UNL A   1      38.141  31.933  37.600  1.00  0.00    -0.203 F 
ATOM     66  F   UNL A   1      40.680  36.756  37.878  1.00  0.00    -0.200 F 
ATOM     67  C   UNL A   1      39.185  35.183  38.809  1.00  0.00     0.200 A 
ATOM     68  F   UNL A   1      37.715  33.571  39.710  1.00  0.00    -0.200 F 
ATOM     69  F   UNL A   1      39.000  35.970  39.878  1.00  0.00    -0.200 F 
ENDBRANCH  45  59
BRANCH  46  70
ATOM     70  C   UNL A   1      40.771  27.887  28.379  1.00  0.00     0.064 A 
ATOM     71  C   UNL A   1      40.184  26.619  28.267  1.00  0.00     0.173 A 
ATOM     72  C   UNL A   1      41.551  28.340  27.305  1.00  0.00     0.173 A 
ATOM     73  F   UNL A   1      39.442  26.133  29.274  1.00  0.00    -0.203 F 
ATOM     74  C   UNL A   1      40.390  25.826  27.140  1.00  0.00     0.198 A 
ATOM     75  C   UNL A   1      41.731  27.560  26.165  1.00  0.00     0.198 A 
ATOM     76  F   UNL A   1      42.128  29.550  27.357  1.00  0.00    -0.203 F 
ATOM     77  F   UNL A   1      39.858  24.597  27.081  1.00  0.00    -0.200 F 
ATOM     78  C   UNL A   1      41.159  26.298  26.087  1.00  0.00     0.200 A 
ATOM     79  F   UNL A   1      42.459  28.028  25.142  1.00  0.00    -0.200 F 
ATOM     80  F   UNL A   1      41.354  25.538  25.002  1.00  0.00    -0.200 F 
ENDBRANCH  46  70
BRANCH  58  81
ATOM     81  C   UNL A   1      44.049  28.228  34.525  1.00  0.00     0.064 A 
ATOM     82  C   UNL A   1      45.374  28.684  34.454  1.00  0.00     0.173 A 
ATOM     83  C   UNL A   1      43.803  27.031  35.217  1.00  0.00     0.173 A 
ATOM     84  F   UNL A   1      45.663  29.815  33.794  1.00  0.00    -0.203 F 
ATOM     85  C   UNL A   1      46.412  27.957  35.029  1.00  0.00     0.198 A 
ATOM     86  C   UNL A   1      44.838  26.325  35.821  1.00  0.00     0.198 A 
ATOM     87  F   UNL A   1      42.553  26.555  35.322  1.00  0.00    -0.203 F 
ATOM     88  F   UNL A   1      47.675  28.385  34.906  1.00  0.00    -0.200 F 
ATOM     89  C   UNL A   1      46.142  26.784  35.721  1.00  0.00     0.200 A 
ATOM     90  F   UNL A   1      44.573  25.203  36.504  1.00  0.00    -0.200 F 
ATOM     91  F   UNL A   1      47.142  26.093  36.285  1.00  0.00    -0.200 F 
ENDBRANCH  58  81
ENDBRANCH  32  33
ENDBRANCH  24  27
ENDBRANCH  22  23
ENDBRANCH  21  22
ENDBRANCH   1  21
TORSDOF 14
ENDMDL
