MODEL 1
REMARK VINA RESULT:     -13.7      0.000      0.000
REMARK SMILES Nn1c(S[C@@H](C(=O)NCCCNC(=O)c2ccc(-c3c4nc(c(-c5c(F)c(F)c(F)c(F)c5F)c5ccc([nH]5)c(-c5c(F)c(F)c(F)c(F)c5F)c5nc(c(-c6c(F)c(F)c(F)c(F)c6F)c6ccc3[nH]6)C=C5)C=C4)cc2)c2ccccc2)nc2ccc(Br)cc2c1=O
REMARK SMILES IDX 9 1 8 2 6 3 7 4 5 6 4 7 3 8 2 9 92 10 84 11 91 12 93 13
REMARK SMILES IDX 85 14 90 15 86 16 88 17 87 18 89 19 1 20 78 23 79 24 83 25
REMARK SMILES IDX 80 26 82 27 81 28 10 29 11 30 12 31 13 32 14 34 15 35 16 36
REMARK SMILES IDX 77 37 17 38 76 39 18 40 19 41 20 42 70 43 21 44 75 45 69 46
REMARK SMILES IDX 71 47 22 48 74 49 68 50 67 51 23 53 55 54 35 55 54 56 36 57
REMARK SMILES IDX 39 58 53 59 72 60 37 61 38 62 52 64 73 65 40 66 24 67 25 68
REMARK SMILES IDX 33 69 26 70 27 71 31 72 34 73 28 74 29 75 32 76 30 77 56 78
REMARK SMILES IDX 57 79 65 80 58 81 59 82 63 83 66 84 60 85 61 86 64 87 62 88
REMARK SMILES IDX 41 89 42 90 50 91 43 92 44 93 48 94 51 95 45 96 46 97 49 98
REMARK SMILES IDX 47 99
REMARK H PARENT 8 5 1 21 1 22 12 33 71 52 39 63
REMARK Flexibility Score: inf
ROOT
ATOM      1  C   UNL A   1      31.693  30.185  26.473  1.00  0.00     0.117 C 
ENDROOT
BRANCH   1   2
ATOM      2  N   UNL A   1      32.352  29.717  25.261  1.00  0.00    -0.355 N 
ATOM      3  C   UNL A   1      31.858  29.203  24.093  1.00  0.00     0.238 C 
ATOM      4  O   UNL A   1      32.700  28.986  23.214  1.00  0.00    -0.273 OA
ATOM      5  H   UNL A   1      33.334  29.781  25.288  1.00  0.00     0.163 HD
BRANCH   3   6
ATOM      6  C   UNL A   1      30.361  28.892  23.885  1.00  0.00     0.174 C 
BRANCH   6   7
ATOM      7  S   UNL A   1      30.099  27.200  23.356  1.00  0.00    -0.068 SA
BRANCH   7   8
ATOM      8  C   UNL A   1      31.020  26.002  24.216  1.00  0.00     0.191 A 
ATOM      9  N   UNL A   1      30.660  25.397  25.419  1.00  0.00    -0.202 N 
ATOM     10  C   UNL A   1      31.552  24.554  26.103  1.00  0.00     0.280 A 
ATOM     11  N   UNL A   1      32.098  25.679  23.573  1.00  0.00    -0.222 NA
ATOM     12  C   UNL A   1      32.749  24.143  25.352  1.00  0.00     0.069 A 
ATOM     13  O   UNL A   1      31.403  24.138  27.251  1.00  0.00    -0.267 OA
ATOM     14  C   UNL A   1      32.937  24.692  24.089  1.00  0.00     0.079 A 
ATOM     15  C   UNL A   1      33.631  23.184  25.865  1.00  0.00     0.031 A 
ATOM     16  C   UNL A   1      34.000  24.239  23.306  1.00  0.00     0.030 A 
ATOM     17  C   UNL A   1      34.695  22.753  25.077  1.00  0.00     0.018 A 
ATOM     18  C   UNL A   1      34.877  23.266  23.794  1.00  0.00     0.018 A 
ATOM     19  Br  UNL A   1      35.890  21.453  25.746  1.00  0.00    -0.051 Br
BRANCH   9  20
ATOM     20  N   UNL A   1      29.399  25.524  26.023  1.00  0.00    -0.334 N 
ATOM     21  H   UNL A   1      29.333  25.753  26.978  1.00  0.00     0.178 HD
ATOM     22  H   UNL A   1      28.583  25.383  25.492  1.00  0.00     0.178 HD
ENDBRANCH   9  20
ENDBRANCH   7   8
ENDBRANCH   6   7
BRANCH   6  23
ATOM     23  C   UNL A   1      29.580  30.030  23.221  1.00  0.00    -0.025 A 
ATOM     24  C   UNL A   1      29.153  31.203  23.861  1.00  0.00     0.005 A 
ATOM     25  C   UNL A   1      29.219  29.874  21.865  1.00  0.00     0.005 A 
ATOM     26  C   UNL A   1      28.365  32.151  23.197  1.00  0.00     0.000 A 
ATOM     27  C   UNL A   1      28.446  30.827  21.195  1.00  0.00     0.000 A 
ATOM     28  C   UNL A   1      28.008  31.961  21.867  1.00  0.00     0.000 A 
ENDBRANCH   6  23
ENDBRANCH   3   6
ENDBRANCH   1   2
BRANCH   1  29
ATOM     29  C   UNL A   1      31.532  31.705  26.549  1.00  0.00     0.042 C 
BRANCH  29  30
ATOM     30  C   UNL A   1      32.761  32.481  27.007  1.00  0.00     0.118 C 
BRANCH  30  31
ATOM     31  N   UNL A   1      32.461  33.828  27.468  1.00  0.00    -0.352 N 
ATOM     32  C   UNL A   1      33.044  34.596  28.448  1.00  0.00     0.251 C 
ATOM     33  H   UNL A   1      31.713  34.263  26.998  1.00  0.00     0.163 HD
ATOM     34  O   UNL A   1      32.528  35.670  28.751  1.00  0.00    -0.269 OA
BRANCH  32  35
ATOM     35  C   UNL A   1      34.250  34.139  29.181  1.00  0.00     0.039 A 
ATOM     36  C   UNL A   1      35.538  34.508  28.792  1.00  0.00     0.014 A 
ATOM     37  C   UNL A   1      34.082  33.327  30.310  1.00  0.00     0.014 A 
ATOM     38  C   UNL A   1      36.646  33.917  29.400  1.00  0.00     0.010 A 
ATOM     39  C   UNL A   1      35.197  32.800  30.973  1.00  0.00     0.010 A 
ATOM     40  C   UNL A   1      36.489  33.036  30.482  1.00  0.00    -0.014 A 
BRANCH  40  41
ATOM     41  C   UNL A   1      37.678  32.334  31.043  1.00  0.00     0.031 A 
ATOM     42  C   UNL A   1      38.144  32.630  32.448  1.00  0.00     0.074 A 
ATOM     43  C   UNL A   1      38.300  31.377  30.325  1.00  0.00     0.049 A 
ATOM     44  N   UNL A   1      39.128  32.088  33.124  1.00  0.00    -0.248 NA
ATOM     45  C   UNL A   1      37.414  33.669  33.191  1.00  0.00     0.031 C 
ATOM     46  C   UNL A   1      37.949  30.988  28.960  1.00  0.00     0.029 A 
ATOM     47  N   UNL A   1      39.339  30.542  30.653  1.00  0.00    -0.354 N 
ATOM     48  C   UNL A   1      39.140  32.728  34.358  1.00  0.00     0.074 A 
ATOM     49  C   UNL A   1      38.091  33.722  34.329  1.00  0.00     0.031 C 
ATOM     50  C   UNL A   1      38.722  29.956  28.586  1.00  0.00     0.029 A 
ATOM     51  C   UNL A   1      39.656  29.642  29.664  1.00  0.00     0.049 A 
ATOM     52  H   UNL A   1      39.812  30.583  31.515  1.00  0.00     0.167 HD
ATOM     53  C   UNL A   1      39.938  32.494  35.427  1.00  0.00     0.037 A 
ATOM     54  C   UNL A   1      40.593  28.676  29.626  1.00  0.00     0.037 A 
ATOM     55  C   UNL A   1      40.957  31.480  35.480  1.00  0.00     0.049 A 
ATOM     56  C   UNL A   1      41.492  28.465  30.814  1.00  0.00     0.074 A 
ATOM     57  C   UNL A   1      41.783  31.145  36.540  1.00  0.00     0.029 A 
ATOM     58  N   UNL A   1      41.287  30.634  34.433  1.00  0.00    -0.354 N 
ATOM     59  N   UNL A   1      41.474  29.063  31.979  1.00  0.00    -0.248 NA
ATOM     60  C   UNL A   1      42.549  27.451  30.676  1.00  0.00     0.031 C 
ATOM     61  C   UNL A   1      42.638  30.120  36.122  1.00  0.00     0.029 A 
ATOM     62  C   UNL A   1      42.320  29.794  34.814  1.00  0.00     0.049 A 
ATOM     63  H   UNL A   1      40.850  30.631  33.550  1.00  0.00     0.167 HD
ATOM     64  C   UNL A   1      42.509  28.498  32.713  1.00  0.00     0.074 A 
ATOM     65  C   UNL A   1      43.118  27.490  31.873  1.00  0.00     0.031 C 
ATOM     66  C   UNL A   1      42.920  28.798  33.968  1.00  0.00     0.037 A 
BRANCH  53  67
ATOM     67  C   UNL A   1      39.742  33.337  36.651  1.00  0.00     0.064 A 
ATOM     68  C   UNL A   1      40.422  34.552  36.815  1.00  0.00     0.173 A 
ATOM     69  C   UNL A   1      38.797  32.973  37.621  1.00  0.00     0.173 A 
ATOM     70  F   UNL A   1      41.342  34.939  35.919  1.00  0.00    -0.203 F 
ATOM     71  C   UNL A   1      40.166  35.372  37.912  1.00  0.00     0.198 A 
ATOM     72  C   UNL A   1      38.528  33.805  38.705  1.00  0.00     0.198 A 
ATOM     73  F   UNL A   1      38.115  31.823  37.504  1.00  0.00    -0.203 F 
ATOM     74  F   UNL A   1      40.841  36.520  38.060  1.00  0.00    -0.200 F 
ATOM     75  C   UNL A   1      39.212  35.002  38.850  1.00  0.00     0.200 A 
ATOM     76  F   UNL A   1      37.597  33.454  39.604  1.00  0.00    -0.200 F 
ATOM     77  F   UNL A   1      38.953  35.802  39.894  1.00  0.00    -0.200 F 
ENDBRANCH  53  67
BRANCH  54  78
ATOM     78  C   UNL A   1      40.731  27.826  28.414  1.00  0.00     0.064 A 
ATOM     79  C   UNL A   1      40.072  26.593  28.320  1.00  0.00     0.173 A 
ATOM     80  C   UNL A   1      41.530  28.225  27.332  1.00  0.00     0.173 A 
ATOM     81  F   UNL A   1      39.319  26.157  29.341  1.00  0.00    -0.203 F 
ATOM     82  C   UNL A   1      40.213  25.787  27.192  1.00  0.00     0.198 A 
ATOM     83  C   UNL A   1      41.649  27.430  26.194  1.00  0.00     0.198 A 
ATOM     84  F   UNL A   1      42.185  29.395  27.377  1.00  0.00    -0.203 F 
ATOM     85  F   UNL A   1      39.602  24.596  27.143  1.00  0.00    -0.200 F 
ATOM     86  C   UNL A   1      40.996  26.210  26.127  1.00  0.00     0.200 A 
ATOM     87  F   UNL A   1      42.398  27.848  25.165  1.00  0.00    -0.200 F 
ATOM     88  F   UNL A   1      41.126  25.436  25.042  1.00  0.00    -0.200 F 
ENDBRANCH  54  78
BRANCH  66  89
ATOM     89  C   UNL A   1      44.089  28.036  34.515  1.00  0.00     0.064 A 
ATOM     90  C   UNL A   1      45.392  28.548  34.428  1.00  0.00     0.173 A 
ATOM     91  C   UNL A   1      43.900  26.825  35.198  1.00  0.00     0.173 A 
ATOM     92  F   UNL A   1      45.624  29.695  33.773  1.00  0.00    -0.203 F 
ATOM     93  C   UNL A   1      46.466  27.869  34.999  1.00  0.00     0.198 A 
ATOM     94  C   UNL A   1      44.972  26.162  35.787  1.00  0.00     0.198 A 
ATOM     95  F   UNL A   1      42.671  26.300  35.314  1.00  0.00    -0.203 F 
ATOM     96  F   UNL A   1      47.706  28.363  34.881  1.00  0.00    -0.200 F 
ATOM     97  C   UNL A   1      46.254  26.683  35.685  1.00  0.00     0.200 A 
ATOM     98  F   UNL A   1      44.765  25.023  36.462  1.00  0.00    -0.200 F 
ATOM     99  F   UNL A   1      47.287  26.040  36.248  1.00  0.00    -0.200 F 
ENDBRANCH  66  89
ENDBRANCH  40  41
ENDBRANCH  32  35
ENDBRANCH  30  31
ENDBRANCH  29  30
ENDBRANCH   1  29
TORSDOF 14
ENDMDL
MODEL 2
REMARK VINA RESULT:     -13.7      5.443     10.844
REMARK SMILES Nn1c(S[C@@H](C(=O)NCCCNC(=O)c2ccc(-c3c4nc(c(-c5c(F)c(F)c(F)c(F)c5F)c5ccc([nH]5)c(-c5c(F)c(F)c(F)c(F)c5F)c5nc(c(-c6c(F)c(F)c(F)c(F)c6F)c6ccc3[nH]6)C=C5)C=C4)cc2)c2ccccc2)nc2ccc(Br)cc2c1=O
REMARK SMILES IDX 9 1 8 2 6 3 7 4 5 6 4 7 3 8 2 9 92 10 84 11 91 12 93 13
REMARK SMILES IDX 85 14 90 15 86 16 88 17 87 18 89 19 1 20 78 23 79 24 83 25
REMARK SMILES IDX 80 26 82 27 81 28 10 29 11 30 12 31 13 32 14 34 15 35 16 36
REMARK SMILES IDX 77 37 17 38 76 39 18 40 19 41 20 42 70 43 21 44 75 45 69 46
REMARK SMILES IDX 71 47 22 48 74 49 68 50 67 51 23 53 55 54 35 55 54 56 36 57
REMARK SMILES IDX 39 58 53 59 72 60 37 61 38 62 52 64 73 65 40 66 24 67 25 68
REMARK SMILES IDX 33 69 26 70 27 71 31 72 34 73 28 74 29 75 32 76 30 77 56 78
REMARK SMILES IDX 57 79 65 80 58 81 59 82 63 83 66 84 60 85 61 86 64 87 62 88
REMARK SMILES IDX 41 89 42 90 50 91 43 92 44 93 48 94 51 95 45 96 46 97 49 98
REMARK SMILES IDX 47 99
REMARK H PARENT 8 5 1 21 1 22 12 33 71 52 39 63
REMARK Flexibility Score: inf
ROOT
ATOM      1  C   UNL A   1      36.814  20.970  24.701  1.00  0.00     0.117 C 
ENDROOT
BRANCH   1   2
ATOM      2  N   UNL A   1      35.832  21.206  25.751  1.00  0.00    -0.355 N 
ATOM      3  C   UNL A   1      34.506  20.880  25.852  1.00  0.00     0.238 C 
ATOM      4  O   UNL A   1      33.977  21.152  26.935  1.00  0.00    -0.273 OA
ATOM      5  H   UNL A   1      36.187  21.689  26.531  1.00  0.00     0.163 HD
BRANCH   3   6
ATOM      6  C   UNL A   1      33.714  20.238  24.693  1.00  0.00     0.174 C 
BRANCH   6   7
ATOM      7  S   UNL A   1      32.290  21.225  24.234  1.00  0.00    -0.068 SA
BRANCH   7   8
ATOM      8  C   UNL A   1      32.591  22.928  24.058  1.00  0.00     0.191 A 
ATOM      9  N   UNL A   1      32.995  23.575  22.891  1.00  0.00    -0.202 N 
ATOM     10  C   UNL A   1      33.356  24.932  22.902  1.00  0.00     0.280 A 
ATOM     11  N   UNL A   1      32.345  23.570  25.157  1.00  0.00    -0.222 NA
ATOM     12  C   UNL A   1      33.027  25.674  24.129  1.00  0.00     0.069 A 
ATOM     13  O   UNL A   1      33.906  25.532  21.979  1.00  0.00    -0.267 OA
ATOM     14  C   UNL A   1      32.482  24.957  25.189  1.00  0.00     0.079 A 
ATOM     15  C   UNL A   1      33.194  27.062  24.203  1.00  0.00     0.031 A 
ATOM     16  C   UNL A   1      32.055  25.648  26.324  1.00  0.00     0.030 A 
ATOM     17  C   UNL A   1      32.776  27.735  25.348  1.00  0.00     0.018 A 
ATOM     18  C   UNL A   1      32.194  27.036  26.405  1.00  0.00     0.018 A 
ATOM     19  Br  UNL A   1      32.983  29.609  25.463  1.00  0.00    -0.051 Br
BRANCH   9  20
ATOM     20  N   UNL A   1      33.031  22.972  21.625  1.00  0.00    -0.334 N 
ATOM     21  H   UNL A   1      32.810  23.499  20.823  1.00  0.00     0.178 HD
ATOM     22  H   UNL A   1      33.276  22.023  21.538  1.00  0.00     0.178 HD
ENDBRANCH   9  20
ENDBRANCH   7   8
ENDBRANCH   6   7
BRANCH   6  23
ATOM     23  C   UNL A   1      33.588  18.716  24.799  1.00  0.00    -0.025 A 
ATOM     24  C   UNL A   1      32.522  18.030  25.399  1.00  0.00     0.005 A 
ATOM     25  C   UNL A   1      34.647  17.933  24.290  1.00  0.00     0.005 A 
ATOM     26  C   UNL A   1      32.533  16.636  25.530  1.00  0.00     0.000 A 
ATOM     27  C   UNL A   1      34.653  16.540  24.405  1.00  0.00     0.000 A 
ATOM     28  C   UNL A   1      33.599  15.892  25.038  1.00  0.00     0.000 A 
ENDBRANCH   6  23
ENDBRANCH   3   6
ENDBRANCH   1   2
BRANCH   1  29
ATOM     29  C   UNL A   1      37.795  19.836  25.007  1.00  0.00     0.042 C 
BRANCH  29  30
ATOM     30  C   UNL A   1      39.045  20.231  25.785  1.00  0.00     0.118 C 
BRANCH  30  31
ATOM     31  N   UNL A   1      40.083  19.212  25.776  1.00  0.00    -0.352 N 
ATOM     32  C   UNL A   1      41.430  19.294  26.038  1.00  0.00     0.251 C 
ATOM     33  H   UNL A   1      39.766  18.309  25.541  1.00  0.00     0.163 HD
ATOM     34  O   UNL A   1      42.140  18.310  25.838  1.00  0.00    -0.269 OA
BRANCH  32  35
ATOM     35  C   UNL A   1      42.056  20.555  26.510  1.00  0.00     0.039 A 
ATOM     36  C   UNL A   1      42.183  20.856  27.867  1.00  0.00     0.014 A 
ATOM     37  C   UNL A   1      42.548  21.457  25.558  1.00  0.00     0.014 A 
ATOM     38  C   UNL A   1      42.616  22.122  28.261  1.00  0.00     0.010 A 
ATOM     39  C   UNL A   1      43.060  22.696  25.960  1.00  0.00     0.010 A 
ATOM     40  C   UNL A   1      43.036  23.068  27.312  1.00  0.00    -0.014 A 
BRANCH  40  41
ATOM     41  C   UNL A   1      43.389  24.449  27.749  1.00  0.00     0.031 A 
ATOM     42  C   UNL A   1      44.831  24.895  27.770  1.00  0.00     0.074 A 
ATOM     43  C   UNL A   1      42.416  25.329  28.057  1.00  0.00     0.049 A 
ATOM     44  N   UNL A   1      45.329  26.069  28.076  1.00  0.00    -0.248 NA
ATOM     45  C   UNL A   1      45.847  23.896  27.403  1.00  0.00     0.031 C 
ATOM     46  C   UNL A   1      40.984  25.032  28.071  1.00  0.00     0.029 A 
ATOM     47  N   UNL A   1      42.483  26.659  28.393  1.00  0.00    -0.354 N 
ATOM     48  C   UNL A   1      46.707  25.943  27.951  1.00  0.00     0.074 A 
ATOM     49  C   UNL A   1      46.974  24.572  27.577  1.00  0.00     0.031 C 
ATOM     50  C   UNL A   1      40.306  26.157  28.347  1.00  0.00     0.029 A 
ATOM     51  C   UNL A   1      41.254  27.244  28.576  1.00  0.00     0.049 A 
ATOM     52  H   UNL A   1      43.332  27.149  28.492  1.00  0.00     0.167 HD
ATOM     53  C   UNL A   1      47.663  26.888  28.112  1.00  0.00     0.037 A 
ATOM     54  C   UNL A   1      40.924  28.510  28.896  1.00  0.00     0.037 A 
ATOM     55  C   UNL A   1      47.405  28.264  28.444  1.00  0.00     0.049 A 
ATOM     56  C   UNL A   1      42.010  29.530  29.108  1.00  0.00     0.074 A 
ATOM     57  C   UNL A   1      48.313  29.300  28.583  1.00  0.00     0.029 A 
ATOM     58  N   UNL A   1      46.149  28.797  28.684  1.00  0.00    -0.354 N 
ATOM     59  N   UNL A   1      43.306  29.398  28.963  1.00  0.00    -0.248 NA
ATOM     60  C   UNL A   1      41.588  30.871  29.538  1.00  0.00     0.031 C 
ATOM     61  C   UNL A   1      47.609  30.454  28.943  1.00  0.00     0.029 A 
ATOM     62  C   UNL A   1      46.261  30.142  28.993  1.00  0.00     0.049 A 
ATOM     63  H   UNL A   1      45.303  28.294  28.639  1.00  0.00     0.167 HD
ATOM     64  C   UNL A   1      43.851  30.636  29.279  1.00  0.00     0.074 A 
ATOM     65  C   UNL A   1      42.746  31.514  29.596  1.00  0.00     0.031 C 
ATOM     66  C   UNL A   1      45.154  31.005  29.311  1.00  0.00     0.037 A 
BRANCH  53  67
ATOM     67  C   UNL A   1      49.094  26.483  27.917  1.00  0.00     0.064 A 
ATOM     68  C   UNL A   1      49.653  26.377  26.636  1.00  0.00     0.173 A 
ATOM     69  C   UNL A   1      49.936  26.293  29.023  1.00  0.00     0.173 A 
ATOM     70  F   UNL A   1      48.886  26.541  25.548  1.00  0.00    -0.203 F 
ATOM     71  C   UNL A   1      51.005  26.088  26.468  1.00  0.00     0.198 A 
ATOM     72  C   UNL A   1      51.291  26.026  28.852  1.00  0.00     0.198 A 
ATOM     73  F   UNL A   1      49.449  26.392  30.269  1.00  0.00    -0.203 F 
ATOM     74  F   UNL A   1      51.516  25.971  25.235  1.00  0.00    -0.200 F 
ATOM     75  C   UNL A   1      51.825  25.923  27.576  1.00  0.00     0.200 A 
ATOM     76  F   UNL A   1      52.085  25.880  29.922  1.00  0.00    -0.200 F 
ATOM     77  F   UNL A   1      53.130  25.666  27.413  1.00  0.00    -0.200 F 
ENDBRANCH  53  67
BRANCH  54  78
ATOM     78  C   UNL A   1      39.494  28.890  29.037  1.00  0.00     0.064 A 
ATOM     79  C   UNL A   1      38.841  28.793  30.272  1.00  0.00     0.173 A 
ATOM     80  C   UNL A   1      38.753  29.352  27.939  1.00  0.00     0.173 A 
ATOM     81  F   UNL A   1      39.503  28.331  31.345  1.00  0.00    -0.203 F 
ATOM     82  C   UNL A   1      37.496  29.134  30.404  1.00  0.00     0.198 A 
ATOM     83  C   UNL A   1      37.415  29.717  28.078  1.00  0.00     0.198 A 
ATOM     84  F   UNL A   1      39.331  29.458  26.734  1.00  0.00    -0.203 F 
ATOM     85  F   UNL A   1      36.886  28.995  31.588  1.00  0.00    -0.200 F 
ATOM     86  C   UNL A   1      36.787  29.602  29.308  1.00  0.00     0.200 A 
ATOM     87  F   UNL A   1      36.737  30.178  27.019  1.00  0.00    -0.200 F 
ATOM     88  F   UNL A   1      35.496  29.934  29.437  1.00  0.00    -0.200 F 
ENDBRANCH  54  78
BRANCH  66  89
ATOM     89  C   UNL A   1      45.466  32.416  29.709  1.00  0.00     0.064 A 
ATOM     90  C   UNL A   1      45.467  33.451  28.763  1.00  0.00     0.173 A 
ATOM     91  C   UNL A   1      45.690  32.749  31.053  1.00  0.00     0.173 A 
ATOM     92  F   UNL A   1      45.270  33.180  27.465  1.00  0.00    -0.203 F 
ATOM     93  C   UNL A   1      45.689  34.771  29.150  1.00  0.00     0.198 A 
ATOM     94  C   UNL A   1      45.888  34.071  31.438  1.00  0.00     0.198 A 
ATOM     95  F   UNL A   1      45.690  31.794  31.995  1.00  0.00    -0.203 F 
ATOM     96  F   UNL A   1      45.712  35.742  28.226  1.00  0.00    -0.200 F 
ATOM     97  C   UNL A   1      45.890  35.080  30.486  1.00  0.00     0.200 A 
ATOM     98  F   UNL A   1      46.069  34.372  32.732  1.00  0.00    -0.200 F 
ATOM     99  F   UNL A   1      46.088  36.353  30.857  1.00  0.00    -0.200 F 
ENDBRANCH  66  89
ENDBRANCH  40  41
ENDBRANCH  32  35
ENDBRANCH  30  31
ENDBRANCH  29  30
ENDBRANCH   1  29
TORSDOF 14
ENDMDL
MODEL 3
REMARK VINA RESULT:     -13.7      0.116      1.562
REMARK SMILES Nn1c(S[C@@H](C(=O)NCCCNC(=O)c2ccc(-c3c4nc(c(-c5c(F)c(F)c(F)c(F)c5F)c5ccc([nH]5)c(-c5c(F)c(F)c(F)c(F)c5F)c5nc(c(-c6c(F)c(F)c(F)c(F)c6F)c6ccc3[nH]6)C=C5)C=C4)cc2)c2ccccc2)nc2ccc(Br)cc2c1=O
REMARK SMILES IDX 9 1 8 2 6 3 7 4 5 6 4 7 3 8 2 9 92 10 84 11 91 12 93 13
REMARK SMILES IDX 85 14 90 15 86 16 88 17 87 18 89 19 1 20 78 23 79 24 83 25
REMARK SMILES IDX 80 26 82 27 81 28 10 29 11 30 12 31 13 32 14 34 15 35 16 36
REMARK SMILES IDX 77 37 17 38 76 39 18 40 19 41 20 42 70 43 21 44 75 45 69 46
REMARK SMILES IDX 71 47 22 48 74 49 68 50 67 51 23 53 55 54 35 55 54 56 36 57
REMARK SMILES IDX 39 58 53 59 72 60 37 61 38 62 52 64 73 65 40 66 24 67 25 68
REMARK SMILES IDX 33 69 26 70 27 71 31 72 34 73 28 74 29 75 32 76 30 77 56 78
REMARK SMILES IDX 57 79 65 80 58 81 59 82 63 83 66 84 60 85 61 86 64 87 62 88
REMARK SMILES IDX 41 89 42 90 50 91 43 92 44 93 48 94 51 95 45 96 46 97 49 98
REMARK SMILES IDX 47 99
REMARK H PARENT 8 5 1 21 1 22 12 33 71 52 39 63
REMARK Flexibility Score: inf
ROOT
ATOM      1  C   UNL A   1      31.721  30.201  26.438  1.00  0.00     0.117 C 
ENDROOT
BRANCH   1   2
ATOM      2  N   UNL A   1      32.338  29.708  25.214  1.00  0.00    -0.355 N 
ATOM      3  C   UNL A   1      31.802  29.201  24.061  1.00  0.00     0.238 C 
ATOM      4  O   UNL A   1      32.617  28.957  23.164  1.00  0.00    -0.273 OA
ATOM      5  H   UNL A   1      33.321  29.746  25.217  1.00  0.00     0.163 HD
BRANCH   3   6
ATOM      6  C   UNL A   1      30.293  28.931  23.891  1.00  0.00     0.174 C 
BRANCH   6   7
ATOM      7  S   UNL A   1      29.971  27.236  23.405  1.00  0.00    -0.068 SA
BRANCH   7   8
ATOM      8  C   UNL A   1      30.923  26.035  24.225  1.00  0.00     0.191 A 
ATOM      9  N   UNL A   1      30.601  25.414  25.431  1.00  0.00    -0.202 N 
ATOM     10  C   UNL A   1      31.518  24.570  26.079  1.00  0.00     0.280 A 
ATOM     11  N   UNL A   1      31.984  25.726  23.548  1.00  0.00    -0.222 NA
ATOM     12  C   UNL A   1      32.696  24.174  25.291  1.00  0.00     0.069 A 
ATOM     13  O   UNL A   1      31.404  24.139  27.227  1.00  0.00    -0.267 OA
ATOM     14  C   UNL A   1      32.844  24.739  24.029  1.00  0.00     0.079 A 
ATOM     15  C   UNL A   1      33.598  23.216  25.768  1.00  0.00     0.031 A 
ATOM     16  C   UNL A   1      33.888  24.302  23.211  1.00  0.00     0.030 A 
ATOM     17  C   UNL A   1      34.642  22.801  24.945  1.00  0.00     0.018 A 
ATOM     18  C   UNL A   1      34.784  23.330  23.663  1.00  0.00     0.018 A 
ATOM     19  Br  UNL A   1      35.864  21.501  25.565  1.00  0.00    -0.051 Br
BRANCH   9  20
ATOM     20  N   UNL A   1      29.358  25.525  26.071  1.00  0.00    -0.334 N 
ATOM     21  H   UNL A   1      29.036  26.407  26.371  1.00  0.00     0.178 HD
ATOM     22  H   UNL A   1      28.807  24.723  26.220  1.00  0.00     0.178 HD
ENDBRANCH   9  20
ENDBRANCH   7   8
ENDBRANCH   6   7
BRANCH   6  23
ATOM     23  C   UNL A   1      29.531  30.077  23.218  1.00  0.00    -0.025 A 
ATOM     24  C   UNL A   1      28.998  31.194  23.877  1.00  0.00     0.005 A 
ATOM     25  C   UNL A   1      29.306  29.986  21.827  1.00  0.00     0.005 A 
ATOM     26  C   UNL A   1      28.237  32.150  23.193  1.00  0.00     0.000 A 
ATOM     27  C   UNL A   1      28.560  30.949  21.139  1.00  0.00     0.000 A 
ATOM     28  C   UNL A   1      28.015  32.026  21.827  1.00  0.00     0.000 A 
ENDBRANCH   6  23
ENDBRANCH   3   6
ENDBRANCH   1   2
BRANCH   1  29
ATOM     29  C   UNL A   1      31.594  31.724  26.505  1.00  0.00     0.042 C 
BRANCH  29  30
ATOM     30  C   UNL A   1      32.799  32.467  27.071  1.00  0.00     0.118 C 
BRANCH  30  31
ATOM     31  N   UNL A   1      32.490  33.811  27.533  1.00  0.00    -0.352 N 
ATOM     32  C   UNL A   1      33.064  34.581  28.517  1.00  0.00     0.251 C 
ATOM     33  H   UNL A   1      31.742  34.243  27.060  1.00  0.00     0.163 HD
ATOM     34  O   UNL A   1      32.542  35.652  28.820  1.00  0.00    -0.269 OA
BRANCH  32  35
ATOM     35  C   UNL A   1      34.269  34.128  29.256  1.00  0.00     0.039 A 
ATOM     36  C   UNL A   1      35.557  34.510  28.878  1.00  0.00     0.014 A 
ATOM     37  C   UNL A   1      34.100  33.307  30.378  1.00  0.00     0.014 A 
ATOM     38  C   UNL A   1      36.665  33.924  29.490  1.00  0.00     0.010 A 
ATOM     39  C   UNL A   1      35.214  32.784  31.044  1.00  0.00     0.010 A 
ATOM     40  C   UNL A   1      36.508  33.034  30.564  1.00  0.00    -0.014 A 
BRANCH  40  41
ATOM     41  C   UNL A   1      37.698  32.337  31.128  1.00  0.00     0.031 A 
ATOM     42  C   UNL A   1      38.162  32.639  32.533  1.00  0.00     0.074 A 
ATOM     43  C   UNL A   1      38.324  31.380  30.414  1.00  0.00     0.049 A 
ATOM     44  N   UNL A   1      39.148  32.103  33.212  1.00  0.00    -0.248 NA
ATOM     45  C   UNL A   1      37.428  33.678  33.272  1.00  0.00     0.031 C 
ATOM     46  C   UNL A   1      37.975  30.985  29.050  1.00  0.00     0.029 A 
ATOM     47  N   UNL A   1      39.365  30.549  30.746  1.00  0.00    -0.354 N 
ATOM     48  C   UNL A   1      39.157  32.747  34.443  1.00  0.00     0.074 A 
ATOM     49  C   UNL A   1      38.105  33.738  34.411  1.00  0.00     0.031 C 
ATOM     50  C   UNL A   1      38.752  29.955  28.680  1.00  0.00     0.029 A 
ATOM     51  C   UNL A   1      39.685  29.647  29.760  1.00  0.00     0.049 A 
ATOM     52  H   UNL A   1      39.838  30.594  31.608  1.00  0.00     0.167 HD
ATOM     53  C   UNL A   1      39.954  32.519  35.514  1.00  0.00     0.037 A 
ATOM     54  C   UNL A   1      40.626  28.684  29.726  1.00  0.00     0.037 A 
ATOM     55  C   UNL A   1      40.977  31.508  35.571  1.00  0.00     0.049 A 
ATOM     56  C   UNL A   1      41.524  28.479  30.915  1.00  0.00     0.074 A 
ATOM     57  C   UNL A   1      41.802  31.179  36.633  1.00  0.00     0.029 A 
ATOM     58  N   UNL A   1      41.310  30.660  34.527  1.00  0.00    -0.354 N 
ATOM     59  N   UNL A   1      41.504  29.082  32.079  1.00  0.00    -0.248 NA
ATOM     60  C   UNL A   1      42.585  27.469  30.782  1.00  0.00     0.031 C 
ATOM     61  C   UNL A   1      42.661  30.156  36.219  1.00  0.00     0.029 A 
ATOM     62  C   UNL A   1      42.345  29.825  34.912  1.00  0.00     0.049 A 
ATOM     63  H   UNL A   1      40.874  30.653  33.643  1.00  0.00     0.167 HD
ATOM     64  C   UNL A   1      42.540  28.522  32.815  1.00  0.00     0.074 A 
ATOM     65  C   UNL A   1      43.153  27.513  31.979  1.00  0.00     0.031 C 
ATOM     66  C   UNL A   1      42.949  28.827  34.069  1.00  0.00     0.037 A 
BRANCH  53  67
ATOM     67  C   UNL A   1      39.754  33.366  36.735  1.00  0.00     0.064 A 
ATOM     68  C   UNL A   1      40.437  34.579  36.900  1.00  0.00     0.173 A 
ATOM     69  C   UNL A   1      38.803  33.007  37.701  1.00  0.00     0.173 A 
ATOM     70  F   UNL A   1      41.363  34.960  36.007  1.00  0.00    -0.203 F 
ATOM     71  C   UNL A   1      40.179  35.402  37.993  1.00  0.00     0.198 A 
ATOM     72  C   UNL A   1      38.531  33.842  38.781  1.00  0.00     0.198 A 
ATOM     73  F   UNL A   1      38.118  31.859  37.583  1.00  0.00    -0.203 F 
ATOM     74  F   UNL A   1      40.856  36.548  38.143  1.00  0.00    -0.200 F 
ATOM     75  C   UNL A   1      39.219  35.038  38.927  1.00  0.00     0.200 A 
ATOM     76  F   UNL A   1      37.595  33.496  39.676  1.00  0.00    -0.200 F 
ATOM     77  F   UNL A   1      38.956  35.840  39.968  1.00  0.00    -0.200 F 
ENDBRANCH  53  67
BRANCH  54  78
ATOM     78  C   UNL A   1      40.768  27.830  28.518  1.00  0.00     0.064 A 
ATOM     79  C   UNL A   1      41.590  28.221  27.453  1.00  0.00     0.173 A 
ATOM     80  C   UNL A   1      40.081  26.613  28.401  1.00  0.00     0.173 A 
ATOM     81  F   UNL A   1      42.246  29.389  27.507  1.00  0.00    -0.203 F 
ATOM     82  C   UNL A   1      41.713  27.430  26.311  1.00  0.00     0.198 A 
ATOM     83  C   UNL A   1      40.225  25.810  27.271  1.00  0.00     0.198 A 
ATOM     84  F   UNL A   1      39.278  26.197  29.392  1.00  0.00    -0.203 F 
ATOM     85  F   UNL A   1      42.476  27.844  25.292  1.00  0.00    -0.200 F 
ATOM     86  C   UNL A   1      41.036  26.222  26.225  1.00  0.00     0.200 A 
ATOM     87  F   UNL A   1      39.577  24.640  27.197  1.00  0.00    -0.200 F 
ATOM     88  F   UNL A   1      41.159  25.460  25.130  1.00  0.00    -0.200 F 
ENDBRANCH  54  78
BRANCH  66  89
ATOM     89  C   UNL A   1      44.120  28.071  34.620  1.00  0.00     0.064 A 
ATOM     90  C   UNL A   1      43.947  26.839  35.267  1.00  0.00     0.173 A 
ATOM     91  C   UNL A   1      45.429  28.541  34.435  1.00  0.00     0.173 A 
ATOM     92  F   UNL A   1      42.714  26.355  35.479  1.00  0.00    -0.203 F 
ATOM     93  C   UNL A   1      45.044  26.108  35.716  1.00  0.00     0.198 A 
ATOM     94  C   UNL A   1      46.524  27.796  34.863  1.00  0.00     0.198 A 
ATOM     95  F   UNL A   1      45.645  29.711  33.814  1.00  0.00    -0.203 F 
ATOM     96  F   UNL A   1      44.854  24.945  36.354  1.00  0.00    -0.200 F 
ATOM     97  C   UNL A   1      46.330  26.582  35.506  1.00  0.00     0.200 A 
ATOM     98  F   UNL A   1      47.766  28.249  34.648  1.00  0.00    -0.200 F 
ATOM     99  F   UNL A   1      47.385  25.868  35.924  1.00  0.00    -0.200 F 
ENDBRANCH  66  89
ENDBRANCH  40  41
ENDBRANCH  32  35
ENDBRANCH  30  31
ENDBRANCH  29  30
ENDBRANCH   1  29
TORSDOF 14
ENDMDL
