MODEL 1
REMARK VINA RESULT:     -11.2      0.000      0.000
REMARK SMILES COc1cc(Cl)cc(/C=C/C(=O)NCCCNC(=O)c2ccc(-c3c4nc(c(-c5c(F)c(F)c(F)c(F)c5F)c5ccc([nH]5)c(-c5c(F)c(F)c(F)c(F)c5F)c5nc(c(-c6c(F)c(F)c(F)c(F)c6F)c6ccc3[nH]6)C=C5)C=C4)cc2)c1OC
REMARK SMILES IDX 15 1 14 2 13 3 11 4 12 5 10 7 9 8 8 9 3 10 4 11 83 12 5 13
REMARK SMILES IDX 6 14 7 15 2 16 1 17 84 18 85 19 16 20 17 21 18 22 19 24
REMARK SMILES IDX 20 25 21 26 82 27 22 28 81 29 23 30 24 31 25 32 75 33 26 34
REMARK SMILES IDX 80 35 74 36 76 37 27 38 79 39 73 40 72 41 28 43 60 44 40 45
REMARK SMILES IDX 59 46 41 47 44 48 58 49 77 50 42 51 43 52 57 54 78 55 45 56
REMARK SMILES IDX 29 57 30 58 38 59 31 60 32 61 36 62 39 63 33 64 34 65 37 66
REMARK SMILES IDX 35 67 61 68 62 69 70 70 63 71 64 72 68 73 71 74 65 75 66 76
REMARK SMILES IDX 69 77 67 78 46 79 47 80 55 81 48 82 49 83 53 84 56 85 50 86
REMARK SMILES IDX 51 87 54 88 52 89
REMARK H PARENT 13 6 17 23 76 42 44 53
REMARK Flexibility Score: inf
ROOT
ATOM      1  C   UNL A   1      34.012  28.147  25.257  1.00  0.00     0.042 C 
ENDROOT
BRANCH   1   2
ATOM      2  C   UNL A   1      32.791  27.500  24.607  1.00  0.00     0.118 C 
BRANCH   2   3
ATOM      3  N   UNL A   1      32.994  27.273  23.185  1.00  0.00    -0.352 N 
ATOM      4  C   UNL A   1      33.537  26.209  22.535  1.00  0.00     0.244 C 
ATOM      5  O   UNL A   1      33.500  26.158  21.309  1.00  0.00    -0.270 OA
ATOM      6  H   UNL A   1      32.690  28.005  22.601  1.00  0.00     0.163 HD
BRANCH   4   7
ATOM      7  C   UNL A   1      34.094  25.071  23.295  1.00  0.00     0.072 C 
ATOM      8  C   UNL A   1      33.999  23.796  22.887  1.00  0.00     0.018 C 
BRANCH   8   9
ATOM      9  C   UNL A   1      34.547  22.662  23.654  1.00  0.00     0.022 A 
ATOM     10  C   UNL A   1      34.269  20.538  24.813  1.00  0.00     0.162 A 
ATOM     11  C   UNL A   1      35.633  20.551  25.135  1.00  0.00     0.071 A 
ATOM     12  C   UNL A   1      33.712  21.587  24.055  1.00  0.00     0.168 A 
ATOM     13  C   UNL A   1      36.436  21.621  24.752  1.00  0.00     0.045 A 
ATOM     14  Cl  UNL A   1      38.103  21.632  25.175  1.00  0.00    -0.084 Cl
ATOM     15  C   UNL A   1      35.900  22.677  24.025  1.00  0.00     0.032 A 
BRANCH  10  16
ATOM     16  O   UNL A   1      33.511  19.450  25.165  1.00  0.00    -0.493 OA
ATOM     17  C   UNL A   1      33.835  18.270  24.429  1.00  0.00     0.278 C 
ENDBRANCH  10  16
BRANCH  12  18
ATOM     18  O   UNL A   1      32.409  21.700  23.629  1.00  0.00    -0.492 OA
ATOM     19  C   UNL A   1      31.983  20.978  22.484  1.00  0.00     0.278 C 
ENDBRANCH  12  18
ENDBRANCH   8   9
ENDBRANCH   4   7
ENDBRANCH   2   3
ENDBRANCH   1   2
BRANCH   1  20
ATOM     20  C   UNL A   1      33.909  28.281  26.776  1.00  0.00     0.118 C 
BRANCH  20  21
ATOM     21  N   UNL A   1      33.747  29.664  27.200  1.00  0.00    -0.352 N 
ATOM     22  C   UNL A   1      34.561  30.470  27.954  1.00  0.00     0.251 C 
ATOM     23  H   UNL A   1      32.915  30.092  26.893  1.00  0.00     0.163 HD
ATOM     24  O   UNL A   1      34.130  31.547  28.358  1.00  0.00    -0.269 OA
BRANCH  22  25
ATOM     25  C   UNL A   1      35.942  30.067  28.302  1.00  0.00     0.039 A 
ATOM     26  C   UNL A   1      36.932  30.175  27.320  1.00  0.00     0.014 A 
ATOM     27  C   UNL A   1      36.261  29.515  29.547  1.00  0.00     0.014 A 
ATOM     28  C   UNL A   1      38.243  29.779  27.597  1.00  0.00     0.010 A 
ATOM     29  C   UNL A   1      37.582  29.174  29.845  1.00  0.00     0.010 A 
ATOM     30  C   UNL A   1      38.585  29.300  28.871  1.00  0.00    -0.014 A 
BRANCH  30  31
ATOM     31  C   UNL A   1      39.989  28.939  29.193  1.00  0.00     0.031 A 
ATOM     32  C   UNL A   1      40.860  29.870  29.988  1.00  0.00     0.074 A 
ATOM     33  C   UNL A   1      40.495  27.780  28.727  1.00  0.00     0.049 A 
ATOM     34  N   UNL A   1      42.114  29.733  30.340  1.00  0.00    -0.248 NA
ATOM     35  C   UNL A   1      40.248  31.133  30.430  1.00  0.00     0.031 C 
ATOM     36  C   UNL A   1      39.768  26.812  27.904  1.00  0.00     0.029 A 
ATOM     37  N   UNL A   1      41.740  27.221  28.874  1.00  0.00    -0.354 N 
ATOM     38  C   UNL A   1      42.444  30.891  31.031  1.00  0.00     0.074 A 
ATOM     39  C   UNL A   1      41.271  31.740  31.014  1.00  0.00     0.031 C 
ATOM     40  C   UNL A   1      40.571  25.771  27.637  1.00  0.00     0.029 A 
ATOM     41  C   UNL A   1      41.876  26.009  28.245  1.00  0.00     0.049 A 
ATOM     42  H   UNL A   1      42.465  27.649  29.384  1.00  0.00     0.167 HD
ATOM     43  C   UNL A   1      43.611  31.210  31.641  1.00  0.00     0.037 A 
ATOM     44  C   UNL A   1      42.936  25.181  28.165  1.00  0.00     0.037 A 
ATOM     45  C   UNL A   1      44.769  30.354  31.680  1.00  0.00     0.049 A 
ATOM     46  C   UNL A   1      44.214  25.552  28.864  1.00  0.00     0.074 A 
ATOM     47  C   UNL A   1      45.977  30.563  32.326  1.00  0.00     0.029 A 
ATOM     48  N   UNL A   1      44.864  29.125  31.045  1.00  0.00    -0.354 N 
ATOM     49  N   UNL A   1      44.491  26.621  29.571  1.00  0.00    -0.248 NA
ATOM     50  C   UNL A   1      45.325  24.596  28.761  1.00  0.00     0.031 C 
ATOM     51  C   UNL A   1      46.815  29.476  32.051  1.00  0.00     0.029 A 
ATOM     52  C   UNL A   1      46.115  28.571  31.268  1.00  0.00     0.049 A 
ATOM     53  H   UNL A   1      44.148  28.706  30.515  1.00  0.00     0.167 HD
ATOM     54  C   UNL A   1      45.797  26.459  30.010  1.00  0.00     0.074 A 
ATOM     55  C   UNL A   1      46.251  25.179  29.509  1.00  0.00     0.031 C 
ATOM     56  C   UNL A   1      46.553  27.297  30.761  1.00  0.00     0.037 A 
BRANCH  43  57
ATOM     57  C   UNL A   1      43.696  32.542  32.325  1.00  0.00     0.064 A 
ATOM     58  C   UNL A   1      44.117  33.693  31.640  1.00  0.00     0.173 A 
ATOM     59  C   UNL A   1      43.310  32.681  33.666  1.00  0.00     0.173 A 
ATOM     60  F   UNL A   1      44.506  33.610  30.359  1.00  0.00    -0.203 F 
ATOM     61  C   UNL A   1      44.173  34.928  32.280  1.00  0.00     0.198 A 
ATOM     62  C   UNL A   1      43.342  33.923  34.296  1.00  0.00     0.198 A 
ATOM     63  F   UNL A   1      42.893  31.614  34.364  1.00  0.00    -0.203 F 
ATOM     64  F   UNL A   1      44.616  36.005  31.618  1.00  0.00    -0.200 F 
ATOM     65  C   UNL A   1      43.778  35.044  33.605  1.00  0.00     0.200 A 
ATOM     66  F   UNL A   1      42.950  34.036  35.573  1.00  0.00    -0.200 F 
ATOM     67  F   UNL A   1      43.825  36.235  34.218  1.00  0.00    -0.200 F 
ENDBRANCH  43  57
BRANCH  44  68
ATOM     68  C   UNL A   1      42.821  23.904  27.419  1.00  0.00     0.064 A 
ATOM     69  C   UNL A   1      43.199  23.823  26.071  1.00  0.00     0.173 A 
ATOM     70  C   UNL A   1      42.332  22.742  28.033  1.00  0.00     0.173 A 
ATOM     71  F   UNL A   1      43.653  24.914  25.438  1.00  0.00    -0.203 F 
ATOM     72  C   UNL A   1      43.078  22.630  25.362  1.00  0.00     0.198 A 
ATOM     73  C   UNL A   1      42.235  21.543  27.328  1.00  0.00     0.198 A 
ATOM     74  F   UNL A   1      41.961  22.768  29.322  1.00  0.00    -0.203 F 
ATOM     75  F   UNL A   1      43.409  22.590  24.064  1.00  0.00    -0.200 F 
ATOM     76  C   UNL A   1      42.602  21.491  25.992  1.00  0.00     0.200 A 
ATOM     77  F   UNL A   1      41.786  20.441  27.944  1.00  0.00    -0.200 F 
ATOM     78  F   UNL A   1      42.490  20.343  25.309  1.00  0.00    -0.200 F 
ENDBRANCH  44  68
BRANCH  56  79
ATOM     79  C   UNL A   1      47.944  26.845  31.096  1.00  0.00     0.064 A 
ATOM     80  C   UNL A   1      49.045  27.222  30.312  1.00  0.00     0.173 A 
ATOM     81  C   UNL A   1      48.179  26.041  32.220  1.00  0.00     0.173 A 
ATOM     82  F   UNL A   1      48.867  27.976  29.217  1.00  0.00    -0.203 F 
ATOM     83  C   UNL A   1      50.329  26.787  30.629  1.00  0.00     0.198 A 
ATOM     84  C   UNL A   1      49.468  25.629  32.548  1.00  0.00     0.198 A 
ATOM     85  F   UNL A   1      47.159  25.656  33.003  1.00  0.00    -0.203 F 
ATOM     86  F   UNL A   1      51.360  27.118  29.840  1.00  0.00    -0.200 F 
ATOM     87  C   UNL A   1      50.540  25.996  31.749  1.00  0.00     0.200 A 
ATOM     88  F   UNL A   1      49.672  24.871  33.635  1.00  0.00    -0.200 F 
ATOM     89  F   UNL A   1      51.777  25.577  32.051  1.00  0.00    -0.200 F 
ENDBRANCH  56  79
ENDBRANCH  30  31
ENDBRANCH  22  25
ENDBRANCH  20  21
ENDBRANCH   1  20
TORSDOF 13
ENDMDL
MODEL 2
REMARK VINA RESULT:     -11.1      3.869      8.836
REMARK SMILES COc1cc(Cl)cc(/C=C/C(=O)NCCCNC(=O)c2ccc(-c3c4nc(c(-c5c(F)c(F)c(F)c(F)c5F)c5ccc([nH]5)c(-c5c(F)c(F)c(F)c(F)c5F)c5nc(c(-c6c(F)c(F)c(F)c(F)c6F)c6ccc3[nH]6)C=C5)C=C4)cc2)c1OC
REMARK SMILES IDX 15 1 14 2 13 3 11 4 12 5 10 7 9 8 8 9 3 10 4 11 83 12 5 13
REMARK SMILES IDX 6 14 7 15 2 16 1 17 84 18 85 19 16 20 17 21 18 22 19 24
REMARK SMILES IDX 20 25 21 26 82 27 22 28 81 29 23 30 24 31 25 32 75 33 26 34
REMARK SMILES IDX 80 35 74 36 76 37 27 38 79 39 73 40 72 41 28 43 60 44 40 45
REMARK SMILES IDX 59 46 41 47 44 48 58 49 77 50 42 51 43 52 57 54 78 55 45 56
REMARK SMILES IDX 29 57 30 58 38 59 31 60 32 61 36 62 39 63 33 64 34 65 37 66
REMARK SMILES IDX 35 67 61 68 62 69 70 70 63 71 64 72 68 73 71 74 65 75 66 76
REMARK SMILES IDX 69 77 67 78 46 79 47 80 55 81 48 82 49 83 53 84 56 85 50 86
REMARK SMILES IDX 51 87 54 88 52 89
REMARK H PARENT 13 6 17 23 76 42 44 53
REMARK Flexibility Score: inf
ROOT
ATOM      1  C   UNL A   1      31.175  31.955  26.149  1.00  0.00     0.042 C 
ENDROOT
BRANCH   1   2
ATOM      2  C   UNL A   1      31.328  30.567  25.529  1.00  0.00     0.118 C 
BRANCH   2   3
ATOM      3  N   UNL A   1      30.580  30.445  24.288  1.00  0.00    -0.352 N 
ATOM      4  C   UNL A   1      30.285  29.345  23.546  1.00  0.00     0.244 C 
ATOM      5  O   UNL A   1      29.524  29.441  22.587  1.00  0.00    -0.270 OA
ATOM      6  H   UNL A   1      30.233  31.293  23.929  1.00  0.00     0.163 HD
BRANCH   4   7
ATOM      7  C   UNL A   1      30.802  28.017  23.935  1.00  0.00     0.072 C 
ATOM      8  C   UNL A   1      30.023  26.933  24.069  1.00  0.00     0.018 C 
BRANCH   8   9
ATOM      9  C   UNL A   1      30.542  25.612  24.469  1.00  0.00     0.022 A 
ATOM     10  C   UNL A   1      31.351  24.062  26.164  1.00  0.00     0.162 A 
ATOM     11  C   UNL A   1      31.555  23.099  25.166  1.00  0.00     0.071 A 
ATOM     12  C   UNL A   1      30.827  25.326  25.829  1.00  0.00     0.168 A 
ATOM     13  C   UNL A   1      31.290  23.400  23.834  1.00  0.00     0.045 A 
ATOM     14  Cl  UNL A   1      31.568  22.214  22.619  1.00  0.00    -0.084 Cl
ATOM     15  C   UNL A   1      30.796  24.649  23.480  1.00  0.00     0.032 A 
BRANCH  10  16
ATOM     16  O   UNL A   1      31.579  23.723  27.474  1.00  0.00    -0.493 OA
ATOM     17  C   UNL A   1      32.605  22.745  27.638  1.00  0.00     0.278 C 
ENDBRANCH  10  16
BRANCH  12  18
ATOM     18  O   UNL A   1      30.536  26.357  26.691  1.00  0.00    -0.492 OA
ATOM     19  C   UNL A   1      31.583  27.192  27.161  1.00  0.00     0.278 C 
ENDBRANCH  12  18
ENDBRANCH   8   9
ENDBRANCH   4   7
ENDBRANCH   2   3
ENDBRANCH   1   2
BRANCH   1  20
ATOM     20  C   UNL A   1      32.364  32.386  27.007  1.00  0.00     0.118 C 
BRANCH  20  21
ATOM     21  N   UNL A   1      32.279  33.784  27.407  1.00  0.00    -0.352 N 
ATOM     22  C   UNL A   1      32.985  34.489  28.348  1.00  0.00     0.251 C 
ATOM     23  H   UNL A   1      31.604  34.309  26.920  1.00  0.00     0.163 HD
ATOM     24  O   UNL A   1      32.608  35.616  28.659  1.00  0.00    -0.269 OA
BRANCH  22  25
ATOM     25  C   UNL A   1      34.183  33.919  29.006  1.00  0.00     0.039 A 
ATOM     26  C   UNL A   1      33.997  32.942  29.990  1.00  0.00     0.014 A 
ATOM     27  C   UNL A   1      35.472  34.383  28.727  1.00  0.00     0.014 A 
ATOM     28  C   UNL A   1      35.097  32.397  30.655  1.00  0.00     0.010 A 
ATOM     29  C   UNL A   1      36.576  33.797  29.349  1.00  0.00     0.010 A 
ATOM     30  C   UNL A   1      36.399  32.801  30.322  1.00  0.00    -0.014 A 
BRANCH  30  31
ATOM     31  C   UNL A   1      37.577  32.179  30.979  1.00  0.00     0.031 A 
ATOM     32  C   UNL A   1      38.387  31.129  30.272  1.00  0.00     0.074 A 
ATOM     33  C   UNL A   1      37.892  32.535  32.240  1.00  0.00     0.049 A 
ATOM     34  N   UNL A   1      39.429  30.460  30.699  1.00  0.00    -0.248 NA
ATOM     35  C   UNL A   1      37.959  30.767  28.912  1.00  0.00     0.031 C 
ATOM     36  C   UNL A   1      37.157  33.506  33.051  1.00  0.00     0.029 A 
ATOM     37  N   UNL A   1      38.909  32.117  33.062  1.00  0.00    -0.354 N 
ATOM     38  C   UNL A   1      39.771  29.593  29.671  1.00  0.00     0.074 A 
ATOM     39  C   UNL A   1      38.803  29.790  28.613  1.00  0.00     0.031 C 
ATOM     40  C   UNL A   1      37.758  33.626  34.245  1.00  0.00     0.029 A 
ATOM     41  C   UNL A   1      38.902  32.721  34.295  1.00  0.00     0.049 A 
ATOM     42  H   UNL A   1      39.580  31.449  32.792  1.00  0.00     0.167 HD
ATOM     43  C   UNL A   1      40.810  28.726  29.606  1.00  0.00     0.037 A 
ATOM     44  C   UNL A   1      39.726  32.562  35.348  1.00  0.00     0.037 A 
ATOM     45  C   UNL A   1      41.790  28.548  30.647  1.00  0.00     0.049 A 
ATOM     46  C   UNL A   1      40.880  31.604  35.244  1.00  0.00     0.074 A 
ATOM     47  C   UNL A   1      42.913  27.739  30.649  1.00  0.00     0.029 A 
ATOM     48  N   UNL A   1      41.760  29.191  31.876  1.00  0.00    -0.354 N 
ATOM     49  N   UNL A   1      41.232  30.840  34.239  1.00  0.00    -0.248 NA
ATOM     50  C   UNL A   1      41.757  31.496  36.418  1.00  0.00     0.031 C 
ATOM     51  C   UNL A   1      43.543  27.865  31.892  1.00  0.00     0.029 A 
ATOM     52  C   UNL A   1      42.835  28.783  32.651  1.00  0.00     0.049 A 
ATOM     53  H   UNL A   1      41.077  29.841  32.157  1.00  0.00     0.167 HD
ATOM     54  C   UNL A   1      42.377  30.173  34.651  1.00  0.00     0.074 A 
ATOM     55  C   UNL A   1      42.674  30.640  35.989  1.00  0.00     0.031 C 
ATOM     56  C   UNL A   1      43.116  29.255  33.981  1.00  0.00     0.037 A 
BRANCH  43  57
ATOM     57  C   UNL A   1      40.950  27.901  28.360  1.00  0.00     0.064 A 
ATOM     58  C   UNL A   1      41.701  28.352  27.263  1.00  0.00     0.173 A 
ATOM     59  C   UNL A   1      40.365  26.629  28.277  1.00  0.00     0.173 A 
ATOM     60  F   UNL A   1      42.271  29.565  27.289  1.00  0.00    -0.203 F 
ATOM     61  C   UNL A   1      41.840  27.569  26.120  1.00  0.00     0.198 A 
ATOM     62  C   UNL A   1      40.528  25.838  27.142  1.00  0.00     0.198 A 
ATOM     63  F   UNL A   1      39.643  26.148  29.300  1.00  0.00    -0.203 F 
ATOM     64  F   UNL A   1      42.528  28.037  25.069  1.00  0.00    -0.200 F 
ATOM     65  C   UNL A   1      41.260  26.310  26.063  1.00  0.00     0.200 A 
ATOM     66  F   UNL A   1      39.976  24.617  27.093  1.00  0.00    -0.200 F 
ATOM     67  F   UNL A   1      41.401  25.555  24.965  1.00  0.00    -0.200 F 
ENDBRANCH  43  57
BRANCH  44  68
ATOM     68  C   UNL A   1      39.505  33.354  36.584  1.00  0.00     0.064 A 
ATOM     69  C   UNL A   1      38.687  32.866  37.613  1.00  0.00     0.173 A 
ATOM     70  C   UNL A   1      40.104  34.610  36.763  1.00  0.00     0.173 A 
ATOM     71  F   UNL A   1      38.078  31.680  37.477  1.00  0.00    -0.203 F 
ATOM     72  C   UNL A   1      38.463  33.613  38.768  1.00  0.00     0.198 A 
ATOM     73  C   UNL A   1      39.899  35.344  37.929  1.00  0.00     0.198 A 
ATOM     74  F   UNL A   1      40.899  35.117  35.809  1.00  0.00    -0.203 F 
ATOM     75  F   UNL A   1      37.645  33.141  39.718  1.00  0.00    -0.200 F 
ATOM     76  C   UNL A   1      39.074  34.848  38.928  1.00  0.00     0.200 A 
ATOM     77  F   UNL A   1      40.500  36.531  38.086  1.00  0.00    -0.200 F 
ATOM     78  F   UNL A   1      38.862  35.562  40.041  1.00  0.00    -0.200 F 
ENDBRANCH  44  68
BRANCH  56  79
ATOM     79  C   UNL A   1      44.324  28.709  34.683  1.00  0.00     0.064 A 
ATOM     80  C   UNL A   1      44.254  27.546  35.464  1.00  0.00     0.173 A 
ATOM     81  C   UNL A   1      45.568  29.346  34.558  1.00  0.00     0.173 A 
ATOM     82  F   UNL A   1      43.083  26.913  35.628  1.00  0.00    -0.203 F 
ATOM     83  C   UNL A   1      45.381  27.057  36.118  1.00  0.00     0.198 A 
ATOM     84  C   UNL A   1      46.698  28.838  35.193  1.00  0.00     0.198 A 
ATOM     85  F   UNL A   1      45.687  30.459  33.819  1.00  0.00    -0.203 F 
ATOM     86  F   UNL A   1      45.282  25.972  36.899  1.00  0.00    -0.200 F 
ATOM     87  C   UNL A   1      46.603  27.699  35.978  1.00  0.00     0.200 A 
ATOM     88  F   UNL A   1      47.880  29.455  35.049  1.00  0.00    -0.200 F 
ATOM     89  F   UNL A   1      47.686  27.225  36.609  1.00  0.00    -0.200 F 
ENDBRANCH  56  79
ENDBRANCH  30  31
ENDBRANCH  22  25
ENDBRANCH  20  21
ENDBRANCH   1  20
TORSDOF 13
ENDMDL
MODEL 3
REMARK VINA RESULT:     -11.1      3.783      8.901
REMARK SMILES COc1cc(Cl)cc(/C=C/C(=O)NCCCNC(=O)c2ccc(-c3c4nc(c(-c5c(F)c(F)c(F)c(F)c5F)c5ccc([nH]5)c(-c5c(F)c(F)c(F)c(F)c5F)c5nc(c(-c6c(F)c(F)c(F)c(F)c6F)c6ccc3[nH]6)C=C5)C=C4)cc2)c1OC
REMARK SMILES IDX 15 1 14 2 13 3 11 4 12 5 10 7 9 8 8 9 3 10 4 11 83 12 5 13
REMARK SMILES IDX 6 14 7 15 2 16 1 17 84 18 85 19 16 20 17 21 18 22 19 24
REMARK SMILES IDX 20 25 21 26 82 27 22 28 81 29 23 30 24 31 25 32 75 33 26 34
REMARK SMILES IDX 80 35 74 36 76 37 27 38 79 39 73 40 72 41 28 43 60 44 40 45
REMARK SMILES IDX 59 46 41 47 44 48 58 49 77 50 42 51 43 52 57 54 78 55 45 56
REMARK SMILES IDX 29 57 30 58 38 59 31 60 32 61 36 62 39 63 33 64 34 65 37 66
REMARK SMILES IDX 35 67 61 68 62 69 70 70 63 71 64 72 68 73 71 74 65 75 66 76
REMARK SMILES IDX 69 77 67 78 46 79 47 80 55 81 48 82 49 83 53 84 56 85 50 86
REMARK SMILES IDX 51 87 54 88 52 89
REMARK H PARENT 13 6 17 23 76 42 44 53
REMARK Flexibility Score: inf
ROOT
ATOM      1  C   UNL A   1      31.559  31.983  26.879  1.00  0.00     0.042 C 
ENDROOT
BRANCH   1   2
ATOM      2  C   UNL A   1      31.887  30.492  26.815  1.00  0.00     0.118 C 
BRANCH   2   3
ATOM      3  N   UNL A   1      33.068  30.167  27.597  1.00  0.00    -0.352 N 
ATOM      4  C   UNL A   1      34.083  29.300  27.335  1.00  0.00     0.244 C 
ATOM      5  O   UNL A   1      35.063  29.265  28.074  1.00  0.00    -0.270 OA
ATOM      6  H   UNL A   1      33.148  30.652  28.450  1.00  0.00     0.163 HD
BRANCH   4   7
ATOM      7  C   UNL A   1      34.055  28.458  26.121  1.00  0.00     0.072 C 
ATOM      8  C   UNL A   1      33.598  27.197  26.109  1.00  0.00     0.018 C 
BRANCH   8   9
ATOM      9  C   UNL A   1      33.583  26.358  24.896  1.00  0.00     0.022 A 
ATOM     10  C   UNL A   1      32.709  25.815  22.689  1.00  0.00     0.162 A 
ATOM     11  C   UNL A   1      33.573  24.712  22.634  1.00  0.00     0.071 A 
ATOM     12  C   UNL A   1      32.715  26.660  23.816  1.00  0.00     0.168 A 
ATOM     13  C   UNL A   1      34.406  24.417  23.708  1.00  0.00     0.045 A 
ATOM     14  Cl  UNL A   1      35.443  23.047  23.633  1.00  0.00    -0.084 Cl
ATOM     15  C   UNL A   1      34.408  25.224  24.838  1.00  0.00     0.032 A 
BRANCH  10  16
ATOM     16  O   UNL A   1      31.932  26.108  21.598  1.00  0.00    -0.493 OA
ATOM     17  C   UNL A   1      32.454  25.594  20.373  1.00  0.00     0.278 C 
ENDBRANCH  10  16
BRANCH  12  18
ATOM     18  O   UNL A   1      31.959  27.794  24.005  1.00  0.00    -0.492 OA
ATOM     19  C   UNL A   1      30.567  27.673  24.256  1.00  0.00     0.278 C 
ENDBRANCH  12  18
ENDBRANCH   8   9
ENDBRANCH   4   7
ENDBRANCH   2   3
ENDBRANCH   1   2
BRANCH   1  20
ATOM     20  C   UNL A   1      32.789  32.890  26.897  1.00  0.00     0.118 C 
BRANCH  20  21
ATOM     21  N   UNL A   1      32.532  34.158  27.564  1.00  0.00    -0.352 N 
ATOM     22  C   UNL A   1      33.081  34.701  28.698  1.00  0.00     0.251 C 
ATOM     23  H   UNL A   1      31.851  34.720  27.128  1.00  0.00     0.163 HD
ATOM     24  O   UNL A   1      32.569  35.701  29.192  1.00  0.00    -0.269 OA
BRANCH  22  25
ATOM     25  C   UNL A   1      34.270  34.100  29.345  1.00  0.00     0.039 A 
ATOM     26  C   UNL A   1      34.069  33.208  30.403  1.00  0.00     0.014 A 
ATOM     27  C   UNL A   1      35.572  34.459  28.981  1.00  0.00     0.014 A 
ATOM     28  C   UNL A   1      35.163  32.639  31.060  1.00  0.00     0.010 A 
ATOM     29  C   UNL A   1      36.665  33.848  29.598  1.00  0.00     0.010 A 
ATOM     30  C   UNL A   1      36.471  32.934  30.646  1.00  0.00    -0.014 A 
BRANCH  30  31
ATOM     31  C   UNL A   1      37.637  32.284  31.297  1.00  0.00     0.031 A 
ATOM     32  C   UNL A   1      38.407  31.203  30.592  1.00  0.00     0.074 A 
ATOM     33  C   UNL A   1      37.976  32.643  32.551  1.00  0.00     0.049 A 
ATOM     34  N   UNL A   1      39.433  30.507  31.015  1.00  0.00    -0.248 NA
ATOM     35  C   UNL A   1      37.954  30.841  29.241  1.00  0.00     0.031 C 
ATOM     36  C   UNL A   1      37.279  33.644  33.360  1.00  0.00     0.029 A 
ATOM     37  N   UNL A   1      38.988  32.203  33.366  1.00  0.00    -0.354 N 
ATOM     38  C   UNL A   1      39.739  29.620  29.992  1.00  0.00     0.074 A 
ATOM     39  C   UNL A   1      38.765  29.836  28.943  1.00  0.00     0.031 C 
ATOM     40  C   UNL A   1      37.896  33.757  34.546  1.00  0.00     0.029 A 
ATOM     41  C   UNL A   1      39.013  32.819  34.593  1.00  0.00     0.049 A 
ATOM     42  H   UNL A   1      39.636  31.512  33.096  1.00  0.00     0.167 HD
ATOM     43  C   UNL A   1      40.751  28.722  29.925  1.00  0.00     0.037 A 
ATOM     44  C   UNL A   1      39.843  32.646  35.639  1.00  0.00     0.037 A 
ATOM     45  C   UNL A   1      41.736  28.525  30.958  1.00  0.00     0.049 A 
ATOM     46  C   UNL A   1      40.967  31.653  35.533  1.00  0.00     0.074 A 
ATOM     47  C   UNL A   1      42.835  27.683  30.956  1.00  0.00     0.029 A 
ATOM     48  N   UNL A   1      41.738  29.181  32.181  1.00  0.00    -0.354 N 
ATOM     49  N   UNL A   1      41.285  30.868  34.532  1.00  0.00    -0.248 NA
ATOM     50  C   UNL A   1      41.853  31.530  36.699  1.00  0.00     0.031 C 
ATOM     51  C   UNL A   1      43.482  27.802  32.192  1.00  0.00     0.029 A 
ATOM     52  C   UNL A   1      42.809  28.749  32.948  1.00  0.00     0.049 A 
ATOM     53  H   UNL A   1      41.078  29.854  32.462  1.00  0.00     0.167 HD
ATOM     54  C   UNL A   1      42.414  30.172  34.939  1.00  0.00     0.074 A 
ATOM     55  C   UNL A   1      42.739  30.642  36.269  1.00  0.00     0.031 C 
ATOM     56  C   UNL A   1      43.118  29.225  34.271  1.00  0.00     0.037 A 
BRANCH  43  57
ATOM     57  C   UNL A   1      40.852  27.881  28.687  1.00  0.00     0.064 A 
ATOM     58  C   UNL A   1      40.136  26.682  28.554  1.00  0.00     0.173 A 
ATOM     59  C   UNL A   1      41.638  28.300  27.603  1.00  0.00     0.173 A 
ATOM     60  F   UNL A   1      39.378  26.233  29.566  1.00  0.00    -0.203 F 
ATOM     61  C   UNL A   1      40.222  25.920  27.391  1.00  0.00     0.198 A 
ATOM     62  C   UNL A   1      41.701  27.549  26.431  1.00  0.00     0.198 A 
ATOM     63  F   UNL A   1      42.337  29.442  27.675  1.00  0.00    -0.203 F 
ATOM     64  F   UNL A   1      39.561  24.758  27.303  1.00  0.00    -0.200 F 
ATOM     65  C   UNL A   1      40.999  26.358  26.328  1.00  0.00     0.200 A 
ATOM     66  F   UNL A   1      42.444  27.978  25.401  1.00  0.00    -0.200 F 
ATOM     67  F   UNL A   1      41.075  25.628  25.207  1.00  0.00    -0.200 F 
ENDBRANCH  43  57
BRANCH  44  68
ATOM     68  C   UNL A   1      39.659  33.456  36.869  1.00  0.00     0.064 A 
ATOM     69  C   UNL A   1      40.330  34.675  37.033  1.00  0.00     0.173 A 
ATOM     70  C   UNL A   1      38.811  33.031  37.903  1.00  0.00     0.173 A 
ATOM     71  F   UNL A   1      41.166  35.111  36.081  1.00  0.00    -0.203 F 
ATOM     72  C   UNL A   1      40.173  35.432  38.193  1.00  0.00     0.198 A 
ATOM     73  C   UNL A   1      38.636  33.801  39.051  1.00  0.00     0.198 A 
ATOM     74  F   UNL A   1      38.143  31.873  37.790  1.00  0.00    -0.203 F 
ATOM     75  F   UNL A   1      40.858  36.574  38.341  1.00  0.00    -0.200 F 
ATOM     76  C   UNL A   1      39.322  34.997  39.197  1.00  0.00     0.200 A 
ATOM     77  F   UNL A   1      37.803  33.384  40.014  1.00  0.00    -0.200 F 
ATOM     78  F   UNL A   1      39.169  35.728  40.310  1.00  0.00    -0.200 F 
ENDBRANCH  44  68
BRANCH  56  79
ATOM     79  C   UNL A   1      44.317  28.651  34.965  1.00  0.00     0.064 A 
ATOM     80  C   UNL A   1      45.585  29.239  34.845  1.00  0.00     0.173 A 
ATOM     81  C   UNL A   1      44.193  27.511  35.772  1.00  0.00     0.173 A 
ATOM     82  F   UNL A   1      45.756  30.320  34.069  1.00  0.00    -0.203 F 
ATOM     83  C   UNL A   1      46.691  28.689  35.487  1.00  0.00     0.198 A 
ATOM     84  C   UNL A   1      45.297  26.980  36.434  1.00  0.00     0.198 A 
ATOM     85  F   UNL A   1      43.001  26.913  35.922  1.00  0.00    -0.203 F 
ATOM     86  F   UNL A   1      47.901  29.238  35.319  1.00  0.00    -0.200 F 
ATOM     87  C   UNL A   1      46.546  27.564  36.285  1.00  0.00     0.200 A 
ATOM     88  F   UNL A   1      45.154  25.896  37.211  1.00  0.00    -0.200 F 
ATOM     89  F   UNL A   1      47.612  27.036  36.901  1.00  0.00    -0.200 F 
ENDBRANCH  56  79
ENDBRANCH  30  31
ENDBRANCH  22  25
ENDBRANCH  20  21
ENDBRANCH   1  20
TORSDOF 13
ENDMDL
