MODEL 1
REMARK VINA RESULT:     -12.1      0.000      0.000
REMARK SMILES CCC[C@H](Oc1ccccc1C)C(=O)NCCCNC(=O)c1ccc(-c2c3nc(c(-c4c(F)c(F)c(F)c(F)c4F)c4ccc([nH]4)c(-c4c(F)c(F)c(F)c(F)c4F)c4nc(c(-c5c(F)c(F)c(F)c(F)c5F)c5ccc2[nH]5)C=C4)C=C3)cc1
REMARK SMILES IDX 17 1 16 2 15 3 13 4 14 5 4 7 3 8 2 9 1 10 5 11 6 12 7 13
REMARK SMILES IDX 11 14 8 15 10 16 12 17 9 18 18 19 19 20 20 21 21 23 22 24
REMARK SMILES IDX 23 25 84 26 24 27 83 28 25 29 26 30 27 31 77 32 28 33 82 34
REMARK SMILES IDX 76 35 78 36 29 37 81 38 75 39 74 40 30 42 62 43 42 44 61 45
REMARK SMILES IDX 43 46 46 47 60 48 79 49 44 50 45 51 59 53 80 54 47 55 31 56
REMARK SMILES IDX 32 57 40 58 33 59 34 60 38 61 41 62 35 63 36 64 39 65 37 66
REMARK SMILES IDX 63 67 64 68 72 69 65 70 66 71 70 72 73 73 67 74 68 75 71 76
REMARK SMILES IDX 69 77 48 78 49 79 57 80 50 81 51 82 55 83 58 84 52 85 53 86
REMARK SMILES IDX 56 87 54 88
REMARK H PARENT 15 6 19 22 78 41 46 52
REMARK Flexibility Score: inf
ROOT
ATOM      1  C   UNL A   1      33.385  30.804  26.725  1.00  0.00     0.042 C 
ENDROOT
BRANCH   1   2
ATOM      2  C   UNL A   1      31.875  30.643  26.704  1.00  0.00     0.118 C 
BRANCH   2   3
ATOM      3  N   UNL A   1      31.344  30.470  25.356  1.00  0.00    -0.353 N 
ATOM      4  C   UNL A   1      31.167  29.327  24.614  1.00  0.00     0.261 C 
ATOM      5  O   UNL A   1      30.686  29.451  23.485  1.00  0.00    -0.271 OA
ATOM      6  H   UNL A   1      31.070  31.303  24.907  1.00  0.00     0.163 HD
BRANCH   4   7
ATOM      7  C   UNL A   1      31.529  27.935  25.177  1.00  0.00     0.261 C 
BRANCH   7   8
ATOM      8  C   UNL A   1      32.995  27.587  24.833  1.00  0.00     0.055 C 
BRANCH   8   9
ATOM      9  C   UNL A   1      33.807  26.945  25.965  1.00  0.00     0.001 C 
ATOM     10  C   UNL A   1      34.121  25.473  25.742  1.00  0.00     0.004 C 
ENDBRANCH   8   9
ENDBRANCH   7   8
BRANCH   7  11
ATOM     11  O   UNL A   1      30.568  27.043  24.577  1.00  0.00    -0.480 OA
BRANCH  11  12
ATOM     12  C   UNL A   1      30.615  25.702  24.860  1.00  0.00     0.123 A 
ATOM     13  C   UNL A   1      30.305  25.153  26.102  1.00  0.00     0.047 A 
ATOM     14  C   UNL A   1      31.074  24.847  23.840  1.00  0.00    -0.009 A 
ATOM     15  C   UNL A   1      30.519  23.800  26.372  1.00  0.00     0.004 A 
ATOM     16  C   UNL A   1      31.300  23.488  24.123  1.00  0.00     0.007 A 
ATOM     17  C   UNL A   1      31.327  25.346  22.446  1.00  0.00     0.048 C 
ATOM     18  C   UNL A   1      31.037  22.971  25.388  1.00  0.00     0.001 A 
ENDBRANCH  11  12
ENDBRANCH   7  11
ENDBRANCH   4   7
ENDBRANCH   2   3
ENDBRANCH   1   2
BRANCH   1  19
ATOM     19  C   UNL A   1      34.032  30.213  27.964  1.00  0.00     0.118 C 
BRANCH  19  20
ATOM     20  N   UNL A   1      34.764  31.179  28.782  1.00  0.00    -0.352 N 
ATOM     21  C   UNL A   1      36.029  31.041  29.342  1.00  0.00     0.251 C 
ATOM     22  H   UNL A   1      34.305  32.032  28.958  1.00  0.00     0.163 HD
ATOM     23  O   UNL A   1      36.557  31.946  29.959  1.00  0.00    -0.269 OA
BRANCH  21  24
ATOM     24  C   UNL A   1      36.764  29.786  29.058  1.00  0.00     0.039 A 
ATOM     25  C   UNL A   1      37.073  28.955  30.137  1.00  0.00     0.014 A 
ATOM     26  C   UNL A   1      37.400  29.636  27.830  1.00  0.00     0.014 A 
ATOM     27  C   UNL A   1      38.216  28.164  30.064  1.00  0.00     0.010 A 
ATOM     28  C   UNL A   1      38.594  28.943  27.799  1.00  0.00     0.010 A 
ATOM     29  C   UNL A   1      39.045  28.277  28.947  1.00  0.00    -0.014 A 
BRANCH  29  30
ATOM     30  C   UNL A   1      40.452  27.877  28.965  1.00  0.00     0.031 A 
ATOM     31  C   UNL A   1      40.873  26.550  28.471  1.00  0.00     0.074 A 
ATOM     32  C   UNL A   1      41.390  28.767  29.362  1.00  0.00     0.049 A 
ATOM     33  N   UNL A   1      41.997  25.983  28.758  1.00  0.00    -0.248 NA
ATOM     34  C   UNL A   1      40.013  25.725  27.638  1.00  0.00     0.031 C 
ATOM     35  C   UNL A   1      42.839  28.662  29.200  1.00  0.00     0.029 A 
ATOM     36  N   UNL A   1      41.218  29.875  30.212  1.00  0.00    -0.354 N 
ATOM     37  C   UNL A   1      42.131  24.871  27.958  1.00  0.00     0.074 A 
ATOM     38  C   UNL A   1      40.837  24.721  27.332  1.00  0.00     0.031 C 
ATOM     39  C   UNL A   1      43.431  29.408  30.145  1.00  0.00     0.029 A 
ATOM     40  C   UNL A   1      42.384  29.905  31.018  1.00  0.00     0.049 A 
ATOM     41  H   UNL A   1      40.453  30.494  30.241  1.00  0.00     0.167 HD
ATOM     42  C   UNL A   1      43.359  24.284  27.835  1.00  0.00     0.037 A 
ATOM     43  C   UNL A   1      42.311  29.699  32.365  1.00  0.00     0.037 A 
ATOM     44  C   UNL A   1      44.324  24.859  28.776  1.00  0.00     0.049 A 
ATOM     45  C   UNL A   1      43.090  28.503  32.869  1.00  0.00     0.074 A 
ATOM     46  C   UNL A   1      45.355  25.780  28.673  1.00  0.00     0.029 A 
ATOM     47  N   UNL A   1      44.114  24.676  30.132  1.00  0.00    -0.354 N 
ATOM     48  N   UNL A   1      43.706  27.649  32.100  1.00  0.00    -0.248 NA
ATOM     49  C   UNL A   1      43.135  28.115  34.281  1.00  0.00     0.031 C 
ATOM     50  C   UNL A   1      45.739  26.168  29.989  1.00  0.00     0.029 A 
ATOM     51  C   UNL A   1      44.940  25.486  30.888  1.00  0.00     0.049 A 
ATOM     52  H   UNL A   1      43.458  24.047  30.511  1.00  0.00     0.167 HD
ATOM     53  C   UNL A   1      44.162  26.608  32.861  1.00  0.00     0.074 A 
ATOM     54  C   UNL A   1      43.786  26.941  34.220  1.00  0.00     0.031 C 
ATOM     55  C   UNL A   1      44.777  25.517  32.328  1.00  0.00     0.037 A 
BRANCH  42  56
ATOM     56  C   UNL A   1      43.760  23.357  26.700  1.00  0.00     0.064 A 
ATOM     57  C   UNL A   1      43.289  22.025  26.660  1.00  0.00     0.173 A 
ATOM     58  C   UNL A   1      44.655  23.681  25.664  1.00  0.00     0.173 A 
ATOM     59  F   UNL A   1      42.336  21.592  27.494  1.00  0.00    -0.203 F 
ATOM     60  C   UNL A   1      43.777  21.077  25.753  1.00  0.00     0.198 A 
ATOM     61  C   UNL A   1      45.187  22.723  24.793  1.00  0.00     0.198 A 
ATOM     62  F   UNL A   1      44.994  24.946  25.399  1.00  0.00    -0.203 F 
ATOM     63  F   UNL A   1      43.295  19.827  25.776  1.00  0.00    -0.200 F 
ATOM     64  C   UNL A   1      44.758  21.416  24.848  1.00  0.00     0.200 A 
ATOM     65  F   UNL A   1      46.115  23.087  23.895  1.00  0.00    -0.200 F 
ATOM     66  F   UNL A   1      45.261  20.500  24.010  1.00  0.00    -0.200 F 
ENDBRANCH  42  56
BRANCH  43  67
ATOM     67  C   UNL A   1      41.046  30.196  32.966  1.00  0.00     0.064 A 
ATOM     68  C   UNL A   1      40.855  31.587  33.082  1.00  0.00     0.173 A 
ATOM     69  C   UNL A   1      39.922  29.375  33.097  1.00  0.00     0.173 A 
ATOM     70  F   UNL A   1      41.901  32.421  32.960  1.00  0.00    -0.203 F 
ATOM     71  C   UNL A   1      39.582  32.135  33.207  1.00  0.00     0.198 A 
ATOM     72  C   UNL A   1      38.649  29.927  33.244  1.00  0.00     0.198 A 
ATOM     73  F   UNL A   1      40.031  28.045  32.968  1.00  0.00    -0.203 F 
ATOM     74  F   UNL A   1      39.422  33.466  33.194  1.00  0.00    -0.200 F 
ATOM     75  C   UNL A   1      38.476  31.304  33.263  1.00  0.00     0.200 A 
ATOM     76  F   UNL A   1      37.577  29.123  33.264  1.00  0.00    -0.200 F 
ATOM     77  F   UNL A   1      37.244  31.826  33.288  1.00  0.00    -0.200 F 
ENDBRANCH  43  67
BRANCH  55  78
ATOM     78  C   UNL A   1      45.284  24.390  33.166  1.00  0.00     0.064 A 
ATOM     79  C   UNL A   1      44.482  23.283  33.480  1.00  0.00     0.173 A 
ATOM     80  C   UNL A   1      46.554  24.446  33.773  1.00  0.00     0.173 A 
ATOM     81  F   UNL A   1      43.248  23.167  32.965  1.00  0.00    -0.203 F 
ATOM     82  C   UNL A   1      44.932  22.278  34.337  1.00  0.00     0.198 A 
ATOM     83  C   UNL A   1      46.983  23.464  34.662  1.00  0.00     0.198 A 
ATOM     84  F   UNL A   1      47.407  25.443  33.498  1.00  0.00    -0.203 F 
ATOM     85  F   UNL A   1      44.153  21.216  34.584  1.00  0.00    -0.200 F 
ATOM     86  C   UNL A   1      46.175  22.377  34.939  1.00  0.00     0.200 A 
ATOM     87  F   UNL A   1      48.185  23.576  35.246  1.00  0.00    -0.200 F 
ATOM     88  F   UNL A   1      46.597  21.423  35.780  1.00  0.00    -0.200 F 
ENDBRANCH  55  78
ENDBRANCH  29  30
ENDBRANCH  21  24
ENDBRANCH  19  20
ENDBRANCH   1  19
TORSDOF 14
ENDMDL
MODEL 2
REMARK VINA RESULT:     -12.0      4.223     10.397
REMARK SMILES CCC[C@H](Oc1ccccc1C)C(=O)NCCCNC(=O)c1ccc(-c2c3nc(c(-c4c(F)c(F)c(F)c(F)c4F)c4ccc([nH]4)c(-c4c(F)c(F)c(F)c(F)c4F)c4nc(c(-c5c(F)c(F)c(F)c(F)c5F)c5ccc2[nH]5)C=C4)C=C3)cc1
REMARK SMILES IDX 17 1 16 2 15 3 13 4 14 5 4 7 3 8 2 9 1 10 5 11 6 12 7 13
REMARK SMILES IDX 11 14 8 15 10 16 12 17 9 18 18 19 19 20 20 21 21 23 22 24
REMARK SMILES IDX 23 25 84 26 24 27 83 28 25 29 26 30 27 31 77 32 28 33 82 34
REMARK SMILES IDX 76 35 78 36 29 37 81 38 75 39 74 40 30 42 62 43 42 44 61 45
REMARK SMILES IDX 43 46 46 47 60 48 79 49 44 50 45 51 59 53 80 54 47 55 31 56
REMARK SMILES IDX 32 57 40 58 33 59 34 60 38 61 41 62 35 63 36 64 39 65 37 66
REMARK SMILES IDX 63 67 64 68 72 69 65 70 66 71 70 72 73 73 67 74 68 75 71 76
REMARK SMILES IDX 69 77 48 78 49 79 57 80 50 81 51 82 55 83 58 84 52 85 53 86
REMARK SMILES IDX 56 87 54 88
REMARK H PARENT 15 6 19 22 78 41 46 52
REMARK Flexibility Score: inf
ROOT
ATOM      1  C   UNL A   1      38.839  21.479  25.735  1.00  0.00     0.042 C 
ENDROOT
BRANCH   1   2
ATOM      2  C   UNL A   1      37.376  21.356  25.348  1.00  0.00     0.118 C 
BRANCH   2   3
ATOM      3  N   UNL A   1      37.077  21.981  24.063  1.00  0.00    -0.353 N 
ATOM      4  C   UNL A   1      35.940  22.624  23.636  1.00  0.00     0.261 C 
ATOM      5  O   UNL A   1      35.941  23.077  22.488  1.00  0.00    -0.271 OA
ATOM      6  H   UNL A   1      37.802  21.934  23.399  1.00  0.00     0.163 HD
BRANCH   4   7
ATOM      7  C   UNL A   1      34.715  22.801  24.560  1.00  0.00     0.261 C 
BRANCH   7   8
ATOM      8  C   UNL A   1      33.991  21.448  24.746  1.00  0.00     0.055 C 
BRANCH   8   9
ATOM      9  C   UNL A   1      33.367  21.216  26.129  1.00  0.00     0.001 C 
ATOM     10  C   UNL A   1      33.966  22.076  27.230  1.00  0.00     0.004 C 
ENDBRANCH   8   9
ENDBRANCH   7   8
BRANCH   7  11
ATOM     11  O   UNL A   1      33.911  23.802  23.904  1.00  0.00    -0.480 OA
BRANCH  11  12
ATOM     12  C   UNL A   1      33.288  24.768  24.649  1.00  0.00     0.123 A 
ATOM     13  C   UNL A   1      33.953  25.805  25.302  1.00  0.00     0.047 A 
ATOM     14  C   UNL A   1      31.895  24.654  24.814  1.00  0.00    -0.009 A 
ATOM     15  C   UNL A   1      33.280  26.668  26.169  1.00  0.00     0.004 A 
ATOM     16  C   UNL A   1      31.225  25.518  25.699  1.00  0.00     0.007 A 
ATOM     17  C   UNL A   1      31.093  23.630  24.061  1.00  0.00     0.048 C 
ATOM     18  C   UNL A   1      31.919  26.511  26.385  1.00  0.00     0.001 A 
ENDBRANCH  11  12
ENDBRANCH   7  11
ENDBRANCH   4   7
ENDBRANCH   2   3
ENDBRANCH   1   2
BRANCH   1  19
ATOM     19  C   UNL A   1      39.191  22.838  26.313  1.00  0.00     0.118 C 
BRANCH  19  20
ATOM     20  N   UNL A   1      40.624  23.059  26.507  1.00  0.00    -0.352 N 
ATOM     21  C   UNL A   1      41.273  24.253  26.800  1.00  0.00     0.251 C 
ATOM     22  H   UNL A   1      41.199  22.265  26.420  1.00  0.00     0.163 HD
ATOM     23  O   UNL A   1      42.472  24.297  26.996  1.00  0.00    -0.269 OA
BRANCH  21  24
ATOM     24  C   UNL A   1      40.430  25.458  26.982  1.00  0.00     0.039 A 
ATOM     25  C   UNL A   1      40.806  26.622  26.310  1.00  0.00     0.014 A 
ATOM     26  C   UNL A   1      39.523  25.497  28.036  1.00  0.00     0.014 A 
ATOM     27  C   UNL A   1      40.489  27.852  26.878  1.00  0.00     0.010 A 
ATOM     28  C   UNL A   1      39.308  26.710  28.661  1.00  0.00     0.010 A 
ATOM     29  C   UNL A   1      39.866  27.879  28.126  1.00  0.00    -0.014 A 
BRANCH  29  30
ATOM     30  C   UNL A   1      39.910  29.047  29.005  1.00  0.00     0.031 A 
ATOM     31  C   UNL A   1      38.875  30.099  28.927  1.00  0.00     0.074 A 
ATOM     32  C   UNL A   1      40.866  29.125  29.960  1.00  0.00     0.049 A 
ATOM     33  N   UNL A   1      39.009  31.296  29.392  1.00  0.00    -0.248 NA
ATOM     34  C   UNL A   1      37.602  29.885  28.257  1.00  0.00     0.031 C 
ATOM     35  C   UNL A   1      40.920  30.051  31.088  1.00  0.00     0.029 A 
ATOM     36  N   UNL A   1      42.125  28.499  29.966  1.00  0.00    -0.354 N 
ATOM     37  C   UNL A   1      37.782  31.917  29.331  1.00  0.00     0.074 A 
ATOM     38  C   UNL A   1      36.961  31.018  28.554  1.00  0.00     0.031 C 
ATOM     39  C   UNL A   1      42.200  30.191  31.467  1.00  0.00     0.029 A 
ATOM     40  C   UNL A   1      43.012  29.462  30.510  1.00  0.00     0.049 A 
ATOM     41  H   UNL A   1      42.344  27.589  29.659  1.00  0.00     0.167 HD
ATOM     42  C   UNL A   1      37.580  33.063  30.049  1.00  0.00     0.037 A 
ATOM     43  C   UNL A   1      44.018  29.995  29.758  1.00  0.00     0.037 A 
ATOM     44  C   UNL A   1      38.830  33.555  30.634  1.00  0.00     0.049 A 
ATOM     45  C   UNL A   1      43.946  31.495  29.568  1.00  0.00     0.074 A 
ATOM     46  C   UNL A   1      39.400  33.508  31.897  1.00  0.00     0.029 A 
ATOM     47  N   UNL A   1      39.833  33.988  29.783  1.00  0.00    -0.354 N 
ATOM     48  N   UNL A   1      42.961  32.242  29.983  1.00  0.00    -0.248 NA
ATOM     49  C   UNL A   1      44.931  32.250  28.791  1.00  0.00     0.031 C 
ATOM     50  C   UNL A   1      40.767  33.892  31.784  1.00  0.00     0.029 A 
ATOM     51  C   UNL A   1      41.027  34.167  30.455  1.00  0.00     0.049 A 
ATOM     52  H   UNL A   1      39.710  34.149  28.820  1.00  0.00     0.167 HD
ATOM     53  C   UNL A   1      43.131  33.512  29.504  1.00  0.00     0.074 A 
ATOM     54  C   UNL A   1      44.377  33.474  28.766  1.00  0.00     0.031 C 
ATOM     55  C   UNL A   1      42.219  34.504  29.702  1.00  0.00     0.037 A 
BRANCH  42  56
ATOM     56  C   UNL A   1      36.215  33.611  30.429  1.00  0.00     0.064 A 
ATOM     57  C   UNL A   1      35.359  34.150  29.443  1.00  0.00     0.173 A 
ATOM     58  C   UNL A   1      35.714  33.707  31.740  1.00  0.00     0.173 A 
ATOM     59  F   UNL A   1      35.625  34.026  28.137  1.00  0.00    -0.203 F 
ATOM     60  C   UNL A   1      34.183  34.841  29.758  1.00  0.00     0.198 A 
ATOM     61  C   UNL A   1      34.570  34.445  32.063  1.00  0.00     0.198 A 
ATOM     62  F   UNL A   1      36.263  33.030  32.753  1.00  0.00    -0.203 F 
ATOM     63  F   UNL A   1      33.420  35.337  28.774  1.00  0.00    -0.200 F 
ATOM     64  C   UNL A   1      33.811  35.026  31.072  1.00  0.00     0.200 A 
ATOM     65  F   UNL A   1      34.209  34.579  33.348  1.00  0.00    -0.200 F 
ATOM     66  F   UNL A   1      32.712  35.726  31.379  1.00  0.00    -0.200 F 
ENDBRANCH  42  56
BRANCH  43  67
ATOM     67  C   UNL A   1      44.566  29.043  28.756  1.00  0.00     0.064 A 
ATOM     68  C   UNL A   1      45.391  27.992  29.204  1.00  0.00     0.173 A 
ATOM     69  C   UNL A   1      44.032  28.942  27.468  1.00  0.00     0.173 A 
ATOM     70  F   UNL A   1      45.926  28.037  30.435  1.00  0.00    -0.203 F 
ATOM     71  C   UNL A   1      45.574  26.842  28.442  1.00  0.00     0.198 A 
ATOM     72  C   UNL A   1      44.237  27.797  26.698  1.00  0.00     0.198 A 
ATOM     73  F   UNL A   1      43.216  29.895  26.992  1.00  0.00    -0.203 F 
ATOM     74  F   UNL A   1      46.266  25.810  28.947  1.00  0.00    -0.200 F 
ATOM     75  C   UNL A   1      44.976  26.735  27.199  1.00  0.00     0.200 A 
ATOM     76  F   UNL A   1      43.629  27.680  25.509  1.00  0.00    -0.200 F 
ATOM     77  F   UNL A   1      45.072  25.595  26.503  1.00  0.00    -0.200 F 
ENDBRANCH  43  67
BRANCH  55  78
ATOM     78  C   UNL A   1      42.417  35.892  29.188  1.00  0.00     0.064 A 
ATOM     79  C   UNL A   1      41.835  36.326  27.988  1.00  0.00     0.173 A 
ATOM     80  C   UNL A   1      43.292  36.789  29.831  1.00  0.00     0.173 A 
ATOM     81  F   UNL A   1      41.010  35.521  27.300  1.00  0.00    -0.203 F 
ATOM     82  C   UNL A   1      42.097  37.594  27.470  1.00  0.00     0.198 A 
ATOM     83  C   UNL A   1      43.585  38.038  29.288  1.00  0.00     0.198 A 
ATOM     84  F   UNL A   1      43.860  36.479  31.005  1.00  0.00    -0.203 F 
ATOM     85  F   UNL A   1      41.493  37.989  26.341  1.00  0.00    -0.200 F 
ATOM     86  C   UNL A   1      42.984  38.442  28.111  1.00  0.00     0.200 A 
ATOM     87  F   UNL A   1      44.453  38.847  29.913  1.00  0.00    -0.200 F 
ATOM     88  F   UNL A   1      43.252  39.651  27.599  1.00  0.00    -0.200 F 
ENDBRANCH  55  78
ENDBRANCH  29  30
ENDBRANCH  21  24
ENDBRANCH  19  20
ENDBRANCH   1  19
TORSDOF 14
ENDMDL
MODEL 3
REMARK VINA RESULT:     -11.9      1.126      1.895
REMARK SMILES CCC[C@H](Oc1ccccc1C)C(=O)NCCCNC(=O)c1ccc(-c2c3nc(c(-c4c(F)c(F)c(F)c(F)c4F)c4ccc([nH]4)c(-c4c(F)c(F)c(F)c(F)c4F)c4nc(c(-c5c(F)c(F)c(F)c(F)c5F)c5ccc2[nH]5)C=C4)C=C3)cc1
REMARK SMILES IDX 17 1 16 2 15 3 13 4 14 5 4 7 3 8 2 9 1 10 5 11 6 12 7 13
REMARK SMILES IDX 11 14 8 15 10 16 12 17 9 18 18 19 19 20 20 21 21 23 22 24
REMARK SMILES IDX 23 25 84 26 24 27 83 28 25 29 26 30 27 31 77 32 28 33 82 34
REMARK SMILES IDX 76 35 78 36 29 37 81 38 75 39 74 40 30 42 62 43 42 44 61 45
REMARK SMILES IDX 43 46 46 47 60 48 79 49 44 50 45 51 59 53 80 54 47 55 31 56
REMARK SMILES IDX 32 57 40 58 33 59 34 60 38 61 41 62 35 63 36 64 39 65 37 66
REMARK SMILES IDX 63 67 64 68 72 69 65 70 66 71 70 72 73 73 67 74 68 75 71 76
REMARK SMILES IDX 69 77 48 78 49 79 57 80 50 81 51 82 55 83 58 84 52 85 53 86
REMARK SMILES IDX 56 87 54 88
REMARK H PARENT 15 6 19 22 78 41 46 52
REMARK Flexibility Score: inf
ROOT
ATOM      1  C   UNL A   1      33.321  30.857  26.809  1.00  0.00     0.042 C 
ENDROOT
BRANCH   1   2
ATOM      2  C   UNL A   1      32.620  29.825  25.944  1.00  0.00     0.118 C 
BRANCH   2   3
ATOM      3  N   UNL A   1      33.218  29.700  24.618  1.00  0.00    -0.353 N 
ATOM      4  C   UNL A   1      32.936  28.821  23.600  1.00  0.00     0.261 C 
ATOM      5  O   UNL A   1      33.591  28.928  22.559  1.00  0.00    -0.271 OA
ATOM      6  H   UNL A   1      33.936  30.345  24.423  1.00  0.00     0.163 HD
BRANCH   4   7
ATOM      7  C   UNL A   1      31.825  27.756  23.736  1.00  0.00     0.261 C 
BRANCH   7   8
ATOM      8  C   UNL A   1      32.452  26.358  23.938  1.00  0.00     0.055 C 
BRANCH   8   9
ATOM      9  C   UNL A   1      33.451  26.242  25.097  1.00  0.00     0.001 C 
ATOM     10  C   UNL A   1      33.089  25.178  26.121  1.00  0.00     0.004 C 
ENDBRANCH   8   9
ENDBRANCH   7   8
BRANCH   7  11
ATOM     11  O   UNL A   1      31.061  27.875  22.519  1.00  0.00    -0.480 OA
BRANCH  11  12
ATOM     12  C   UNL A   1      29.942  28.666  22.493  1.00  0.00     0.123 A 
ATOM     13  C   UNL A   1      29.902  29.949  21.953  1.00  0.00     0.047 A 
ATOM     14  C   UNL A   1      28.786  28.162  23.119  1.00  0.00    -0.009 A 
ATOM     15  C   UNL A   1      28.775  30.762  22.093  1.00  0.00     0.004 A 
ATOM     16  C   UNL A   1      27.660  28.991  23.269  1.00  0.00     0.007 A 
ATOM     17  C   UNL A   1      28.718  26.751  23.630  1.00  0.00     0.048 C 
ATOM     18  C   UNL A   1      27.661  30.291  22.771  1.00  0.00     0.001 A 
ENDBRANCH  11  12
ENDBRANCH   7  11
ENDBRANCH   4   7
ENDBRANCH   2   3
ENDBRANCH   1   2
BRANCH   1  19
ATOM     19  C   UNL A   1      34.021  30.251  28.012  1.00  0.00     0.118 C 
BRANCH  19  20
ATOM     20  N   UNL A   1      34.760  31.213  28.829  1.00  0.00    -0.352 N 
ATOM     21  C   UNL A   1      36.038  31.081  29.359  1.00  0.00     0.251 C 
ATOM     22  H   UNL A   1      34.296  32.058  29.026  1.00  0.00     0.163 HD
ATOM     23  O   UNL A   1      36.570  31.982  29.977  1.00  0.00    -0.269 OA
BRANCH  21  24
ATOM     24  C   UNL A   1      36.780  29.838  29.041  1.00  0.00     0.039 A 
ATOM     25  C   UNL A   1      37.075  28.969  30.093  1.00  0.00     0.014 A 
ATOM     26  C   UNL A   1      37.436  29.734  27.818  1.00  0.00     0.014 A 
ATOM     27  C   UNL A   1      38.220  28.183  30.009  1.00  0.00     0.010 A 
ATOM     28  C   UNL A   1      38.632  29.045  27.780  1.00  0.00     0.010 A 
ATOM     29  C   UNL A   1      39.066  28.338  28.910  1.00  0.00    -0.014 A 
BRANCH  29  30
ATOM     30  C   UNL A   1      40.473  27.940  28.935  1.00  0.00     0.031 A 
ATOM     31  C   UNL A   1      40.899  26.616  28.437  1.00  0.00     0.074 A 
ATOM     32  C   UNL A   1      41.408  28.829  29.343  1.00  0.00     0.049 A 
ATOM     33  N   UNL A   1      42.023  26.049  28.728  1.00  0.00    -0.248 NA
ATOM     34  C   UNL A   1      40.046  25.794  27.594  1.00  0.00     0.031 C 
ATOM     35  C   UNL A   1      42.857  28.727  29.190  1.00  0.00     0.029 A 
ATOM     36  N   UNL A   1      41.228  29.932  30.198  1.00  0.00    -0.354 N 
ATOM     37  C   UNL A   1      42.163  24.941  27.923  1.00  0.00     0.074 A 
ATOM     38  C   UNL A   1      40.874  24.793  27.287  1.00  0.00     0.031 C 
ATOM     39  C   UNL A   1      43.442  29.469  30.143  1.00  0.00     0.029 A 
ATOM     40  C   UNL A   1      42.388  29.960  31.012  1.00  0.00     0.049 A 
ATOM     41  H   UNL A   1      40.462  30.550  30.225  1.00  0.00     0.167 HD
ATOM     42  C   UNL A   1      43.393  24.357  27.805  1.00  0.00     0.037 A 
ATOM     43  C   UNL A   1      42.308  29.747  32.357  1.00  0.00     0.037 A 
ATOM     44  C   UNL A   1      44.351  24.929  28.756  1.00  0.00     0.049 A 
ATOM     45  C   UNL A   1      43.085  28.549  32.859  1.00  0.00     0.074 A 
ATOM     46  C   UNL A   1      45.381  25.852  28.665  1.00  0.00     0.029 A 
ATOM     47  N   UNL A   1      44.132  24.738  30.110  1.00  0.00    -0.354 N 
ATOM     48  N   UNL A   1      43.707  27.700  32.090  1.00  0.00    -0.248 NA
ATOM     49  C   UNL A   1      43.121  28.154  34.269  1.00  0.00     0.031 C 
ATOM     50  C   UNL A   1      45.756  26.232  29.985  1.00  0.00     0.029 A 
ATOM     51  C   UNL A   1      44.952  25.545  30.875  1.00  0.00     0.049 A 
ATOM     52  H   UNL A   1      43.475  24.106  30.481  1.00  0.00     0.167 HD
ATOM     53  C   UNL A   1      44.159  26.656  32.849  1.00  0.00     0.074 A 
ATOM     54  C   UNL A   1      43.774  26.981  34.207  1.00  0.00     0.031 C 
ATOM     55  C   UNL A   1      44.780  25.568  32.314  1.00  0.00     0.037 A 
BRANCH  42  56
ATOM     56  C   UNL A   1      43.803  23.437  26.668  1.00  0.00     0.064 A 
ATOM     57  C   UNL A   1      43.333  22.105  26.617  1.00  0.00     0.173 A 
ATOM     58  C   UNL A   1      44.706  23.767  25.640  1.00  0.00     0.173 A 
ATOM     59  F   UNL A   1      42.375  21.666  27.442  1.00  0.00    -0.203 F 
ATOM     60  C   UNL A   1      43.828  21.162  25.709  1.00  0.00     0.198 A 
ATOM     61  C   UNL A   1      45.244  22.815  24.768  1.00  0.00     0.198 A 
ATOM     62  F   UNL A   1      45.045  25.033  25.385  1.00  0.00    -0.203 F 
ATOM     63  F   UNL A   1      43.346  19.911  25.721  1.00  0.00    -0.200 F 
ATOM     64  C   UNL A   1      44.816  21.506  24.812  1.00  0.00     0.200 A 
ATOM     65  F   UNL A   1      46.178  23.184  23.879  1.00  0.00    -0.200 F 
ATOM     66  F   UNL A   1      45.325  20.596  23.973  1.00  0.00    -0.200 F 
ENDBRANCH  42  56
BRANCH  43  67
ATOM     67  C   UNL A   1      41.038  30.239  32.952  1.00  0.00     0.064 A 
ATOM     68  C   UNL A   1      40.842  31.629  33.070  1.00  0.00     0.173 A 
ATOM     69  C   UNL A   1      39.915  29.414  33.076  1.00  0.00     0.173 A 
ATOM     70  F   UNL A   1      41.885  32.466  32.954  1.00  0.00    -0.203 F 
ATOM     71  C   UNL A   1      39.566  32.172  33.189  1.00  0.00     0.198 A 
ATOM     72  C   UNL A   1      38.640  29.962  33.218  1.00  0.00     0.198 A 
ATOM     73  F   UNL A   1      40.030  28.084  32.945  1.00  0.00    -0.203 F 
ATOM     74  F   UNL A   1      39.402  33.503  33.177  1.00  0.00    -0.200 F 
ATOM     75  C   UNL A   1      38.463  31.338  33.238  1.00  0.00     0.200 A 
ATOM     76  F   UNL A   1      37.570  29.155  33.230  1.00  0.00    -0.200 F 
ATOM     77  F   UNL A   1      37.229  31.856  33.257  1.00  0.00    -0.200 F 
ENDBRANCH  43  67
BRANCH  55  78
ATOM     78  C   UNL A   1      45.283  24.437  33.149  1.00  0.00     0.064 A 
ATOM     79  C   UNL A   1      44.492  23.312  33.423  1.00  0.00     0.173 A 
ATOM     80  C   UNL A   1      46.533  24.507  33.793  1.00  0.00     0.173 A 
ATOM     81  F   UNL A   1      43.276  23.182  32.871  1.00  0.00    -0.203 F 
ATOM     82  C   UNL A   1      44.936  22.302  34.278  1.00  0.00     0.198 A 
ATOM     83  C   UNL A   1      46.954  23.519  34.680  1.00  0.00     0.198 A 
ATOM     84  F   UNL A   1      47.376  25.523  33.558  1.00  0.00    -0.203 F 
ATOM     85  F   UNL A   1      44.169  21.222  34.486  1.00  0.00    -0.200 F 
ATOM     86  C   UNL A   1      46.159  22.414  34.917  1.00  0.00     0.200 A 
ATOM     87  F   UNL A   1      48.137  23.642  35.300  1.00  0.00    -0.200 F 
ATOM     88  F   UNL A   1      46.573  21.454  35.755  1.00  0.00    -0.200 F 
ENDBRANCH  55  78
ENDBRANCH  29  30
ENDBRANCH  21  24
ENDBRANCH  19  20
ENDBRANCH   1  19
TORSDOF 14
ENDMDL
