MODEL 1
REMARK VINA RESULT:     -10.5      0.000      0.000
REMARK SMILES CS(=O)(=O)c1ccc(C2=NN(c3ccc(C(=O)NCCCNC(=O)c4ccc(-c5c6nc(c(-c7c(F)c(F)c(F)c(F)c7F)c7ccc([nH]7)c(-c7c(F)c(F)c(F)c(F)c7F)c7nc(c(-c8c(F)c(F)c(F)c(F)c8F)c8ccc5[nH]8)C=C7)C=C6)cc4)cc3)[C@H](c3cccs3)C2)cc1
REMARK SMILES IDX 19 1 18 2 16 3 17 4 15 6 12 7 13 8 89 9 14 10 88 11 11 12
REMARK SMILES IDX 9 13 10 14 96 15 90 16 8 17 5 18 6 19 98 20 7 21 97 22 2 23
REMARK SMILES IDX 1 24 3 25 4 26 91 27 92 28 95 29 93 30 94 31 20 32 21 33
REMARK SMILES IDX 22 34 23 35 24 37 25 38 26 39 87 40 27 41 86 42 28 43 29 44
REMARK SMILES IDX 30 45 80 46 31 47 85 48 79 49 81 50 32 51 84 52 78 53 77 54
REMARK SMILES IDX 33 56 65 57 45 58 64 59 46 60 49 61 63 62 82 63 47 64 48 65
REMARK SMILES IDX 62 67 83 68 50 69 34 70 35 71 43 72 36 73 37 74 41 75 44 76
REMARK SMILES IDX 38 77 39 78 42 79 40 80 66 81 67 82 75 83 68 84 69 85 73 86
REMARK SMILES IDX 76 87 70 88 71 89 74 90 72 91 51 92 52 93 60 94 53 95 54 96
REMARK SMILES IDX 58 97 61 98 55 99 56 100 59 101 57 102
REMARK H PARENT 18 5 22 36 81 55 49 66
REMARK Flexibility Score: inf
ROOT
ATOM      1  C   UNL A   1      34.659  34.755  30.827  1.00  0.00     0.118 C 
ENDROOT
BRANCH   1   2
ATOM      2  N   UNL A   1      33.707  34.112  31.715  1.00  0.00    -0.352 N 
ATOM      3  C   UNL A   1      33.882  33.341  32.836  1.00  0.00     0.251 C 
ATOM      4  O   UNL A   1      32.879  32.978  33.449  1.00  0.00    -0.269 OA
ATOM      5  H   UNL A   1      32.765  34.255  31.467  1.00  0.00     0.163 HD
BRANCH   3   6
ATOM      6  C   UNL A   1      35.227  32.988  33.359  1.00  0.00     0.039 A 
ATOM      7  C   UNL A   1      37.742  32.142  34.319  1.00  0.00     0.060 A 
ATOM      8  C   UNL A   1      37.186  31.561  33.177  1.00  0.00     0.029 A 
ATOM      9  C   UNL A   1      37.061  33.199  34.926  1.00  0.00     0.029 A 
ATOM     10  C   UNL A   1      35.936  31.974  32.702  1.00  0.00     0.016 A 
ATOM     11  C   UNL A   1      35.830  33.635  34.438  1.00  0.00     0.016 A 
BRANCH   7  12
ATOM     12  N   UNL A   1      38.956  31.727  34.824  1.00  0.00    -0.257 N 
ATOM     13  C   UNL A   1      40.469  30.309  35.228  1.00  0.00     0.071 C 
ATOM     14  N   UNL A   1      39.444  30.522  34.467  1.00  0.00    -0.176 NA
ATOM     15  C   UNL A   1      40.747  31.356  36.272  1.00  0.00     0.091 C 
ATOM     16  C   UNL A   1      39.718  32.425  35.866  1.00  0.00     0.154 C 
BRANCH  13  17
ATOM     17  C   UNL A   1      41.310  29.120  35.066  1.00  0.00    -0.002 A 
ATOM     18  C   UNL A   1      43.006  26.935  34.830  1.00  0.00     0.067 A 
ATOM     19  C   UNL A   1      42.911  27.598  36.056  1.00  0.00     0.021 A 
ATOM     20  C   UNL A   1      42.260  27.364  33.722  1.00  0.00     0.021 A 
ATOM     21  C   UNL A   1      42.069  28.703  36.166  1.00  0.00     0.011 A 
ATOM     22  C   UNL A   1      41.396  28.455  33.843  1.00  0.00     0.011 A 
BRANCH  18  23
ATOM     23  S   UNL A   1      44.090  25.542  34.620  1.00  0.00     0.175 S 
ATOM     24  C   UNL A   1      43.109  24.086  34.856  1.00  0.00     0.163 C 
ATOM     25  O   UNL A   1      45.046  25.592  35.711  1.00  0.00    -0.224 OA
ATOM     26  O   UNL A   1      44.527  25.574  33.237  1.00  0.00    -0.224 OA
ENDBRANCH  18  23
ENDBRANCH  13  17
BRANCH  16  27
ATOM     27  C   UNL A   1      40.266  33.788  35.464  1.00  0.00     0.030 A 
ATOM     28  C   UNL A   1      40.591  34.188  34.174  1.00  0.00     0.017 A 
ATOM     29  S   UNL A   1      40.616  35.042  36.581  1.00  0.00    -0.147 S 
ATOM     30  C   UNL A   1      41.123  35.508  34.113  1.00  0.00     0.012 A 
ATOM     31  C   UNL A   1      41.159  36.098  35.354  1.00  0.00     0.065 A 
ENDBRANCH  16  27
ENDBRANCH   7  12
ENDBRANCH   3   6
ENDBRANCH   1   2
BRANCH   1  32
ATOM     32  C   UNL A   1      34.559  34.191  29.410  1.00  0.00     0.042 C 
BRANCH  32  33
ATOM     33  C   UNL A   1      35.388  32.927  29.207  1.00  0.00     0.118 C 
BRANCH  33  34
ATOM     34  N   UNL A   1      34.571  31.809  28.759  1.00  0.00    -0.352 N 
ATOM     35  C   UNL A   1      34.936  30.540  28.390  1.00  0.00     0.251 C 
ATOM     36  H   UNL A   1      33.605  31.992  28.714  1.00  0.00     0.163 HD
ATOM     37  O   UNL A   1      34.127  29.822  27.809  1.00  0.00    -0.269 OA
BRANCH  35  38
ATOM     38  C   UNL A   1      36.295  30.033  28.675  1.00  0.00     0.039 A 
ATOM     39  C   UNL A   1      37.272  30.134  27.681  1.00  0.00     0.014 A 
ATOM     40  C   UNL A   1      36.599  29.419  29.893  1.00  0.00     0.014 A 
ATOM     41  C   UNL A   1      38.567  29.672  27.928  1.00  0.00     0.010 A 
ATOM     42  C   UNL A   1      37.908  29.030  30.168  1.00  0.00     0.010 A 
ATOM     43  C   UNL A   1      38.904  29.150  29.188  1.00  0.00    -0.014 A 
BRANCH  43  44
ATOM     44  C   UNL A   1      40.295  28.737  29.500  1.00  0.00     0.031 A 
ATOM     45  C   UNL A   1      41.195  29.639  30.296  1.00  0.00     0.074 A 
ATOM     46  C   UNL A   1      40.766  27.576  29.006  1.00  0.00     0.049 A 
ATOM     47  N   UNL A   1      42.460  29.488  30.602  1.00  0.00    -0.248 NA
ATOM     48  C   UNL A   1      40.604  30.892  30.794  1.00  0.00     0.031 C 
ATOM     49  C   UNL A   1      40.000  26.635  28.187  1.00  0.00     0.029 A 
ATOM     50  N   UNL A   1      42.004  26.993  29.110  1.00  0.00    -0.354 N 
ATOM     51  C   UNL A   1      42.815  30.625  31.315  1.00  0.00     0.074 A 
ATOM     52  C   UNL A   1      41.651  31.482  31.351  1.00  0.00     0.031 C 
ATOM     53  C   UNL A   1      40.777  25.586  27.879  1.00  0.00     0.029 A 
ATOM     54  C   UNL A   1      42.108  25.800  28.437  1.00  0.00     0.049 A 
ATOM     55  H   UNL A   1      42.748  27.392  29.617  1.00  0.00     0.167 HD
ATOM     56  C   UNL A   1      44.000  30.916  31.905  1.00  0.00     0.037 A 
ATOM     57  C   UNL A   1      43.162  24.979  28.276  1.00  0.00     0.037 A 
ATOM     58  C   UNL A   1      45.152  30.051  31.875  1.00  0.00     0.049 A 
ATOM     59  C   UNL A   1      44.475  25.341  28.916  1.00  0.00     0.074 A 
ATOM     60  C   UNL A   1      46.381  30.228  32.486  1.00  0.00     0.029 A 
ATOM     61  N   UNL A   1      45.218  28.847  31.186  1.00  0.00    -0.354 N 
ATOM     62  N   UNL A   1      44.781  26.385  29.647  1.00  0.00    -0.248 NA
ATOM     63  C   UNL A   1      45.590  24.406  28.710  1.00  0.00     0.031 C 
ATOM     64  C   UNL A   1      47.210  29.164  32.118  1.00  0.00     0.029 A 
ATOM     65  C   UNL A   1      46.478  28.288  31.332  1.00  0.00     0.049 A 
ATOM     66  H   UNL A   1      44.480  28.449  30.671  1.00  0.00     0.167 HD
ATOM     67  C   UNL A   1      46.110  26.220  30.013  1.00  0.00     0.074 A 
ATOM     68  C   UNL A   1      46.547  24.964  29.438  1.00  0.00     0.031 C 
ATOM     69  C   UNL A   1      46.899  27.035  30.757  1.00  0.00     0.037 A 
BRANCH  56  70
ATOM     70  C   UNL A   1      44.115  32.228  32.629  1.00  0.00     0.064 A 
ATOM     71  C   UNL A   1      43.963  32.319  34.021  1.00  0.00     0.173 A 
ATOM     72  C   UNL A   1      44.423  33.403  31.927  1.00  0.00     0.173 A 
ATOM     73  F   UNL A   1      43.659  31.228  34.741  1.00  0.00    -0.203 F 
ATOM     74  C   UNL A   1      44.081  33.542  34.679  1.00  0.00     0.198 A 
ATOM     75  C   UNL A   1      44.575  34.618  32.591  1.00  0.00     0.198 A 
ATOM     76  F   UNL A   1      44.588  33.374  30.596  1.00  0.00    -0.203 F 
ATOM     77  F   UNL A   1      43.879  33.611  36.001  1.00  0.00    -0.200 F 
ATOM     78  C   UNL A   1      44.396  34.688  33.965  1.00  0.00     0.200 A 
ATOM     79  F   UNL A   1      44.896  35.722  31.902  1.00  0.00    -0.200 F 
ATOM     80  F   UNL A   1      44.519  35.862  34.599  1.00  0.00    -0.200 F 
ENDBRANCH  56  70
BRANCH  57  81
ATOM     81  C   UNL A   1      43.018  23.729  27.483  1.00  0.00     0.064 A 
ATOM     82  C   UNL A   1      43.355  23.696  26.122  1.00  0.00     0.173 A 
ATOM     83  C   UNL A   1      42.533  22.547  28.063  1.00  0.00     0.173 A 
ATOM     84  F   UNL A   1      43.804  24.805  25.517  1.00  0.00    -0.203 F 
ATOM     85  C   UNL A   1      43.191  22.536  25.367  1.00  0.00     0.198 A 
ATOM     86  C   UNL A   1      42.402  21.379  27.314  1.00  0.00     0.198 A 
ATOM     87  F   UNL A   1      42.202  22.522  29.361  1.00  0.00    -0.203 F 
ATOM     88  F   UNL A   1      43.472  22.548  24.057  1.00  0.00    -0.200 F 
ATOM     89  C   UNL A   1      42.721  21.377  25.965  1.00  0.00     0.200 A 
ATOM     90  F   UNL A   1      41.963  20.256  27.901  1.00  0.00    -0.200 F 
ATOM     91  F   UNL A   1      42.567  20.261  25.240  1.00  0.00    -0.200 F 
ENDBRANCH  57  81
BRANCH  69  92
ATOM     92  C   UNL A   1      48.305  26.577  31.021  1.00  0.00     0.064 A 
ATOM     93  C   UNL A   1      48.620  25.742  32.103  1.00  0.00     0.173 A 
ATOM     94  C   UNL A   1      49.347  26.953  30.159  1.00  0.00     0.173 A 
ATOM     95  F   UNL A   1      47.664  25.366  32.967  1.00  0.00    -0.203 F 
ATOM     96  C   UNL A   1      49.930  25.326  32.330  1.00  0.00     0.198 A 
ATOM     97  C   UNL A   1      50.649  26.506  30.367  1.00  0.00     0.198 A 
ATOM     98  F   UNL A   1      49.100  27.745  29.104  1.00  0.00    -0.203 F 
ATOM     99  F   UNL A   1      50.216  24.575  33.402  1.00  0.00    -0.200 F 
ATOM    100  C   UNL A   1      50.940  25.701  31.457  1.00  0.00     0.200 A 
ATOM    101  F   UNL A   1      51.620  26.856  29.513  1.00  0.00    -0.200 F 
ATOM    102  F   UNL A   1      52.199  25.293  31.672  1.00  0.00    -0.200 F 
ENDBRANCH  69  92
ENDBRANCH  43  44
ENDBRANCH  35  38
ENDBRANCH  33  34
ENDBRANCH  32  33
ENDBRANCH   1  32
TORSDOF 14
ENDMDL
MODEL 2
REMARK VINA RESULT:     -10.4      6.102     11.996
REMARK SMILES CS(=O)(=O)c1ccc(C2=NN(c3ccc(C(=O)NCCCNC(=O)c4ccc(-c5c6nc(c(-c7c(F)c(F)c(F)c(F)c7F)c7ccc([nH]7)c(-c7c(F)c(F)c(F)c(F)c7F)c7nc(c(-c8c(F)c(F)c(F)c(F)c8F)c8ccc5[nH]8)C=C7)C=C6)cc4)cc3)[C@H](c3cccs3)C2)cc1
REMARK SMILES IDX 19 1 18 2 16 3 17 4 15 6 12 7 13 8 89 9 14 10 88 11 11 12
REMARK SMILES IDX 9 13 10 14 96 15 90 16 8 17 5 18 6 19 98 20 7 21 97 22 2 23
REMARK SMILES IDX 1 24 3 25 4 26 91 27 92 28 95 29 93 30 94 31 20 32 21 33
REMARK SMILES IDX 22 34 23 35 24 37 25 38 26 39 87 40 27 41 86 42 28 43 29 44
REMARK SMILES IDX 30 45 80 46 31 47 85 48 79 49 81 50 32 51 84 52 78 53 77 54
REMARK SMILES IDX 33 56 65 57 45 58 64 59 46 60 49 61 63 62 82 63 47 64 48 65
REMARK SMILES IDX 62 67 83 68 50 69 34 70 35 71 43 72 36 73 37 74 41 75 44 76
REMARK SMILES IDX 38 77 39 78 42 79 40 80 66 81 67 82 75 83 68 84 69 85 73 86
REMARK SMILES IDX 76 87 70 88 71 89 74 90 72 91 51 92 52 93 60 94 53 95 54 96
REMARK SMILES IDX 58 97 61 98 55 99 56 100 59 101 57 102
REMARK H PARENT 18 5 22 36 81 55 49 66
REMARK Flexibility Score: inf
ROOT
ATOM      1  C   UNL A   1      38.458  20.442  24.992  1.00  0.00     0.118 C 
ENDROOT
BRANCH   1   2
ATOM      2  N   UNL A   1      38.976  21.639  25.630  1.00  0.00    -0.352 N 
ATOM      3  C   UNL A   1      38.402  22.858  25.886  1.00  0.00     0.251 C 
ATOM      4  O   UNL A   1      39.059  23.685  26.518  1.00  0.00    -0.269 OA
ATOM      5  H   UNL A   1      39.909  21.561  25.933  1.00  0.00     0.163 HD
BRANCH   3   6
ATOM      6  C   UNL A   1      37.008  23.184  25.483  1.00  0.00     0.039 A 
ATOM      7  C   UNL A   1      34.306  23.692  24.854  1.00  0.00     0.060 A 
ATOM      8  C   UNL A   1      34.724  23.620  26.186  1.00  0.00     0.029 A 
ATOM      9  C   UNL A   1      35.267  23.584  23.849  1.00  0.00     0.029 A 
ATOM     10  C   UNL A   1      36.062  23.361  26.501  1.00  0.00     0.016 A 
ATOM     11  C   UNL A   1      36.608  23.356  24.158  1.00  0.00     0.016 A 
BRANCH   7  12
ATOM     12  N   UNL A   1      32.985  23.912  24.522  1.00  0.00    -0.257 N 
ATOM     13  C   UNL A   1      31.296  25.113  24.118  1.00  0.00     0.071 C 
ATOM     14  N   UNL A   1      32.587  25.153  24.179  1.00  0.00    -0.176 NA
ATOM     15  C   UNL A   1      30.655  23.807  24.503  1.00  0.00     0.091 C 
ATOM     16  C   UNL A   1      31.907  22.927  24.660  1.00  0.00     0.154 C 
BRANCH  13  17
ATOM     17  C   UNL A   1      30.511  26.274  23.687  1.00  0.00    -0.002 A 
ATOM     18  C   UNL A   1      29.125  28.556  22.929  1.00  0.00     0.067 A 
ATOM     19  C   UNL A   1      30.508  28.500  22.738  1.00  0.00     0.021 A 
ATOM     20  C   UNL A   1      28.435  27.477  23.501  1.00  0.00     0.021 A 
ATOM     21  C   UNL A   1      31.202  27.358  23.133  1.00  0.00     0.011 A 
ATOM     22  C   UNL A   1      29.130  26.322  23.872  1.00  0.00     0.011 A 
BRANCH  18  23
ATOM     23  S   UNL A   1      28.192  30.001  22.477  1.00  0.00     0.175 S 
ATOM     24  C   UNL A   1      29.015  31.392  23.202  1.00  0.00     0.163 C 
ATOM     25  O   UNL A   1      26.903  29.883  23.130  1.00  0.00    -0.224 OA
ATOM     26  O   UNL A   1      28.297  30.114  21.034  1.00  0.00    -0.224 OA
ENDBRANCH  18  23
ENDBRANCH  13  17
BRANCH  16  27
ATOM     27  C   UNL A   1      32.015  21.715  23.744  1.00  0.00     0.030 A 
ATOM     28  C   UNL A   1      31.761  21.702  22.378  1.00  0.00     0.017 A 
ATOM     29  S   UNL A   1      32.428  20.141  24.287  1.00  0.00    -0.147 S 
ATOM     30  C   UNL A   1      31.903  20.410  21.794  1.00  0.00     0.012 A 
ATOM     31  C   UNL A   1      32.297  19.474  22.721  1.00  0.00     0.065 A 
ENDBRANCH  16  27
ENDBRANCH   7  12
ENDBRANCH   3   6
ENDBRANCH   1   2
BRANCH   1  32
ATOM     32  C   UNL A   1      39.101  19.184  25.575  1.00  0.00     0.042 C 
BRANCH  32  33
ATOM     33  C   UNL A   1      40.245  19.486  26.537  1.00  0.00     0.118 C 
BRANCH  33  34
ATOM     34  N   UNL A   1      41.481  18.832  26.134  1.00  0.00    -0.352 N 
ATOM     35  C   UNL A   1      42.699  19.368  25.806  1.00  0.00     0.251 C 
ATOM     36  H   UNL A   1      41.434  17.849  26.090  1.00  0.00     0.163 HD
ATOM     37  O   UNL A   1      43.542  18.665  25.256  1.00  0.00    -0.269 OA
BRANCH  35  38
ATOM     38  C   UNL A   1      43.003  20.785  26.099  1.00  0.00     0.039 A 
ATOM     39  C   UNL A   1      43.107  21.188  27.433  1.00  0.00     0.014 A 
ATOM     40  C   UNL A   1      43.139  21.724  25.073  1.00  0.00     0.014 A 
ATOM     41  C   UNL A   1      43.404  22.518  27.737  1.00  0.00     0.010 A 
ATOM     42  C   UNL A   1      43.512  23.032  25.373  1.00  0.00     0.010 A 
ATOM     43  C   UNL A   1      43.645  23.443  26.707  1.00  0.00    -0.014 A 
BRANCH  43  44
ATOM     44  C   UNL A   1      44.050  24.839  27.009  1.00  0.00     0.031 A 
ATOM     45  C   UNL A   1      43.039  25.831  27.513  1.00  0.00     0.074 A 
ATOM     46  C   UNL A   1      45.316  25.228  26.764  1.00  0.00     0.049 A 
ATOM     47  N   UNL A   1      43.184  27.109  27.757  1.00  0.00    -0.248 NA
ATOM     48  C   UNL A   1      41.677  25.326  27.749  1.00  0.00     0.031 C 
ATOM     49  C   UNL A   1      46.375  24.366  26.238  1.00  0.00     0.029 A 
ATOM     50  N   UNL A   1      45.924  26.449  26.913  1.00  0.00    -0.354 N 
ATOM     51  C   UNL A   1      41.935  27.561  28.164  1.00  0.00     0.074 A 
ATOM     52  C   UNL A   1      41.032  26.434  28.082  1.00  0.00     0.031 C 
ATOM     53  C   UNL A   1      47.507  25.079  26.126  1.00  0.00     0.029 A 
ATOM     54  C   UNL A   1      47.242  26.457  26.527  1.00  0.00     0.049 A 
ATOM     55  H   UNL A   1      45.460  27.244  27.262  1.00  0.00     0.167 HD
ATOM     56  C   UNL A   1      41.581  28.798  28.589  1.00  0.00     0.037 A 
ATOM     57  C   UNL A   1      48.133  27.465  26.486  1.00  0.00     0.037 A 
ATOM     58  C   UNL A   1      42.490  29.912  28.678  1.00  0.00     0.049 A 
ATOM     59  C   UNL A   1      47.705  28.836  26.934  1.00  0.00     0.074 A 
ATOM     60  C   UNL A   1      42.244  31.191  29.146  1.00  0.00     0.029 A 
ATOM     61  N   UNL A   1      43.820  29.881  28.281  1.00  0.00    -0.354 N 
ATOM     62  N   UNL A   1      46.541  29.236  27.383  1.00  0.00    -0.248 NA
ATOM     63  C   UNL A   1      48.720  29.897  26.872  1.00  0.00     0.031 C 
ATOM     64  C   UNL A   1      43.406  31.950  28.976  1.00  0.00     0.029 A 
ATOM     65  C   UNL A   1      44.397  31.128  28.464  1.00  0.00     0.049 A 
ATOM     66  H   UNL A   1      44.285  29.091  27.924  1.00  0.00     0.167 HD
ATOM     67  C   UNL A   1      46.688  30.583  27.684  1.00  0.00     0.074 A 
ATOM     68  C   UNL A   1      48.062  30.928  27.385  1.00  0.00     0.031 C 
ATOM     69  C   UNL A   1      45.769  31.457  28.165  1.00  0.00     0.037 A 
BRANCH  56  70
ATOM     70  C   UNL A   1      40.147  29.017  28.982  1.00  0.00     0.064 A 
ATOM     71  C   UNL A   1      39.153  29.288  28.029  1.00  0.00     0.173 A 
ATOM     72  C   UNL A   1      39.754  28.913  30.325  1.00  0.00     0.173 A 
ATOM     73  F   UNL A   1      39.475  29.408  26.732  1.00  0.00    -0.203 F 
ATOM     74  C   UNL A   1      37.826  29.479  28.409  1.00  0.00     0.198 A 
ATOM     75  C   UNL A   1      38.421  29.070  30.697  1.00  0.00     0.198 A 
ATOM     76  F   UNL A   1      40.659  28.647  31.278  1.00  0.00    -0.203 F 
ATOM     77  F   UNL A   1      36.906  29.789  27.486  1.00  0.00    -0.200 F 
ATOM     78  C   UNL A   1      37.460  29.361  29.740  1.00  0.00     0.200 A 
ATOM     79  F   UNL A   1      38.065  28.938  31.983  1.00  0.00    -0.200 F 
ATOM     80  F   UNL A   1      36.182  29.536  30.103  1.00  0.00    -0.200 F 
ENDBRANCH  56  70
BRANCH  57  81
ATOM     81  C   UNL A   1      49.520  27.214  26.013  1.00  0.00     0.064 A 
ATOM     82  C   UNL A   1      49.836  27.260  24.648  1.00  0.00     0.173 A 
ATOM     83  C   UNL A   1      50.556  26.915  26.912  1.00  0.00     0.173 A 
ATOM     84  F   UNL A   1      48.877  27.522  23.748  1.00  0.00    -0.203 F 
ATOM     85  C   UNL A   1      51.127  26.993  24.198  1.00  0.00     0.198 A 
ATOM     86  C   UNL A   1      51.854  26.682  26.462  1.00  0.00     0.198 A 
ATOM     87  F   UNL A   1      50.310  26.864  28.228  1.00  0.00    -0.203 F 
ATOM     88  F   UNL A   1      51.388  26.993  22.883  1.00  0.00    -0.200 F 
ATOM     89  C   UNL A   1      52.137  26.711  25.105  1.00  0.00     0.200 A 
ATOM     90  F   UNL A   1      52.831  26.427  27.344  1.00  0.00    -0.200 F 
ATOM     91  F   UNL A   1      53.379  26.459  24.672  1.00  0.00    -0.200 F 
ENDBRANCH  57  81
BRANCH  69  92
ATOM     92  C   UNL A   1      46.228  32.862  28.430  1.00  0.00     0.064 A 
ATOM     93  C   UNL A   1      46.207  33.848  27.432  1.00  0.00     0.173 A 
ATOM     94  C   UNL A   1      46.661  33.236  29.712  1.00  0.00     0.173 A 
ATOM     95  F   UNL A   1      45.816  33.540  26.186  1.00  0.00    -0.203 F 
ATOM     96  C   UNL A   1      46.634  35.146  27.698  1.00  0.00     0.198 A 
ATOM     97  C   UNL A   1      47.053  34.544  29.984  1.00  0.00     0.198 A 
ATOM     98  F   UNL A   1      46.694  32.335  30.705  1.00  0.00    -0.203 F 
ATOM     99  F   UNL A   1      46.659  36.056  26.715  1.00  0.00    -0.200 F 
ATOM    100  C   UNL A   1      47.048  35.496  28.975  1.00  0.00     0.200 A 
ATOM    101  F   UNL A   1      47.437  34.883  31.223  1.00  0.00    -0.200 F 
ATOM    102  F   UNL A   1      47.451  36.748  29.232  1.00  0.00    -0.200 F 
ENDBRANCH  69  92
ENDBRANCH  43  44
ENDBRANCH  35  38
ENDBRANCH  33  34
ENDBRANCH  32  33
ENDBRANCH   1  32
TORSDOF 14
ENDMDL
MODEL 3
REMARK VINA RESULT:     -10.3      5.968     12.287
REMARK SMILES CS(=O)(=O)c1ccc(C2=NN(c3ccc(C(=O)NCCCNC(=O)c4ccc(-c5c6nc(c(-c7c(F)c(F)c(F)c(F)c7F)c7ccc([nH]7)c(-c7c(F)c(F)c(F)c(F)c7F)c7nc(c(-c8c(F)c(F)c(F)c(F)c8F)c8ccc5[nH]8)C=C7)C=C6)cc4)cc3)[C@H](c3cccs3)C2)cc1
REMARK SMILES IDX 19 1 18 2 16 3 17 4 15 6 12 7 13 8 89 9 14 10 88 11 11 12
REMARK SMILES IDX 9 13 10 14 96 15 90 16 8 17 5 18 6 19 98 20 7 21 97 22 2 23
REMARK SMILES IDX 1 24 3 25 4 26 91 27 92 28 95 29 93 30 94 31 20 32 21 33
REMARK SMILES IDX 22 34 23 35 24 37 25 38 26 39 87 40 27 41 86 42 28 43 29 44
REMARK SMILES IDX 30 45 80 46 31 47 85 48 79 49 81 50 32 51 84 52 78 53 77 54
REMARK SMILES IDX 33 56 65 57 45 58 64 59 46 60 49 61 63 62 82 63 47 64 48 65
REMARK SMILES IDX 62 67 83 68 50 69 34 70 35 71 43 72 36 73 37 74 41 75 44 76
REMARK SMILES IDX 38 77 39 78 42 79 40 80 66 81 67 82 75 83 68 84 69 85 73 86
REMARK SMILES IDX 76 87 70 88 71 89 74 90 72 91 51 92 52 93 60 94 53 95 54 96
REMARK SMILES IDX 58 97 61 98 55 99 56 100 59 101 57 102
REMARK H PARENT 18 5 22 36 81 55 49 66
REMARK Flexibility Score: inf
ROOT
ATOM      1  C   UNL A   1      38.376  20.439  24.980  1.00  0.00     0.118 C 
ENDROOT
BRANCH   1   2
ATOM      2  N   UNL A   1      38.952  21.621  25.596  1.00  0.00    -0.352 N 
ATOM      3  C   UNL A   1      38.427  22.862  25.855  1.00  0.00     0.251 C 
ATOM      4  O   UNL A   1      39.128  23.669  26.465  1.00  0.00    -0.269 OA
ATOM      5  H   UNL A   1      39.889  21.513  25.877  1.00  0.00     0.163 HD
BRANCH   3   6
ATOM      6  C   UNL A   1      37.037  23.235  25.483  1.00  0.00     0.039 A 
ATOM      7  C   UNL A   1      34.340  23.830  24.911  1.00  0.00     0.060 A 
ATOM      8  C   UNL A   1      34.776  23.715  26.233  1.00  0.00     0.029 A 
ATOM      9  C   UNL A   1      35.282  23.720  23.888  1.00  0.00     0.029 A 
ATOM     10  C   UNL A   1      36.112  23.413  26.520  1.00  0.00     0.016 A 
ATOM     11  C   UNL A   1      36.621  23.450  24.170  1.00  0.00     0.016 A 
BRANCH   7  12
ATOM     12  N   UNL A   1      33.021  24.093  24.605  1.00  0.00    -0.257 N 
ATOM     13  C   UNL A   1      31.358  25.347  24.258  1.00  0.00     0.071 C 
ATOM     14  N   UNL A   1      32.651  25.352  24.299  1.00  0.00    -0.176 NA
ATOM     15  C   UNL A   1      30.688  24.050  24.622  1.00  0.00     0.091 C 
ATOM     16  C   UNL A   1      31.919  23.133  24.738  1.00  0.00     0.154 C 
BRANCH  13  17
ATOM     17  C   UNL A   1      30.598  26.539  23.868  1.00  0.00    -0.002 A 
ATOM     18  C   UNL A   1      29.073  28.711  23.056  1.00  0.00     0.067 A 
ATOM     19  C   UNL A   1      28.431  27.553  23.500  1.00  0.00     0.021 A 
ATOM     20  C   UNL A   1      30.473  28.785  23.013  1.00  0.00     0.021 A 
ATOM     21  C   UNL A   1      29.201  26.459  23.894  1.00  0.00     0.011 A 
ATOM     22  C   UNL A   1      31.242  27.697  23.433  1.00  0.00     0.011 A 
BRANCH  18  23
ATOM     23  S   UNL A   1      28.143  30.124  22.509  1.00  0.00     0.175 S 
ATOM     24  C   UNL A   1      29.049  31.562  23.008  1.00  0.00     0.163 C 
ATOM     25  O   UNL A   1      26.902  30.121  23.260  1.00  0.00    -0.224 OA
ATOM     26  O   UNL A   1      28.143  30.070  21.059  1.00  0.00    -0.224 OA
ENDBRANCH  18  23
ENDBRANCH  13  17
BRANCH  16  27
ATOM     27  C   UNL A   1      31.980  21.942  23.790  1.00  0.00     0.030 A 
ATOM     28  C   UNL A   1      31.768  21.982  22.418  1.00  0.00     0.017 A 
ATOM     29  S   UNL A   1      32.276  20.332  24.300  1.00  0.00    -0.147 S 
ATOM     30  C   UNL A   1      31.849  20.700  21.801  1.00  0.00     0.012 A 
ATOM     31  C   UNL A   1      32.153  19.716  22.712  1.00  0.00     0.065 A 
ENDBRANCH  16  27
ENDBRANCH   7  12
ENDBRANCH   3   6
ENDBRANCH   1   2
BRANCH   1  32
ATOM     32  C   UNL A   1      39.090  19.172  25.447  1.00  0.00     0.042 C 
BRANCH  32  33
ATOM     33  C   UNL A   1      40.155  19.438  26.506  1.00  0.00     0.118 C 
BRANCH  33  34
ATOM     34  N   UNL A   1      41.445  18.878  26.131  1.00  0.00    -0.352 N 
ATOM     35  C   UNL A   1      42.626  19.503  25.828  1.00  0.00     0.251 C 
ATOM     36  H   UNL A   1      41.473  17.894  26.087  1.00  0.00     0.163 HD
ATOM     37  O   UNL A   1      43.531  18.865  25.298  1.00  0.00    -0.269 OA
BRANCH  35  38
ATOM     38  C   UNL A   1      42.817  20.939  26.125  1.00  0.00     0.039 A 
ATOM     39  C   UNL A   1      43.017  21.330  27.452  1.00  0.00     0.014 A 
ATOM     40  C   UNL A   1      42.756  21.902  25.116  1.00  0.00     0.014 A 
ATOM     41  C   UNL A   1      43.211  22.678  27.759  1.00  0.00     0.010 A 
ATOM     42  C   UNL A   1      43.026  23.237  25.410  1.00  0.00     0.010 A 
ATOM     43  C   UNL A   1      43.254  23.638  26.734  1.00  0.00    -0.014 A 
BRANCH  43  44
ATOM     44  C   UNL A   1      43.547  25.063  27.029  1.00  0.00     0.031 A 
ATOM     45  C   UNL A   1      44.922  25.621  26.788  1.00  0.00     0.074 A 
ATOM     46  C   UNL A   1      42.590  25.835  27.579  1.00  0.00     0.049 A 
ATOM     47  N   UNL A   1      45.390  26.815  27.055  1.00  0.00    -0.248 NA
ATOM     48  C   UNL A   1      45.910  24.710  26.190  1.00  0.00     0.031 C 
ATOM     49  C   UNL A   1      41.231  25.394  27.896  1.00  0.00     0.029 A 
ATOM     50  N   UNL A   1      42.615  27.147  27.979  1.00  0.00    -0.354 N 
ATOM     51  C   UNL A   1      46.723  26.794  26.669  1.00  0.00     0.074 A 
ATOM     52  C   UNL A   1      47.006  25.456  26.200  1.00  0.00     0.031 C 
ATOM     53  C   UNL A   1      40.547  26.421  28.424  1.00  0.00     0.029 A 
ATOM     54  C   UNL A   1      41.431  27.579  28.525  1.00  0.00     0.049 A 
ATOM     55  H   UNL A   1      43.407  27.725  27.885  1.00  0.00     0.167 HD
ATOM     56  C   UNL A   1      47.623  27.807  26.685  1.00  0.00     0.037 A 
ATOM     57  C   UNL A   1      41.101  28.767  29.062  1.00  0.00     0.037 A 
ATOM     58  C   UNL A   1      47.330  29.141  27.143  1.00  0.00     0.049 A 
ATOM     59  C   UNL A   1      42.128  29.866  29.095  1.00  0.00     0.074 A 
ATOM     60  C   UNL A   1      48.156  30.252  27.150  1.00  0.00     0.029 A 
ATOM     61  N   UNL A   1      46.117  29.541  27.687  1.00  0.00    -0.354 N 
ATOM     62  N   UNL A   1      43.365  29.856  28.663  1.00  0.00    -0.248 NA
ATOM     63  C   UNL A   1      41.710  31.144  29.688  1.00  0.00     0.031 C 
ATOM     64  C   UNL A   1      47.464  31.307  27.752  1.00  0.00     0.029 A 
ATOM     65  C   UNL A   1      46.184  30.875  28.061  1.00  0.00     0.049 A 
ATOM     66  H   UNL A   1      45.327  28.965  27.790  1.00  0.00     0.167 HD
ATOM     67  C   UNL A   1      43.865  31.129  28.904  1.00  0.00     0.074 A 
ATOM     68  C   UNL A   1      42.789  31.891  29.503  1.00  0.00     0.031 C 
ATOM     69  C   UNL A   1      45.103  31.622  28.653  1.00  0.00     0.037 A 
BRANCH  56  70
ATOM     70  C   UNL A   1      49.014  27.511  26.199  1.00  0.00     0.064 A 
ATOM     71  C   UNL A   1      50.052  27.182  27.085  1.00  0.00     0.173 A 
ATOM     72  C   UNL A   1      49.305  27.516  24.826  1.00  0.00     0.173 A 
ATOM     73  F   UNL A   1      49.832  27.172  28.409  1.00  0.00    -0.203 F 
ATOM     74  C   UNL A   1      51.334  26.902  26.618  1.00  0.00     0.198 A 
ATOM     75  C   UNL A   1      50.579  27.201  24.360  1.00  0.00     0.198 A 
ATOM     76  F   UNL A   1      48.350  27.815  23.933  1.00  0.00    -0.203 F 
ATOM     77  F   UNL A   1      52.319  26.642  27.488  1.00  0.00    -0.200 F 
ATOM     78  C   UNL A   1      51.594  26.902  25.256  1.00  0.00     0.200 A 
ATOM     79  F   UNL A   1      50.825  27.186  23.042  1.00  0.00    -0.200 F 
ATOM     80  F   UNL A   1      52.826  26.623  24.808  1.00  0.00    -0.200 F 
ENDBRANCH  56  70
BRANCH  57  81
ATOM     81  C   UNL A   1      39.732  28.985  29.602  1.00  0.00     0.064 A 
ATOM     82  C   UNL A   1      39.440  28.731  30.950  1.00  0.00     0.173 A 
ATOM     83  C   UNL A   1      38.687  29.443  28.785  1.00  0.00     0.173 A 
ATOM     84  F   UNL A   1      40.400  28.273  31.767  1.00  0.00    -0.203 F 
ATOM     85  C   UNL A   1      38.152  28.902  31.453  1.00  0.00     0.198 A 
ATOM     86  C   UNL A   1      37.408  29.645  29.298  1.00  0.00     0.198 A 
ATOM     87  F   UNL A   1      38.913  29.707  27.491  1.00  0.00    -0.203 F 
ATOM     88  F   UNL A   1      37.891  28.602  32.733  1.00  0.00    -0.200 F 
ATOM     89  C   UNL A   1      37.139  29.366  30.629  1.00  0.00     0.200 A 
ATOM     90  F   UNL A   1      36.435  30.111  28.501  1.00  0.00    -0.200 F 
ATOM     91  F   UNL A   1      35.902  29.534  31.113  1.00  0.00    -0.200 F 
ENDBRANCH  57  81
BRANCH  69  92
ATOM     92  C   UNL A   1      45.351  33.064  28.994  1.00  0.00     0.064 A 
ATOM     93  C   UNL A   1      45.885  33.451  30.232  1.00  0.00     0.173 A 
ATOM     94  C   UNL A   1      45.083  34.071  28.053  1.00  0.00     0.173 A 
ATOM     95  F   UNL A   1      46.145  32.530  31.172  1.00  0.00    -0.203 F 
ATOM     96  C   UNL A   1      46.110  34.793  30.528  1.00  0.00     0.198 A 
ATOM     97  C   UNL A   1      45.344  35.409  28.338  1.00  0.00     0.198 A 
ATOM     98  F   UNL A   1      44.579  33.756  26.850  1.00  0.00    -0.203 F 
ATOM     99  F   UNL A   1      46.568  35.143  31.737  1.00  0.00    -0.200 F 
ATOM    100  C   UNL A   1      45.849  35.769  29.578  1.00  0.00     0.200 A 
ATOM    101  F   UNL A   1      45.105  36.348  27.412  1.00  0.00    -0.200 F 
ATOM    102  F   UNL A   1      46.074  37.060  29.861  1.00  0.00    -0.200 F 
ENDBRANCH  69  92
ENDBRANCH  43  44
ENDBRANCH  35  38
ENDBRANCH  33  34
ENDBRANCH  32  33
ENDBRANCH   1  32
TORSDOF 14
ENDMDL
