MODEL 1
REMARK VINA RESULT:     -13.4      0.000      0.000
REMARK SMILES CC(C)Cc1cc2c(cc1Cl)C=C(C(=O)NCCCNC(=O)c1ccc(-c3c4nc(c(-c5c(F)c(F)c(F)c(F)c5F)c5ccc([nH]5)c(-c5c(F)c(F)c(F)c(F)c5F)c5nc(c(-c6c(F)c(F)c(F)c(F)c6F)c6ccc3[nH]6)C=C5)C=C4)cc1)[C@@H](C(F)(F)F)O2
REMARK SMILES IDX 18 1 17 2 16 3 14 4 15 5 13 7 5 8 6 9 10 10 7 11 9 12 11 13
REMARK SMILES IDX 8 14 91 15 12 16 86 17 4 18 2 19 1 20 3 21 87 22 88 23 89 24
REMARK SMILES IDX 90 25 19 26 20 27 21 28 22 30 23 31 24 32 85 33 25 34 84 35
REMARK SMILES IDX 26 36 27 37 28 38 78 39 29 40 83 41 77 42 79 43 30 44 82 45
REMARK SMILES IDX 76 46 75 47 31 49 63 50 43 51 62 52 44 53 47 54 61 55 80 56
REMARK SMILES IDX 45 57 46 58 60 60 81 61 48 62 32 63 33 64 41 65 34 66 35 67
REMARK SMILES IDX 39 68 42 69 36 70 37 71 40 72 38 73 64 74 65 75 73 76 66 77
REMARK SMILES IDX 67 78 71 79 74 80 68 81 69 82 72 83 70 84 49 85 50 86 58 87
REMARK SMILES IDX 51 88 52 89 56 90 59 91 53 92 54 93 57 94 55 95
REMARK H PARENT 16 6 20 29 79 48 47 59
REMARK Flexibility Score: inf
ROOT
ATOM      1  C   UNL A   1      31.523  32.106  26.627  1.00  0.00     0.042 C 
ENDROOT
BRANCH   1   2
ATOM      2  C   UNL A   1      31.734  30.622  26.372  1.00  0.00     0.118 C 
BRANCH   2   3
ATOM      3  N   UNL A   1      31.319  30.245  25.031  1.00  0.00    -0.352 N 
ATOM      4  C   UNL A   1      31.240  29.114  24.294  1.00  0.00     0.251 C 
ATOM      5  O   UNL A   1      30.851  29.278  23.133  1.00  0.00    -0.270 OA
ATOM      6  H   UNL A   1      31.013  31.027  24.518  1.00  0.00     0.163 HD
BRANCH   4   7
ATOM      7  C   UNL A   1      31.572  27.745  24.776  1.00  0.00     0.067 C 
ATOM      8  C   UNL A   1      33.995  23.535  26.192  1.00  0.00    -0.025 A 
ATOM      9  C   UNL A   1      32.692  24.047  26.381  1.00  0.00     0.052 A 
ATOM     10  C   UNL A   1      34.913  24.347  25.501  1.00  0.00     0.045 A 
ATOM     11  C   UNL A   1      32.335  25.311  25.915  1.00  0.00     0.128 A 
ATOM     12  C   UNL A   1      34.566  25.647  25.099  1.00  0.00     0.032 A 
ATOM     13  Cl  UNL A   1      36.489  23.823  25.031  1.00  0.00    -0.084 Cl
ATOM     14  C   UNL A   1      33.276  26.130  25.302  1.00  0.00     0.019 A 
ATOM     15  O   UNL A   1      31.036  25.705  26.088  1.00  0.00    -0.475 OA
ATOM     16  C   UNL A   1      32.886  27.468  24.879  1.00  0.00     0.025 C 
ATOM     17  C   UNL A   1      30.564  26.680  25.109  1.00  0.00     0.314 C 
BRANCH   8  18
ATOM     18  C   UNL A   1      34.226  22.108  26.661  1.00  0.00     0.040 C 
BRANCH  18  19
ATOM     19  C   UNL A   1      34.054  20.919  25.694  1.00  0.00    -0.013 C 
ATOM     20  C   UNL A   1      33.045  21.189  24.580  1.00  0.00     0.008 C 
ATOM     21  C   UNL A   1      35.413  20.559  25.079  1.00  0.00     0.008 C 
ENDBRANCH  18  19
ENDBRANCH   8  18
BRANCH  17  22
ATOM     22  C   UNL A   1      30.034  25.954  23.854  1.00  0.00     0.429 C 
ATOM     23  F   UNL A   1      28.755  26.328  23.598  1.00  0.00    -0.167 F 
ATOM     24  F   UNL A   1      30.749  26.255  22.742  1.00  0.00    -0.167 F 
ATOM     25  F   UNL A   1      30.048  24.609  23.972  1.00  0.00    -0.167 F 
ENDBRANCH  17  22
ENDBRANCH   4   7
ENDBRANCH   2   3
ENDBRANCH   1   2
BRANCH   1  26
ATOM     26  C   UNL A   1      32.730  32.763  27.285  1.00  0.00     0.118 C 
BRANCH  26  27
ATOM     27  N   UNL A   1      32.475  34.157  27.641  1.00  0.00    -0.352 N 
ATOM     28  C   UNL A   1      33.015  34.933  28.639  1.00  0.00     0.251 C 
ATOM     29  H   UNL A   1      31.810  34.613  27.078  1.00  0.00     0.163 HD
ATOM     30  O   UNL A   1      32.504  36.013  28.922  1.00  0.00    -0.269 OA
BRANCH  28  31
ATOM     31  C   UNL A   1      34.198  34.458  29.385  1.00  0.00     0.039 A 
ATOM     32  C   UNL A   1      35.479  34.680  28.884  1.00  0.00     0.014 A 
ATOM     33  C   UNL A   1      34.026  33.780  30.595  1.00  0.00     0.014 A 
ATOM     34  C   UNL A   1      36.564  34.049  29.474  1.00  0.00     0.010 A 
ATOM     35  C   UNL A   1      35.136  33.240  31.251  1.00  0.00     0.010 A 
ATOM     36  C   UNL A   1      36.408  33.321  30.665  1.00  0.00    -0.014 A 
BRANCH  36  37
ATOM     37  C   UNL A   1      37.597  32.658  31.258  1.00  0.00     0.031 A 
ATOM     38  C   UNL A   1      38.042  32.982  32.658  1.00  0.00     0.074 A 
ATOM     39  C   UNL A   1      38.221  31.693  30.556  1.00  0.00     0.049 A 
ATOM     40  N   UNL A   1      39.023  32.459  33.352  1.00  0.00    -0.248 NA
ATOM     41  C   UNL A   1      37.297  34.028  33.375  1.00  0.00     0.031 C 
ATOM     42  C   UNL A   1      37.872  31.287  29.193  1.00  0.00     0.029 A 
ATOM     43  N   UNL A   1      39.244  30.846  30.901  1.00  0.00    -0.354 N 
ATOM     44  C   UNL A   1      39.029  33.129  34.568  1.00  0.00     0.074 A 
ATOM     45  C   UNL A   1      37.971  34.113  34.515  1.00  0.00     0.031 C 
ATOM     46  C   UNL A   1      38.606  30.221  28.849  1.00  0.00     0.029 A 
ATOM     47  C   UNL A   1      39.530  29.913  29.934  1.00  0.00     0.049 A 
ATOM     48  H   UNL A   1      39.726  30.901  31.757  1.00  0.00     0.167 HD
ATOM     49  C   UNL A   1      39.838  32.931  35.636  1.00  0.00     0.037 A 
ATOM     50  C   UNL A   1      40.442  28.922  29.918  1.00  0.00     0.037 A 
ATOM     51  C   UNL A   1      40.863  31.922  35.699  1.00  0.00     0.049 A 
ATOM     52  C   UNL A   1      41.339  28.739  31.107  1.00  0.00     0.074 A 
ATOM     53  C   UNL A   1      41.713  31.622  36.750  1.00  0.00     0.029 A 
ATOM     54  N   UNL A   1      41.171  31.044  34.671  1.00  0.00    -0.354 N 
ATOM     55  N   UNL A   1      41.336  29.383  32.248  1.00  0.00    -0.248 NA
ATOM     56  C   UNL A   1      42.379  27.708  30.999  1.00  0.00     0.031 C 
ATOM     57  C   UNL A   1      42.561  30.588  36.343  1.00  0.00     0.029 A 
ATOM     58  C   UNL A   1      42.215  30.217  35.054  1.00  0.00     0.049 A 
ATOM     59  H   UNL A   1      40.717  31.014  33.798  1.00  0.00     0.167 HD
ATOM     60  C   UNL A   1      42.371  28.841  32.994  1.00  0.00     0.074 A 
ATOM     61  C   UNL A   1      42.964  27.794  32.186  1.00  0.00     0.031 C 
ATOM     62  C   UNL A   1      42.797  29.188  34.231  1.00  0.00     0.037 A 
BRANCH  49  63
ATOM     63  C   UNL A   1      39.659  33.825  36.828  1.00  0.00     0.064 A 
ATOM     64  C   UNL A   1      40.253  35.093  36.894  1.00  0.00     0.173 A 
ATOM     65  C   UNL A   1      38.829  33.432  37.890  1.00  0.00     0.173 A 
ATOM     66  F   UNL A   1      41.065  35.511  35.910  1.00  0.00    -0.203 F 
ATOM     67  C   UNL A   1      40.034  35.930  37.985  1.00  0.00     0.198 A 
ATOM     68  C   UNL A   1      38.594  34.281  38.968  1.00  0.00     0.198 A 
ATOM     69  F   UNL A   1      38.233  32.231  37.873  1.00  0.00    -0.203 F 
ATOM     70  F   UNL A   1      40.639  37.126  38.042  1.00  0.00    -0.200 F 
ATOM     71  C   UNL A   1      39.200  35.527  39.016  1.00  0.00     0.200 A 
ATOM     72  F   UNL A   1      37.778  33.895  39.958  1.00  0.00    -0.200 F 
ATOM     73  F   UNL A   1      38.982  36.340  40.060  1.00  0.00    -0.200 F 
ENDBRANCH  49  63
BRANCH  50  74
ATOM     74  C   UNL A   1      40.535  28.036  28.731  1.00  0.00     0.064 A 
ATOM     75  C   UNL A   1      39.812  26.838  28.668  1.00  0.00     0.173 A 
ATOM     76  C   UNL A   1      41.305  28.396  27.614  1.00  0.00     0.173 A 
ATOM     77  F   UNL A   1      39.076  26.444  29.718  1.00  0.00    -0.203 F 
ATOM     78  C   UNL A   1      39.853  26.034  27.530  1.00  0.00     0.198 A 
ATOM     79  C   UNL A   1      41.323  27.605  26.468  1.00  0.00     0.198 A 
ATOM     80  F   UNL A   1      42.011  29.536  27.624  1.00  0.00    -0.203 F 
ATOM     81  F   UNL A   1      39.168  24.883  27.502  1.00  0.00    -0.200 F 
ATOM     82  C   UNL A   1      40.599  26.423  26.428  1.00  0.00     0.200 A 
ATOM     83  F   UNL A   1      42.031  27.995  25.398  1.00  0.00    -0.200 F 
ATOM     84  F   UNL A   1      40.620  25.661  25.327  1.00  0.00    -0.200 F 
ENDBRANCH  50  74
BRANCH  62  85
ATOM     85  C   UNL A   1      43.967  28.437  34.791  1.00  0.00     0.064 A 
ATOM     86  C   UNL A   1      45.274  28.927  34.655  1.00  0.00     0.173 A 
ATOM     87  C   UNL A   1      43.775  27.259  35.527  1.00  0.00     0.173 A 
ATOM     88  F   UNL A   1      45.507  30.043  33.948  1.00  0.00    -0.203 F 
ATOM     89  C   UNL A   1      46.349  28.259  35.233  1.00  0.00     0.198 A 
ATOM     90  C   UNL A   1      44.849  26.607  36.123  1.00  0.00     0.198 A 
ATOM     91  F   UNL A   1      42.541  26.756  35.688  1.00  0.00    -0.203 F 
ATOM     92  F   UNL A   1      47.594  28.729  35.070  1.00  0.00    -0.200 F 
ATOM     93  C   UNL A   1      46.136  27.105  35.973  1.00  0.00     0.200 A 
ATOM     94  F   UNL A   1      44.640  25.499  36.847  1.00  0.00    -0.200 F 
ATOM     95  F   UNL A   1      47.171  26.471  36.541  1.00  0.00    -0.200 F 
ENDBRANCH  62  85
ENDBRANCH  36  37
ENDBRANCH  28  31
ENDBRANCH  26  27
ENDBRANCH   1  26
TORSDOF 13
ENDMDL
MODEL 2
REMARK VINA RESULT:     -13.3      5.494     10.571
REMARK SMILES CC(C)Cc1cc2c(cc1Cl)C=C(C(=O)NCCCNC(=O)c1ccc(-c3c4nc(c(-c5c(F)c(F)c(F)c(F)c5F)c5ccc([nH]5)c(-c5c(F)c(F)c(F)c(F)c5F)c5nc(c(-c6c(F)c(F)c(F)c(F)c6F)c6ccc3[nH]6)C=C5)C=C4)cc1)[C@@H](C(F)(F)F)O2
REMARK SMILES IDX 18 1 17 2 16 3 14 4 15 5 13 7 5 8 6 9 10 10 7 11 9 12 11 13
REMARK SMILES IDX 8 14 91 15 12 16 86 17 4 18 2 19 1 20 3 21 87 22 88 23 89 24
REMARK SMILES IDX 90 25 19 26 20 27 21 28 22 30 23 31 24 32 85 33 25 34 84 35
REMARK SMILES IDX 26 36 27 37 28 38 78 39 29 40 83 41 77 42 79 43 30 44 82 45
REMARK SMILES IDX 76 46 75 47 31 49 63 50 43 51 62 52 44 53 47 54 61 55 80 56
REMARK SMILES IDX 45 57 46 58 60 60 81 61 48 62 32 63 33 64 41 65 34 66 35 67
REMARK SMILES IDX 39 68 42 69 36 70 37 71 40 72 38 73 64 74 65 75 73 76 66 77
REMARK SMILES IDX 67 78 71 79 74 80 68 81 69 82 72 83 70 84 49 85 50 86 58 87
REMARK SMILES IDX 51 88 52 89 56 90 59 91 53 92 54 93 57 94 55 95
REMARK H PARENT 16 6 20 29 79 48 47 59
REMARK Flexibility Score: inf
ROOT
ATOM      1  C   UNL A   1      37.809  19.890  25.016  1.00  0.00     0.042 C 
ENDROOT
BRANCH   1   2
ATOM      2  C   UNL A   1      36.631  20.832  25.214  1.00  0.00     0.118 C 
BRANCH   2   3
ATOM      3  N   UNL A   1      35.385  20.230  24.769  1.00  0.00    -0.352 N 
ATOM      4  C   UNL A   1      34.079  20.573  24.711  1.00  0.00     0.251 C 
ATOM      5  O   UNL A   1      33.330  19.693  24.275  1.00  0.00    -0.270 OA
ATOM      6  H   UNL A   1      35.532  19.325  24.411  1.00  0.00     0.163 HD
BRANCH   4   7
ATOM      7  C   UNL A   1      33.513  21.889  25.119  1.00  0.00     0.067 C 
ATOM      8  C   UNL A   1      32.182  26.767  25.316  1.00  0.00    -0.025 A 
ATOM      9  C   UNL A   1      31.749  25.588  25.963  1.00  0.00     0.052 A 
ATOM     10  C   UNL A   1      33.180  26.634  24.334  1.00  0.00     0.045 A 
ATOM     11  C   UNL A   1      32.279  24.342  25.632  1.00  0.00     0.128 A 
ATOM     12  C   UNL A   1      33.656  25.368  23.956  1.00  0.00     0.032 A 
ATOM     13  Cl  UNL A   1      33.948  27.973  23.562  1.00  0.00    -0.084 Cl
ATOM     14  C   UNL A   1      33.209  24.220  24.605  1.00  0.00     0.019 A 
ATOM     15  O   UNL A   1      31.847  23.260  26.350  1.00  0.00    -0.475 OA
ATOM     16  C   UNL A   1      33.700  22.898  24.245  1.00  0.00     0.025 C 
ATOM     17  C   UNL A   1      32.803  22.158  26.415  1.00  0.00     0.314 C 
BRANCH   8  18
ATOM     18  C   UNL A   1      31.596  28.068  25.837  1.00  0.00     0.040 C 
BRANCH  18  19
ATOM     19  C   UNL A   1      32.248  28.813  27.020  1.00  0.00    -0.013 C 
ATOM     20  C   UNL A   1      33.745  28.536  27.154  1.00  0.00     0.008 C 
ATOM     21  C   UNL A   1      32.019  30.322  26.863  1.00  0.00     0.008 C 
ENDBRANCH  18  19
ENDBRANCH   8  18
BRANCH  17  22
ATOM     22  C   UNL A   1      33.779  22.376  27.591  1.00  0.00     0.429 C 
ATOM     23  F   UNL A   1      33.100  22.744  28.707  1.00  0.00    -0.167 F 
ATOM     24  F   UNL A   1      34.460  21.249  27.913  1.00  0.00    -0.167 F 
ATOM     25  F   UNL A   1      34.703  23.330  27.345  1.00  0.00    -0.167 F 
ENDBRANCH  17  22
ENDBRANCH   4   7
ENDBRANCH   2   3
ENDBRANCH   1   2
BRANCH   1  26
ATOM     26  C   UNL A   1      39.048  20.337  25.781  1.00  0.00     0.118 C 
BRANCH  26  27
ATOM     27  N   UNL A   1      40.054  19.281  25.870  1.00  0.00    -0.352 N 
ATOM     28  C   UNL A   1      41.411  19.360  26.073  1.00  0.00     0.251 C 
ATOM     29  H   UNL A   1      39.704  18.366  25.769  1.00  0.00     0.163 HD
ATOM     30  O   UNL A   1      42.118  18.373  25.887  1.00  0.00    -0.269 OA
BRANCH  28  31
ATOM     31  C   UNL A   1      42.022  20.637  26.492  1.00  0.00     0.039 A 
ATOM     32  C   UNL A   1      42.196  20.920  27.846  1.00  0.00     0.014 A 
ATOM     33  C   UNL A   1      42.421  21.564  25.524  1.00  0.00     0.014 A 
ATOM     34  C   UNL A   1      42.567  22.199  28.236  1.00  0.00     0.010 A 
ATOM     35  C   UNL A   1      42.904  22.814  25.920  1.00  0.00     0.010 A 
ATOM     36  C   UNL A   1      42.927  23.162  27.280  1.00  0.00    -0.014 A 
BRANCH  36  37
ATOM     37  C   UNL A   1      43.313  24.519  27.743  1.00  0.00     0.031 A 
ATOM     38  C   UNL A   1      44.751  24.960  27.723  1.00  0.00     0.074 A 
ATOM     39  C   UNL A   1      42.344  25.385  28.099  1.00  0.00     0.049 A 
ATOM     40  N   UNL A   1      45.260  26.126  28.039  1.00  0.00    -0.248 NA
ATOM     41  C   UNL A   1      45.753  23.970  27.299  1.00  0.00     0.031 C 
ATOM     42  C   UNL A   1      40.915  25.071  28.148  1.00  0.00     0.029 A 
ATOM     43  N   UNL A   1      42.403  26.712  28.439  1.00  0.00    -0.354 N 
ATOM     44  C   UNL A   1      46.633  25.999  27.879  1.00  0.00     0.074 A 
ATOM     45  C   UNL A   1      46.886  24.639  27.459  1.00  0.00     0.031 C 
ATOM     46  C   UNL A   1      40.228  26.189  28.416  1.00  0.00     0.029 A 
ATOM     47  C   UNL A   1      41.168  27.282  28.631  1.00  0.00     0.049 A 
ATOM     48  H   UNL A   1      43.248  27.209  28.537  1.00  0.00     0.167 HD
ATOM     49  C   UNL A   1      47.592  26.939  28.055  1.00  0.00     0.037 A 
ATOM     50  C   UNL A   1      40.829  28.545  28.954  1.00  0.00     0.037 A 
ATOM     51  C   UNL A   1      47.330  28.303  28.433  1.00  0.00     0.049 A 
ATOM     52  C   UNL A   1      41.914  29.559  29.164  1.00  0.00     0.074 A 
ATOM     53  C   UNL A   1      48.233  29.338  28.605  1.00  0.00     0.029 A 
ATOM     54  N   UNL A   1      46.070  28.823  28.690  1.00  0.00    -0.354 N 
ATOM     55  N   UNL A   1      43.209  29.424  29.013  1.00  0.00    -0.248 NA
ATOM     56  C   UNL A   1      41.495  30.895  29.608  1.00  0.00     0.031 C 
ATOM     57  C   UNL A   1      47.523  30.474  29.004  1.00  0.00     0.029 A 
ATOM     58  C   UNL A   1      46.175  30.159  29.043  1.00  0.00     0.049 A 
ATOM     59  H   UNL A   1      45.228  28.318  28.632  1.00  0.00     0.167 HD
ATOM     60  C   UNL A   1      43.761  30.651  29.346  1.00  0.00     0.074 A 
ATOM     61  C   UNL A   1      42.657  31.530  29.680  1.00  0.00     0.031 C 
ATOM     62  C   UNL A   1      45.065  31.013  29.381  1.00  0.00     0.037 A 
BRANCH  49  63
ATOM     63  C   UNL A   1      49.021  26.529  27.850  1.00  0.00     0.064 A 
ATOM     64  C   UNL A   1      49.583  26.431  26.569  1.00  0.00     0.173 A 
ATOM     65  C   UNL A   1      49.856  26.295  28.954  1.00  0.00     0.173 A 
ATOM     66  F   UNL A   1      48.824  26.633  25.481  1.00  0.00    -0.203 F 
ATOM     67  C   UNL A   1      50.925  26.099  26.400  1.00  0.00     0.198 A 
ATOM     68  C   UNL A   1      51.202  25.987  28.782  1.00  0.00     0.198 A 
ATOM     69  F   UNL A   1      49.369  26.381  30.200  1.00  0.00    -0.203 F 
ATOM     70  F   UNL A   1      51.433  25.978  25.165  1.00  0.00    -0.200 F 
ATOM     71  C   UNL A   1      51.735  25.885  27.505  1.00  0.00     0.200 A 
ATOM     72  F   UNL A   1      51.987  25.792  29.850  1.00  0.00    -0.200 F 
ATOM     73  F   UNL A   1      53.029  25.578  27.339  1.00  0.00    -0.200 F 
ENDBRANCH  49  63
BRANCH  50  74
ATOM     74  C   UNL A   1      39.394  28.902  29.092  1.00  0.00     0.064 A 
ATOM     75  C   UNL A   1      38.751  28.827  30.334  1.00  0.00     0.173 A 
ATOM     76  C   UNL A   1      38.654  29.376  27.998  1.00  0.00     0.173 A 
ATOM     77  F   UNL A   1      39.413  28.364  31.405  1.00  0.00    -0.203 F 
ATOM     78  C   UNL A   1      37.421  29.217  30.478  1.00  0.00     0.198 A 
ATOM     79  C   UNL A   1      37.333  29.790  28.149  1.00  0.00     0.198 A 
ATOM     80  F   UNL A   1      39.227  29.469  26.789  1.00  0.00    -0.203 F 
ATOM     81  F   UNL A   1      36.822  29.118  31.672  1.00  0.00    -0.200 F 
ATOM     82  C   UNL A   1      36.717  29.708  29.388  1.00  0.00     0.200 A 
ATOM     83  F   UNL A   1      36.663  30.282  27.098  1.00  0.00    -0.200 F 
ATOM     84  F   UNL A   1      35.445  30.104  29.532  1.00  0.00    -0.200 F 
ENDBRANCH  50  74
BRANCH  62  85
ATOM     85  C   UNL A   1      45.378  32.416  29.804  1.00  0.00     0.064 A 
ATOM     86  C   UNL A   1      45.677  32.721  31.140  1.00  0.00     0.173 A 
ATOM     87  C   UNL A   1      45.450  33.449  28.858  1.00  0.00     0.173 A 
ATOM     88  F   UNL A   1      45.607  31.768  32.081  1.00  0.00    -0.203 F 
ATOM     89  C   UNL A   1      46.030  34.013  31.514  1.00  0.00     0.198 A 
ATOM     90  C   UNL A   1      45.826  34.735  29.232  1.00  0.00     0.198 A 
ATOM     91  F   UNL A   1      45.178  33.203  27.567  1.00  0.00    -0.203 F 
ATOM     92  F   UNL A   1      46.286  34.290  32.800  1.00  0.00    -0.200 F 
ATOM     93  C   UNL A   1      46.113  35.017  30.560  1.00  0.00     0.200 A 
ATOM     94  F   UNL A   1      45.917  35.700  28.307  1.00  0.00    -0.200 F 
ATOM     95  F   UNL A   1      46.467  36.258  30.920  1.00  0.00    -0.200 F 
ENDBRANCH  62  85
ENDBRANCH  36  37
ENDBRANCH  28  31
ENDBRANCH  26  27
ENDBRANCH   1  26
TORSDOF 13
ENDMDL
MODEL 3
REMARK VINA RESULT:     -13.3      0.227      1.638
REMARK SMILES CC(C)Cc1cc2c(cc1Cl)C=C(C(=O)NCCCNC(=O)c1ccc(-c3c4nc(c(-c5c(F)c(F)c(F)c(F)c5F)c5ccc([nH]5)c(-c5c(F)c(F)c(F)c(F)c5F)c5nc(c(-c6c(F)c(F)c(F)c(F)c6F)c6ccc3[nH]6)C=C5)C=C4)cc1)[C@@H](C(F)(F)F)O2
REMARK SMILES IDX 18 1 17 2 16 3 14 4 15 5 13 7 5 8 6 9 10 10 7 11 9 12 11 13
REMARK SMILES IDX 8 14 91 15 12 16 86 17 4 18 2 19 1 20 3 21 87 22 88 23 89 24
REMARK SMILES IDX 90 25 19 26 20 27 21 28 22 30 23 31 24 32 85 33 25 34 84 35
REMARK SMILES IDX 26 36 27 37 28 38 78 39 29 40 83 41 77 42 79 43 30 44 82 45
REMARK SMILES IDX 76 46 75 47 31 49 63 50 43 51 62 52 44 53 47 54 61 55 80 56
REMARK SMILES IDX 45 57 46 58 60 60 81 61 48 62 32 63 33 64 41 65 34 66 35 67
REMARK SMILES IDX 39 68 42 69 36 70 37 71 40 72 38 73 64 74 65 75 73 76 66 77
REMARK SMILES IDX 67 78 71 79 74 80 68 81 69 82 72 83 70 84 49 85 50 86 58 87
REMARK SMILES IDX 51 88 52 89 56 90 59 91 53 92 54 93 57 94 55 95
REMARK H PARENT 16 6 20 29 79 48 47 59
REMARK Flexibility Score: inf
ROOT
ATOM      1  C   UNL A   1      31.465  32.082  26.549  1.00  0.00     0.042 C 
ENDROOT
BRANCH   1   2
ATOM      2  C   UNL A   1      31.644  30.595  26.287  1.00  0.00     0.118 C 
BRANCH   2   3
ATOM      3  N   UNL A   1      31.206  30.231  24.949  1.00  0.00    -0.352 N 
ATOM      4  C   UNL A   1      31.103  29.106  24.207  1.00  0.00     0.251 C 
ATOM      5  O   UNL A   1      30.700  29.281  23.053  1.00  0.00    -0.270 OA
ATOM      6  H   UNL A   1      30.901  31.020  24.446  1.00  0.00     0.163 HD
BRANCH   4   7
ATOM      7  C   UNL A   1      31.426  27.730  24.676  1.00  0.00     0.067 C 
ATOM      8  C   UNL A   1      33.821  23.483  26.028  1.00  0.00    -0.025 A 
ATOM      9  C   UNL A   1      32.527  24.010  26.243  1.00  0.00     0.052 A 
ATOM     10  C   UNL A   1      34.736  24.286  25.326  1.00  0.00     0.045 A 
ATOM     11  C   UNL A   1      32.179  25.281  25.789  1.00  0.00     0.128 A 
ATOM     12  C   UNL A   1      34.399  25.593  24.937  1.00  0.00     0.032 A 
ATOM     13  Cl  UNL A   1      36.297  23.745  24.826  1.00  0.00    -0.084 Cl
ATOM     14  C   UNL A   1      33.119  26.091  25.165  1.00  0.00     0.019 A 
ATOM     15  O   UNL A   1      30.887  25.689  25.987  1.00  0.00    -0.475 OA
ATOM     16  C   UNL A   1      32.738  27.436  24.755  1.00  0.00     0.025 C 
ATOM     17  C   UNL A   1      30.412  26.676  25.021  1.00  0.00     0.314 C 
BRANCH   8  18
ATOM     18  C   UNL A   1      34.042  22.051  26.486  1.00  0.00     0.040 C 
BRANCH  18  19
ATOM     19  C   UNL A   1      33.871  20.870  25.508  1.00  0.00    -0.013 C 
ATOM     20  C   UNL A   1      32.972  21.201  24.317  1.00  0.00     0.008 C 
ATOM     21  C   UNL A   1      35.247  20.422  25.001  1.00  0.00     0.008 C 
ENDBRANCH  18  19
ENDBRANCH   8  18
BRANCH  17  22
ATOM     22  C   UNL A   1      29.850  25.964  23.772  1.00  0.00     0.429 C 
ATOM     23  F   UNL A   1      30.582  26.286  22.676  1.00  0.00    -0.167 F 
ATOM     24  F   UNL A   1      29.900  24.613  23.881  1.00  0.00    -0.167 F 
ATOM     25  F   UNL A   1      28.564  26.284  23.511  1.00  0.00    -0.167 F 
ENDBRANCH  17  22
ENDBRANCH   4   7
ENDBRANCH   2   3
ENDBRANCH   1   2
BRANCH   1  26
ATOM     26  C   UNL A   1      32.644  32.688  27.300  1.00  0.00     0.118 C 
BRANCH  26  27
ATOM     27  N   UNL A   1      32.427  34.095  27.626  1.00  0.00    -0.352 N 
ATOM     28  C   UNL A   1      33.007  34.884  28.591  1.00  0.00     0.251 C 
ATOM     29  H   UNL A   1      31.760  34.553  27.066  1.00  0.00     0.163 HD
ATOM     30  O   UNL A   1      32.526  35.982  28.858  1.00  0.00    -0.269 OA
BRANCH  28  31
ATOM     31  C   UNL A   1      34.195  34.402  29.324  1.00  0.00     0.039 A 
ATOM     32  C   UNL A   1      35.469  34.572  28.784  1.00  0.00     0.014 A 
ATOM     33  C   UNL A   1      34.036  33.769  30.560  1.00  0.00     0.014 A 
ATOM     34  C   UNL A   1      36.551  33.931  29.368  1.00  0.00     0.010 A 
ATOM     35  C   UNL A   1      35.148  33.221  31.206  1.00  0.00     0.010 A 
ATOM     36  C   UNL A   1      36.406  33.248  30.586  1.00  0.00    -0.014 A 
BRANCH  36  37
ATOM     37  C   UNL A   1      37.592  32.573  31.171  1.00  0.00     0.031 A 
ATOM     38  C   UNL A   1      38.047  32.888  32.570  1.00  0.00     0.074 A 
ATOM     39  C   UNL A   1      38.204  31.603  30.464  1.00  0.00     0.049 A 
ATOM     40  N   UNL A   1      39.026  32.356  33.258  1.00  0.00    -0.248 NA
ATOM     41  C   UNL A   1      37.316  33.940  33.293  1.00  0.00     0.031 C 
ATOM     42  C   UNL A   1      37.844  31.204  29.102  1.00  0.00     0.029 A 
ATOM     43  N   UNL A   1      39.220  30.746  30.801  1.00  0.00    -0.354 N 
ATOM     44  C   UNL A   1      39.045  33.022  34.475  1.00  0.00     0.074 A 
ATOM     45  C   UNL A   1      37.995  34.016  34.430  1.00  0.00     0.031 C 
ATOM     46  C   UNL A   1      38.567  30.133  28.751  1.00  0.00     0.029 A 
ATOM     47  C   UNL A   1      39.493  29.813  29.831  1.00  0.00     0.049 A 
ATOM     48  H   UNL A   1      39.707  30.795  31.656  1.00  0.00     0.167 HD
ATOM     49  C   UNL A   1      39.857  32.814  35.539  1.00  0.00     0.037 A 
ATOM     50  C   UNL A   1      40.395  28.814  29.808  1.00  0.00     0.037 A 
ATOM     51  C   UNL A   1      40.873  31.796  35.594  1.00  0.00     0.049 A 
ATOM     52  C   UNL A   1      41.297  28.620  30.992  1.00  0.00     0.074 A 
ATOM     53  C   UNL A   1      41.725  31.485  36.640  1.00  0.00     0.029 A 
ATOM     54  N   UNL A   1      41.168  30.917  34.562  1.00  0.00    -0.354 N 
ATOM     55  N   UNL A   1      41.305  29.261  32.135  1.00  0.00    -0.248 NA
ATOM     56  C   UNL A   1      42.326  27.579  30.876  1.00  0.00     0.031 C 
ATOM     57  C   UNL A   1      42.562  30.444  36.226  1.00  0.00     0.029 A 
ATOM     58  C   UNL A   1      42.206  30.079  34.938  1.00  0.00     0.049 A 
ATOM     59  H   UNL A   1      40.709  30.893  33.692  1.00  0.00     0.167 HD
ATOM     60  C   UNL A   1      42.339  28.707  32.874  1.00  0.00     0.074 A 
ATOM     61  C   UNL A   1      42.919  27.657  32.060  1.00  0.00     0.031 C 
ATOM     62  C   UNL A   1      42.775  29.047  34.110  1.00  0.00     0.037 A 
BRANCH  49  63
ATOM     63  C   UNL A   1      39.692  33.707  36.733  1.00  0.00     0.064 A 
ATOM     64  C   UNL A   1      40.336  34.949  36.819  1.00  0.00     0.173 A 
ATOM     65  C   UNL A   1      38.828  33.341  37.777  1.00  0.00     0.173 A 
ATOM     66  F   UNL A   1      41.182  35.340  35.854  1.00  0.00    -0.203 F 
ATOM     67  C   UNL A   1      40.131  35.787  37.913  1.00  0.00     0.198 A 
ATOM     68  C   UNL A   1      38.607  34.191  38.857  1.00  0.00     0.198 A 
ATOM     69  F   UNL A   1      38.184  32.165  37.741  1.00  0.00    -0.203 F 
ATOM     70  F   UNL A   1      40.783  36.957  37.990  1.00  0.00    -0.200 F 
ATOM     71  C   UNL A   1      39.262  35.412  38.926  1.00  0.00     0.200 A 
ATOM     72  F   UNL A   1      37.758  33.833  39.830  1.00  0.00    -0.200 F 
ATOM     73  F   UNL A   1      39.058  36.226  39.971  1.00  0.00    -0.200 F 
ENDBRANCH  49  63
BRANCH  50  74
ATOM     74  C   UNL A   1      40.475  27.930  28.618  1.00  0.00     0.064 A 
ATOM     75  C   UNL A   1      41.266  28.278  27.516  1.00  0.00     0.173 A 
ATOM     76  C   UNL A   1      39.807  26.697  28.581  1.00  0.00     0.173 A 
ATOM     77  F   UNL A   1      41.910  29.455  27.498  1.00  0.00    -0.203 F 
ATOM     78  C   UNL A   1      41.389  27.424  26.422  1.00  0.00     0.198 A 
ATOM     79  C   UNL A   1      39.952  25.832  27.499  1.00  0.00     0.198 A 
ATOM     80  F   UNL A   1      39.041  26.317  29.614  1.00  0.00    -0.203 F 
ATOM     81  F   UNL A   1      42.136  27.788  25.371  1.00  0.00    -0.200 F 
ATOM     82  C   UNL A   1      40.741  26.198  26.419  1.00  0.00     0.200 A 
ATOM     83  F   UNL A   1      39.339  24.640  27.510  1.00  0.00    -0.200 F 
ATOM     84  F   UNL A   1      40.878  25.367  25.377  1.00  0.00    -0.200 F 
ENDBRANCH  50  74
BRANCH  62  85
ATOM     85  C   UNL A   1      43.940  28.285  34.662  1.00  0.00     0.064 A 
ATOM     86  C   UNL A   1      43.753  27.099  35.387  1.00  0.00     0.173 A 
ATOM     87  C   UNL A   1      45.255  28.702  34.404  1.00  0.00     0.173 A 
ATOM     88  F   UNL A   1      42.514  26.669  35.669  1.00  0.00    -0.203 F 
ATOM     89  C   UNL A   1      44.842  26.361  35.841  1.00  0.00     0.198 A 
ATOM     90  C   UNL A   1      46.341  27.949  34.839  1.00  0.00     0.198 A 
ATOM     91  F   UNL A   1      45.483  29.826  33.709  1.00  0.00    -0.203 F 
ATOM     92  F   UNL A   1      44.641  25.244  36.554  1.00  0.00    -0.200 F 
ATOM     93  C   UNL A   1      46.134  26.781  35.560  1.00  0.00     0.200 A 
ATOM     94  F   UNL A   1      47.587  28.349  34.557  1.00  0.00    -0.200 F 
ATOM     95  F   UNL A   1      47.181  26.061  35.985  1.00  0.00    -0.200 F 
ENDBRANCH  62  85
ENDBRANCH  36  37
ENDBRANCH  28  31
ENDBRANCH  26  27
ENDBRANCH   1  26
TORSDOF 13
ENDMDL
