MODEL 1
REMARK VINA RESULT:     -12.7      0.000      0.000
REMARK SMILES CC[NH+](CC)C[C@H](C)NC(=O)N[C@H]1C=C[C@@H](C(=O)NCCCNC(=O)c2ccc(-c3c4nc(c(-c5c(F)c(F)c(F)c(F)c5F)c5ccc([nH]5)c(-c5c(F)c(F)c(F)c(F)c5F)c5nc(c(-c6c(F)c(F)c(F)c(F)c6F)c6ccc3[nH]6)C=C5)C=C4)cc2)C1
REMARK SMILES IDX 17 1 18 2 19 3 16 5 13 6 14 7 89 8 15 9 12 10 9 11 10 12
REMARK SMILES IDX 11 14 7 16 8 17 6 18 3 19 2 21 1 22 4 23 5 24 20 25 21 26
REMARK SMILES IDX 22 27 23 28 24 29 25 31 26 32 27 33 88 34 28 35 87 36 29 37
REMARK SMILES IDX 30 38 31 39 81 40 32 41 86 42 80 43 82 44 33 45 85 46 79 47
REMARK SMILES IDX 78 48 34 50 66 51 46 52 65 53 47 54 50 55 64 56 83 57 48 58
REMARK SMILES IDX 49 59 63 61 84 62 51 63 35 64 36 65 44 66 37 67 38 68 42 69
REMARK SMILES IDX 45 70 39 71 40 72 43 73 41 74 67 75 68 76 76 77 69 78 70 79
REMARK SMILES IDX 74 80 77 81 71 82 72 83 75 84 73 85 52 86 53 87 61 88 54 89
REMARK SMILES IDX 55 90 59 91 62 92 56 93 57 94 60 95 58 96
REMARK H PARENT 19 4 9 13 12 15 3 20 23 30 82 49 50 60
REMARK Flexibility Score: inf
ROOT
ATOM      1  C   UNL A   1      35.820  23.476  25.759  1.00  0.00     0.227 C 
ATOM      2  O   UNL A   1      36.680  24.237  26.281  1.00  0.00    -0.274 OA
ATOM      3  N   UNL A   1      36.456  22.277  25.499  1.00  0.00    -0.356 N 
ATOM      4  H   UNL A   1      37.370  22.526  25.766  1.00  0.00     0.163 HD
ENDROOT
BRANCH   1   5
ATOM      5  C   UNL A   1      34.305  24.258  25.683  1.00  0.00     0.103 C 
ATOM      6  C   UNL A   1      32.567  24.957  23.957  1.00  0.00     0.107 C 
ATOM      7  C   UNL A   1      32.287  23.610  24.541  1.00  0.00    -0.006 C 
ATOM      8  C   UNL A   1      33.634  25.497  24.941  1.00  0.00     0.047 C 
ATOM      9  C   UNL A   1      33.159  23.268  25.512  1.00  0.00    -0.016 C 
BRANCH   6  10
ATOM     10  N   UNL A   1      32.756  25.010  22.491  1.00  0.00    -0.332 N 
ATOM     11  N   UNL A   1      32.976  27.174  21.574  1.00  0.00    -0.330 N 
ATOM     12  C   UNL A   1      33.011  25.845  21.469  1.00  0.00     0.315 C 
ATOM     13  H   UNL A   1      33.402  27.693  20.852  1.00  0.00     0.165 HD
ATOM     14  O   UNL A   1      33.261  25.366  20.362  1.00  0.00    -0.249 OA
ATOM     15  H   UNL A   1      32.659  24.098  22.131  1.00  0.00     0.165 HD
BRANCH  11  16
ATOM     16  C   UNL A   1      32.372  27.920  22.649  1.00  0.00     0.135 C 
ATOM     17  C   UNL A   1      33.535  28.689  23.339  1.00  0.00     0.037 C 
BRANCH  16  18
ATOM     18  C   UNL A   1      30.678  28.026  22.319  1.00  0.00     0.287 C 
BRANCH  18  19
ATOM     19  N   UNL A   1      29.240  28.560  22.462  1.00  0.00    -0.334 N 
ATOM     20  H   UNL A   1      29.031  28.502  21.466  1.00  0.00     0.348 HD
BRANCH  19  21
ATOM     21  C   UNL A   1      28.780  29.976  22.795  1.00  0.00     0.258 C 
ATOM     22  C   UNL A   1      29.310  30.958  23.876  1.00  0.00     0.071 C 
ENDBRANCH  19  21
BRANCH  19  23
ATOM     23  C   UNL A   1      28.549  27.752  23.546  1.00  0.00     0.258 C 
ATOM     24  C   UNL A   1      29.085  26.380  23.934  1.00  0.00     0.071 C 
ENDBRANCH  19  23
ENDBRANCH  18  19
ENDBRANCH  16  18
ENDBRANCH  11  16
ENDBRANCH   6  10
ENDBRANCH   1   5
BRANCH   3  25
ATOM     25  C   UNL A   1      36.739  20.702  25.045  1.00  0.00     0.117 C 
BRANCH  25  26
ATOM     26  C   UNL A   1      38.025  19.733  25.065  1.00  0.00     0.042 C 
BRANCH  26  27
ATOM     27  C   UNL A   1      39.485  20.186  25.352  1.00  0.00     0.118 C 
BRANCH  27  28
ATOM     28  N   UNL A   1      40.255  19.154  26.014  1.00  0.00    -0.352 N 
ATOM     29  C   UNL A   1      41.620  19.150  26.136  1.00  0.00     0.251 C 
ATOM     30  H   UNL A   1      39.761  18.398  26.407  1.00  0.00     0.163 HD
ATOM     31  O   UNL A   1      42.272  18.132  26.068  1.00  0.00    -0.269 OA
BRANCH  29  32
ATOM     32  C   UNL A   1      42.242  20.441  26.492  1.00  0.00     0.039 A 
ATOM     33  C   UNL A   1      42.121  20.952  27.782  1.00  0.00     0.014 A 
ATOM     34  C   UNL A   1      42.893  21.156  25.479  1.00  0.00     0.014 A 
ATOM     35  C   UNL A   1      42.642  22.214  28.055  1.00  0.00     0.010 A 
ATOM     36  C   UNL A   1      43.458  22.384  25.768  1.00  0.00     0.010 A 
ATOM     37  C   UNL A   1      43.297  22.938  27.045  1.00  0.00    -0.014 A 
BRANCH  37  38
ATOM     38  C   UNL A   1      43.758  24.324  27.260  1.00  0.00     0.031 A 
ATOM     39  C   UNL A   1      42.777  25.341  27.772  1.00  0.00     0.074 A 
ATOM     40  C   UNL A   1      45.004  24.664  26.896  1.00  0.00     0.049 A 
ATOM     41  N   UNL A   1      42.913  26.632  27.913  1.00  0.00    -0.248 NA
ATOM     42  C   UNL A   1      41.434  24.839  28.112  1.00  0.00     0.031 C 
ATOM     43  C   UNL A   1      45.994  23.748  26.328  1.00  0.00     0.029 A 
ATOM     44  N   UNL A   1      45.646  25.871  26.934  1.00  0.00    -0.354 N 
ATOM     45  C   UNL A   1      41.666  27.097  28.314  1.00  0.00     0.074 A 
ATOM     46  C   UNL A   1      40.770  25.965  28.314  1.00  0.00     0.031 C 
ATOM     47  C   UNL A   1      47.134  24.419  26.103  1.00  0.00     0.029 A 
ATOM     48  C   UNL A   1      46.939  25.815  26.478  1.00  0.00     0.049 A 
ATOM     49  H   UNL A   1      45.222  26.698  27.257  1.00  0.00     0.167 HD
ATOM     50  C   UNL A   1      41.317  28.353  28.681  1.00  0.00     0.037 A 
ATOM     51  C   UNL A   1      47.857  26.794  26.389  1.00  0.00     0.037 A 
ATOM     52  C   UNL A   1      42.255  29.443  28.708  1.00  0.00     0.049 A 
ATOM     53  C   UNL A   1      47.464  28.174  26.840  1.00  0.00     0.074 A 
ATOM     54  C   UNL A   1      42.065  30.743  29.135  1.00  0.00     0.029 A 
ATOM     55  N   UNL A   1      43.577  29.346  28.285  1.00  0.00    -0.354 N 
ATOM     56  N   UNL A   1      46.308  28.598  27.295  1.00  0.00    -0.248 NA
ATOM     57  C   UNL A   1      48.504  29.207  26.777  1.00  0.00     0.031 C 
ATOM     58  C   UNL A   1      43.257  31.446  28.920  1.00  0.00     0.029 A 
ATOM     59  C   UNL A   1      44.210  30.568  28.420  1.00  0.00     0.049 A 
ATOM     60  H   UNL A   1      44.000  28.527  27.939  1.00  0.00     0.167 HD
ATOM     61  C   UNL A   1      46.485  29.939  27.603  1.00  0.00     0.074 A 
ATOM     62  C   UNL A   1      47.868  30.251  27.292  1.00  0.00     0.031 C 
ATOM     63  C   UNL A   1      45.593  30.832  28.101  1.00  0.00     0.037 A 
BRANCH  50  64
ATOM     64  C   UNL A   1      39.881  28.592  29.066  1.00  0.00     0.064 A 
ATOM     65  C   UNL A   1      38.933  29.075  28.147  1.00  0.00     0.173 A 
ATOM     66  C   UNL A   1      39.447  28.367  30.382  1.00  0.00     0.173 A 
ATOM     67  F   UNL A   1      39.287  29.317  26.875  1.00  0.00    -0.203 F 
ATOM     68  C   UNL A   1      37.634  29.388  28.544  1.00  0.00     0.198 A 
ATOM     69  C   UNL A   1      38.135  28.637  30.765  1.00  0.00     0.198 A 
ATOM     70  F   UNL A   1      40.299  27.897  31.305  1.00  0.00    -0.203 F 
ATOM     71  F   UNL A   1      36.781  29.936  27.669  1.00  0.00    -0.200 F 
ATOM     72  C   UNL A   1      37.235  29.165  29.852  1.00  0.00     0.200 A 
ATOM     73  F   UNL A   1      37.746  28.406  32.027  1.00  0.00    -0.200 F 
ATOM     74  F   UNL A   1      35.988  29.473  30.236  1.00  0.00    -0.200 F 
ENDBRANCH  50  64
BRANCH  51  75
ATOM     75  C   UNL A   1      49.234  26.470  25.937  1.00  0.00     0.064 A 
ATOM     76  C   UNL A   1      49.638  26.760  24.625  1.00  0.00     0.173 A 
ATOM     77  C   UNL A   1      50.192  25.930  26.808  1.00  0.00     0.173 A 
ATOM     78  F   UNL A   1      48.756  27.270  23.753  1.00  0.00    -0.203 F 
ATOM     79  C   UNL A   1      50.940  26.513  24.200  1.00  0.00     0.198 A 
ATOM     80  C   UNL A   1      51.503  25.707  26.388  1.00  0.00     0.198 A 
ATOM     81  F   UNL A   1      49.864  25.649  28.078  1.00  0.00    -0.203 F 
ATOM     82  F   UNL A   1      51.291  26.776  22.933  1.00  0.00    -0.200 F 
ATOM     83  C   UNL A   1      51.874  25.995  25.083  1.00  0.00     0.200 A 
ATOM     84  F   UNL A   1      52.408  25.226  27.251  1.00  0.00    -0.200 F 
ATOM     85  F   UNL A   1      53.133  25.774  24.679  1.00  0.00    -0.200 F 
ENDBRANCH  51  75
BRANCH  63  86
ATOM     86  C   UNL A   1      46.101  32.218  28.372  1.00  0.00     0.064 A 
ATOM     87  C   UNL A   1      45.997  33.241  27.419  1.00  0.00     0.173 A 
ATOM     88  C   UNL A   1      46.651  32.534  29.623  1.00  0.00     0.173 A 
ATOM     89  F   UNL A   1      45.492  32.984  26.203  1.00  0.00    -0.203 F 
ATOM     90  C   UNL A   1      46.453  34.526  27.700  1.00  0.00     0.198 A 
ATOM     91  C   UNL A   1      47.069  33.827  29.913  1.00  0.00     0.198 A 
ATOM     92  F   UNL A   1      46.761  31.591  30.572  1.00  0.00    -0.203 F 
ATOM     93  F   UNL A   1      46.393  35.476  26.757  1.00  0.00    -0.200 F 
ATOM     94  C   UNL A   1      46.979  34.820  28.950  1.00  0.00     0.200 A 
ATOM     95  F   UNL A   1      47.559  34.114  31.128  1.00  0.00    -0.200 F 
ATOM     96  F   UNL A   1      47.404  36.061  29.223  1.00  0.00    -0.200 F 
ENDBRANCH  63  86
ENDBRANCH  37  38
ENDBRANCH  29  32
ENDBRANCH  27  28
ENDBRANCH  26  27
ENDBRANCH  25  26
ENDBRANCH   3  25
TORSDOF 16
ENDMDL
MODEL 2
REMARK VINA RESULT:     -12.6      0.941      1.686
REMARK SMILES CC[NH+](CC)C[C@H](C)NC(=O)N[C@H]1C=C[C@@H](C(=O)NCCCNC(=O)c2ccc(-c3c4nc(c(-c5c(F)c(F)c(F)c(F)c5F)c5ccc([nH]5)c(-c5c(F)c(F)c(F)c(F)c5F)c5nc(c(-c6c(F)c(F)c(F)c(F)c6F)c6ccc3[nH]6)C=C5)C=C4)cc2)C1
REMARK SMILES IDX 17 1 18 2 19 3 16 5 13 6 14 7 89 8 15 9 12 10 9 11 10 12
REMARK SMILES IDX 11 14 7 16 8 17 6 18 3 19 2 21 1 22 4 23 5 24 20 25 21 26
REMARK SMILES IDX 22 27 23 28 24 29 25 31 26 32 27 33 88 34 28 35 87 36 29 37
REMARK SMILES IDX 30 38 31 39 81 40 32 41 86 42 80 43 82 44 33 45 85 46 79 47
REMARK SMILES IDX 78 48 34 50 66 51 46 52 65 53 47 54 50 55 64 56 83 57 48 58
REMARK SMILES IDX 49 59 63 61 84 62 51 63 35 64 36 65 44 66 37 67 38 68 42 69
REMARK SMILES IDX 45 70 39 71 40 72 43 73 41 74 67 75 68 76 76 77 69 78 70 79
REMARK SMILES IDX 74 80 77 81 71 82 72 83 75 84 73 85 52 86 53 87 61 88 54 89
REMARK SMILES IDX 55 90 59 91 62 92 56 93 57 94 60 95 58 96
REMARK H PARENT 19 4 9 13 12 15 3 20 23 30 82 49 50 60
REMARK Flexibility Score: inf
ROOT
ATOM      1  C   UNL A   1      35.631  22.834  23.913  1.00  0.00     0.227 C 
ATOM      2  O   UNL A   1      36.148  23.364  22.891  1.00  0.00    -0.274 OA
ATOM      3  N   UNL A   1      36.376  21.705  24.194  1.00  0.00    -0.356 N 
ATOM      4  H   UNL A   1      36.985  21.726  23.422  1.00  0.00     0.163 HD
ENDROOT
BRANCH   1   5
ATOM      5  C   UNL A   1      34.327  23.780  24.476  1.00  0.00     0.103 C 
ATOM      6  C   UNL A   1      33.039  25.883  23.840  1.00  0.00     0.107 C 
ATOM      7  C   UNL A   1      32.416  24.640  23.290  1.00  0.00    -0.006 C 
ATOM      8  C   UNL A   1      34.030  25.293  24.873  1.00  0.00     0.047 C 
ATOM      9  C   UNL A   1      33.049  23.517  23.690  1.00  0.00    -0.016 C 
BRANCH   6  10
ATOM     10  N   UNL A   1      33.452  26.902  22.851  1.00  0.00    -0.332 N 
ATOM     11  N   UNL A   1      33.776  29.078  23.709  1.00  0.00    -0.330 N 
ATOM     12  C   UNL A   1      33.849  28.180  22.725  1.00  0.00     0.315 C 
ATOM     13  H   UNL A   1      34.300  29.905  23.602  1.00  0.00     0.165 HD
ATOM     14  O   UNL A   1      34.277  28.562  21.635  1.00  0.00    -0.249 OA
ATOM     15  H   UNL A   1      33.428  26.494  21.954  1.00  0.00     0.165 HD
BRANCH  11  16
ATOM     16  C   UNL A   1      32.999  28.944  24.916  1.00  0.00     0.135 C 
ATOM     17  C   UNL A   1      34.006  29.106  26.090  1.00  0.00     0.037 C 
BRANCH  16  18
ATOM     18  C   UNL A   1      31.342  29.211  24.498  1.00  0.00     0.287 C 
BRANCH  18  19
ATOM     19  N   UNL A   1      30.050  29.062  23.673  1.00  0.00    -0.334 N 
ATOM     20  H   UNL A   1      29.471  29.579  24.334  1.00  0.00     0.348 HD
BRANCH  19  21
ATOM     21  C   UNL A   1      29.212  27.810  23.437  1.00  0.00     0.258 C 
ATOM     22  C   UNL A   1      27.670  27.627  23.502  1.00  0.00     0.071 C 
ENDBRANCH  19  21
BRANCH  19  23
ATOM     23  C   UNL A   1      30.353  29.499  22.251  1.00  0.00     0.258 C 
ATOM     24  C   UNL A   1      29.443  30.499  21.550  1.00  0.00     0.071 C 
ENDBRANCH  19  23
ENDBRANCH  18  19
ENDBRANCH  16  18
ENDBRANCH  11  16
ENDBRANCH   6  10
ENDBRANCH   1   5
BRANCH   3  25
ATOM     25  C   UNL A   1      36.951  20.334  24.940  1.00  0.00     0.117 C 
BRANCH  25  26
ATOM     26  C   UNL A   1      38.402  19.654  25.094  1.00  0.00     0.042 C 
BRANCH  26  27
ATOM     27  C   UNL A   1      39.576  20.226  25.939  1.00  0.00     0.118 C 
BRANCH  27  28
ATOM     28  N   UNL A   1      40.548  19.208  26.279  1.00  0.00    -0.352 N 
ATOM     29  C   UNL A   1      41.899  19.316  26.076  1.00  0.00     0.251 C 
ATOM     30  H   UNL A   1      40.214  18.377  26.687  1.00  0.00     0.163 HD
ATOM     31  O   UNL A   1      42.580  18.371  25.741  1.00  0.00    -0.269 OA
BRANCH  29  32
ATOM     32  C   UNL A   1      42.504  20.617  26.423  1.00  0.00     0.039 A 
ATOM     33  C   UNL A   1      42.559  21.040  27.749  1.00  0.00     0.014 A 
ATOM     34  C   UNL A   1      42.956  21.429  25.376  1.00  0.00     0.014 A 
ATOM     35  C   UNL A   1      43.054  22.312  28.028  1.00  0.00     0.010 A 
ATOM     36  C   UNL A   1      43.498  22.669  25.660  1.00  0.00     0.010 A 
ATOM     37  C   UNL A   1      43.509  23.133  26.983  1.00  0.00    -0.014 A 
BRANCH  37  38
ATOM     38  C   UNL A   1      43.929  24.529  27.222  1.00  0.00     0.031 A 
ATOM     39  C   UNL A   1      42.913  25.512  27.730  1.00  0.00     0.074 A 
ATOM     40  C   UNL A   1      45.171  24.906  26.881  1.00  0.00     0.049 A 
ATOM     41  N   UNL A   1      43.013  26.805  27.889  1.00  0.00    -0.248 NA
ATOM     42  C   UNL A   1      41.579  24.971  28.043  1.00  0.00     0.031 C 
ATOM     43  C   UNL A   1      46.193  24.023  26.317  1.00  0.00     0.029 A 
ATOM     44  N   UNL A   1      45.780  26.129  26.943  1.00  0.00    -0.354 N 
ATOM     45  C   UNL A   1      41.748  27.231  28.275  1.00  0.00     0.074 A 
ATOM     46  C   UNL A   1      40.882  26.076  28.248  1.00  0.00     0.031 C 
ATOM     47  C   UNL A   1      47.319  24.728  26.118  1.00  0.00     0.029 A 
ATOM     48  C   UNL A   1      47.080  26.113  26.507  1.00  0.00     0.049 A 
ATOM     49  H   UNL A   1      45.328  26.941  27.269  1.00  0.00     0.167 HD
ATOM     50  C   UNL A   1      41.360  28.473  28.651  1.00  0.00     0.037 A 
ATOM     51  C   UNL A   1      47.973  27.117  26.443  1.00  0.00     0.037 A 
ATOM     52  C   UNL A   1      42.267  29.588  28.706  1.00  0.00     0.049 A 
ATOM     53  C   UNL A   1      47.537  28.481  26.905  1.00  0.00     0.074 A 
ATOM     54  C   UNL A   1      42.036  30.877  29.145  1.00  0.00     0.029 A 
ATOM     55  N   UNL A   1      43.597  29.531  28.302  1.00  0.00    -0.354 N 
ATOM     56  N   UNL A   1      46.363  28.868  27.347  1.00  0.00    -0.248 NA
ATOM     57  C   UNL A   1      48.549  29.541  26.870  1.00  0.00     0.031 C 
ATOM     58  C   UNL A   1      43.211  31.613  28.957  1.00  0.00     0.029 A 
ATOM     59  C   UNL A   1      44.195  30.768  28.461  1.00  0.00     0.049 A 
ATOM     60  H   UNL A   1      44.047  28.728  27.953  1.00  0.00     0.167 HD
ATOM     61  C   UNL A   1      46.498  30.209  27.673  1.00  0.00     0.074 A 
ATOM     62  C   UNL A   1      47.877  30.561  27.387  1.00  0.00     0.031 C 
ATOM     63  C   UNL A   1      45.575  31.073  28.167  1.00  0.00     0.037 A 
BRANCH  50  64
ATOM     64  C   UNL A   1      39.911  28.669  29.016  1.00  0.00     0.064 A 
ATOM     65  C   UNL A   1      38.964  29.131  28.087  1.00  0.00     0.173 A 
ATOM     66  C   UNL A   1      39.465  28.423  30.324  1.00  0.00     0.173 A 
ATOM     67  F   UNL A   1      39.329  29.391  26.822  1.00  0.00    -0.203 F 
ATOM     68  C   UNL A   1      37.651  29.404  28.467  1.00  0.00     0.198 A 
ATOM     69  C   UNL A   1      38.140  28.654  30.690  1.00  0.00     0.198 A 
ATOM     70  F   UNL A   1      40.317  27.971  31.257  1.00  0.00    -0.203 F 
ATOM     71  F   UNL A   1      36.796  29.934  27.582  1.00  0.00    -0.200 F 
ATOM     72  C   UNL A   1      37.240  29.162  29.767  1.00  0.00     0.200 A 
ATOM     73  F   UNL A   1      37.740  28.403  31.945  1.00  0.00    -0.200 F 
ATOM     74  F   UNL A   1      35.979  29.432  30.135  1.00  0.00    -0.200 F 
ENDBRANCH  50  64
BRANCH  51  75
ATOM     75  C   UNL A   1      49.365  26.836  26.009  1.00  0.00     0.064 A 
ATOM     76  C   UNL A   1      50.304  26.331  26.921  1.00  0.00     0.173 A 
ATOM     77  C   UNL A   1      49.773  26.997  24.677  1.00  0.00     0.173 A 
ATOM     78  F   UNL A   1      49.964  26.166  28.207  1.00  0.00    -0.203 F 
ATOM     79  C   UNL A   1      51.598  26.009  26.520  1.00  0.00     0.198 A 
ATOM     80  C   UNL A   1      51.062  26.650  24.272  1.00  0.00     0.198 A 
ATOM     81  F   UNL A   1      48.910  27.461  23.761  1.00  0.00    -0.203 F 
ATOM     82  F   UNL A   1      52.482  25.553  27.418  1.00  0.00    -0.200 F 
ATOM     83  C   UNL A   1      51.974  26.161  25.194  1.00  0.00     0.200 A 
ATOM     84  F   UNL A   1      51.414  26.779  22.985  1.00  0.00    -0.200 F 
ATOM     85  F   UNL A   1      53.214  25.834  24.805  1.00  0.00    -0.200 F 
ENDBRANCH  51  75
BRANCH  63  86
ATOM     86  C   UNL A   1      46.042  32.468  28.462  1.00  0.00     0.064 A 
ATOM     87  C   UNL A   1      45.974  33.486  27.502  1.00  0.00     0.173 A 
ATOM     88  C   UNL A   1      46.513  32.796  29.742  1.00  0.00     0.173 A 
ATOM     89  F   UNL A   1      45.544  33.218  26.259  1.00  0.00    -0.203 F 
ATOM     90  C   UNL A   1      46.390  34.780  27.805  1.00  0.00     0.198 A 
ATOM     91  C   UNL A   1      46.891  34.098  30.052  1.00  0.00     0.198 A 
ATOM     92  F   UNL A   1      46.586  31.858  30.699  1.00  0.00    -0.203 F 
ATOM     93  F   UNL A   1      46.367  35.727  26.857  1.00  0.00    -0.200 F 
ATOM     94  C   UNL A   1      46.838  35.087  29.082  1.00  0.00     0.200 A 
ATOM     95  F   UNL A   1      47.304  34.396  31.292  1.00  0.00    -0.200 F 
ATOM     96  F   UNL A   1      47.224  36.335  29.375  1.00  0.00    -0.200 F 
ENDBRANCH  63  86
ENDBRANCH  37  38
ENDBRANCH  29  32
ENDBRANCH  27  28
ENDBRANCH  26  27
ENDBRANCH  25  26
ENDBRANCH   3  25
TORSDOF 16
ENDMDL
MODEL 3
REMARK VINA RESULT:     -12.6      1.331      2.609
REMARK SMILES CC[NH+](CC)C[C@H](C)NC(=O)N[C@H]1C=C[C@@H](C(=O)NCCCNC(=O)c2ccc(-c3c4nc(c(-c5c(F)c(F)c(F)c(F)c5F)c5ccc([nH]5)c(-c5c(F)c(F)c(F)c(F)c5F)c5nc(c(-c6c(F)c(F)c(F)c(F)c6F)c6ccc3[nH]6)C=C5)C=C4)cc2)C1
REMARK SMILES IDX 17 1 18 2 19 3 16 5 13 6 14 7 89 8 15 9 12 10 9 11 10 12
REMARK SMILES IDX 11 14 7 16 8 17 6 18 3 19 2 21 1 22 4 23 5 24 20 25 21 26
REMARK SMILES IDX 22 27 23 28 24 29 25 31 26 32 27 33 88 34 28 35 87 36 29 37
REMARK SMILES IDX 30 38 31 39 81 40 32 41 86 42 80 43 82 44 33 45 85 46 79 47
REMARK SMILES IDX 78 48 34 50 66 51 46 52 65 53 47 54 50 55 64 56 83 57 48 58
REMARK SMILES IDX 49 59 63 61 84 62 51 63 35 64 36 65 44 66 37 67 38 68 42 69
REMARK SMILES IDX 45 70 39 71 40 72 43 73 41 74 67 75 68 76 76 77 69 78 70 79
REMARK SMILES IDX 74 80 77 81 71 82 72 83 75 84 73 85 52 86 53 87 61 88 54 89
REMARK SMILES IDX 55 90 59 91 62 92 56 93 57 94 60 95 58 96
REMARK H PARENT 19 4 9 13 12 15 3 20 23 30 82 49 50 60
REMARK Flexibility Score: inf
ROOT
ATOM      1  C   UNL A   1      34.043  21.528  26.305  1.00  0.00     0.227 C 
ATOM      2  O   UNL A   1      34.051  21.378  27.557  1.00  0.00    -0.274 OA
ATOM      3  N   UNL A   1      35.295  21.156  25.852  1.00  0.00    -0.356 N 
ATOM      4  H   UNL A   1      35.728  20.986  26.719  1.00  0.00     0.163 HD
ENDROOT
BRANCH   1   5
ATOM      5  C   UNL A   1      32.505  22.049  25.780  1.00  0.00     0.103 C 
ATOM      6  C   UNL A   1      31.124  24.183  25.639  1.00  0.00     0.107 C 
ATOM      7  C   UNL A   1      31.898  23.917  24.389  1.00  0.00    -0.006 C 
ATOM      8  C   UNL A   1      31.240  22.819  26.362  1.00  0.00     0.047 C 
ATOM      9  C   UNL A   1      32.570  22.747  24.427  1.00  0.00    -0.016 C 
BRANCH   6  10
ATOM     10  N   UNL A   1      31.408  25.462  26.327  1.00  0.00    -0.332 N 
ATOM     11  N   UNL A   1      30.338  27.362  25.422  1.00  0.00    -0.330 N 
ATOM     12  C   UNL A   1      31.073  26.763  26.361  1.00  0.00     0.315 C 
ATOM     13  H   UNL A   1      29.950  28.239  25.648  1.00  0.00     0.165 HD
ATOM     14  O   UNL A   1      31.489  27.457  27.290  1.00  0.00    -0.249 OA
ATOM     15  H   UNL A   1      32.096  25.300  27.013  1.00  0.00     0.165 HD
BRANCH  11  16
ATOM     16  C   UNL A   1      30.061  26.839  24.108  1.00  0.00     0.135 C 
ATOM     17  C   UNL A   1      28.583  26.355  24.146  1.00  0.00     0.037 C 
BRANCH  16  18
ATOM     18  C   UNL A   1      31.256  27.477  23.033  1.00  0.00     0.287 C 
BRANCH  18  19
ATOM     19  N   UNL A   1      32.417  27.432  22.022  1.00  0.00    -0.334 N 
ATOM     20  H   UNL A   1      31.854  27.758  21.236  1.00  0.00     0.348 HD
BRANCH  19  21
ATOM     21  C   UNL A   1      33.110  26.212  21.424  1.00  0.00     0.258 C 
ATOM     22  C   UNL A   1      32.642  25.274  20.277  1.00  0.00     0.071 C 
ENDBRANCH  19  21
BRANCH  19  23
ATOM     23  C   UNL A   1      33.590  28.184  22.626  1.00  0.00     0.258 C 
ATOM     24  C   UNL A   1      33.545  28.623  24.084  1.00  0.00     0.071 C 
ENDBRANCH  19  23
ENDBRANCH  18  19
ENDBRANCH  16  18
ENDBRANCH  11  16
ENDBRANCH   6  10
ENDBRANCH   1   5
BRANCH   3  25
ATOM     25  C   UNL A   1      36.573  20.798  24.850  1.00  0.00     0.117 C 
BRANCH  25  26
ATOM     26  C   UNL A   1      37.953  19.987  25.022  1.00  0.00     0.042 C 
BRANCH  26  27
ATOM     27  C   UNL A   1      39.219  20.516  25.754  1.00  0.00     0.118 C 
BRANCH  27  28
ATOM     28  N   UNL A   1      40.087  19.441  26.188  1.00  0.00    -0.352 N 
ATOM     29  C   UNL A   1      41.453  19.442  26.075  1.00  0.00     0.251 C 
ATOM     30  H   UNL A   1      39.664  18.651  26.595  1.00  0.00     0.163 HD
ATOM     31  O   UNL A   1      42.080  18.439  25.814  1.00  0.00    -0.269 OA
BRANCH  29  32
ATOM     32  C   UNL A   1      42.130  20.705  26.427  1.00  0.00     0.039 A 
ATOM     33  C   UNL A   1      42.316  21.061  27.761  1.00  0.00     0.014 A 
ATOM     34  C   UNL A   1      42.517  21.554  25.382  1.00  0.00     0.014 A 
ATOM     35  C   UNL A   1      42.877  22.302  28.052  1.00  0.00     0.010 A 
ATOM     36  C   UNL A   1      43.124  22.761  25.674  1.00  0.00     0.010 A 
ATOM     37  C   UNL A   1      43.267  23.160  27.010  1.00  0.00    -0.014 A 
BRANCH  37  38
ATOM     38  C   UNL A   1      43.754  24.528  27.274  1.00  0.00     0.031 A 
ATOM     39  C   UNL A   1      42.788  25.550  27.805  1.00  0.00     0.074 A 
ATOM     40  C   UNL A   1      45.012  24.852  26.938  1.00  0.00     0.049 A 
ATOM     41  N   UNL A   1      42.950  26.833  27.987  1.00  0.00    -0.248 NA
ATOM     42  C   UNL A   1      41.430  25.067  28.111  1.00  0.00     0.031 C 
ATOM     43  C   UNL A   1      45.990  23.932  26.354  1.00  0.00     0.029 A 
ATOM     44  N   UNL A   1      45.680  26.042  27.022  1.00  0.00    -0.354 N 
ATOM     45  C   UNL A   1      41.708  27.312  28.386  1.00  0.00     0.074 A 
ATOM     46  C   UNL A   1      40.787  26.201  28.338  1.00  0.00     0.031 C 
ATOM     47  C   UNL A   1      47.148  24.585  26.166  1.00  0.00     0.029 A 
ATOM     48  C   UNL A   1      46.977  25.973  26.582  1.00  0.00     0.049 A 
ATOM     49  H   UNL A   1      45.269  26.869  27.365  1.00  0.00     0.167 HD
ATOM     50  C   UNL A   1      41.381  28.564  28.787  1.00  0.00     0.037 A 
ATOM     51  C   UNL A   1      47.918  26.933  26.535  1.00  0.00     0.037 A 
ATOM     52  C   UNL A   1      42.342  29.632  28.860  1.00  0.00     0.049 A 
ATOM     53  C   UNL A   1      47.548  28.307  27.024  1.00  0.00     0.074 A 
ATOM     54  C   UNL A   1      42.174  30.922  29.325  1.00  0.00     0.029 A 
ATOM     55  N   UNL A   1      43.667  29.519  28.452  1.00  0.00    -0.354 N 
ATOM     56  N   UNL A   1      46.395  28.742  27.476  1.00  0.00    -0.248 NA
ATOM     57  C   UNL A   1      48.610  29.318  27.007  1.00  0.00     0.031 C 
ATOM     58  C   UNL A   1      43.383  31.605  29.148  1.00  0.00     0.029 A 
ATOM     59  C   UNL A   1      44.324  30.722  28.633  1.00  0.00     0.049 A 
ATOM     60  H   UNL A   1      44.077  28.702  28.086  1.00  0.00     0.167 HD
ATOM     61  C   UNL A   1      46.596  30.069  27.828  1.00  0.00     0.074 A 
ATOM     62  C   UNL A   1      47.990  30.359  27.546  1.00  0.00     0.031 C 
ATOM     63  C   UNL A   1      45.717  30.966  28.341  1.00  0.00     0.037 A 
BRANCH  50  64
ATOM     64  C   UNL A   1      39.945  28.823  29.159  1.00  0.00     0.064 A 
ATOM     65  C   UNL A   1      39.464  28.617  30.463  1.00  0.00     0.173 A 
ATOM     66  C   UNL A   1      39.023  29.254  28.192  1.00  0.00     0.173 A 
ATOM     67  F   UNL A   1      40.294  28.199  31.432  1.00  0.00    -0.203 F 
ATOM     68  C   UNL A   1      38.112  28.764  30.768  1.00  0.00     0.198 A 
ATOM     69  C   UNL A   1      37.679  29.443  28.510  1.00  0.00     0.198 A 
ATOM     70  F   UNL A   1      39.419  29.478  26.930  1.00  0.00    -0.203 F 
ATOM     71  F   UNL A   1      37.667  28.468  31.997  1.00  0.00    -0.200 F 
ATOM     72  C   UNL A   1      37.222  29.180  29.792  1.00  0.00     0.200 A 
ATOM     73  F   UNL A   1      36.822  29.863  27.569  1.00  0.00    -0.200 F 
ATOM     74  F   UNL A   1      35.920  29.314  30.083  1.00  0.00    -0.200 F 
ENDBRANCH  50  64
BRANCH  51  75
ATOM     75  C   UNL A   1      49.293  26.593  26.092  1.00  0.00     0.064 A 
ATOM     76  C   UNL A   1      49.700  26.855  24.775  1.00  0.00     0.173 A 
ATOM     77  C   UNL A   1      50.247  26.065  26.974  1.00  0.00     0.173 A 
ATOM     78  F   UNL A   1      48.823  27.352  23.892  1.00  0.00    -0.203 F 
ATOM     79  C   UNL A   1      51.002  26.593  24.357  1.00  0.00     0.198 A 
ATOM     80  C   UNL A   1      51.558  25.828  26.561  1.00  0.00     0.198 A 
ATOM     81  F   UNL A   1      49.916  25.812  28.249  1.00  0.00    -0.203 F 
ATOM     82  F   UNL A   1      51.356  26.829  23.085  1.00  0.00    -0.200 F 
ATOM     83  C   UNL A   1      51.932  26.088  25.252  1.00  0.00     0.200 A 
ATOM     84  F   UNL A   1      52.459  25.359  27.435  1.00  0.00    -0.200 F 
ATOM     85  F   UNL A   1      53.191  25.852  24.853  1.00  0.00    -0.200 F 
ENDBRANCH  51  75
BRANCH  63  86
ATOM     86  C   UNL A   1      46.250  32.331  28.662  1.00  0.00     0.064 A 
ATOM     87  C   UNL A   1      46.795  32.633  29.918  1.00  0.00     0.173 A 
ATOM     88  C   UNL A   1      46.262  33.331  27.678  1.00  0.00     0.173 A 
ATOM     89  F   UNL A   1      46.793  31.714  30.895  1.00  0.00    -0.203 F 
ATOM     90  C   UNL A   1      47.307  33.899  30.186  1.00  0.00     0.198 A 
ATOM     91  C   UNL A   1      46.809  34.582  27.938  1.00  0.00     0.198 A 
ATOM     92  F   UNL A   1      45.761  33.086  26.457  1.00  0.00    -0.203 F 
ATOM     93  F   UNL A   1      47.775  34.184  31.409  1.00  0.00    -0.200 F 
ATOM     94  C   UNL A   1      47.323  34.869  29.194  1.00  0.00     0.200 A 
ATOM     95  F   UNL A   1      46.841  35.511  26.972  1.00  0.00    -0.200 F 
ATOM     96  F   UNL A   1      47.829  36.083  29.450  1.00  0.00    -0.200 F 
ENDBRANCH  63  86
ENDBRANCH  37  38
ENDBRANCH  29  32
ENDBRANCH  27  28
ENDBRANCH  26  27
ENDBRANCH  25  26
ENDBRANCH   3  25
TORSDOF 16
ENDMDL
