MODEL 1
REMARK VINA RESULT:     -11.9      0.000      0.000
REMARK SMILES CC(C)CCOCC[N@@H+]1[C@@H](C(=O)NCCCNC(=O)c2ccc(-c3c4nc(c(-c5c(F)c(F)c(F)c(F)c5F)c5ccc([nH]5)c(-c5c(F)c(F)c(F)c(F)c5F)c5nc(c(-c6c(F)c(F)c(F)c(F)c6F)c6ccc3[nH]6)C=C5)C=C4)cc2)CC[C@H]2CCCC[C@H]21
REMARK SMILES IDX 11 1 12 2 13 3 10 5 9 6 90 7 83 9 85 10 89 11 84 12 86 13
REMARK SMILES IDX 88 14 87 15 8 16 7 17 6 18 5 19 4 20 2 21 1 22 3 23 14 24
REMARK SMILES IDX 15 25 16 26 17 27 18 28 19 30 20 31 21 32 82 33 22 34 81 35
REMARK SMILES IDX 23 36 24 37 25 38 75 39 26 40 80 41 74 42 76 43 27 44 79 45
REMARK SMILES IDX 73 46 72 47 28 49 60 50 40 51 59 52 41 53 44 54 58 55 77 56
REMARK SMILES IDX 42 57 43 58 57 60 78 61 45 62 29 63 30 64 38 65 31 66 32 67
REMARK SMILES IDX 36 68 39 69 33 70 34 71 37 72 35 73 61 74 62 75 70 76 63 77
REMARK SMILES IDX 64 78 68 79 71 80 65 81 66 82 69 83 67 84 46 85 47 86 55 87
REMARK SMILES IDX 48 88 49 89 53 90 56 91 50 92 51 93 54 94 52 95
REMARK H PARENT 13 4 9 8 17 29 76 48 44 59
REMARK Flexibility Score: inf
ROOT
ATOM      1  C   UNL A   1      31.668  28.356  27.046  1.00  0.00     0.278 C 
ATOM      2  O   UNL A   1      31.368  27.703  28.052  1.00  0.00    -0.268 OA
ATOM      3  N   UNL A   1      31.466  29.699  27.087  1.00  0.00    -0.351 N 
ATOM      4  H   UNL A   1      31.046  30.035  27.912  1.00  0.00     0.163 HD
ENDROOT
BRANCH   1   5
ATOM      5  C   UNL A   1      32.150  27.638  25.772  1.00  0.00     0.274 C 
ATOM      6  N   UNL A   1      31.056  26.840  25.044  1.00  0.00    -0.320 N 
ATOM      7  C   UNL A   1      31.757  26.191  23.850  1.00  0.00     0.187 C 
ATOM      8  H   UNL A   1      30.595  26.112  25.590  1.00  0.00     0.349 HD
ATOM      9  C   UNL A   1      33.447  26.900  26.132  1.00  0.00     0.076 C 
ATOM     10  C   UNL A   1      33.000  25.348  24.264  1.00  0.00     0.048 C 
ATOM     11  C   UNL A   1      31.029  25.229  22.871  1.00  0.00     0.065 C 
ATOM     12  C   UNL A   1      34.049  26.212  24.931  1.00  0.00     0.016 C 
ATOM     13  C   UNL A   1      32.641  24.095  25.097  1.00  0.00     0.010 C 
ATOM     14  C   UNL A   1      30.945  23.748  23.300  1.00  0.00     0.006 C 
ATOM     15  C   UNL A   1      31.259  23.540  24.771  1.00  0.00     0.001 C 
BRANCH   6  16
ATOM     16  C   UNL A   1      30.017  27.873  24.632  1.00  0.00     0.291 C 
BRANCH  16  17
ATOM     17  C   UNL A   1      29.737  28.461  23.186  1.00  0.00     0.221 C 
BRANCH  17  18
ATOM     18  O   UNL A   1      28.443  28.610  22.621  1.00  0.00    -0.376 OA
BRANCH  18  19
ATOM     19  C   UNL A   1      27.588  29.700  22.950  1.00  0.00     0.160 C 
BRANCH  19  20
ATOM     20  C   UNL A   1      28.111  31.041  23.539  1.00  0.00     0.031 C 
BRANCH  20  21
ATOM     21  C   UNL A   1      28.012  32.300  22.674  1.00  0.00    -0.015 C 
ATOM     22  C   UNL A   1      29.011  33.345  23.093  1.00  0.00     0.007 C 
ATOM     23  C   UNL A   1      28.250  32.093  21.178  1.00  0.00     0.007 C 
ENDBRANCH  20  21
ENDBRANCH  19  20
ENDBRANCH  18  19
ENDBRANCH  17  18
ENDBRANCH  16  17
ENDBRANCH   6  16
ENDBRANCH   1   5
BRANCH   3  24
ATOM     24  C   UNL A   1      31.776  30.708  26.097  1.00  0.00     0.118 C 
BRANCH  24  25
ATOM     25  C   UNL A   1      31.511  32.123  26.588  1.00  0.00     0.042 C 
BRANCH  25  26
ATOM     26  C   UNL A   1      32.743  32.831  27.132  1.00  0.00     0.118 C 
BRANCH  26  27
ATOM     27  N   UNL A   1      32.468  34.196  27.562  1.00  0.00    -0.352 N 
ATOM     28  C   UNL A   1      33.009  34.919  28.587  1.00  0.00     0.251 C 
ATOM     29  H   UNL A   1      31.787  34.669  27.031  1.00  0.00     0.163 HD
ATOM     30  O   UNL A   1      32.505  36.010  28.896  1.00  0.00    -0.269 OA
BRANCH  28  31
ATOM     31  C   UNL A   1      34.164  34.413  29.354  1.00  0.00     0.039 A 
ATOM     32  C   UNL A   1      33.929  33.716  30.542  1.00  0.00     0.014 A 
ATOM     33  C   UNL A   1      35.477  34.630  28.924  1.00  0.00     0.014 A 
ATOM     34  C   UNL A   1      35.000  33.176  31.256  1.00  0.00     0.010 A 
ATOM     35  C   UNL A   1      36.537  34.019  29.588  1.00  0.00     0.010 A 
ATOM     36  C   UNL A   1      36.310  33.286  30.762  1.00  0.00    -0.014 A 
BRANCH  36  37
ATOM     37  C   UNL A   1      37.445  32.623  31.455  1.00  0.00     0.031 A 
ATOM     38  C   UNL A   1      38.158  31.464  30.818  1.00  0.00     0.074 A 
ATOM     39  C   UNL A   1      37.798  33.037  32.688  1.00  0.00     0.049 A 
ATOM     40  N   UNL A   1      39.144  30.740  31.287  1.00  0.00    -0.248 NA
ATOM     41  C   UNL A   1      37.689  31.044  29.489  1.00  0.00     0.031 C 
ATOM     42  C   UNL A   1      37.147  34.115  33.436  1.00  0.00     0.029 A 
ATOM     43  N   UNL A   1      38.787  32.599  33.533  1.00  0.00    -0.354 N 
ATOM     44  C   UNL A   1      39.405  29.780  30.319  1.00  0.00     0.074 A 
ATOM     45  C   UNL A   1      38.439  29.976  29.260  1.00  0.00     0.031 C 
ATOM     46  C   UNL A   1      37.770  34.273  34.614  1.00  0.00     0.029 A 
ATOM     47  C   UNL A   1      38.839  33.284  34.722  1.00  0.00     0.049 A 
ATOM     48  H   UNL A   1      39.401  31.863  33.308  1.00  0.00     0.167 HD
ATOM     49  C   UNL A   1      40.377  28.837  30.302  1.00  0.00     0.037 A 
ATOM     50  C   UNL A   1      39.652  33.129  35.784  1.00  0.00     0.037 A 
ATOM     51  C   UNL A   1      41.350  28.656  31.349  1.00  0.00     0.049 A 
ATOM     52  C   UNL A   1      40.720  32.069  35.741  1.00  0.00     0.074 A 
ATOM     53  C   UNL A   1      42.409  27.768  31.398  1.00  0.00     0.029 A 
ATOM     54  N   UNL A   1      41.377  29.377  32.535  1.00  0.00    -0.354 N 
ATOM     55  N   UNL A   1      41.004  31.217  34.786  1.00  0.00    -0.248 NA
ATOM     56  C   UNL A   1      41.585  31.956  36.922  1.00  0.00     0.031 C 
ATOM     57  C   UNL A   1      43.050  27.917  32.633  1.00  0.00     0.029 A 
ATOM     58  C   UNL A   1      42.423  28.936  33.332  1.00  0.00     0.049 A 
ATOM     59  H   UNL A   1      40.748  30.096  32.774  1.00  0.00     0.167 HD
ATOM     60  C   UNL A   1      42.093  30.486  35.238  1.00  0.00     0.074 A 
ATOM     61  C   UNL A   1      42.434  31.010  36.544  1.00  0.00     0.031 C 
ATOM     62  C   UNL A   1      42.750  29.469  34.629  1.00  0.00     0.037 A 
BRANCH  49  63
ATOM     63  C   UNL A   1      40.446  27.928  29.109  1.00  0.00     0.064 A 
ATOM     64  C   UNL A   1      39.692  26.747  29.040  1.00  0.00     0.173 A 
ATOM     65  C   UNL A   1      41.235  28.267  27.999  1.00  0.00     0.173 A 
ATOM     66  F   UNL A   1      38.929  26.373  30.078  1.00  0.00    -0.203 F 
ATOM     67  C   UNL A   1      39.744  25.927  27.916  1.00  0.00     0.198 A 
ATOM     68  C   UNL A   1      41.261  27.459  26.864  1.00  0.00     0.198 A 
ATOM     69  F   UNL A   1      41.972  29.388  28.009  1.00  0.00    -0.203 F 
ATOM     70  F   UNL A   1      39.048  24.781  27.892  1.00  0.00    -0.200 F 
ATOM     71  C   UNL A   1      40.522  26.287  26.827  1.00  0.00     0.200 A 
ATOM     72  F   UNL A   1      42.002  27.817  25.805  1.00  0.00    -0.200 F 
ATOM     73  F   UNL A   1      40.560  25.503  25.741  1.00  0.00    -0.200 F 
ENDBRANCH  49  63
BRANCH  50  74
ATOM     74  C   UNL A   1      39.505  34.011  36.972  1.00  0.00     0.064 A 
ATOM     75  C   UNL A   1      40.135  35.262  37.022  1.00  0.00     0.173 A 
ATOM     76  C   UNL A   1      38.749  33.617  38.085  1.00  0.00     0.173 A 
ATOM     77  F   UNL A   1      40.886  35.676  35.990  1.00  0.00    -0.203 F 
ATOM     78  C   UNL A   1      40.037  36.073  38.150  1.00  0.00     0.198 A 
ATOM     79  C   UNL A   1      38.626  34.441  39.200  1.00  0.00     0.198 A 
ATOM     80  F   UNL A   1      38.122  32.431  38.085  1.00  0.00    -0.203 F 
ATOM     81  F   UNL A   1      40.695  37.240  38.193  1.00  0.00    -0.200 F 
ATOM     82  C   UNL A   1      39.279  35.664  39.237  1.00  0.00     0.200 A 
ATOM     83  F   UNL A   1      37.879  34.049  40.242  1.00  0.00    -0.200 F 
ATOM     84  F   UNL A   1      39.184  36.445  40.322  1.00  0.00    -0.200 F 
ENDBRANCH  50  74
BRANCH  62  85
ATOM     85  C   UNL A   1      43.921  28.876  35.360  1.00  0.00     0.064 A 
ATOM     86  C   UNL A   1      43.757  27.852  36.305  1.00  0.00     0.173 A 
ATOM     87  C   UNL A   1      45.224  29.325  35.097  1.00  0.00     0.173 A 
ATOM     88  F   UNL A   1      42.529  27.399  36.604  1.00  0.00    -0.203 F 
ATOM     89  C   UNL A   1      44.851  27.325  36.986  1.00  0.00     0.198 A 
ATOM     90  C   UNL A   1      46.319  28.772  35.756  1.00  0.00     0.198 A 
ATOM     91  F   UNL A   1      45.436  30.297  34.197  1.00  0.00    -0.203 F 
ATOM     92  F   UNL A   1      44.665  26.390  37.927  1.00  0.00    -0.200 F 
ATOM     93  C   UNL A   1      46.130  27.780  36.706  1.00  0.00     0.200 A 
ATOM     94  F   UNL A   1      47.556  29.203  35.474  1.00  0.00    -0.200 F 
ATOM     95  F   UNL A   1      47.183  27.270  37.361  1.00  0.00    -0.200 F 
ENDBRANCH  62  85
ENDBRANCH  36  37
ENDBRANCH  28  31
ENDBRANCH  26  27
ENDBRANCH  25  26
ENDBRANCH  24  25
ENDBRANCH   3  24
TORSDOF 16
ENDMDL
MODEL 2
REMARK VINA RESULT:     -11.9      6.151     11.674
REMARK SMILES CC(C)CCOCC[N@@H+]1[C@@H](C(=O)NCCCNC(=O)c2ccc(-c3c4nc(c(-c5c(F)c(F)c(F)c(F)c5F)c5ccc([nH]5)c(-c5c(F)c(F)c(F)c(F)c5F)c5nc(c(-c6c(F)c(F)c(F)c(F)c6F)c6ccc3[nH]6)C=C5)C=C4)cc2)CC[C@H]2CCCC[C@H]21
REMARK SMILES IDX 11 1 12 2 13 3 10 5 9 6 90 7 83 9 85 10 89 11 84 12 86 13
REMARK SMILES IDX 88 14 87 15 8 16 7 17 6 18 5 19 4 20 2 21 1 22 3 23 14 24
REMARK SMILES IDX 15 25 16 26 17 27 18 28 19 30 20 31 21 32 82 33 22 34 81 35
REMARK SMILES IDX 23 36 24 37 25 38 75 39 26 40 80 41 74 42 76 43 27 44 79 45
REMARK SMILES IDX 73 46 72 47 28 49 60 50 40 51 59 52 41 53 44 54 58 55 77 56
REMARK SMILES IDX 42 57 43 58 57 60 78 61 45 62 29 63 30 64 38 65 31 66 32 67
REMARK SMILES IDX 36 68 39 69 33 70 34 71 37 72 35 73 61 74 62 75 70 76 63 77
REMARK SMILES IDX 64 78 68 79 71 80 65 81 66 82 69 83 67 84 46 85 47 86 55 87
REMARK SMILES IDX 48 88 49 89 53 90 56 91 50 92 51 93 54 94 52 95
REMARK H PARENT 13 4 9 8 17 29 76 48 44 59
REMARK Flexibility Score: inf
ROOT
ATOM      1  C   UNL A   1      35.940  22.644  23.672  1.00  0.00     0.278 C 
ATOM      2  O   UNL A   1      36.197  23.200  22.598  1.00  0.00    -0.268 OA
ATOM      3  N   UNL A   1      36.644  21.523  23.981  1.00  0.00    -0.351 N 
ATOM      4  H   UNL A   1      37.275  21.220  23.289  1.00  0.00     0.163 HD
ENDROOT
BRANCH   1   5
ATOM      5  C   UNL A   1      34.789  23.159  24.555  1.00  0.00     0.274 C 
ATOM      6  N   UNL A   1      33.387  22.906  23.976  1.00  0.00    -0.320 N 
ATOM      7  C   UNL A   1      32.418  23.524  24.985  1.00  0.00     0.187 C 
ATOM      8  H   UNL A   1      33.203  23.308  23.057  1.00  0.00     0.349 HD
ATOM      9  C   UNL A   1      35.140  24.597  24.964  1.00  0.00     0.076 C 
ATOM     10  C   UNL A   1      32.730  25.021  25.286  1.00  0.00     0.048 C 
ATOM     11  C   UNL A   1      30.881  23.555  24.760  1.00  0.00     0.065 C 
ATOM     12  C   UNL A   1      34.106  25.181  25.894  1.00  0.00     0.016 C 
ATOM     13  C   UNL A   1      32.502  25.949  24.069  1.00  0.00     0.010 C 
ATOM     14  C   UNL A   1      30.336  24.723  23.909  1.00  0.00     0.006 C 
ATOM     15  C   UNL A   1      31.420  25.439  23.124  1.00  0.00     0.001 C 
BRANCH   6  16
ATOM     16  C   UNL A   1      33.261  21.392  23.884  1.00  0.00     0.291 C 
BRANCH  16  17
ATOM     17  C   UNL A   1      32.539  20.404  24.892  1.00  0.00     0.221 C 
BRANCH  17  18
ATOM     18  O   UNL A   1      32.204  19.058  24.588  1.00  0.00    -0.376 OA
BRANCH  18  19
ATOM     19  C   UNL A   1      32.903  18.300  23.606  1.00  0.00     0.160 C 
BRANCH  19  20
ATOM     20  C   UNL A   1      34.203  17.505  23.914  1.00  0.00     0.031 C 
BRANCH  20  21
ATOM     21  C   UNL A   1      34.227  16.605  25.151  1.00  0.00    -0.015 C 
ATOM     22  C   UNL A   1      33.142  15.562  25.104  1.00  0.00     0.007 C 
ATOM     23  C   UNL A   1      35.524  15.827  25.375  1.00  0.00     0.007 C 
ENDBRANCH  20  21
ENDBRANCH  19  20
ENDBRANCH  18  19
ENDBRANCH  17  18
ENDBRANCH  16  17
ENDBRANCH   6  16
ENDBRANCH   1   5
BRANCH   3  24
ATOM     24  C   UNL A   1      36.601  20.710  25.177  1.00  0.00     0.118 C 
BRANCH  24  25
ATOM     25  C   UNL A   1      37.723  19.683  25.237  1.00  0.00     0.042 C 
BRANCH  25  26
ATOM     26  C   UNL A   1      39.042  20.236  25.753  1.00  0.00     0.118 C 
BRANCH  26  27
ATOM     27  N   UNL A   1      40.063  19.209  25.911  1.00  0.00    -0.352 N 
ATOM     28  C   UNL A   1      41.406  19.332  26.128  1.00  0.00     0.251 C 
ATOM     29  H   UNL A   1      39.733  18.283  25.854  1.00  0.00     0.163 HD
ATOM     30  O   UNL A   1      42.130  18.327  26.055  1.00  0.00    -0.269 OA
BRANCH  28  31
ATOM     31  C   UNL A   1      42.018  20.644  26.416  1.00  0.00     0.039 A 
ATOM     32  C   UNL A   1      42.379  21.468  25.348  1.00  0.00     0.014 A 
ATOM     33  C   UNL A   1      42.252  21.067  27.729  1.00  0.00     0.014 A 
ATOM     34  C   UNL A   1      42.905  22.737  25.592  1.00  0.00     0.010 A 
ATOM     35  C   UNL A   1      42.695  22.364  27.974  1.00  0.00     0.010 A 
ATOM     36  C   UNL A   1      43.027  23.213  26.909  1.00  0.00    -0.014 A 
BRANCH  36  37
ATOM     37  C   UNL A   1      43.482  24.601  27.179  1.00  0.00     0.031 A 
ATOM     38  C   UNL A   1      42.527  25.627  27.722  1.00  0.00     0.074 A 
ATOM     39  C   UNL A   1      44.750  24.949  26.883  1.00  0.00     0.049 A 
ATOM     40  N   UNL A   1      42.735  26.893  27.985  1.00  0.00    -0.248 NA
ATOM     41  C   UNL A   1      41.149  25.182  27.981  1.00  0.00     0.031 C 
ATOM     42  C   UNL A   1      45.756  24.060  26.300  1.00  0.00     0.029 A 
ATOM     43  N   UNL A   1      45.409  26.145  27.026  1.00  0.00    -0.354 N 
ATOM     44  C   UNL A   1      41.519  27.393  28.431  1.00  0.00     0.074 A 
ATOM     45  C   UNL A   1      40.563  26.311  28.350  1.00  0.00     0.031 C 
ATOM     46  C   UNL A   1      46.911  24.730  26.162  1.00  0.00     0.029 A 
ATOM     47  C   UNL A   1      46.717  26.106  26.610  1.00  0.00     0.049 A 
ATOM     48  H   UNL A   1      44.984  26.954  27.393  1.00  0.00     0.167 HD
ATOM     49  C   UNL A   1      41.232  28.635  28.890  1.00  0.00     0.037 A 
ATOM     50  C   UNL A   1      47.654  27.073  26.585  1.00  0.00     0.037 A 
ATOM     51  C   UNL A   1      42.191  29.706  28.987  1.00  0.00     0.049 A 
ATOM     52  C   UNL A   1      47.305  28.445  27.095  1.00  0.00     0.074 A 
ATOM     53  C   UNL A   1      42.011  30.981  29.493  1.00  0.00     0.029 A 
ATOM     54  N   UNL A   1      43.510  29.626  28.565  1.00  0.00    -0.354 N 
ATOM     55  N   UNL A   1      46.171  28.883  27.585  1.00  0.00    -0.248 NA
ATOM     56  C   UNL A   1      48.371  29.454  27.056  1.00  0.00     0.031 C 
ATOM     57  C   UNL A   1      43.207  31.689  29.333  1.00  0.00     0.029 A 
ATOM     58  C   UNL A   1      44.149  30.838  28.777  1.00  0.00     0.049 A 
ATOM     59  H   UNL A   1      43.931  28.826  28.173  1.00  0.00     0.167 HD
ATOM     60  C   UNL A   1      46.393  30.208  27.935  1.00  0.00     0.074 A 
ATOM     61  C   UNL A   1      47.778  30.495  27.622  1.00  0.00     0.031 C 
ATOM     62  C   UNL A   1      45.528  31.108  28.463  1.00  0.00     0.037 A 
BRANCH  49  63
ATOM     63  C   UNL A   1      39.822  28.906  29.332  1.00  0.00     0.064 A 
ATOM     64  C   UNL A   1      38.852  29.384  28.439  1.00  0.00     0.173 A 
ATOM     65  C   UNL A   1      39.424  28.636  30.649  1.00  0.00     0.173 A 
ATOM     66  F   UNL A   1      39.183  29.668  27.170  1.00  0.00    -0.203 F 
ATOM     67  C   UNL A   1      37.542  29.605  28.854  1.00  0.00     0.198 A 
ATOM     68  C   UNL A   1      38.105  28.829  31.054  1.00  0.00     0.198 A 
ATOM     69  F   UNL A   1      40.310  28.171  31.543  1.00  0.00    -0.203 F 
ATOM     70  F   UNL A   1      36.642  30.104  27.994  1.00  0.00    -0.200 F 
ATOM     71  C   UNL A   1      37.167  29.321  30.158  1.00  0.00     0.200 A 
ATOM     72  F   UNL A   1      37.741  28.539  32.311  1.00  0.00    -0.200 F 
ATOM     73  F   UNL A   1      35.903  29.521  30.553  1.00  0.00    -0.200 F 
ENDBRANCH  49  63
BRANCH  50  74
ATOM     74  C   UNL A   1      49.020  26.775  26.078  1.00  0.00     0.064 A 
ATOM     75  C   UNL A   1      49.366  27.037  24.745  1.00  0.00     0.173 A 
ATOM     76  C   UNL A   1      49.998  26.208  26.907  1.00  0.00     0.173 A 
ATOM     77  F   UNL A   1      48.458  27.560  23.908  1.00  0.00    -0.203 F 
ATOM     78  C   UNL A   1      50.630  26.718  24.254  1.00  0.00     0.198 A 
ATOM     79  C   UNL A   1      51.272  25.919  26.423  1.00  0.00     0.198 A 
ATOM     80  F   UNL A   1      49.720  25.943  28.192  1.00  0.00    -0.203 F 
ATOM     81  F   UNL A   1      50.916  26.929  22.962  1.00  0.00    -0.200 F 
ATOM     82  C   UNL A   1      51.584  26.164  25.094  1.00  0.00     0.200 A 
ATOM     83  F   UNL A   1      52.196  25.397  27.242  1.00  0.00    -0.200 F 
ATOM     84  F   UNL A   1      52.800  25.858  24.621  1.00  0.00    -0.200 F 
ENDBRANCH  50  74
BRANCH  62  85
ATOM     85  C   UNL A   1      46.065  32.478  28.761  1.00  0.00     0.064 A 
ATOM     86  C   UNL A   1      45.997  33.517  27.819  1.00  0.00     0.173 A 
ATOM     87  C   UNL A   1      46.634  32.762  30.011  1.00  0.00     0.173 A 
ATOM     88  F   UNL A   1      45.476  33.292  26.603  1.00  0.00    -0.203 F 
ATOM     89  C   UNL A   1      46.514  34.777  28.106  1.00  0.00     0.198 A 
ATOM     90  C   UNL A   1      47.120  34.033  30.306  1.00  0.00     0.198 A 
ATOM     91  F   UNL A   1      46.716  31.807  30.950  1.00  0.00    -0.203 F 
ATOM     92  F   UNL A   1      46.493  35.736  27.170  1.00  0.00    -0.200 F 
ATOM     93  C   UNL A   1      47.068  35.036  29.350  1.00  0.00     0.200 A 
ATOM     94  F   UNL A   1      47.642  34.286  31.514  1.00  0.00    -0.200 F 
ATOM     95  F   UNL A   1      47.563  36.251  29.625  1.00  0.00    -0.200 F 
ENDBRANCH  62  85
ENDBRANCH  36  37
ENDBRANCH  28  31
ENDBRANCH  26  27
ENDBRANCH  25  26
ENDBRANCH  24  25
ENDBRANCH   3  24
TORSDOF 16
ENDMDL
MODEL 3
REMARK VINA RESULT:     -11.7      0.984      7.509
REMARK SMILES CC(C)CCOCC[N@@H+]1[C@@H](C(=O)NCCCNC(=O)c2ccc(-c3c4nc(c(-c5c(F)c(F)c(F)c(F)c5F)c5ccc([nH]5)c(-c5c(F)c(F)c(F)c(F)c5F)c5nc(c(-c6c(F)c(F)c(F)c(F)c6F)c6ccc3[nH]6)C=C5)C=C4)cc2)CC[C@H]2CCCC[C@H]21
REMARK SMILES IDX 11 1 12 2 13 3 10 5 9 6 90 7 83 9 85 10 89 11 84 12 86 13
REMARK SMILES IDX 88 14 87 15 8 16 7 17 6 18 5 19 4 20 2 21 1 22 3 23 14 24
REMARK SMILES IDX 15 25 16 26 17 27 18 28 19 30 20 31 21 32 82 33 22 34 81 35
REMARK SMILES IDX 23 36 24 37 25 38 75 39 26 40 80 41 74 42 76 43 27 44 79 45
REMARK SMILES IDX 73 46 72 47 28 49 60 50 40 51 59 52 41 53 44 54 58 55 77 56
REMARK SMILES IDX 42 57 43 58 57 60 78 61 45 62 29 63 30 64 38 65 31 66 32 67
REMARK SMILES IDX 36 68 39 69 33 70 34 71 37 72 35 73 61 74 62 75 70 76 63 77
REMARK SMILES IDX 64 78 68 79 71 80 65 81 66 82 69 83 67 84 46 85 47 86 55 87
REMARK SMILES IDX 48 88 49 89 53 90 56 91 50 92 51 93 54 94 52 95
REMARK H PARENT 13 4 9 8 17 29 76 48 44 59
REMARK Flexibility Score: inf
ROOT
ATOM      1  C   UNL A   1      31.658  28.059  26.569  1.00  0.00     0.278 C 
ATOM      2  O   UNL A   1      31.481  27.294  27.524  1.00  0.00    -0.268 OA
ATOM      3  N   UNL A   1      31.405  29.379  26.769  1.00  0.00    -0.351 N 
ATOM      4  H   UNL A   1      31.052  29.609  27.659  1.00  0.00     0.163 HD
ENDROOT
BRANCH   1   5
ATOM      5  C   UNL A   1      32.046  27.497  25.189  1.00  0.00     0.274 C 
ATOM      6  N   UNL A   1      31.476  26.100  24.893  1.00  0.00    -0.320 N 
ATOM      7  C   UNL A   1      32.012  25.733  23.507  1.00  0.00     0.187 C 
ATOM      8  H   UNL A   1      31.734  25.364  25.549  1.00  0.00     0.349 HD
ATOM      9  C   UNL A   1      33.559  27.697  25.028  1.00  0.00     0.076 C 
ATOM     10  C   UNL A   1      33.563  25.829  23.414  1.00  0.00     0.048 C 
ATOM     11  C   UNL A   1      31.733  24.359  22.839  1.00  0.00     0.065 C 
ATOM     12  C   UNL A   1      34.041  27.242  23.672  1.00  0.00     0.016 C 
ATOM     13  C   UNL A   1      34.295  24.782  24.287  1.00  0.00     0.010 C 
ATOM     14  C   UNL A   1      32.680  23.202  23.229  1.00  0.00     0.006 C 
ATOM     15  C   UNL A   1      33.494  23.499  24.476  1.00  0.00     0.001 C 
BRANCH   6  16
ATOM     16  C   UNL A   1      29.965  26.272  24.918  1.00  0.00     0.291 C 
BRANCH  16  17
ATOM     17  C   UNL A   1      29.047  27.044  23.880  1.00  0.00     0.221 C 
BRANCH  17  18
ATOM     18  O   UNL A   1      29.541  27.857  22.826  1.00  0.00    -0.376 OA
BRANCH  18  19
ATOM     19  C   UNL A   1      29.601  29.276  22.921  1.00  0.00     0.160 C 
BRANCH  19  20
ATOM     20  C   UNL A   1      29.058  30.225  21.815  1.00  0.00     0.031 C 
BRANCH  20  21
ATOM     21  C   UNL A   1      28.037  31.292  22.212  1.00  0.00    -0.015 C 
ATOM     22  C   UNL A   1      27.610  31.151  23.649  1.00  0.00     0.007 C 
ATOM     23  C   UNL A   1      28.509  32.740  22.073  1.00  0.00     0.007 C 
ENDBRANCH  20  21
ENDBRANCH  19  20
ENDBRANCH  18  19
ENDBRANCH  17  18
ENDBRANCH  16  17
ENDBRANCH   6  16
ENDBRANCH   1   5
BRANCH   3  24
ATOM     24  C   UNL A   1      31.578  30.496  25.867  1.00  0.00     0.118 C 
BRANCH  24  25
ATOM     25  C   UNL A   1      31.371  31.843  26.543  1.00  0.00     0.042 C 
BRANCH  25  26
ATOM     26  C   UNL A   1      32.652  32.484  27.053  1.00  0.00     0.118 C 
BRANCH  26  27
ATOM     27  N   UNL A   1      32.461  33.860  27.493  1.00  0.00    -0.352 N 
ATOM     28  C   UNL A   1      33.084  34.558  28.488  1.00  0.00     0.251 C 
ATOM     29  H   UNL A   1      31.778  34.364  26.995  1.00  0.00     0.163 HD
ATOM     30  O   UNL A   1      32.646  35.671  28.819  1.00  0.00    -0.269 OA
BRANCH  28  31
ATOM     31  C   UNL A   1      34.251  34.000  29.200  1.00  0.00     0.039 A 
ATOM     32  C   UNL A   1      34.040  33.024  30.176  1.00  0.00     0.014 A 
ATOM     33  C   UNL A   1      35.550  34.439  28.925  1.00  0.00     0.014 A 
ATOM     34  C   UNL A   1      35.129  32.438  30.822  1.00  0.00     0.010 A 
ATOM     35  C   UNL A   1      36.640  33.794  29.506  1.00  0.00     0.010 A 
ATOM     36  C   UNL A   1      36.441  32.788  30.461  1.00  0.00    -0.014 A 
BRANCH  36  37
ATOM     37  C   UNL A   1      37.609  32.093  31.063  1.00  0.00     0.031 A 
ATOM     38  C   UNL A   1      38.092  32.460  32.438  1.00  0.00     0.074 A 
ATOM     39  C   UNL A   1      38.266  31.163  30.342  1.00  0.00     0.049 A 
ATOM     40  N   UNL A   1      39.113  31.989  33.109  1.00  0.00    -0.248 NA
ATOM     41  C   UNL A   1      37.347  33.513  33.145  1.00  0.00     0.031 C 
ATOM     42  C   UNL A   1      37.929  30.759  28.976  1.00  0.00     0.029 A 
ATOM     43  N   UNL A   1      39.359  30.392  30.655  1.00  0.00    -0.354 N 
ATOM     44  C   UNL A   1      39.136  32.689  34.307  1.00  0.00     0.074 A 
ATOM     45  C   UNL A   1      38.063  33.658  34.250  1.00  0.00     0.031 C 
ATOM     46  C   UNL A   1      38.776  29.796  28.579  1.00  0.00     0.029 A 
ATOM     47  C   UNL A   1      39.740  29.543  29.646  1.00  0.00     0.049 A 
ATOM     48  H   UNL A   1      39.824  30.444  31.521  1.00  0.00     0.167 HD
ATOM     49  C   UNL A   1      39.961  32.524  35.368  1.00  0.00     0.037 A 
ATOM     50  C   UNL A   1      40.757  28.662  29.585  1.00  0.00     0.037 A 
ATOM     51  C   UNL A   1      41.017  31.545  35.430  1.00  0.00     0.049 A 
ATOM     52  C   UNL A   1      41.662  28.503  30.776  1.00  0.00     0.074 A 
ATOM     53  C   UNL A   1      41.869  31.261  36.483  1.00  0.00     0.029 A 
ATOM     54  N   UNL A   1      41.367  30.695  34.392  1.00  0.00    -0.354 N 
ATOM     55  N   UNL A   1      41.625  29.120  31.933  1.00  0.00    -0.248 NA
ATOM     56  C   UNL A   1      42.744  27.518  30.656  1.00  0.00     0.031 C 
ATOM     57  C   UNL A   1      42.766  30.271  36.066  1.00  0.00     0.029 A 
ATOM     58  C   UNL A   1      42.439  29.900  34.772  1.00  0.00     0.049 A 
ATOM     59  H   UNL A   1      40.921  30.659  33.515  1.00  0.00     0.167 HD
ATOM     60  C   UNL A   1      42.660  28.582  32.685  1.00  0.00     0.074 A 
ATOM     61  C   UNL A   1      43.292  27.571  31.862  1.00  0.00     0.031 C 
ATOM     62  C   UNL A   1      43.055  28.898  33.942  1.00  0.00     0.037 A 
BRANCH  49  63
ATOM     63  C   UNL A   1      39.753  33.415  36.559  1.00  0.00     0.064 A 
ATOM     64  C   UNL A   1      40.409  34.650  36.676  1.00  0.00     0.173 A 
ATOM     65  C   UNL A   1      38.850  33.056  37.570  1.00  0.00     0.173 A 
ATOM     66  F   UNL A   1      41.291  35.037  35.741  1.00  0.00    -0.203 F 
ATOM     67  C   UNL A   1      40.186  35.480  37.771  1.00  0.00     0.198 A 
ATOM     68  C   UNL A   1      38.606  33.901  38.649  1.00  0.00     0.198 A 
ATOM     69  F   UNL A   1      38.191  31.888  37.506  1.00  0.00    -0.203 F 
ATOM     70  F   UNL A   1      40.857  36.635  37.882  1.00  0.00    -0.200 F 
ATOM     71  C   UNL A   1      39.280  35.109  38.753  1.00  0.00     0.200 A 
ATOM     72  F   UNL A   1      37.718  33.549  39.590  1.00  0.00    -0.200 F 
ATOM     73  F   UNL A   1      39.057  35.915  39.799  1.00  0.00    -0.200 F 
ENDBRANCH  49  63
BRANCH  50  74
ATOM     74  C   UNL A   1      40.963  27.846  28.360  1.00  0.00     0.064 A 
ATOM     75  C   UNL A   1      40.347  26.595  28.215  1.00  0.00     0.173 A 
ATOM     76  C   UNL A   1      41.793  28.288  27.319  1.00  0.00     0.173 A 
ATOM     77  F   UNL A   1      39.560  26.119  29.191  1.00  0.00    -0.203 F 
ATOM     78  C   UNL A   1      40.572  25.806  27.089  1.00  0.00     0.198 A 
ATOM     79  C   UNL A   1      41.993  27.512  26.180  1.00  0.00     0.198 A 
ATOM     80  F   UNL A   1      42.402  29.479  27.406  1.00  0.00    -0.203 F 
ATOM     81  F   UNL A   1      40.013  24.592  27.001  1.00  0.00    -0.200 F 
ATOM     82  C   UNL A   1      41.392  26.268  26.070  1.00  0.00     0.200 A 
ATOM     83  F   UNL A   1      42.774  27.969  25.190  1.00  0.00    -0.200 F 
ATOM     84  F   UNL A   1      41.609  25.509  24.986  1.00  0.00    -0.200 F 
ENDBRANCH  50  74
BRANCH  62  85
ATOM     85  C   UNL A   1      44.209  28.122  34.512  1.00  0.00     0.064 A 
ATOM     86  C   UNL A   1      45.531  28.579  34.400  1.00  0.00     0.173 A 
ATOM     87  C   UNL A   1      43.986  26.918  35.196  1.00  0.00     0.173 A 
ATOM     88  F   UNL A   1      45.798  29.718  33.741  1.00  0.00    -0.203 F 
ATOM     89  C   UNL A   1      46.589  27.840  34.919  1.00  0.00     0.198 A 
ATOM     90  C   UNL A   1      45.045  26.199  35.743  1.00  0.00     0.198 A 
ATOM     91  F   UNL A   1      42.740  26.441  35.338  1.00  0.00    -0.203 F 
ATOM     92  F   UNL A   1      47.849  28.265  34.748  1.00  0.00    -0.200 F 
ATOM     93  C   UNL A   1      46.346  26.655  35.596  1.00  0.00     0.200 A 
ATOM     94  F   UNL A   1      44.806  25.060  36.410  1.00  0.00    -0.200 F 
ATOM     95  F   UNL A   1      47.366  25.946  36.098  1.00  0.00    -0.200 F 
ENDBRANCH  62  85
ENDBRANCH  36  37
ENDBRANCH  28  31
ENDBRANCH  26  27
ENDBRANCH  25  26
ENDBRANCH  24  25
ENDBRANCH   3  24
TORSDOF 16
ENDMDL
