MODEL 1
REMARK VINA RESULT:     -13.4      0.000      0.000
REMARK SMILES Cc1ccccc1CSc1cccc(C(=O)NCCCNC(=O)c2ccc(-c3c4nc(c(-c5c(F)c(F)c(F)c(F)c5F)c5ccc([nH]5)c(-c5c(F)c(F)c(F)c(F)c5F)c5nc(c(-c6c(F)c(F)c(F)c(F)c6F)c6ccc3[nH]6)C=C5)C=C4)cc2)n1
REMARK SMILES IDX 18 1 17 2 15 3 16 4 14 6 10 7 11 8 87 9 12 10 13 11 9 12
REMARK SMILES IDX 8 13 7 14 1 15 2 16 3 17 4 18 6 19 5 20 19 21 20 22 21 23
REMARK SMILES IDX 22 24 23 26 24 27 25 28 86 29 26 30 85 31 27 32 28 33 29 34
REMARK SMILES IDX 79 35 30 36 84 37 78 38 80 39 31 40 83 41 77 42 76 43 32 45
REMARK SMILES IDX 64 46 44 47 63 48 45 49 48 50 62 51 81 52 46 53 47 54 61 56
REMARK SMILES IDX 82 57 49 58 33 59 34 60 42 61 35 62 36 63 40 64 43 65 37 66
REMARK SMILES IDX 38 67 41 68 39 69 65 70 66 71 74 72 67 73 68 74 72 75 75 76
REMARK SMILES IDX 69 77 70 78 73 79 71 80 50 81 51 82 59 83 52 84 53 85 57 86
REMARK SMILES IDX 60 87 54 88 55 89 58 90 56 91
REMARK H PARENT 17 5 21 25 80 44 48 55
REMARK Flexibility Score: inf
ROOT
ATOM      1  C   UNL A   1      37.043  21.196  24.991  1.00  0.00     0.118 C 
ENDROOT
BRANCH   1   2
ATOM      2  N   UNL A   1      36.158  21.361  26.128  1.00  0.00    -0.351 N 
ATOM      3  C   UNL A   1      34.791  21.534  26.217  1.00  0.00     0.269 C 
ATOM      4  O   UNL A   1      34.342  21.682  27.355  1.00  0.00    -0.268 OA
ATOM      5  H   UNL A   1      36.617  21.347  27.000  1.00  0.00     0.163 HD
BRANCH   3   6
ATOM      6  C   UNL A   1      33.867  21.551  25.025  1.00  0.00     0.129 A 
ATOM      7  C   UNL A   1      33.046  22.829  23.261  1.00  0.00     0.097 A 
ATOM      8  C   UNL A   1      32.296  21.766  22.779  1.00  0.00     0.035 A 
ATOM      9  N   UNL A   1      33.812  22.737  24.366  1.00  0.00    -0.236 NA
ATOM     10  C   UNL A   1      32.367  20.550  23.443  1.00  0.00     0.005 A 
ATOM     11  C   UNL A   1      33.173  20.437  24.572  1.00  0.00     0.034 A 
BRANCH   7  12
ATOM     12  S   UNL A   1      32.945  24.394  22.418  1.00  0.00    -0.102 SA
BRANCH  12  13
ATOM     13  C   UNL A   1      31.619  25.205  23.380  1.00  0.00     0.112 C 
BRANCH  13  14
ATOM     14  C   UNL A   1      32.080  26.043  24.554  1.00  0.00    -0.035 A 
ATOM     15  C   UNL A   1      29.888  25.694  25.863  1.00  0.00     0.044 C 
ATOM     16  C   UNL A   1      31.276  26.253  25.697  1.00  0.00    -0.047 A 
ATOM     17  C   UNL A   1      31.744  27.105  26.715  1.00  0.00     0.004 A 
ATOM     18  C   UNL A   1      33.000  27.703  26.640  1.00  0.00     0.000 A 
ATOM     19  C   UNL A   1      33.367  26.618  24.523  1.00  0.00     0.005 A 
ATOM     20  C   UNL A   1      33.819  27.448  25.548  1.00  0.00     0.000 A 
ENDBRANCH  13  14
ENDBRANCH  12  13
ENDBRANCH   7  12
ENDBRANCH   3   6
ENDBRANCH   1   2
BRANCH   1  21
ATOM     21  C   UNL A   1      38.506  21.233  25.434  1.00  0.00     0.042 C 
BRANCH  21  22
ATOM     22  C   UNL A   1      38.901  22.511  26.160  1.00  0.00     0.118 C 
BRANCH  22  23
ATOM     23  N   UNL A   1      40.345  22.662  26.317  1.00  0.00    -0.352 N 
ATOM     24  C   UNL A   1      41.076  23.800  26.625  1.00  0.00     0.251 C 
ATOM     25  H   UNL A   1      40.874  21.842  26.187  1.00  0.00     0.163 HD
ATOM     26  O   UNL A   1      42.283  23.756  26.752  1.00  0.00    -0.269 OA
BRANCH  24  27
ATOM     27  C   UNL A   1      40.329  25.041  26.935  1.00  0.00     0.039 A 
ATOM     28  C   UNL A   1      40.665  26.191  26.214  1.00  0.00     0.014 A 
ATOM     29  C   UNL A   1      39.552  25.118  28.087  1.00  0.00     0.014 A 
ATOM     30  C   UNL A   1      40.462  27.433  26.802  1.00  0.00     0.010 A 
ATOM     31  C   UNL A   1      39.444  26.341  28.715  1.00  0.00     0.010 A 
ATOM     32  C   UNL A   1      39.982  27.484  28.108  1.00  0.00    -0.014 A 
BRANCH  32  33
ATOM     33  C   UNL A   1      40.164  28.643  28.975  1.00  0.00     0.031 A 
ATOM     34  C   UNL A   1      39.138  29.702  29.040  1.00  0.00     0.074 A 
ATOM     35  C   UNL A   1      41.238  28.683  29.798  1.00  0.00     0.049 A 
ATOM     36  N   UNL A   1      39.330  30.859  29.580  1.00  0.00    -0.248 NA
ATOM     37  C   UNL A   1      37.828  29.579  28.409  1.00  0.00     0.031 C 
ATOM     38  C   UNL A   1      41.428  29.536  30.970  1.00  0.00     0.029 A 
ATOM     39  N   UNL A   1      42.495  28.079  29.602  1.00  0.00    -0.354 N 
ATOM     40  C   UNL A   1      38.120  31.508  29.628  1.00  0.00     0.074 A 
ATOM     41  C   UNL A   1      37.262  30.736  28.767  1.00  0.00     0.031 C 
ATOM     42  C   UNL A   1      42.741  29.645  31.221  1.00  0.00     0.029 A 
ATOM     43  C   UNL A   1      43.436  28.998  30.122  1.00  0.00     0.049 A 
ATOM     44  H   UNL A   1      42.679  27.203  29.191  1.00  0.00     0.167 HD
ATOM     45  C   UNL A   1      37.976  32.543  30.504  1.00  0.00     0.037 A 
ATOM     46  C   UNL A   1      44.371  29.606  29.335  1.00  0.00     0.037 A 
ATOM     47  C   UNL A   1      39.285  32.993  30.986  1.00  0.00     0.049 A 
ATOM     48  C   UNL A   1      44.329  31.114  29.376  1.00  0.00     0.074 A 
ATOM     49  C   UNL A   1      39.964  32.852  32.183  1.00  0.00     0.029 A 
ATOM     50  N   UNL A   1      40.205  33.493  30.066  1.00  0.00    -0.354 N 
ATOM     51  N   UNL A   1      43.283  31.801  29.743  1.00  0.00    -0.248 NA
ATOM     52  C   UNL A   1      45.443  31.963  28.968  1.00  0.00     0.031 C 
ATOM     53  C   UNL A   1      41.321  33.211  31.959  1.00  0.00     0.029 A 
ATOM     54  C   UNL A   1      41.457  33.601  30.636  1.00  0.00     0.049 A 
ATOM     55  H   UNL A   1      39.991  33.735  29.136  1.00  0.00     0.167 HD
ATOM     56  C   UNL A   1      43.546  33.140  29.603  1.00  0.00     0.074 A 
ATOM     57  C   UNL A   1      44.919  33.188  29.138  1.00  0.00     0.031 C 
ATOM     58  C   UNL A   1      42.593  34.084  29.863  1.00  0.00     0.037 A 
BRANCH  45  59
ATOM     59  C   UNL A   1      36.663  33.027  31.106  1.00  0.00     0.064 A 
ATOM     60  C   UNL A   1      35.799  33.856  30.349  1.00  0.00     0.173 A 
ATOM     61  C   UNL A   1      36.244  32.837  32.441  1.00  0.00     0.173 A 
ATOM     62  F   UNL A   1      36.039  34.117  29.056  1.00  0.00    -0.203 F 
ATOM     63  C   UNL A   1      34.663  34.470  30.893  1.00  0.00     0.198 A 
ATOM     64  C   UNL A   1      35.091  33.424  32.975  1.00  0.00     0.198 A 
ATOM     65  F   UNL A   1      36.935  32.107  33.317  1.00  0.00    -0.203 F 
ATOM     66  F   UNL A   1      33.922  35.291  30.135  1.00  0.00    -0.200 F 
ATOM     67  C   UNL A   1      34.310  34.255  32.207  1.00  0.00     0.200 A 
ATOM     68  F   UNL A   1      34.767  33.192  34.255  1.00  0.00    -0.200 F 
ATOM     69  F   UNL A   1      33.231  34.849  32.735  1.00  0.00    -0.200 F 
ENDBRANCH  45  59
BRANCH  46  70
ATOM     70  C   UNL A   1      44.754  28.805  28.145  1.00  0.00     0.064 A 
ATOM     71  C   UNL A   1      45.650  27.733  28.316  1.00  0.00     0.173 A 
ATOM     72  C   UNL A   1      43.995  28.834  26.969  1.00  0.00     0.173 A 
ATOM     73  F   UNL A   1      46.400  27.658  29.428  1.00  0.00    -0.203 F 
ATOM     74  C   UNL A   1      45.693  26.675  27.412  1.00  0.00     0.198 A 
ATOM     75  C   UNL A   1      44.052  27.778  26.058  1.00  0.00     0.198 A 
ATOM     76  F   UNL A   1      43.111  29.819  26.757  1.00  0.00    -0.203 F 
ATOM     77  F   UNL A   1      46.470  25.611  27.664  1.00  0.00    -0.200 F 
ATOM     78  C   UNL A   1      44.873  26.686  26.297  1.00  0.00     0.200 A 
ATOM     79  F   UNL A   1      43.233  27.770  24.997  1.00  0.00    -0.200 F 
ATOM     80  F   UNL A   1      44.836  25.624  25.480  1.00  0.00    -0.200 F 
ENDBRANCH  46  70
BRANCH  58  81
ATOM     81  C   UNL A   1      42.661  35.551  29.493  1.00  0.00     0.064 A 
ATOM     82  C   UNL A   1      43.445  36.505  30.166  1.00  0.00     0.173 A 
ATOM     83  C   UNL A   1      42.023  36.022  28.317  1.00  0.00     0.173 A 
ATOM     84  F   UNL A   1      44.208  36.170  31.214  1.00  0.00    -0.203 F 
ATOM     85  C   UNL A   1      43.528  37.835  29.740  1.00  0.00     0.198 A 
ATOM     86  C   UNL A   1      42.157  37.334  27.861  1.00  0.00     0.198 A 
ATOM     87  F   UNL A   1      41.273  35.214  27.553  1.00  0.00    -0.203 F 
ATOM     88  F   UNL A   1      44.257  38.711  30.446  1.00  0.00    -0.200 F 
ATOM     89  C   UNL A   1      42.896  38.247  28.583  1.00  0.00     0.200 A 
ATOM     90  F   UNL A   1      41.585  37.700  26.706  1.00  0.00    -0.200 F 
ATOM     91  F   UNL A   1      43.019  39.509  28.154  1.00  0.00    -0.200 F 
ENDBRANCH  58  81
ENDBRANCH  32  33
ENDBRANCH  24  27
ENDBRANCH  22  23
ENDBRANCH  21  22
ENDBRANCH   1  21
TORSDOF 13
ENDMDL
MODEL 2
REMARK VINA RESULT:     -13.4      3.793      9.808
REMARK SMILES Cc1ccccc1CSc1cccc(C(=O)NCCCNC(=O)c2ccc(-c3c4nc(c(-c5c(F)c(F)c(F)c(F)c5F)c5ccc([nH]5)c(-c5c(F)c(F)c(F)c(F)c5F)c5nc(c(-c6c(F)c(F)c(F)c(F)c6F)c6ccc3[nH]6)C=C5)C=C4)cc2)n1
REMARK SMILES IDX 18 1 17 2 15 3 16 4 14 6 10 7 11 8 87 9 12 10 13 11 9 12
REMARK SMILES IDX 8 13 7 14 1 15 2 16 3 17 4 18 6 19 5 20 19 21 20 22 21 23
REMARK SMILES IDX 22 24 23 26 24 27 25 28 86 29 26 30 85 31 27 32 28 33 29 34
REMARK SMILES IDX 79 35 30 36 84 37 78 38 80 39 31 40 83 41 77 42 76 43 32 45
REMARK SMILES IDX 64 46 44 47 63 48 45 49 48 50 62 51 81 52 46 53 47 54 61 56
REMARK SMILES IDX 82 57 49 58 33 59 34 60 42 61 35 62 36 63 40 64 43 65 37 66
REMARK SMILES IDX 38 67 41 68 39 69 65 70 66 71 74 72 67 73 68 74 72 75 75 76
REMARK SMILES IDX 69 77 70 78 73 79 71 80 50 81 51 82 59 83 52 84 53 85 57 86
REMARK SMILES IDX 60 87 54 88 55 89 58 90 56 91
REMARK H PARENT 17 5 21 25 80 44 48 55
REMARK Flexibility Score: inf
ROOT
ATOM      1  C   UNL A   1      32.373  29.301  25.629  1.00  0.00     0.118 C 
ENDROOT
BRANCH   1   2
ATOM      2  N   UNL A   1      31.452  29.794  24.624  1.00  0.00    -0.351 N 
ATOM      3  C   UNL A   1      30.676  29.144  23.684  1.00  0.00     0.269 C 
ATOM      4  O   UNL A   1      30.015  29.871  22.941  1.00  0.00    -0.268 OA
ATOM      5  H   UNL A   1      31.361  30.775  24.609  1.00  0.00     0.163 HD
BRANCH   3   6
ATOM      6  C   UNL A   1      30.614  27.644  23.538  1.00  0.00     0.129 A 
ATOM      7  C   UNL A   1      31.730  25.750  22.773  1.00  0.00     0.097 A 
ATOM      8  C   UNL A   1      30.725  24.914  23.237  1.00  0.00     0.035 A 
ATOM      9  N   UNL A   1      31.681  27.090  22.907  1.00  0.00    -0.236 NA
ATOM     10  C   UNL A   1      29.644  25.480  23.897  1.00  0.00     0.005 A 
ATOM     11  C   UNL A   1      29.595  26.862  24.061  1.00  0.00     0.034 A 
BRANCH   7  12
ATOM     12  S   UNL A   1      33.111  25.027  21.914  1.00  0.00    -0.102 SA
BRANCH  12  13
ATOM     13  C   UNL A   1      33.372  23.518  22.912  1.00  0.00     0.112 C 
BRANCH  13  14
ATOM     14  C   UNL A   1      34.638  23.491  23.742  1.00  0.00    -0.035 A 
ATOM     15  C   UNL A   1      33.561  24.760  25.709  1.00  0.00     0.044 C 
ATOM     16  C   UNL A   1      34.710  24.059  25.034  1.00  0.00    -0.047 A 
ATOM     17  C   UNL A   1      35.943  24.060  25.713  1.00  0.00     0.004 A 
ATOM     18  C   UNL A   1      37.076  23.470  25.159  1.00  0.00     0.000 A 
ATOM     19  C   UNL A   1      35.785  22.856  23.223  1.00  0.00     0.005 A 
ATOM     20  C   UNL A   1      36.994  22.855  23.917  1.00  0.00     0.000 A 
ENDBRANCH  13  14
ENDBRANCH  12  13
ENDBRANCH   7  12
ENDBRANCH   3   6
ENDBRANCH   1   2
BRANCH   1  21
ATOM     21  C   UNL A   1      33.225  30.440  26.188  1.00  0.00     0.042 C 
BRANCH  21  22
ATOM     22  C   UNL A   1      33.272  30.491  27.708  1.00  0.00     0.118 C 
BRANCH  22  23
ATOM     23  N   UNL A   1      34.058  31.609  28.224  1.00  0.00    -0.352 N 
ATOM     24  C   UNL A   1      35.361  31.614  28.701  1.00  0.00     0.251 C 
ATOM     25  H   UNL A   1      33.600  32.480  28.234  1.00  0.00     0.163 HD
ATOM     26  O   UNL A   1      35.890  32.643  29.071  1.00  0.00    -0.269 OA
BRANCH  24  27
ATOM     27  C   UNL A   1      36.135  30.355  28.615  1.00  0.00     0.039 A 
ATOM     28  C   UNL A   1      36.405  29.682  29.811  1.00  0.00     0.014 A 
ATOM     29  C   UNL A   1      36.810  30.030  27.442  1.00  0.00     0.014 A 
ATOM     30  C   UNL A   1      37.541  28.887  29.891  1.00  0.00     0.010 A 
ATOM     31  C   UNL A   1      37.991  29.326  27.547  1.00  0.00     0.010 A 
ATOM     32  C   UNL A   1      38.398  28.833  28.794  1.00  0.00    -0.014 A 
BRANCH  32  33
ATOM     33  C   UNL A   1      39.799  28.441  28.902  1.00  0.00     0.031 A 
ATOM     34  C   UNL A   1      40.224  27.069  28.560  1.00  0.00     0.074 A 
ATOM     35  C   UNL A   1      40.720  29.381  29.218  1.00  0.00     0.049 A 
ATOM     36  N   UNL A   1      41.379  26.577  28.860  1.00  0.00    -0.248 NA
ATOM     37  C   UNL A   1      39.337  26.095  27.933  1.00  0.00     0.031 C 
ATOM     38  C   UNL A   1      42.168  29.304  29.033  1.00  0.00     0.029 A 
ATOM     39  N   UNL A   1      40.530  30.548  29.983  1.00  0.00    -0.354 N 
ATOM     40  C   UNL A   1      41.496  25.361  28.230  1.00  0.00     0.074 A 
ATOM     41  C   UNL A   1      40.160  25.051  27.794  1.00  0.00     0.031 C 
ATOM     42  C   UNL A   1      42.761  30.164  29.873  1.00  0.00     0.029 A 
ATOM     43  C   UNL A   1      41.721  30.700  30.733  1.00  0.00     0.049 A 
ATOM     44  H   UNL A   1      39.739  31.133  29.993  1.00  0.00     0.167 HD
ATOM     45  C   UNL A   1      42.746  24.845  28.049  1.00  0.00     0.037 A 
ATOM     46  C   UNL A   1      41.734  30.632  32.096  1.00  0.00     0.037 A 
ATOM     47  C   UNL A   1      43.718  25.545  28.893  1.00  0.00     0.049 A 
ATOM     48  C   UNL A   1      42.666  29.584  32.654  1.00  0.00     0.074 A 
ATOM     49  C   UNL A   1      44.710  26.476  28.641  1.00  0.00     0.029 A 
ATOM     50  N   UNL A   1      43.562  25.499  30.277  1.00  0.00    -0.354 N 
ATOM     51  N   UNL A   1      43.089  28.554  31.977  1.00  0.00    -0.248 NA
ATOM     52  C   UNL A   1      43.158  29.592  34.028  1.00  0.00     0.031 C 
ATOM     53  C   UNL A   1      45.107  27.038  29.884  1.00  0.00     0.029 A 
ATOM     54  C   UNL A   1      44.380  26.425  30.892  1.00  0.00     0.049 A 
ATOM     55  H   UNL A   1      42.952  24.889  30.752  1.00  0.00     0.167 HD
ATOM     56  C   UNL A   1      43.860  27.761  32.787  1.00  0.00     0.074 A 
ATOM     57  C   UNL A   1      43.892  28.467  34.053  1.00  0.00     0.031 C 
ATOM     58  C   UNL A   1      44.381  26.579  32.342  1.00  0.00     0.037 A 
BRANCH  45  59
ATOM     59  C   UNL A   1      43.154  23.857  26.963  1.00  0.00     0.064 A 
ATOM     60  C   UNL A   1      42.838  22.484  27.100  1.00  0.00     0.173 A 
ATOM     61  C   UNL A   1      43.959  24.148  25.841  1.00  0.00     0.173 A 
ATOM     62  F   UNL A   1      42.061  22.043  28.100  1.00  0.00    -0.203 F 
ATOM     63  C   UNL A   1      43.324  21.500  26.229  1.00  0.00     0.198 A 
ATOM     64  C   UNL A   1      44.417  23.169  24.951  1.00  0.00     0.198 A 
ATOM     65  F   UNL A   1      44.380  25.380  25.553  1.00  0.00    -0.203 F 
ATOM     66  F   UNL A   1      43.034  20.210  26.451  1.00  0.00    -0.200 F 
ATOM     67  C   UNL A   1      44.116  21.843  25.154  1.00  0.00     0.200 A 
ATOM     68  F   UNL A   1      45.180  23.531  23.909  1.00  0.00    -0.200 F 
ATOM     69  F   UNL A   1      44.591  20.905  24.324  1.00  0.00    -0.200 F 
ENDBRANCH  45  59
BRANCH  46  70
ATOM     70  C   UNL A   1      40.452  31.040  32.723  1.00  0.00     0.064 A 
ATOM     71  C   UNL A   1      40.134  32.411  32.774  1.00  0.00     0.173 A 
ATOM     72  C   UNL A   1      39.410  30.126  32.916  1.00  0.00     0.173 A 
ATOM     73  F   UNL A   1      41.098  33.329  32.592  1.00  0.00    -0.203 F 
ATOM     74  C   UNL A   1      38.816  32.844  32.889  1.00  0.00     0.198 A 
ATOM     75  C   UNL A   1      38.091  30.566  33.046  1.00  0.00     0.198 A 
ATOM     76  F   UNL A   1      39.645  28.807  32.860  1.00  0.00    -0.203 F 
ATOM     77  F   UNL A   1      38.534  34.153  32.815  1.00  0.00    -0.200 F 
ATOM     78  C   UNL A   1      37.792  31.919  32.997  1.00  0.00     0.200 A 
ATOM     79  F   UNL A   1      37.095  29.671  33.115  1.00  0.00    -0.200 F 
ATOM     80  F   UNL A   1      36.516  32.328  33.005  1.00  0.00    -0.200 F 
ENDBRANCH  46  70
BRANCH  58  81
ATOM     81  C   UNL A   1      45.006  25.495  33.195  1.00  0.00     0.064 A 
ATOM     82  C   UNL A   1      46.384  25.218  33.244  1.00  0.00     0.173 A 
ATOM     83  C   UNL A   1      44.218  24.778  34.130  1.00  0.00     0.173 A 
ATOM     84  F   UNL A   1      47.264  25.914  32.512  1.00  0.00    -0.203 F 
ATOM     85  C   UNL A   1      46.920  24.253  34.104  1.00  0.00     0.198 A 
ATOM     86  C   UNL A   1      44.764  23.861  35.029  1.00  0.00     0.198 A 
ATOM     87  F   UNL A   1      42.893  24.968  34.224  1.00  0.00    -0.203 F 
ATOM     88  F   UNL A   1      48.236  24.000  34.076  1.00  0.00    -0.200 F 
ATOM     89  C   UNL A   1      46.113  23.584  35.003  1.00  0.00     0.200 A 
ATOM     90  F   UNL A   1      43.975  23.265  35.934  1.00  0.00    -0.200 F 
ATOM     91  F   UNL A   1      46.639  22.698  35.859  1.00  0.00    -0.200 F 
ENDBRANCH  58  81
ENDBRANCH  32  33
ENDBRANCH  24  27
ENDBRANCH  22  23
ENDBRANCH  21  22
ENDBRANCH   1  21
TORSDOF 13
ENDMDL
MODEL 3
REMARK VINA RESULT:     -13.2      3.966     10.216
REMARK SMILES Cc1ccccc1CSc1cccc(C(=O)NCCCNC(=O)c2ccc(-c3c4nc(c(-c5c(F)c(F)c(F)c(F)c5F)c5ccc([nH]5)c(-c5c(F)c(F)c(F)c(F)c5F)c5nc(c(-c6c(F)c(F)c(F)c(F)c6F)c6ccc3[nH]6)C=C5)C=C4)cc2)n1
REMARK SMILES IDX 18 1 17 2 15 3 16 4 14 6 10 7 11 8 87 9 12 10 13 11 9 12
REMARK SMILES IDX 8 13 7 14 1 15 2 16 3 17 4 18 6 19 5 20 19 21 20 22 21 23
REMARK SMILES IDX 22 24 23 26 24 27 25 28 86 29 26 30 85 31 27 32 28 33 29 34
REMARK SMILES IDX 79 35 30 36 84 37 78 38 80 39 31 40 83 41 77 42 76 43 32 45
REMARK SMILES IDX 64 46 44 47 63 48 45 49 48 50 62 51 81 52 46 53 47 54 61 56
REMARK SMILES IDX 82 57 49 58 33 59 34 60 42 61 35 62 36 63 40 64 43 65 37 66
REMARK SMILES IDX 38 67 41 68 39 69 65 70 66 71 74 72 67 73 68 74 72 75 75 76
REMARK SMILES IDX 69 77 70 78 73 79 71 80 50 81 51 82 59 83 52 84 53 85 57 86
REMARK SMILES IDX 60 87 54 88 55 89 58 90 56 91
REMARK H PARENT 17 5 21 25 80 44 48 55
REMARK Flexibility Score: inf
ROOT
ATOM      1  C   UNL A   1      32.276  30.250  26.122  1.00  0.00     0.118 C 
ENDROOT
BRANCH   1   2
ATOM      2  N   UNL A   1      31.708  29.154  26.883  1.00  0.00    -0.351 N 
ATOM      3  C   UNL A   1      31.693  27.790  26.667  1.00  0.00     0.269 C 
ATOM      4  O   UNL A   1      31.083  27.122  27.503  1.00  0.00    -0.268 OA
ATOM      5  H   UNL A   1      31.247  29.433  27.707  1.00  0.00     0.163 HD
BRANCH   3   6
ATOM      6  C   UNL A   1      32.364  27.117  25.495  1.00  0.00     0.129 A 
ATOM      7  C   UNL A   1      33.987  25.581  24.846  1.00  0.00     0.097 A 
ATOM      8  C   UNL A   1      33.663  25.735  23.506  1.00  0.00     0.035 A 
ATOM      9  N   UNL A   1      33.363  26.261  25.828  1.00  0.00    -0.236 NA
ATOM     10  C   UNL A   1      32.630  26.597  23.169  1.00  0.00     0.005 A 
ATOM     11  C   UNL A   1      31.963  27.286  24.177  1.00  0.00     0.034 A 
BRANCH   7  12
ATOM     12  S   UNL A   1      35.322  24.485  25.279  1.00  0.00    -0.102 SA
BRANCH  12  13
ATOM     13  C   UNL A   1      35.290  23.342  23.854  1.00  0.00     0.112 C 
BRANCH  13  14
ATOM     14  C   UNL A   1      34.450  22.095  24.032  1.00  0.00    -0.035 A 
ATOM     15  C   UNL A   1      36.304  20.837  25.304  1.00  0.00     0.044 C 
ATOM     16  C   UNL A   1      34.925  20.950  24.711  1.00  0.00    -0.047 A 
ATOM     17  C   UNL A   1      34.111  19.803  24.770  1.00  0.00     0.004 A 
ATOM     18  C   UNL A   1      32.833  19.792  24.219  1.00  0.00     0.000 A 
ATOM     19  C   UNL A   1      33.134  22.077  23.525  1.00  0.00     0.005 A 
ATOM     20  C   UNL A   1      32.338  20.935  23.607  1.00  0.00     0.000 A 
ENDBRANCH  13  14
ENDBRANCH  12  13
ENDBRANCH   7  12
ENDBRANCH   3   6
ENDBRANCH   1   2
BRANCH   1  21
ATOM     21  C   UNL A   1      33.067  31.189  27.033  1.00  0.00     0.042 C 
BRANCH  21  22
ATOM     22  C   UNL A   1      34.285  30.544  27.678  1.00  0.00     0.118 C 
BRANCH  22  23
ATOM     23  N   UNL A   1      34.959  31.415  28.638  1.00  0.00    -0.352 N 
ATOM     24  C   UNL A   1      36.142  31.202  29.330  1.00  0.00     0.251 C 
ATOM     25  H   UNL A   1      34.511  32.274  28.817  1.00  0.00     0.163 HD
ATOM     26  O   UNL A   1      36.592  32.047  30.078  1.00  0.00    -0.269 OA
BRANCH  24  27
ATOM     27  C   UNL A   1      36.913  29.976  29.024  1.00  0.00     0.039 A 
ATOM     28  C   UNL A   1      37.039  29.025  30.041  1.00  0.00     0.014 A 
ATOM     29  C   UNL A   1      37.715  29.923  27.888  1.00  0.00     0.014 A 
ATOM     30  C   UNL A   1      38.154  28.196  30.048  1.00  0.00     0.010 A 
ATOM     31  C   UNL A   1      38.873  29.175  27.946  1.00  0.00     0.010 A 
ATOM     32  C   UNL A   1      39.131  28.381  29.072  1.00  0.00    -0.014 A 
BRANCH  32  33
ATOM     33  C   UNL A   1      40.508  27.926  29.233  1.00  0.00     0.031 A 
ATOM     34  C   UNL A   1      40.912  26.578  28.787  1.00  0.00     0.074 A 
ATOM     35  C   UNL A   1      41.434  28.796  29.700  1.00  0.00     0.049 A 
ATOM     36  N   UNL A   1      42.027  26.016  29.113  1.00  0.00    -0.248 NA
ATOM     37  C   UNL A   1      40.040  25.704  28.010  1.00  0.00     0.031 C 
ATOM     38  C   UNL A   1      42.888  28.681  29.605  1.00  0.00     0.029 A 
ATOM     39  N   UNL A   1      41.228  29.890  30.562  1.00  0.00    -0.354 N 
ATOM     40  C   UNL A   1      42.149  24.863  28.376  1.00  0.00     0.074 A 
ATOM     41  C   UNL A   1      40.838  24.647  27.824  1.00  0.00     0.031 C 
ATOM     42  C   UNL A   1      43.448  29.434  30.564  1.00  0.00     0.029 A 
ATOM     43  C   UNL A   1      42.368  29.924  31.401  1.00  0.00     0.049 A 
ATOM     44  H   UNL A   1      40.457  30.502  30.578  1.00  0.00     0.167 HD
ATOM     45  C   UNL A   1      43.391  24.318  28.228  1.00  0.00     0.037 A 
ATOM     46  C   UNL A   1      42.284  29.725  32.748  1.00  0.00     0.037 A 
ATOM     47  C   UNL A   1      44.324  24.897  29.200  1.00  0.00     0.049 A 
ATOM     48  C   UNL A   1      43.141  28.594  33.262  1.00  0.00     0.074 A 
ATOM     49  C   UNL A   1      45.360  25.809  29.107  1.00  0.00     0.029 A 
ATOM     50  N   UNL A   1      44.071  24.724  30.559  1.00  0.00    -0.354 N 
ATOM     51  N   UNL A   1      43.577  27.618  32.516  1.00  0.00    -0.248 NA
ATOM     52  C   UNL A   1      43.536  28.451  34.659  1.00  0.00     0.031 C 
ATOM     53  C   UNL A   1      45.687  26.233  30.423  1.00  0.00     0.029 A 
ATOM     54  C   UNL A   1      44.873  25.555  31.315  1.00  0.00     0.049 A 
ATOM     55  H   UNL A   1      43.410  24.096  30.930  1.00  0.00     0.167 HD
ATOM     56  C   UNL A   1      44.264  26.721  33.293  1.00  0.00     0.074 A 
ATOM     57  C   UNL A   1      44.230  27.301  34.622  1.00  0.00     0.031 C 
ATOM     58  C   UNL A   1      44.777  25.569  32.770  1.00  0.00     0.037 A 
BRANCH  45  59
ATOM     59  C   UNL A   1      43.843  23.424  27.080  1.00  0.00     0.064 A 
ATOM     60  C   UNL A   1      44.669  23.949  26.057  1.00  0.00     0.173 A 
ATOM     61  C   UNL A   1      43.410  22.102  26.842  1.00  0.00     0.173 A 
ATOM     62  F   UNL A   1      45.185  25.183  26.141  1.00  0.00    -0.203 F 
ATOM     63  C   UNL A   1      44.985  23.236  24.893  1.00  0.00     0.198 A 
ATOM     64  C   UNL A   1      43.753  21.378  25.694  1.00  0.00     0.198 A 
ATOM     65  F   UNL A   1      42.608  21.442  27.679  1.00  0.00    -0.203 F 
ATOM     66  F   UNL A   1      45.725  23.815  23.937  1.00  0.00    -0.200 F 
ATOM     67  C   UNL A   1      44.525  21.950  24.710  1.00  0.00     0.200 A 
ATOM     68  F   UNL A   1      43.297  20.125  25.546  1.00  0.00    -0.200 F 
ATOM     69  F   UNL A   1      44.814  21.268  23.594  1.00  0.00    -0.200 F 
ENDBRANCH  45  59
BRANCH  46  70
ATOM     70  C   UNL A   1      40.974  30.121  33.326  1.00  0.00     0.064 A 
ATOM     71  C   UNL A   1      40.728  31.486  33.561  1.00  0.00     0.173 A 
ATOM     72  C   UNL A   1      39.872  29.259  33.293  1.00  0.00     0.173 A 
ATOM     73  F   UNL A   1      41.752  32.354  33.601  1.00  0.00    -0.203 F 
ATOM     74  C   UNL A   1      39.430  31.985  33.636  1.00  0.00     0.198 A 
ATOM     75  C   UNL A   1      38.572  29.761  33.383  1.00  0.00     0.198 A 
ATOM     76  F   UNL A   1      40.039  27.950  33.054  1.00  0.00    -0.203 F 
ATOM     77  F   UNL A   1      39.226  33.306  33.742  1.00  0.00    -0.200 F 
ATOM     78  C   UNL A   1      38.352  31.124  33.518  1.00  0.00     0.200 A 
ATOM     79  F   UNL A   1      37.527  28.934  33.233  1.00  0.00    -0.200 F 
ATOM     80  F   UNL A   1      37.104  31.611  33.486  1.00  0.00    -0.200 F 
ENDBRANCH  46  70
BRANCH  58  81
ATOM     81  C   UNL A   1      45.307  24.385  33.552  1.00  0.00     0.064 A 
ATOM     82  C   UNL A   1      44.580  23.208  33.800  1.00  0.00     0.173 A 
ATOM     83  C   UNL A   1      46.664  24.349  33.963  1.00  0.00     0.173 A 
ATOM     84  F   UNL A   1      43.329  23.049  33.349  1.00  0.00    -0.203 F 
ATOM     85  C   UNL A   1      45.141  22.113  34.468  1.00  0.00     0.198 A 
ATOM     86  C   UNL A   1      47.237  23.233  34.574  1.00  0.00     0.198 A 
ATOM     87  F   UNL A   1      47.488  25.388  33.757  1.00  0.00    -0.203 F 
ATOM     88  F   UNL A   1      44.386  21.032  34.715  1.00  0.00    -0.200 F 
ATOM     89  C   UNL A   1      46.470  22.120  34.843  1.00  0.00     0.200 A 
ATOM     90  F   UNL A   1      48.542  23.236  34.877  1.00  0.00    -0.200 F 
ATOM     91  F   UNL A   1      47.014  21.051  35.436  1.00  0.00    -0.200 F 
ENDBRANCH  58  81
ENDBRANCH  32  33
ENDBRANCH  24  27
ENDBRANCH  22  23
ENDBRANCH  21  22
ENDBRANCH   1  21
TORSDOF 13
ENDMDL
