MODEL 1
REMARK VINA RESULT:     -13.2      0.000      0.000
REMARK SMILES CC(=O)Nc1ccc(/C(=C\c2ccc(S(C)(=O)=O)cc2)C(=O)NCCCNC(=O)c2ccc(-c3c4nc(c(-c5c(F)c(F)c(F)c(F)c5F)c5ccc([nH]5)c(-c5c(F)c(F)c(F)c(F)c5F)c5nc(c(-c6c(F)c(F)c(F)c(F)c6F)c6ccc3[nH]6)C=C5)C=C4)cc2)cc1
REMARK SMILES IDX 25 1 24 2 23 3 21 4 22 5 9 7 10 8 8 9 5 10 6 11 94 12 7 13
REMARK SMILES IDX 93 14 4 15 1 16 2 17 3 18 11 20 12 21 20 22 13 23 19 24
REMARK SMILES IDX 14 25 15 26 16 27 17 28 18 29 26 30 27 31 28 32 29 34 30 35
REMARK SMILES IDX 31 36 92 37 32 38 91 39 33 40 34 41 35 42 85 43 36 44 90 45
REMARK SMILES IDX 84 46 86 47 37 48 89 49 83 50 82 51 38 53 70 54 50 55 69 56
REMARK SMILES IDX 51 57 54 58 68 59 87 60 52 61 53 62 67 64 88 65 55 66 39 67
REMARK SMILES IDX 40 68 48 69 41 70 42 71 46 72 49 73 43 74 44 75 47 76 45 77
REMARK SMILES IDX 71 78 72 79 80 80 73 81 74 82 78 83 81 84 75 85 76 86 79 87
REMARK SMILES IDX 77 88 56 89 57 90 65 91 58 92 59 93 63 94 66 95 60 96 61 97
REMARK SMILES IDX 64 98 62 99
REMARK H PARENT 23 6 4 19 27 33 86 52 54 63
REMARK Flexibility Score: inf
ROOT
ATOM      1  C   UNL A   1      32.742  28.683  24.484  1.00  0.00     0.042 C 
ENDROOT
BRANCH   1   2
ATOM      2  C   UNL A   1      32.774  27.161  24.314  1.00  0.00     0.118 C 
BRANCH   2   3
ATOM      3  N   UNL A   1      32.903  26.806  22.914  1.00  0.00    -0.352 N 
ATOM      4  C   UNL A   1      33.238  25.691  22.216  1.00  0.00     0.251 C 
ATOM      5  O   UNL A   1      33.275  25.876  20.998  1.00  0.00    -0.269 OA
ATOM      6  H   UNL A   1      32.695  27.564  22.321  1.00  0.00     0.163 HD
BRANCH   4   7
ATOM      7  C   UNL A   1      33.487  24.316  22.834  1.00  0.00     0.047 C 
ATOM      8  C   UNL A   1      32.440  23.456  22.894  1.00  0.00     0.022 C 
BRANCH   7   9
ATOM      9  C   UNL A   1      34.797  24.033  23.540  1.00  0.00    -0.013 A 
ATOM     10  C   UNL A   1      36.958  23.094  25.162  1.00  0.00     0.041 A 
ATOM     11  C   UNL A   1      36.867  22.739  23.816  1.00  0.00     0.027 A 
ATOM     12  C   UNL A   1      36.086  24.059  25.633  1.00  0.00     0.027 A 
ATOM     13  C   UNL A   1      35.821  23.231  23.012  1.00  0.00     0.011 A 
ATOM     14  C   UNL A   1      35.011  24.491  24.849  1.00  0.00     0.011 A 
BRANCH  10  15
ATOM     15  N   UNL A   1      37.924  22.454  25.956  1.00  0.00    -0.326 N 
ATOM     16  C   UNL A   1      39.441  24.373  26.503  1.00  0.00     0.114 C 
ATOM     17  C   UNL A   1      39.075  22.913  26.534  1.00  0.00     0.221 C 
ATOM     18  O   UNL A   1      39.797  22.107  27.130  1.00  0.00    -0.275 OA
ATOM     19  H   UNL A   1      37.738  21.503  26.127  1.00  0.00     0.169 HD
ENDBRANCH  10  15
ENDBRANCH   7   9
BRANCH   8  20
ATOM     20  C   UNL A   1      32.417  22.041  23.287  1.00  0.00    -0.025 A 
ATOM     21  C   UNL A   1      32.047  21.102  22.308  1.00  0.00     0.009 A 
ATOM     22  C   UNL A   1      32.825  21.601  24.550  1.00  0.00     0.009 A 
ATOM     23  C   UNL A   1      32.155  19.734  22.561  1.00  0.00     0.021 A 
ATOM     24  C   UNL A   1      32.937  20.231  24.808  1.00  0.00     0.021 A 
ATOM     25  C   UNL A   1      32.616  19.307  23.808  1.00  0.00     0.067 A 
BRANCH  25  26
ATOM     26  S   UNL A   1      32.933  17.574  24.054  1.00  0.00     0.175 S 
ATOM     27  C   UNL A   1      34.601  17.519  24.648  1.00  0.00     0.163 C 
ATOM     28  O   UNL A   1      32.057  17.133  25.122  1.00  0.00    -0.224 OA
ATOM     29  O   UNL A   1      32.900  16.933  22.753  1.00  0.00    -0.224 OA
ENDBRANCH  25  26
ENDBRANCH   8  20
ENDBRANCH   4   7
ENDBRANCH   2   3
ENDBRANCH   1   2
BRANCH   1  30
ATOM     30  C   UNL A   1      33.572  29.187  25.667  1.00  0.00     0.118 C 
BRANCH  30  31
ATOM     31  N   UNL A   1      33.217  30.547  26.042  1.00  0.00    -0.352 N 
ATOM     32  C   UNL A   1      33.650  31.318  27.090  1.00  0.00     0.251 C 
ATOM     33  H   UNL A   1      32.562  30.982  25.450  1.00  0.00     0.163 HD
ATOM     34  O   UNL A   1      33.039  32.343  27.377  1.00  0.00    -0.269 OA
BRANCH  32  35
ATOM     35  C   UNL A   1      34.840  30.933  27.880  1.00  0.00     0.039 A 
ATOM     36  C   UNL A   1      34.826  29.711  28.562  1.00  0.00     0.014 A 
ATOM     37  C   UNL A   1      35.936  31.790  28.011  1.00  0.00     0.014 A 
ATOM     38  C   UNL A   1      35.927  29.330  29.332  1.00  0.00     0.010 A 
ATOM     39  C   UNL A   1      37.061  31.380  28.724  1.00  0.00     0.010 A 
ATOM     40  C   UNL A   1      37.065  30.149  29.398  1.00  0.00    -0.014 A 
BRANCH  40  41
ATOM     41  C   UNL A   1      38.268  29.733  30.164  1.00  0.00     0.031 A 
ATOM     42  C   UNL A   1      38.505  30.261  31.553  1.00  0.00     0.074 A 
ATOM     43  C   UNL A   1      39.179  28.929  29.584  1.00  0.00     0.049 A 
ATOM     44  N   UNL A   1      39.530  30.077  32.345  1.00  0.00    -0.248 NA
ATOM     45  C   UNL A   1      37.463  31.134  32.114  1.00  0.00     0.031 C 
ATOM     46  C   UNL A   1      39.085  28.387  28.227  1.00  0.00     0.029 A 
ATOM     47  N   UNL A   1      40.373  28.440  30.054  1.00  0.00    -0.354 N 
ATOM     48  C   UNL A   1      39.266  30.823  33.487  1.00  0.00     0.074 A 
ATOM     49  C   UNL A   1      38.006  31.499  33.266  1.00  0.00     0.031 C 
ATOM     50  C   UNL A   1      40.166  27.631  27.980  1.00  0.00     0.029 A 
ATOM     51  C   UNL A   1      41.047  27.665  29.142  1.00  0.00     0.049 A 
ATOM     52  H   UNL A   1      40.713  28.627  30.958  1.00  0.00     0.167 HD
ATOM     53  C   UNL A   1      39.999  30.919  34.622  1.00  0.00     0.037 A 
ATOM     54  C   UNL A   1      42.247  27.059  29.229  1.00  0.00     0.037 A 
ATOM     55  C   UNL A   1      41.238  30.221  34.847  1.00  0.00     0.049 A 
ATOM     56  C   UNL A   1      43.038  27.179  30.503  1.00  0.00     0.074 A 
ATOM     57  C   UNL A   1      42.021  30.199  35.989  1.00  0.00     0.029 A 
ATOM     58  N   UNL A   1      41.877  29.423  33.910  1.00  0.00    -0.354 N 
ATOM     59  N   UNL A   1      42.744  27.831  31.601  1.00  0.00    -0.248 NA
ATOM     60  C   UNL A   1      44.327  26.475  30.551  1.00  0.00     0.031 C 
ATOM     61  C   UNL A   1      43.157  29.426  35.725  1.00  0.00     0.029 A 
ATOM     62  C   UNL A   1      43.057  28.923  34.439  1.00  0.00     0.049 A 
ATOM     63  H   UNL A   1      41.542  29.239  33.003  1.00  0.00     0.167 HD
ATOM     64  C   UNL A   1      43.793  27.593  32.479  1.00  0.00     0.074 A 
ATOM     65  C   UNL A   1      44.724  26.723  31.791  1.00  0.00     0.031 C 
ATOM     66  C   UNL A   1      43.970  28.053  33.742  1.00  0.00     0.037 A 
BRANCH  53  67
ATOM     67  C   UNL A   1      39.482  31.812  35.714  1.00  0.00     0.064 A 
ATOM     68  C   UNL A   1      39.914  33.139  35.848  1.00  0.00     0.173 A 
ATOM     69  C   UNL A   1      38.506  31.348  36.610  1.00  0.00     0.173 A 
ATOM     70  F   UNL A   1      40.852  33.631  35.022  1.00  0.00    -0.203 F 
ATOM     71  C   UNL A   1      39.411  33.961  36.855  1.00  0.00     0.198 A 
ATOM     72  C   UNL A   1      37.984  32.180  37.597  1.00  0.00     0.198 A 
ATOM     73  F   UNL A   1      38.052  30.088  36.524  1.00  0.00    -0.203 F 
ATOM     74  F   UNL A   1      39.875  35.210  36.992  1.00  0.00    -0.200 F 
ATOM     75  C   UNL A   1      38.441  33.483  37.723  1.00  0.00     0.200 A 
ATOM     76  F   UNL A   1      37.035  31.722  38.426  1.00  0.00    -0.200 F 
ATOM     77  F   UNL A   1      37.952  34.277  38.686  1.00  0.00    -0.200 F 
ENDBRANCH  53  67
BRANCH  54  78
ATOM     78  C   UNL A   1      42.764  26.269  28.082  1.00  0.00     0.064 A 
ATOM     79  C   UNL A   1      43.516  26.879  27.068  1.00  0.00     0.173 A 
ATOM     80  C   UNL A   1      42.515  24.893  27.971  1.00  0.00     0.173 A 
ATOM     81  F   UNL A   1      43.764  28.196  27.119  1.00  0.00    -0.203 F 
ATOM     82  C   UNL A   1      43.981  26.148  25.976  1.00  0.00     0.198 A 
ATOM     83  C   UNL A   1      43.007  24.157  26.894  1.00  0.00     0.198 A 
ATOM     84  F   UNL A   1      41.808  24.259  28.918  1.00  0.00    -0.203 F 
ATOM     85  F   UNL A   1      44.657  26.766  24.998  1.00  0.00    -0.200 F 
ATOM     86  C   UNL A   1      43.731  24.786  25.894  1.00  0.00     0.200 A 
ATOM     87  F   UNL A   1      42.779  22.838  26.828  1.00  0.00    -0.200 F 
ATOM     88  F   UNL A   1      44.183  24.083  24.847  1.00  0.00    -0.200 F 
ENDBRANCH  54  78
BRANCH  66  89
ATOM     89  C   UNL A   1      45.198  27.598  34.475  1.00  0.00     0.064 A 
ATOM     90  C   UNL A   1      45.213  26.412  35.223  1.00  0.00     0.173 A 
ATOM     91  C   UNL A   1      46.386  28.340  34.394  1.00  0.00     0.173 A 
ATOM     92  F   UNL A   1      44.099  25.676  35.344  1.00  0.00    -0.203 F 
ATOM     93  C   UNL A   1      46.367  25.999  35.884  1.00  0.00     0.198 A 
ATOM     94  C   UNL A   1      47.546  27.908  35.031  1.00  0.00     0.198 A 
ATOM     95  F   UNL A   1      46.426  29.479  33.686  1.00  0.00    -0.203 F 
ATOM     96  F   UNL A   1      46.346  24.888  36.634  1.00  0.00    -0.200 F 
ATOM     97  C   UNL A   1      47.534  26.742  35.781  1.00  0.00     0.200 A 
ATOM     98  F   UNL A   1      48.676  28.620  34.918  1.00  0.00    -0.200 F 
ATOM     99  F   UNL A   1      48.645  26.338  36.412  1.00  0.00    -0.200 F 
ENDBRANCH  66  89
ENDBRANCH  40  41
ENDBRANCH  32  35
ENDBRANCH  30  31
ENDBRANCH   1  30
TORSDOF 14
ENDMDL
MODEL 2
REMARK VINA RESULT:     -13.2      4.534      9.546
REMARK SMILES CC(=O)Nc1ccc(/C(=C\c2ccc(S(C)(=O)=O)cc2)C(=O)NCCCNC(=O)c2ccc(-c3c4nc(c(-c5c(F)c(F)c(F)c(F)c5F)c5ccc([nH]5)c(-c5c(F)c(F)c(F)c(F)c5F)c5nc(c(-c6c(F)c(F)c(F)c(F)c6F)c6ccc3[nH]6)C=C5)C=C4)cc2)cc1
REMARK SMILES IDX 25 1 24 2 23 3 21 4 22 5 9 7 10 8 8 9 5 10 6 11 94 12 7 13
REMARK SMILES IDX 93 14 4 15 1 16 2 17 3 18 11 20 12 21 20 22 13 23 19 24
REMARK SMILES IDX 14 25 15 26 16 27 17 28 18 29 26 30 27 31 28 32 29 34 30 35
REMARK SMILES IDX 31 36 92 37 32 38 91 39 33 40 34 41 35 42 85 43 36 44 90 45
REMARK SMILES IDX 84 46 86 47 37 48 89 49 83 50 82 51 38 53 70 54 50 55 69 56
REMARK SMILES IDX 51 57 54 58 68 59 87 60 52 61 53 62 67 64 88 65 55 66 39 67
REMARK SMILES IDX 40 68 48 69 41 70 42 71 46 72 49 73 43 74 44 75 47 76 45 77
REMARK SMILES IDX 71 78 72 79 80 80 73 81 74 82 78 83 81 84 75 85 76 86 79 87
REMARK SMILES IDX 77 88 56 89 57 90 65 91 58 92 59 93 63 94 66 95 60 96 61 97
REMARK SMILES IDX 64 98 62 99
REMARK H PARENT 23 6 4 19 27 33 86 52 54 63
REMARK Flexibility Score: inf
ROOT
ATOM      1  C   UNL A   1      35.142  23.469  26.561  1.00  0.00     0.042 C 
ENDROOT
BRANCH   1   2
ATOM      2  C   UNL A   1      33.930  23.281  25.643  1.00  0.00     0.118 C 
BRANCH   2   3
ATOM      3  N   UNL A   1      32.714  23.157  26.424  1.00  0.00    -0.352 N 
ATOM      4  C   UNL A   1      31.622  23.929  26.658  1.00  0.00     0.251 C 
ATOM      5  O   UNL A   1      30.840  23.426  27.467  1.00  0.00    -0.269 OA
ATOM      6  H   UNL A   1      32.669  22.299  26.902  1.00  0.00     0.163 HD
BRANCH   4   7
ATOM      7  C   UNL A   1      31.327  25.258  25.966  1.00  0.00     0.047 C 
ATOM      8  C   UNL A   1      30.561  25.226  24.847  1.00  0.00     0.022 C 
BRANCH   7   9
ATOM      9  C   UNL A   1      32.051  26.515  26.404  1.00  0.00    -0.013 A 
ATOM     10  C   UNL A   1      33.293  29.075  26.690  1.00  0.00     0.041 A 
ATOM     11  C   UNL A   1      32.060  28.809  27.284  1.00  0.00     0.027 A 
ATOM     12  C   UNL A   1      33.978  28.015  26.126  1.00  0.00     0.027 A 
ATOM     13  C   UNL A   1      31.467  27.536  27.170  1.00  0.00     0.011 A 
ATOM     14  C   UNL A   1      33.356  26.773  25.958  1.00  0.00     0.011 A 
BRANCH  10  15
ATOM     15  N   UNL A   1      33.764  30.399  26.698  1.00  0.00    -0.326 N 
ATOM     16  C   UNL A   1      35.239  30.369  28.725  1.00  0.00     0.114 C 
ATOM     17  C   UNL A   1      34.565  31.074  27.578  1.00  0.00     0.221 C 
ATOM     18  O   UNL A   1      34.767  32.276  27.387  1.00  0.00    -0.275 OA
ATOM     19  H   UNL A   1      33.462  30.938  25.932  1.00  0.00     0.169 HD
ENDBRANCH  10  15
ENDBRANCH   7   9
BRANCH   8  20
ATOM     20  C   UNL A   1      29.996  26.338  24.071  1.00  0.00    -0.025 A 
ATOM     21  C   UNL A   1      28.606  26.536  24.139  1.00  0.00     0.009 A 
ATOM     22  C   UNL A   1      30.790  27.237  23.352  1.00  0.00     0.009 A 
ATOM     23  C   UNL A   1      28.022  27.663  23.558  1.00  0.00     0.021 A 
ATOM     24  C   UNL A   1      30.210  28.369  22.769  1.00  0.00     0.021 A 
ATOM     25  C   UNL A   1      28.833  28.582  22.889  1.00  0.00     0.067 A 
BRANCH  25  26
ATOM     26  S   UNL A   1      28.109  30.106  22.322  1.00  0.00     0.175 S 
ATOM     27  C   UNL A   1      29.330  31.331  22.704  1.00  0.00     0.163 C 
ATOM     28  O   UNL A   1      28.000  30.008  20.880  1.00  0.00    -0.224 OA
ATOM     29  O   UNL A   1      26.940  30.367  23.141  1.00  0.00    -0.224 OA
ENDBRANCH  25  26
ENDBRANCH   8  20
ENDBRANCH   4   7
ENDBRANCH   2   3
ENDBRANCH   1   2
BRANCH   1  30
ATOM     30  C   UNL A   1      36.444  23.754  25.808  1.00  0.00     0.118 C 
BRANCH  30  31
ATOM     31  N   UNL A   1      37.421  22.692  25.987  1.00  0.00    -0.352 N 
ATOM     32  C   UNL A   1      38.759  22.759  26.282  1.00  0.00     0.251 C 
ATOM     33  H   UNL A   1      37.066  21.780  25.879  1.00  0.00     0.163 HD
ATOM     34  O   UNL A   1      39.460  21.762  26.137  1.00  0.00    -0.269 OA
BRANCH  32  35
ATOM     35  C   UNL A   1      39.370  24.015  26.769  1.00  0.00     0.039 A 
ATOM     36  C   UNL A   1      39.969  24.874  25.842  1.00  0.00     0.014 A 
ATOM     37  C   UNL A   1      39.419  24.320  28.132  1.00  0.00     0.014 A 
ATOM     38  C   UNL A   1      40.572  26.057  26.275  1.00  0.00     0.010 A 
ATOM     39  C   UNL A   1      39.961  25.532  28.557  1.00  0.00     0.010 A 
ATOM     40  C   UNL A   1      40.549  26.410  27.633  1.00  0.00    -0.014 A 
BRANCH  40  41
ATOM     41  C   UNL A   1      41.133  27.692  28.105  1.00  0.00     0.031 A 
ATOM     42  C   UNL A   1      42.624  27.895  28.101  1.00  0.00     0.074 A 
ATOM     43  C   UNL A   1      40.323  28.649  28.595  1.00  0.00     0.049 A 
ATOM     44  N   UNL A   1      43.323  28.908  28.545  1.00  0.00    -0.248 NA
ATOM     45  C   UNL A   1      43.438  26.801  27.550  1.00  0.00     0.031 C 
ATOM     46  C   UNL A   1      38.866  28.553  28.693  1.00  0.00     0.029 A 
ATOM     47  N   UNL A   1      40.611  29.885  29.121  1.00  0.00    -0.354 N 
ATOM     48  C   UNL A   1      44.654  28.568  28.345  1.00  0.00     0.074 A 
ATOM     49  C   UNL A   1      44.668  27.235  27.781  1.00  0.00     0.031 C 
ATOM     50  C   UNL A   1      38.386  29.686  29.231  1.00  0.00     0.029 A 
ATOM     51  C   UNL A   1      39.501  30.571  29.551  1.00  0.00     0.049 A 
ATOM     52  H   UNL A   1      41.525  30.245  29.183  1.00  0.00     0.167 HD
ATOM     53  C   UNL A   1      45.763  29.308  28.590  1.00  0.00     0.037 A 
ATOM     54  C   UNL A   1      39.397  31.773  30.149  1.00  0.00     0.037 A 
ATOM     55  C   UNL A   1      45.741  30.644  29.124  1.00  0.00     0.049 A 
ATOM     56  C   UNL A   1      40.642  32.575  30.407  1.00  0.00     0.074 A 
ATOM     57  C   UNL A   1      46.804  31.503  29.345  1.00  0.00     0.029 A 
ATOM     58  N   UNL A   1      44.596  31.318  29.524  1.00  0.00    -0.354 N 
ATOM     59  N   UNL A   1      41.891  32.271  30.147  1.00  0.00    -0.248 NA
ATOM     60  C   UNL A   1      40.464  33.892  31.035  1.00  0.00     0.031 C 
ATOM     61  C   UNL A   1      46.308  32.676  29.924  1.00  0.00     0.029 A 
ATOM     62  C   UNL A   1      44.929  32.571  30.013  1.00  0.00     0.049 A 
ATOM     63  H   UNL A   1      43.681  30.958  29.468  1.00  0.00     0.167 HD
ATOM     64  C   UNL A   1      42.643  33.365  30.554  1.00  0.00     0.074 A 
ATOM     65  C   UNL A   1      41.709  34.348  31.062  1.00  0.00     0.031 C 
ATOM     66  C   UNL A   1      43.986  33.541  30.509  1.00  0.00     0.037 A 
BRANCH  53  67
ATOM     67  C   UNL A   1      47.097  28.690  28.284  1.00  0.00     0.064 A 
ATOM     68  C   UNL A   1      47.824  27.985  29.255  1.00  0.00     0.173 A 
ATOM     69  C   UNL A   1      47.635  28.764  26.990  1.00  0.00     0.173 A 
ATOM     70  F   UNL A   1      47.359  27.891  30.510  1.00  0.00    -0.203 F 
ATOM     71  C   UNL A   1      49.052  27.402  28.950  1.00  0.00     0.198 A 
ATOM     72  C   UNL A   1      48.849  28.155  26.681  1.00  0.00     0.198 A 
ATOM     73  F   UNL A   1      46.979  29.420  26.021  1.00  0.00    -0.203 F 
ATOM     74  F   UNL A   1      49.749  26.774  29.907  1.00  0.00    -0.200 F 
ATOM     75  C   UNL A   1      49.559  27.480  27.663  1.00  0.00     0.200 A 
ATOM     76  F   UNL A   1      49.331  28.218  25.432  1.00  0.00    -0.200 F 
ATOM     77  F   UNL A   1      50.737  26.912  27.369  1.00  0.00    -0.200 F 
ENDBRANCH  53  67
BRANCH  54  78
ATOM     78  C   UNL A   1      38.059  32.299  30.527  1.00  0.00     0.064 A 
ATOM     79  C   UNL A   1      37.366  33.180  29.685  1.00  0.00     0.173 A 
ATOM     80  C   UNL A   1      37.447  31.937  31.737  1.00  0.00     0.173 A 
ATOM     81  F   UNL A   1      37.917  33.570  28.526  1.00  0.00    -0.203 F 
ATOM     82  C   UNL A   1      36.123  33.696  30.046  1.00  0.00     0.198 A 
ATOM     83  C   UNL A   1      36.191  32.430  32.084  1.00  0.00     0.198 A 
ATOM     84  F   UNL A   1      38.064  31.091  32.575  1.00  0.00    -0.203 F 
ATOM     85  F   UNL A   1      35.504  34.572  29.244  1.00  0.00    -0.200 F 
ATOM     86  C   UNL A   1      35.534  33.316  31.243  1.00  0.00     0.200 A 
ATOM     87  F   UNL A   1      35.617  32.046  33.232  1.00  0.00    -0.200 F 
ATOM     88  F   UNL A   1      34.337  33.807  31.588  1.00  0.00    -0.200 F 
ENDBRANCH  54  78
BRANCH  66  89
ATOM     89  C   UNL A   1      44.525  34.856  30.992  1.00  0.00     0.064 A 
ATOM     90  C   UNL A   1      44.651  35.960  30.136  1.00  0.00     0.173 A 
ATOM     91  C   UNL A   1      44.883  35.023  32.339  1.00  0.00     0.173 A 
ATOM     92  F   UNL A   1      44.337  35.846  28.837  1.00  0.00    -0.203 F 
ATOM     93  C   UNL A   1      45.139  37.176  30.605  1.00  0.00     0.198 A 
ATOM     94  C   UNL A   1      45.342  36.250  32.810  1.00  0.00     0.198 A 
ATOM     95  F   UNL A   1      44.777  34.000  33.200  1.00  0.00    -0.203 F 
ATOM     96  F   UNL A   1      45.297  38.204  29.759  1.00  0.00    -0.200 F 
ATOM     97  C   UNL A   1      45.476  37.323  31.943  1.00  0.00     0.200 A 
ATOM     98  F   UNL A   1      45.654  36.393  34.106  1.00  0.00    -0.200 F 
ATOM     99  F   UNL A   1      45.939  38.497  32.394  1.00  0.00    -0.200 F 
ENDBRANCH  66  89
ENDBRANCH  40  41
ENDBRANCH  32  35
ENDBRANCH  30  31
ENDBRANCH   1  30
TORSDOF 14
ENDMDL
MODEL 3
REMARK VINA RESULT:     -13.1      4.429      7.474
REMARK SMILES CC(=O)Nc1ccc(/C(=C\c2ccc(S(C)(=O)=O)cc2)C(=O)NCCCNC(=O)c2ccc(-c3c4nc(c(-c5c(F)c(F)c(F)c(F)c5F)c5ccc([nH]5)c(-c5c(F)c(F)c(F)c(F)c5F)c5nc(c(-c6c(F)c(F)c(F)c(F)c6F)c6ccc3[nH]6)C=C5)C=C4)cc2)cc1
REMARK SMILES IDX 25 1 24 2 23 3 21 4 22 5 9 7 10 8 8 9 5 10 6 11 94 12 7 13
REMARK SMILES IDX 93 14 4 15 1 16 2 17 3 18 11 20 12 21 20 22 13 23 19 24
REMARK SMILES IDX 14 25 15 26 16 27 17 28 18 29 26 30 27 31 28 32 29 34 30 35
REMARK SMILES IDX 31 36 92 37 32 38 91 39 33 40 34 41 35 42 85 43 36 44 90 45
REMARK SMILES IDX 84 46 86 47 37 48 89 49 83 50 82 51 38 53 70 54 50 55 69 56
REMARK SMILES IDX 51 57 54 58 68 59 87 60 52 61 53 62 67 64 88 65 55 66 39 67
REMARK SMILES IDX 40 68 48 69 41 70 42 71 46 72 49 73 43 74 44 75 47 76 45 77
REMARK SMILES IDX 71 78 72 79 80 80 73 81 74 82 78 83 81 84 75 85 76 86 79 87
REMARK SMILES IDX 77 88 56 89 57 90 65 91 58 92 59 93 63 94 66 95 60 96 61 97
REMARK SMILES IDX 64 98 62 99
REMARK H PARENT 23 6 4 19 27 33 86 52 54 63
REMARK Flexibility Score: inf
ROOT
ATOM      1  C   UNL A   1      34.960  22.811  26.491  1.00  0.00     0.042 C 
ENDROOT
BRANCH   1   2
ATOM      2  C   UNL A   1      33.749  23.121  25.607  1.00  0.00     0.118 C 
BRANCH   2   3
ATOM      3  N   UNL A   1      32.520  23.017  26.370  1.00  0.00    -0.352 N 
ATOM      4  C   UNL A   1      31.445  23.814  26.602  1.00  0.00     0.251 C 
ATOM      5  O   UNL A   1      30.640  23.319  27.394  1.00  0.00    -0.269 OA
ATOM      6  H   UNL A   1      32.447  22.154  26.836  1.00  0.00     0.163 HD
BRANCH   4   7
ATOM      7  C   UNL A   1      31.193  25.159  25.925  1.00  0.00     0.047 C 
ATOM      8  C   UNL A   1      30.426  25.164  24.806  1.00  0.00     0.022 C 
BRANCH   7   9
ATOM      9  C   UNL A   1      31.957  26.387  26.376  1.00  0.00    -0.013 A 
ATOM     10  C   UNL A   1      33.297  28.895  26.684  1.00  0.00     0.041 A 
ATOM     11  C   UNL A   1      32.039  28.683  27.247  1.00  0.00     0.027 A 
ATOM     12  C   UNL A   1      33.952  27.803  26.143  1.00  0.00     0.027 A 
ATOM     13  C   UNL A   1      31.397  27.435  27.122  1.00  0.00     0.011 A 
ATOM     14  C   UNL A   1      33.283  26.588  25.963  1.00  0.00     0.011 A 
BRANCH  10  15
ATOM     15  N   UNL A   1      33.823  30.197  26.699  1.00  0.00    -0.326 N 
ATOM     16  C   UNL A   1      35.667  29.950  28.379  1.00  0.00     0.114 C 
ATOM     17  C   UNL A   1      34.813  30.770  27.448  1.00  0.00     0.221 C 
ATOM     18  O   UNL A   1      35.031  31.978  27.314  1.00  0.00    -0.275 OA
ATOM     19  H   UNL A   1      33.401  30.809  26.053  1.00  0.00     0.169 HD
ENDBRANCH  10  15
ENDBRANCH   7   9
BRANCH   8  20
ATOM     20  C   UNL A   1      29.897  26.303  24.043  1.00  0.00    -0.025 A 
ATOM     21  C   UNL A   1      28.507  26.511  24.068  1.00  0.00     0.009 A 
ATOM     22  C   UNL A   1      30.722  27.215  23.378  1.00  0.00     0.009 A 
ATOM     23  C   UNL A   1      27.952  27.658  23.500  1.00  0.00     0.021 A 
ATOM     24  C   UNL A   1      30.171  28.368  22.809  1.00  0.00     0.021 A 
ATOM     25  C   UNL A   1      28.792  28.589  22.886  1.00  0.00     0.067 A 
BRANCH  25  26
ATOM     26  S   UNL A   1      28.101  30.134  22.338  1.00  0.00     0.175 S 
ATOM     27  C   UNL A   1      29.322  31.337  22.785  1.00  0.00     0.163 C 
ATOM     28  O   UNL A   1      28.031  30.074  20.891  1.00  0.00    -0.224 OA
ATOM     29  O   UNL A   1      26.912  30.388  23.130  1.00  0.00    -0.224 OA
ENDBRANCH  25  26
ENDBRANCH   8  20
ENDBRANCH   4   7
ENDBRANCH   2   3
ENDBRANCH   1   2
BRANCH   1  30
ATOM     30  C   UNL A   1      36.303  22.998  25.782  1.00  0.00     0.118 C 
BRANCH  30  31
ATOM     31  N   UNL A   1      37.188  21.861  25.980  1.00  0.00    -0.352 N 
ATOM     32  C   UNL A   1      38.538  21.820  26.221  1.00  0.00     0.251 C 
ATOM     33  H   UNL A   1      36.749  20.981  25.934  1.00  0.00     0.163 HD
ATOM     34  O   UNL A   1      39.140  20.757  26.103  1.00  0.00    -0.269 OA
BRANCH  32  35
ATOM     35  C   UNL A   1      39.279  23.038  26.617  1.00  0.00     0.039 A 
ATOM     36  C   UNL A   1      40.283  22.927  27.585  1.00  0.00     0.014 A 
ATOM     37  C   UNL A   1      38.947  24.293  26.100  1.00  0.00     0.014 A 
ATOM     38  C   UNL A   1      40.985  24.063  27.994  1.00  0.00     0.010 A 
ATOM     39  C   UNL A   1      39.692  25.415  26.459  1.00  0.00     0.010 A 
ATOM     40  C   UNL A   1      40.715  25.313  27.415  1.00  0.00    -0.014 A 
BRANCH  40  41
ATOM     41  C   UNL A   1      41.491  26.521  27.795  1.00  0.00     0.031 A 
ATOM     42  C   UNL A   1      40.836  27.633  28.567  1.00  0.00     0.074 A 
ATOM     43  C   UNL A   1      42.769  26.643  27.389  1.00  0.00     0.049 A 
ATOM     44  N   UNL A   1      41.324  28.795  28.921  1.00  0.00    -0.248 NA
ATOM     45  C   UNL A   1      39.438  27.422  28.972  1.00  0.00     0.031 C 
ATOM     46  C   UNL A   1      43.502  25.653  26.597  1.00  0.00     0.029 A 
ATOM     47  N   UNL A   1      43.675  27.659  27.571  1.00  0.00    -0.354 N 
ATOM     48  C   UNL A   1      40.291  29.458  29.571  1.00  0.00     0.074 A 
ATOM     49  C   UNL A   1      39.135  28.588  29.523  1.00  0.00     0.031 C 
ATOM     50  C   UNL A   1      44.746  26.104  26.374  1.00  0.00     0.029 A 
ATOM     51  C   UNL A   1      44.888  27.427  26.971  1.00  0.00     0.049 A 
ATOM     52  H   UNL A   1      43.473  28.476  28.082  1.00  0.00     0.167 HD
ATOM     53  C   UNL A   1      40.311  30.673  30.170  1.00  0.00     0.037 A 
ATOM     54  C   UNL A   1      45.988  28.201  26.900  1.00  0.00     0.037 A 
ATOM     55  C   UNL A   1      41.472  31.522  30.240  1.00  0.00     0.049 A 
ATOM     56  C   UNL A   1      45.985  29.545  27.576  1.00  0.00     0.074 A 
ATOM     57  C   UNL A   1      41.613  32.740  30.882  1.00  0.00     0.029 A 
ATOM     58  N   UNL A   1      42.693  31.242  29.643  1.00  0.00    -0.354 N 
ATOM     59  N   UNL A   1      45.024  30.130  28.249  1.00  0.00    -0.248 NA
ATOM     60  C   UNL A   1      47.222  30.333  27.490  1.00  0.00     0.031 C 
ATOM     61  C   UNL A   1      42.904  33.219  30.633  1.00  0.00     0.029 A 
ATOM     62  C   UNL A   1      43.585  32.276  29.882  1.00  0.00     0.049 A 
ATOM     63  H   UNL A   1      42.895  30.429  29.126  1.00  0.00     0.167 HD
ATOM     64  C   UNL A   1      45.547  31.339  28.688  1.00  0.00     0.074 A 
ATOM     65  C   UNL A   1      46.916  31.396  28.220  1.00  0.00     0.031 C 
ATOM     66  C   UNL A   1      44.947  32.314  29.414  1.00  0.00     0.037 A 
BRANCH  53  67
ATOM     67  C   UNL A   1      39.038  31.163  30.801  1.00  0.00     0.064 A 
ATOM     68  C   UNL A   1      38.742  30.916  32.150  1.00  0.00     0.173 A 
ATOM     69  C   UNL A   1      38.125  31.927  30.059  1.00  0.00     0.173 A 
ATOM     70  F   UNL A   1      39.578  30.184  32.902  1.00  0.00    -0.203 F 
ATOM     71  C   UNL A   1      37.566  31.393  32.725  1.00  0.00     0.198 A 
ATOM     72  C   UNL A   1      36.965  32.427  30.645  1.00  0.00     0.198 A 
ATOM     73  F   UNL A   1      38.362  32.198  28.766  1.00  0.00    -0.203 F 
ATOM     74  F   UNL A   1      37.283  31.105  34.003  1.00  0.00    -0.200 F 
ATOM     75  C   UNL A   1      36.683  32.154  31.975  1.00  0.00     0.200 A 
ATOM     76  F   UNL A   1      36.119  33.176  29.922  1.00  0.00    -0.200 F 
ATOM     77  F   UNL A   1      35.556  32.619  32.532  1.00  0.00    -0.200 F 
ENDBRANCH  53  67
BRANCH  54  78
ATOM     78  C   UNL A   1      47.191  27.716  26.175  1.00  0.00     0.064 A 
ATOM     79  C   UNL A   1      47.298  27.852  24.784  1.00  0.00     0.173 A 
ATOM     80  C   UNL A   1      48.255  27.103  26.853  1.00  0.00     0.173 A 
ATOM     81  F   UNL A   1      46.299  28.414  24.088  1.00  0.00    -0.203 F 
ATOM     82  C   UNL A   1      48.413  27.375  24.096  1.00  0.00     0.198 A 
ATOM     83  C   UNL A   1      49.383  26.653  26.168  1.00  0.00     0.198 A 
ATOM     84  F   UNL A   1      48.207  26.955  28.185  1.00  0.00    -0.203 F 
ATOM     85  F   UNL A   1      48.467  27.477  22.761  1.00  0.00    -0.200 F 
ATOM     86  C   UNL A   1      49.457  26.781  24.790  1.00  0.00     0.200 A 
ATOM     87  F   UNL A   1      50.397  26.097  26.845  1.00  0.00    -0.200 F 
ATOM     88  F   UNL A   1      50.530  26.328  24.129  1.00  0.00    -0.200 F 
ENDBRANCH  54  78
BRANCH  66  89
ATOM     89  C   UNL A   1      45.777  33.511  29.777  1.00  0.00     0.064 A 
ATOM     90  C   UNL A   1      45.857  34.634  28.940  1.00  0.00     0.173 A 
ATOM     91  C   UNL A   1      46.469  33.549  30.998  1.00  0.00     0.173 A 
ATOM     92  F   UNL A   1      45.227  34.640  27.757  1.00  0.00    -0.203 F 
ATOM     93  C   UNL A   1      46.621  35.740  29.301  1.00  0.00     0.198 A 
ATOM     94  C   UNL A   1      47.206  34.670  31.368  1.00  0.00     0.198 A 
ATOM     95  F   UNL A   1      46.420  32.503  31.836  1.00  0.00    -0.203 F 
ATOM     96  F   UNL A   1      46.724  36.783  28.464  1.00  0.00    -0.200 F 
ATOM     97  C   UNL A   1      47.288  35.762  30.518  1.00  0.00     0.200 A 
ATOM     98  F   UNL A   1      47.838  34.693  32.550  1.00  0.00    -0.200 F 
ATOM     99  F   UNL A   1      48.016  36.831  30.866  1.00  0.00    -0.200 F 
ENDBRANCH  66  89
ENDBRANCH  40  41
ENDBRANCH  32  35
ENDBRANCH  30  31
ENDBRANCH   1  30
TORSDOF 14
ENDMDL
