MODEL 1
REMARK VINA RESULT:     -13.6      0.000      0.000
REMARK SMILES O=C(COc1ccccc1/C=C1\C(=O)Nc2ccccc21)NCCCNC(=O)c1ccc(-c2c3nc(c(-c4c(F)c(F)c(F)c(F)c4F)c4ccc([nH]4)c(-c4c(F)c(F)c(F)c(F)c4F)c4nc(c(-c5c(F)c(F)c(F)c(F)c5F)c5ccc2[nH]5)C=C4)C=C3)cc1
REMARK SMILES IDX 23 1 22 2 1 3 2 4 3 6 4 7 5 8 6 9 10 10 7 11 9 12 8 13 11 14
REMARK SMILES IDX 12 15 13 16 21 17 14 18 15 19 16 20 20 21 17 23 19 24 18 25
REMARK SMILES IDX 24 26 25 27 26 28 27 29 28 31 29 32 30 33 91 34 31 35 90 36
REMARK SMILES IDX 32 37 33 38 34 39 84 40 35 41 89 42 83 43 85 44 36 45 88 46
REMARK SMILES IDX 82 47 81 48 37 50 69 51 49 52 68 53 50 54 53 55 67 56 86 57
REMARK SMILES IDX 51 58 52 59 66 61 87 62 54 63 38 64 39 65 47 66 40 67 41 68
REMARK SMILES IDX 45 69 48 70 42 71 43 72 46 73 44 74 70 75 71 76 79 77 72 78
REMARK SMILES IDX 73 79 77 80 80 81 74 82 75 83 78 84 76 85 55 86 56 87 64 88
REMARK SMILES IDX 57 89 58 90 62 91 65 92 59 93 60 94 63 95 61 96
REMARK H PARENT 22 5 15 22 26 30 85 49 53 60
REMARK Flexibility Score: inf
ROOT
ATOM      1  C   UNL A   1      31.810  30.493  26.875  1.00  0.00     0.117 C 
ENDROOT
BRANCH   1   2
ATOM      2  N   UNL A   1      32.795  29.895  26.019  1.00  0.00    -0.353 N 
ATOM      3  O   UNL A   1      34.365  29.464  27.656  1.00  0.00    -0.271 OA
ATOM      4  C   UNL A   1      33.862  29.200  26.571  1.00  0.00     0.257 C 
ATOM      5  H   UNL A   1      32.712  29.977  25.041  1.00  0.00     0.163 HD
BRANCH   4   6
ATOM      6  C   UNL A   1      34.311  28.037  25.700  1.00  0.00     0.329 C 
BRANCH   6   7
ATOM      7  O   UNL A   1      33.346  27.003  25.956  1.00  0.00    -0.483 OA
BRANCH   7   8
ATOM      8  C   UNL A   1      33.449  25.926  25.114  1.00  0.00     0.127 A 
ATOM      9  C   UNL A   1      34.572  25.104  25.294  1.00  0.00     0.047 A 
ATOM     10  C   UNL A   1      32.600  25.783  23.991  1.00  0.00     0.017 A 
ATOM     11  C   UNL A   1      34.899  24.151  24.336  1.00  0.00     0.004 A 
ATOM     12  C   UNL A   1      33.031  24.902  22.992  1.00  0.00     0.012 A 
ATOM     13  C   UNL A   1      34.146  24.076  23.169  1.00  0.00     0.001 A 
BRANCH  10  14
ATOM     14  C   UNL A   1      31.336  26.556  23.815  1.00  0.00     0.026 C 
ATOM     15  C   UNL A   1      31.125  27.737  23.187  1.00  0.00     0.050 C 
ATOM     16  C   UNL A   1      32.186  28.600  22.517  1.00  0.00     0.256 C 
ATOM     17  C   UNL A   1      29.835  28.450  22.956  1.00  0.00     0.011 A 
ATOM     18  O   UNL A   1      33.376  28.414  22.391  1.00  0.00    -0.269 OA
ATOM     19  N   UNL A   1      31.514  29.707  22.035  1.00  0.00    -0.321 N 
ATOM     20  C   UNL A   1      30.150  29.613  22.243  1.00  0.00     0.049 A 
ATOM     21  C   UNL A   1      28.500  28.215  23.238  1.00  0.00     0.011 A 
ATOM     22  H   UNL A   1      31.953  30.470  21.597  1.00  0.00     0.170 HD
ATOM     23  C   UNL A   1      29.208  30.516  21.778  1.00  0.00     0.027 A 
ATOM     24  C   UNL A   1      27.514  29.082  22.732  1.00  0.00     0.001 A 
ATOM     25  C   UNL A   1      27.867  30.226  22.006  1.00  0.00     0.002 A 
ENDBRANCH  10  14
ENDBRANCH   7   8
ENDBRANCH   6   7
ENDBRANCH   4   6
ENDBRANCH   1   2
BRANCH   1  26
ATOM     26  C   UNL A   1      31.606  31.977  26.724  1.00  0.00     0.042 C 
BRANCH  26  27
ATOM     27  C   UNL A   1      32.738  32.805  27.307  1.00  0.00     0.118 C 
BRANCH  27  28
ATOM     28  N   UNL A   1      32.376  34.177  27.671  1.00  0.00    -0.352 N 
ATOM     29  C   UNL A   1      32.950  35.035  28.586  1.00  0.00     0.251 C 
ATOM     30  H   UNL A   1      31.602  34.544  27.186  1.00  0.00     0.163 HD
ATOM     31  O   UNL A   1      32.458  36.139  28.790  1.00  0.00    -0.269 OA
BRANCH  29  32
ATOM     32  C   UNL A   1      34.126  34.595  29.366  1.00  0.00     0.039 A 
ATOM     33  C   UNL A   1      33.937  34.067  30.645  1.00  0.00     0.014 A 
ATOM     34  C   UNL A   1      35.400  34.625  28.804  1.00  0.00     0.014 A 
ATOM     35  C   UNL A   1      35.007  33.454  31.299  1.00  0.00     0.010 A 
ATOM     36  C   UNL A   1      36.421  33.890  29.388  1.00  0.00     0.010 A 
ATOM     37  C   UNL A   1      36.240  33.296  30.644  1.00  0.00    -0.014 A 
BRANCH  37  38
ATOM     38  C   UNL A   1      37.353  32.519  31.248  1.00  0.00     0.031 A 
ATOM     39  C   UNL A   1      37.866  32.882  32.615  1.00  0.00     0.074 A 
ATOM     40  C   UNL A   1      37.955  31.543  30.538  1.00  0.00     0.049 A 
ATOM     41  N   UNL A   1      38.877  32.383  33.281  1.00  0.00    -0.248 NA
ATOM     42  C   UNL A   1      37.176  33.977  33.314  1.00  0.00     0.031 C 
ATOM     43  C   UNL A   1      37.595  31.137  29.178  1.00  0.00     0.029 A 
ATOM     44  N   UNL A   1      39.004  30.717  30.860  1.00  0.00    -0.354 N 
ATOM     45  C   UNL A   1      38.947  33.112  34.460  1.00  0.00     0.074 A 
ATOM     46  C   UNL A   1      37.931  34.136  34.388  1.00  0.00     0.031 C 
ATOM     47  C   UNL A   1      38.382  30.119  28.798  1.00  0.00     0.029 A 
ATOM     48  C   UNL A   1      39.336  29.831  29.863  1.00  0.00     0.049 A 
ATOM     49  H   UNL A   1      39.476  30.758  31.724  1.00  0.00     0.167 HD
ATOM     50  C   UNL A   1      39.763  32.924  35.524  1.00  0.00     0.037 A 
ATOM     51  C   UNL A   1      40.307  28.898  29.812  1.00  0.00     0.037 A 
ATOM     52  C   UNL A   1      40.757  31.888  35.602  1.00  0.00     0.049 A 
ATOM     53  C   UNL A   1      41.215  28.722  31.001  1.00  0.00     0.074 A 
ATOM     54  C   UNL A   1      41.590  31.571  36.660  1.00  0.00     0.029 A 
ATOM     55  N   UNL A   1      41.056  31.002  34.576  1.00  0.00    -0.354 N 
ATOM     56  N   UNL A   1      41.216  29.363  32.144  1.00  0.00    -0.248 NA
ATOM     57  C   UNL A   1      42.253  27.688  30.892  1.00  0.00     0.031 C 
ATOM     58  C   UNL A   1      42.438  30.536  36.253  1.00  0.00     0.029 A 
ATOM     59  C   UNL A   1      42.087  30.161  34.965  1.00  0.00     0.049 A 
ATOM     60  H   UNL A   1      40.605  30.976  33.702  1.00  0.00     0.167 HD
ATOM     61  C   UNL A   1      42.231  28.793  32.901  1.00  0.00     0.074 A 
ATOM     62  C   UNL A   1      42.811  27.740  32.094  1.00  0.00     0.031 C 
ATOM     63  C   UNL A   1      42.650  29.115  34.150  1.00  0.00     0.037 A 
BRANCH  50  64
ATOM     64  C   UNL A   1      39.611  33.859  36.690  1.00  0.00     0.064 A 
ATOM     65  C   UNL A   1      38.823  33.529  37.804  1.00  0.00     0.173 A 
ATOM     66  C   UNL A   1      40.286  35.090  36.709  1.00  0.00     0.173 A 
ATOM     67  F   UNL A   1      38.146  32.371  37.834  1.00  0.00    -0.203 F 
ATOM     68  C   UNL A   1      38.689  34.409  38.875  1.00  0.00     0.198 A 
ATOM     69  C   UNL A   1      40.179  35.951  37.799  1.00  0.00     0.198 A 
ATOM     70  F   UNL A   1      41.055  35.456  35.673  1.00  0.00    -0.203 F 
ATOM     71  F   UNL A   1      37.883  34.095  39.899  1.00  0.00    -0.200 F 
ATOM     72  C   UNL A   1      39.373  35.615  38.875  1.00  0.00     0.200 A 
ATOM     73  F   UNL A   1      40.852  37.109  37.804  1.00  0.00    -0.200 F 
ATOM     74  F   UNL A   1      39.250  36.455  39.911  1.00  0.00    -0.200 F 
ENDBRANCH  50  64
BRANCH  51  75
ATOM     75  C   UNL A   1      40.463  28.046  28.602  1.00  0.00     0.064 A 
ATOM     76  C   UNL A   1      41.221  28.481  27.505  1.00  0.00     0.173 A 
ATOM     77  C   UNL A   1      39.848  26.788  28.508  1.00  0.00     0.173 A 
ATOM     78  F   UNL A   1      41.812  29.685  27.536  1.00  0.00    -0.203 F 
ATOM     79  C   UNL A   1      41.333  27.706  26.352  1.00  0.00     0.198 A 
ATOM     80  C   UNL A   1      39.990  25.999  27.369  1.00  0.00     0.198 A 
ATOM     81  F   UNL A   1      39.117  26.320  29.531  1.00  0.00    -0.203 F 
ATOM     82  F   UNL A   1      42.018  28.172  25.299  1.00  0.00    -0.200 F 
ATOM     83  C   UNL A   1      40.724  26.462  26.288  1.00  0.00     0.200 A 
ATOM     84  F   UNL A   1      39.414  24.790  27.317  1.00  0.00    -0.200 F 
ATOM     85  F   UNL A   1      40.835  25.716  25.181  1.00  0.00    -0.200 F 
ENDBRANCH  51  75
BRANCH  63  86
ATOM     86  C   UNL A   1      43.767  28.299  34.736  1.00  0.00     0.064 A 
ATOM     87  C   UNL A   1      45.100  28.735  34.697  1.00  0.00     0.173 A 
ATOM     88  C   UNL A   1      43.494  27.083  35.382  1.00  0.00     0.173 A 
ATOM     89  F   UNL A   1      45.416  29.884  34.079  1.00  0.00    -0.203 F 
ATOM     90  C   UNL A   1      46.120  27.971  35.257  1.00  0.00     0.198 A 
ATOM     91  C   UNL A   1      44.512  26.340  35.973  1.00  0.00     0.198 A 
ATOM     92  F   UNL A   1      42.236  26.622  35.455  1.00  0.00    -0.203 F 
ATOM     93  F   UNL A   1      47.392  28.382  35.159  1.00  0.00    -0.200 F 
ATOM     94  C   UNL A   1      45.824  26.779  35.903  1.00  0.00     0.200 A 
ATOM     95  F   UNL A   1      44.221  25.198  36.613  1.00  0.00    -0.200 F 
ATOM     96  F   UNL A   1      46.807  26.050  36.450  1.00  0.00    -0.200 F 
ENDBRANCH  63  86
ENDBRANCH  37  38
ENDBRANCH  29  32
ENDBRANCH  27  28
ENDBRANCH  26  27
ENDBRANCH   1  26
TORSDOF 13
ENDMDL
MODEL 2
REMARK VINA RESULT:     -13.6      0.098      1.578
REMARK SMILES O=C(COc1ccccc1/C=C1\C(=O)Nc2ccccc21)NCCCNC(=O)c1ccc(-c2c3nc(c(-c4c(F)c(F)c(F)c(F)c4F)c4ccc([nH]4)c(-c4c(F)c(F)c(F)c(F)c4F)c4nc(c(-c5c(F)c(F)c(F)c(F)c5F)c5ccc2[nH]5)C=C4)C=C3)cc1
REMARK SMILES IDX 23 1 22 2 1 3 2 4 3 6 4 7 5 8 6 9 10 10 7 11 9 12 8 13 11 14
REMARK SMILES IDX 12 15 13 16 21 17 14 18 15 19 16 20 20 21 17 23 19 24 18 25
REMARK SMILES IDX 24 26 25 27 26 28 27 29 28 31 29 32 30 33 91 34 31 35 90 36
REMARK SMILES IDX 32 37 33 38 34 39 84 40 35 41 89 42 83 43 85 44 36 45 88 46
REMARK SMILES IDX 82 47 81 48 37 50 69 51 49 52 68 53 50 54 53 55 67 56 86 57
REMARK SMILES IDX 51 58 52 59 66 61 87 62 54 63 38 64 39 65 47 66 40 67 41 68
REMARK SMILES IDX 45 69 48 70 42 71 43 72 46 73 44 74 70 75 71 76 79 77 72 78
REMARK SMILES IDX 73 79 77 80 80 81 74 82 75 83 78 84 76 85 55 86 56 87 64 88
REMARK SMILES IDX 57 89 58 90 62 91 65 92 59 93 60 94 63 95 61 96
REMARK H PARENT 22 5 15 22 26 30 85 49 53 60
REMARK Flexibility Score: inf
ROOT
ATOM      1  C   UNL A   1      31.765  30.534  26.774  1.00  0.00     0.117 C 
ENDROOT
BRANCH   1   2
ATOM      2  N   UNL A   1      32.747  29.883  25.953  1.00  0.00    -0.353 N 
ATOM      3  O   UNL A   1      34.405  29.744  27.554  1.00  0.00    -0.271 OA
ATOM      4  C   UNL A   1      33.874  29.319  26.536  1.00  0.00     0.257 C 
ATOM      5  H   UNL A   1      32.620  29.835  24.977  1.00  0.00     0.163 HD
BRANCH   4   6
ATOM      6  C   UNL A   1      34.351  28.079  25.797  1.00  0.00     0.329 C 
BRANCH   6   7
ATOM      7  O   UNL A   1      33.292  27.124  25.974  1.00  0.00    -0.483 OA
BRANCH   7   8
ATOM      8  C   UNL A   1      33.393  26.024  25.160  1.00  0.00     0.127 A 
ATOM      9  C   UNL A   1      34.514  25.205  25.364  1.00  0.00     0.047 A 
ATOM     10  C   UNL A   1      32.546  25.854  24.040  1.00  0.00     0.017 A 
ATOM     11  C   UNL A   1      34.839  24.226  24.432  1.00  0.00     0.004 A 
ATOM     12  C   UNL A   1      32.976  24.946  23.066  1.00  0.00     0.012 A 
ATOM     13  C   UNL A   1      34.088  24.121  23.267  1.00  0.00     0.001 A 
BRANCH  10  14
ATOM     14  C   UNL A   1      31.284  26.626  23.842  1.00  0.00     0.026 C 
ATOM     15  C   UNL A   1      31.079  27.796  23.193  1.00  0.00     0.050 C 
ATOM     16  C   UNL A   1      32.146  28.647  22.517  1.00  0.00     0.256 C 
ATOM     17  C   UNL A   1      29.792  28.507  22.940  1.00  0.00     0.011 A 
ATOM     18  O   UNL A   1      33.337  28.457  22.404  1.00  0.00    -0.269 OA
ATOM     19  N   UNL A   1      31.480  29.747  22.012  1.00  0.00    -0.321 N 
ATOM     20  C   UNL A   1      30.114  29.657  22.211  1.00  0.00     0.049 A 
ATOM     21  C   UNL A   1      28.454  28.278  23.215  1.00  0.00     0.011 A 
ATOM     22  H   UNL A   1      31.923  30.502  21.566  1.00  0.00     0.170 HD
ATOM     23  C   UNL A   1      29.177  30.554  21.724  1.00  0.00     0.027 A 
ATOM     24  C   UNL A   1      27.474  29.137  22.688  1.00  0.00     0.001 A 
ATOM     25  C   UNL A   1      27.833  30.269  21.946  1.00  0.00     0.002 A 
ENDBRANCH  10  14
ENDBRANCH   7   8
ENDBRANCH   6   7
ENDBRANCH   4   6
ENDBRANCH   1   2
BRANCH   1  26
ATOM     26  C   UNL A   1      31.628  32.023  26.597  1.00  0.00     0.042 C 
BRANCH  26  27
ATOM     27  C   UNL A   1      32.732  32.815  27.275  1.00  0.00     0.118 C 
BRANCH  27  28
ATOM     28  N   UNL A   1      32.370  34.185  27.646  1.00  0.00    -0.352 N 
ATOM     29  C   UNL A   1      32.943  35.038  28.567  1.00  0.00     0.251 C 
ATOM     30  H   UNL A   1      31.597  34.555  27.163  1.00  0.00     0.163 HD
ATOM     31  O   UNL A   1      32.451  36.141  28.778  1.00  0.00    -0.269 OA
BRANCH  29  32
ATOM     32  C   UNL A   1      34.118  34.593  29.346  1.00  0.00     0.039 A 
ATOM     33  C   UNL A   1      33.927  34.043  30.615  1.00  0.00     0.014 A 
ATOM     34  C   UNL A   1      35.395  34.640  28.790  1.00  0.00     0.014 A 
ATOM     35  C   UNL A   1      34.999  33.426  31.264  1.00  0.00     0.010 A 
ATOM     36  C   UNL A   1      36.418  33.903  29.367  1.00  0.00     0.010 A 
ATOM     37  C   UNL A   1      36.235  33.287  30.613  1.00  0.00    -0.014 A 
BRANCH  37  38
ATOM     38  C   UNL A   1      37.351  32.508  31.209  1.00  0.00     0.031 A 
ATOM     39  C   UNL A   1      37.862  32.859  32.580  1.00  0.00     0.074 A 
ATOM     40  C   UNL A   1      37.956  31.541  30.490  1.00  0.00     0.049 A 
ATOM     41  N   UNL A   1      38.875  32.356  33.241  1.00  0.00    -0.248 NA
ATOM     42  C   UNL A   1      37.168  33.945  33.289  1.00  0.00     0.031 C 
ATOM     43  C   UNL A   1      37.598  31.148  29.125  1.00  0.00     0.029 A 
ATOM     44  N   UNL A   1      39.008  30.716  30.803  1.00  0.00    -0.354 N 
ATOM     45  C   UNL A   1      38.942  33.074  34.427  1.00  0.00     0.074 A 
ATOM     46  C   UNL A   1      37.922  34.096  34.366  1.00  0.00     0.031 C 
ATOM     47  C   UNL A   1      38.389  30.136  28.735  1.00  0.00     0.029 A 
ATOM     48  C   UNL A   1      39.343  29.840  29.798  1.00  0.00     0.049 A 
ATOM     49  H   UNL A   1      39.479  30.749  31.668  1.00  0.00     0.167 HD
ATOM     50  C   UNL A   1      39.758  32.878  35.490  1.00  0.00     0.037 A 
ATOM     51  C   UNL A   1      40.317  28.912  29.737  1.00  0.00     0.037 A 
ATOM     52  C   UNL A   1      40.755  31.844  35.558  1.00  0.00     0.049 A 
ATOM     53  C   UNL A   1      41.225  28.726  30.925  1.00  0.00     0.074 A 
ATOM     54  C   UNL A   1      41.589  31.520  36.612  1.00  0.00     0.029 A 
ATOM     55  N   UNL A   1      41.058  30.970  34.523  1.00  0.00    -0.354 N 
ATOM     56  N   UNL A   1      41.224  29.355  32.075  1.00  0.00    -0.248 NA
ATOM     57  C   UNL A   1      42.267  27.697  30.806  1.00  0.00     0.031 C 
ATOM     58  C   UNL A   1      42.440  30.492  36.195  1.00  0.00     0.029 A 
ATOM     59  C   UNL A   1      42.091  30.129  34.903  1.00  0.00     0.049 A 
ATOM     60  H   UNL A   1      40.607  30.951  33.649  1.00  0.00     0.167 HD
ATOM     61  C   UNL A   1      42.241  28.782  32.826  1.00  0.00     0.074 A 
ATOM     62  C   UNL A   1      42.824  27.739  32.008  1.00  0.00     0.031 C 
ATOM     63  C   UNL A   1      42.658  29.092  34.078  1.00  0.00     0.037 A 
BRANCH  50  64
ATOM     64  C   UNL A   1      39.603  33.801  36.665  1.00  0.00     0.064 A 
ATOM     65  C   UNL A   1      40.248  35.047  36.716  1.00  0.00     0.173 A 
ATOM     66  C   UNL A   1      38.774  33.450  37.742  1.00  0.00     0.173 A 
ATOM     67  F   UNL A   1      41.062  35.428  35.721  1.00  0.00    -0.203 F 
ATOM     68  C   UNL A   1      40.097  35.889  37.815  1.00  0.00     0.198 A 
ATOM     69  C   UNL A   1      38.597  34.311  38.822  1.00  0.00     0.198 A 
ATOM     70  F   UNL A   1      38.131  32.273  37.745  1.00  0.00    -0.203 F 
ATOM     71  F   UNL A   1      40.771  37.047  37.867  1.00  0.00    -0.200 F 
ATOM     72  C   UNL A   1      39.266  35.524  38.863  1.00  0.00     0.200 A 
ATOM     73  F   UNL A   1      37.781  33.963  39.826  1.00  0.00    -0.200 F 
ATOM     74  F   UNL A   1      39.115  36.340  39.914  1.00  0.00    -0.200 F 
ENDBRANCH  50  64
BRANCH  51  75
ATOM     75  C   UNL A   1      40.476  28.072  28.519  1.00  0.00     0.064 A 
ATOM     76  C   UNL A   1      39.884  26.803  28.434  1.00  0.00     0.173 A 
ATOM     77  C   UNL A   1      41.234  28.509  27.423  1.00  0.00     0.173 A 
ATOM     78  F   UNL A   1      39.167  26.330  29.464  1.00  0.00    -0.203 F 
ATOM     79  C   UNL A   1      40.068  25.995  27.314  1.00  0.00     0.198 A 
ATOM     80  C   UNL A   1      41.387  27.714  26.289  1.00  0.00     0.198 A 
ATOM     81  F   UNL A   1      41.817  29.717  27.447  1.00  0.00    -0.203 F 
ATOM     82  F   UNL A   1      39.536  24.765  27.285  1.00  0.00    -0.200 F 
ATOM     83  C   UNL A   1      40.813  26.453  26.239  1.00  0.00     0.200 A 
ATOM     84  F   UNL A   1      42.095  28.168  25.245  1.00  0.00    -0.200 F 
ATOM     85  F   UNL A   1      40.986  25.677  25.161  1.00  0.00    -0.200 F 
ENDBRANCH  51  75
BRANCH  63  86
ATOM     86  C   UNL A   1      43.778  28.274  34.656  1.00  0.00     0.064 A 
ATOM     87  C   UNL A   1      45.116  28.684  34.564  1.00  0.00     0.173 A 
ATOM     88  C   UNL A   1      43.502  27.084  35.348  1.00  0.00     0.173 A 
ATOM     89  F   UNL A   1      45.434  29.806  33.901  1.00  0.00    -0.203 F 
ATOM     90  C   UNL A   1      46.139  27.919  35.117  1.00  0.00     0.198 A 
ATOM     91  C   UNL A   1      44.525  26.341  35.933  1.00  0.00     0.198 A 
ATOM     92  F   UNL A   1      42.239  26.650  35.474  1.00  0.00    -0.203 F 
ATOM     93  F   UNL A   1      47.414  28.303  34.969  1.00  0.00    -0.200 F 
ATOM     94  C   UNL A   1      45.842  26.753  35.809  1.00  0.00     0.200 A 
ATOM     95  F   UNL A   1      44.233  25.226  36.617  1.00  0.00    -0.200 F 
ATOM     96  F   UNL A   1      46.827  26.024  36.350  1.00  0.00    -0.200 F 
ENDBRANCH  63  86
ENDBRANCH  37  38
ENDBRANCH  29  32
ENDBRANCH  27  28
ENDBRANCH  26  27
ENDBRANCH   1  26
TORSDOF 13
ENDMDL
MODEL 3
REMARK VINA RESULT:     -13.5      0.494      7.334
REMARK SMILES O=C(COc1ccccc1/C=C1\C(=O)Nc2ccccc21)NCCCNC(=O)c1ccc(-c2c3nc(c(-c4c(F)c(F)c(F)c(F)c4F)c4ccc([nH]4)c(-c4c(F)c(F)c(F)c(F)c4F)c4nc(c(-c5c(F)c(F)c(F)c(F)c5F)c5ccc2[nH]5)C=C4)C=C3)cc1
REMARK SMILES IDX 23 1 22 2 1 3 2 4 3 6 4 7 5 8 6 9 10 10 7 11 9 12 8 13 11 14
REMARK SMILES IDX 12 15 13 16 21 17 14 18 15 19 16 20 20 21 17 23 19 24 18 25
REMARK SMILES IDX 24 26 25 27 26 28 27 29 28 31 29 32 30 33 91 34 31 35 90 36
REMARK SMILES IDX 32 37 33 38 34 39 84 40 35 41 89 42 83 43 85 44 36 45 88 46
REMARK SMILES IDX 82 47 81 48 37 50 69 51 49 52 68 53 50 54 53 55 67 56 86 57
REMARK SMILES IDX 51 58 52 59 66 61 87 62 54 63 38 64 39 65 47 66 40 67 41 68
REMARK SMILES IDX 45 69 48 70 42 71 43 72 46 73 44 74 70 75 71 76 79 77 72 78
REMARK SMILES IDX 73 79 77 80 80 81 74 82 75 83 78 84 76 85 55 86 56 87 64 88
REMARK SMILES IDX 57 89 58 90 62 91 65 92 59 93 60 94 63 95 61 96
REMARK H PARENT 22 5 15 22 26 30 85 49 53 60
REMARK Flexibility Score: inf
ROOT
ATOM      1  C   UNL A   1      32.007  30.313  26.904  1.00  0.00     0.117 C 
ENDROOT
BRANCH   1   2
ATOM      2  N   UNL A   1      32.963  29.679  26.040  1.00  0.00    -0.353 N 
ATOM      3  O   UNL A   1      34.615  29.376  27.625  1.00  0.00    -0.271 OA
ATOM      4  C   UNL A   1      34.068  29.037  26.583  1.00  0.00     0.257 C 
ATOM      5  H   UNL A   1      32.834  29.699  25.064  1.00  0.00     0.163 HD
BRANCH   4   6
ATOM      6  C   UNL A   1      34.498  27.830  25.764  1.00  0.00     0.329 C 
BRANCH   6   7
ATOM      7  O   UNL A   1      33.427  26.886  25.925  1.00  0.00    -0.483 OA
BRANCH   7   8
ATOM      8  C   UNL A   1      33.510  25.802  25.089  1.00  0.00     0.127 A 
ATOM      9  C   UNL A   1      34.628  24.971  25.262  1.00  0.00     0.047 A 
ATOM     10  C   UNL A   1      32.648  25.660  23.976  1.00  0.00     0.017 A 
ATOM     11  C   UNL A   1      34.935  24.010  24.306  1.00  0.00     0.004 A 
ATOM     12  C   UNL A   1      33.060  24.769  22.979  1.00  0.00     0.012 A 
ATOM     13  C   UNL A   1      34.169  23.933  23.149  1.00  0.00     0.001 A 
BRANCH  10  14
ATOM     14  C   UNL A   1      31.389  26.444  23.809  1.00  0.00     0.026 C 
ATOM     15  C   UNL A   1      31.188  27.637  23.202  1.00  0.00     0.050 C 
ATOM     16  C   UNL A   1      32.256  28.506  22.553  1.00  0.00     0.256 C 
ATOM     17  C   UNL A   1      29.903  28.362  22.979  1.00  0.00     0.011 A 
ATOM     18  O   UNL A   1      33.446  28.315  22.428  1.00  0.00    -0.269 OA
ATOM     19  N   UNL A   1      31.593  29.626  22.088  1.00  0.00    -0.321 N 
ATOM     20  C   UNL A   1      30.227  29.535  22.289  1.00  0.00     0.049 A 
ATOM     21  C   UNL A   1      28.565  28.129  23.250  1.00  0.00     0.011 A 
ATOM     22  H   UNL A   1      32.039  30.394  21.667  1.00  0.00     0.170 HD
ATOM     23  C   UNL A   1      29.293  30.453  21.837  1.00  0.00     0.027 A 
ATOM     24  C   UNL A   1      27.587  29.011  22.756  1.00  0.00     0.001 A 
ATOM     25  C   UNL A   1      27.949  30.166  22.053  1.00  0.00     0.002 A 
ENDBRANCH  10  14
ENDBRANCH   7   8
ENDBRANCH   6   7
ENDBRANCH   4   6
ENDBRANCH   1   2
BRANCH   1  26
ATOM     26  C   UNL A   1      31.819  31.796  26.718  1.00  0.00     0.042 C 
BRANCH  26  27
ATOM     27  C   UNL A   1      32.829  32.632  27.484  1.00  0.00     0.118 C 
BRANCH  27  28
ATOM     28  N   UNL A   1      32.436  34.026  27.705  1.00  0.00    -0.352 N 
ATOM     29  C   UNL A   1      32.980  34.982  28.537  1.00  0.00     0.251 C 
ATOM     30  H   UNL A   1      31.662  34.327  27.177  1.00  0.00     0.163 HD
ATOM     31  O   UNL A   1      32.463  36.091  28.625  1.00  0.00    -0.269 OA
BRANCH  29  32
ATOM     32  C   UNL A   1      34.154  34.646  29.371  1.00  0.00     0.039 A 
ATOM     33  C   UNL A   1      33.956  34.221  30.687  1.00  0.00     0.014 A 
ATOM     34  C   UNL A   1      35.437  34.670  28.830  1.00  0.00     0.014 A 
ATOM     35  C   UNL A   1      35.032  33.698  31.408  1.00  0.00     0.010 A 
ATOM     36  C   UNL A   1      36.468  34.018  29.490  1.00  0.00     0.010 A 
ATOM     37  C   UNL A   1      36.281  33.526  30.789  1.00  0.00    -0.014 A 
BRANCH  37  38
ATOM     38  C   UNL A   1      37.405  32.837  31.474  1.00  0.00     0.031 A 
ATOM     39  C   UNL A   1      38.071  31.657  30.822  1.00  0.00     0.074 A 
ATOM     40  C   UNL A   1      37.774  33.221  32.713  1.00  0.00     0.049 A 
ATOM     41  N   UNL A   1      39.011  30.872  31.287  1.00  0.00    -0.248 NA
ATOM     42  C   UNL A   1      37.593  31.282  29.481  1.00  0.00     0.031 C 
ATOM     43  C   UNL A   1      37.164  34.308  33.482  1.00  0.00     0.029 A 
ATOM     44  N   UNL A   1      38.746  32.732  33.551  1.00  0.00    -0.354 N 
ATOM     45  C   UNL A   1      39.219  29.912  30.307  1.00  0.00     0.074 A 
ATOM     46  C   UNL A   1      38.260  30.162  29.255  1.00  0.00     0.031 C 
ATOM     47  C   UNL A   1      37.800  34.428  34.658  1.00  0.00     0.029 A 
ATOM     48  C   UNL A   1      38.827  33.396  34.752  1.00  0.00     0.049 A 
ATOM     49  H   UNL A   1      39.330  31.975  33.314  1.00  0.00     0.167 HD
ATOM     50  C   UNL A   1      40.150  28.930  30.268  1.00  0.00     0.037 A 
ATOM     51  C   UNL A   1      39.631  33.189  35.812  1.00  0.00     0.037 A 
ATOM     52  C   UNL A   1      41.120  28.700  31.305  1.00  0.00     0.049 A 
ATOM     53  C   UNL A   1      40.646  32.077  35.752  1.00  0.00     0.074 A 
ATOM     54  C   UNL A   1      42.147  27.775  31.335  1.00  0.00     0.029 A 
ATOM     55  N   UNL A   1      41.177  29.402  32.502  1.00  0.00    -0.354 N 
ATOM     56  N   UNL A   1      40.890  31.229  34.783  1.00  0.00    -0.248 NA
ATOM     57  C   UNL A   1      41.500  31.898  36.934  1.00  0.00     0.031 C 
ATOM     58  C   UNL A   1      42.786  27.871  32.574  1.00  0.00     0.029 A 
ATOM     59  C   UNL A   1      42.202  28.904  33.291  1.00  0.00     0.049 A 
ATOM     60  H   UNL A   1      40.579  30.141  32.753  1.00  0.00     0.167 HD
ATOM     61  C   UNL A   1      41.941  30.436  35.224  1.00  0.00     0.074 A 
ATOM     62  C   UNL A   1      42.303  30.919  36.541  1.00  0.00     0.031 C 
ATOM     63  C   UNL A   1      42.551  29.399  34.599  1.00  0.00     0.037 A 
BRANCH  50  64
ATOM     64  C   UNL A   1      40.165  28.033  29.063  1.00  0.00     0.064 A 
ATOM     65  C   UNL A   1      40.876  28.370  27.900  1.00  0.00     0.173 A 
ATOM     66  C   UNL A   1      39.485  26.805  29.081  1.00  0.00     0.173 A 
ATOM     67  F   UNL A   1      41.533  29.536  27.824  1.00  0.00    -0.203 F 
ATOM     68  C   UNL A   1      40.875  27.529  26.790  1.00  0.00     0.198 A 
ATOM     69  C   UNL A   1      39.518  25.951  27.982  1.00  0.00     0.198 A 
ATOM     70  F   UNL A   1      38.792  26.431  30.167  1.00  0.00    -0.203 F 
ATOM     71  F   UNL A   1      41.512  27.901  25.671  1.00  0.00    -0.200 F 
ATOM     72  C   UNL A   1      40.204  26.317  26.835  1.00  0.00     0.200 A 
ATOM     73  F   UNL A   1      38.881  24.773  28.033  1.00  0.00    -0.200 F 
ATOM     74  F   UNL A   1      40.212  25.506  25.769  1.00  0.00    -0.200 F 
ENDBRANCH  50  64
BRANCH  51  75
ATOM     75  C   UNL A   1      39.527  34.060  37.013  1.00  0.00     0.064 A 
ATOM     76  C   UNL A   1      40.213  35.282  37.081  1.00  0.00     0.173 A 
ATOM     77  C   UNL A   1      38.756  33.687  38.124  1.00  0.00     0.173 A 
ATOM     78  F   UNL A   1      40.981  35.675  36.054  1.00  0.00    -0.203 F 
ATOM     79  C   UNL A   1      40.154  36.081  38.221  1.00  0.00     0.198 A 
ATOM     80  C   UNL A   1      38.670  34.504  39.250  1.00  0.00     0.198 A 
ATOM     81  F   UNL A   1      38.074  32.532  38.111  1.00  0.00    -0.203 F 
ATOM     82  F   UNL A   1      40.865  37.216  38.278  1.00  0.00    -0.200 F 
ATOM     83  C   UNL A   1      39.377  35.694  39.302  1.00  0.00     0.200 A 
ATOM     84  F   UNL A   1      37.904  34.134  40.286  1.00  0.00    -0.200 F 
ATOM     85  F   UNL A   1      39.318  36.465  40.397  1.00  0.00    -0.200 F 
ENDBRANCH  51  75
BRANCH  63  86
ATOM     86  C   UNL A   1      43.694  28.736  35.314  1.00  0.00     0.064 A 
ATOM     87  C   UNL A   1      43.491  27.664  36.196  1.00  0.00     0.173 A 
ATOM     88  C   UNL A   1      45.014  29.153  35.080  1.00  0.00     0.173 A 
ATOM     89  F   UNL A   1      42.248  27.236  36.464  1.00  0.00    -0.203 F 
ATOM     90  C   UNL A   1      44.565  27.054  36.839  1.00  0.00     0.198 A 
ATOM     91  C   UNL A   1      46.087  28.515  35.697  1.00  0.00     0.198 A 
ATOM     92  F   UNL A   1      45.266  30.168  34.239  1.00  0.00    -0.203 F 
ATOM     93  F   UNL A   1      44.342  26.068  37.719  1.00  0.00    -0.200 F 
ATOM     94  C   UNL A   1      45.862  27.474  36.582  1.00  0.00     0.200 A 
ATOM     95  F   UNL A   1      47.341  28.910  35.431  1.00  0.00    -0.200 F 
ATOM     96  F   UNL A   1      46.894  26.878  37.194  1.00  0.00    -0.200 F 
ENDBRANCH  63  86
ENDBRANCH  37  38
ENDBRANCH  29  32
ENDBRANCH  27  28
ENDBRANCH  26  27
ENDBRANCH   1  26
TORSDOF 13
ENDMDL
