MODEL 1
REMARK VINA RESULT:     -13.3      0.000      0.000
REMARK SMILES O=C(NCCCNC(=O)[C@@H]1CCC[C@@H](C(=O)N2CCN3C(=O)NC[C@@H]3C2)C1)c1ccc(-c2c3nc(c(-c4c(F)c(F)c(F)c(F)c4F)c4ccc([nH]4)c(-c4c(F)c(F)c(F)c(F)c4F)c4nc(c(-c5c(F)c(F)c(F)c(F)c5F)c5ccc2[nH]5)C=C4)C=C3)cc1
REMARK SMILES IDX 5 1 4 2 3 3 1 4 2 5 28 7 29 8 90 9 30 10 89 11 31 12 32 13
REMARK SMILES IDX 33 14 83 15 34 16 88 17 82 18 84 19 35 20 87 21 81 22 80 23
REMARK SMILES IDX 36 25 68 26 48 27 67 28 49 29 52 30 66 31 85 32 50 33 51 34
REMARK SMILES IDX 65 36 86 37 53 38 37 39 38 40 46 41 39 42 40 43 44 44 47 45
REMARK SMILES IDX 41 46 42 47 45 48 43 49 69 50 70 51 78 52 71 53 72 54 76 55
REMARK SMILES IDX 79 56 73 57 74 58 77 59 75 60 54 61 55 62 63 63 56 64 57 65
REMARK SMILES IDX 61 66 64 67 58 68 59 69 62 70 60 71 6 72 7 73 8 74 9 76
REMARK SMILES IDX 10 77 11 78 27 79 12 80 14 81 13 82 15 83 16 84 17 85 18 86
REMARK SMILES IDX 26 87 19 88 25 89 20 90 24 91 21 92 23 93 22 94
REMARK H PARENT 3 6 84 24 52 35 7 75 23 95
REMARK Flexibility Score: inf
ROOT
ATOM      1  C   UNL A   1      37.893  19.583  24.983  1.00  0.00     0.042 C 
ENDROOT
BRANCH   1   2
ATOM      2  C   UNL A   1      39.065  20.192  25.751  1.00  0.00     0.118 C 
BRANCH   2   3
ATOM      3  N   UNL A   1      40.108  19.203  25.988  1.00  0.00    -0.352 N 
ATOM      4  O   UNL A   1      42.206  18.398  25.953  1.00  0.00    -0.269 OA
ATOM      5  C   UNL A   1      41.463  19.365  26.094  1.00  0.00     0.251 C 
ATOM      6  H   UNL A   1      39.790  18.276  26.088  1.00  0.00     0.163 HD
BRANCH   5   7
ATOM      7  C   UNL A   1      42.033  20.692  26.397  1.00  0.00     0.039 A 
ATOM      8  C   UNL A   1      42.263  21.619  25.376  1.00  0.00     0.014 A 
ATOM      9  C   UNL A   1      42.258  21.042  27.730  1.00  0.00     0.014 A 
ATOM     10  C   UNL A   1      42.809  22.862  25.676  1.00  0.00     0.010 A 
ATOM     11  C   UNL A   1      42.735  22.316  28.037  1.00  0.00     0.010 A 
ATOM     12  C   UNL A   1      43.027  23.229  27.011  1.00  0.00    -0.014 A 
BRANCH  12  13
ATOM     13  C   UNL A   1      43.502  24.592  27.342  1.00  0.00     0.031 A 
ATOM     14  C   UNL A   1      42.557  25.608  27.909  1.00  0.00     0.074 A 
ATOM     15  C   UNL A   1      44.782  24.918  27.083  1.00  0.00     0.049 A 
ATOM     16  N   UNL A   1      42.756  26.878  28.152  1.00  0.00    -0.248 NA
ATOM     17  C   UNL A   1      41.203  25.136  28.230  1.00  0.00     0.031 C 
ATOM     18  C   UNL A   1      45.786  24.008  26.531  1.00  0.00     0.029 A 
ATOM     19  N   UNL A   1      45.451  26.107  27.226  1.00  0.00    -0.354 N 
ATOM     20  C   UNL A   1      41.547  27.363  28.631  1.00  0.00     0.074 A 
ATOM     21  C   UNL A   1      40.613  26.257  28.616  1.00  0.00     0.031 C 
ATOM     22  C   UNL A   1      46.944  24.666  26.387  1.00  0.00     0.029 A 
ATOM     23  C   UNL A   1      46.744  26.060  26.767  1.00  0.00     0.049 A 
ATOM     24  H   UNL A   1      45.045  26.913  27.620  1.00  0.00     0.167 HD
ATOM     25  C   UNL A   1      41.252  28.619  29.045  1.00  0.00     0.037 A 
ATOM     26  C   UNL A   1      47.655  27.040  26.626  1.00  0.00     0.037 A 
ATOM     27  C   UNL A   1      42.197  29.707  29.047  1.00  0.00     0.049 A 
ATOM     28  C   UNL A   1      47.292  28.437  27.043  1.00  0.00     0.074 A 
ATOM     29  C   UNL A   1      42.014  31.008  29.480  1.00  0.00     0.029 A 
ATOM     30  N   UNL A   1      43.500  29.622  28.575  1.00  0.00    -0.354 N 
ATOM     31  N   UNL A   1      46.158  28.883  27.530  1.00  0.00    -0.248 NA
ATOM     32  C   UNL A   1      48.329  29.465  26.896  1.00  0.00     0.031 C 
ATOM     33  C   UNL A   1      43.182  31.726  29.206  1.00  0.00     0.029 A 
ATOM     34  C   UNL A   1      44.121  30.857  28.676  1.00  0.00     0.049 A 
ATOM     35  H   UNL A   1      43.920  28.806  28.221  1.00  0.00     0.167 HD
ATOM     36  C   UNL A   1      46.354  30.234  27.776  1.00  0.00     0.074 A 
ATOM     37  C   UNL A   1      47.716  30.535  27.383  1.00  0.00     0.031 C 
ATOM     38  C   UNL A   1      45.484  31.137  28.291  1.00  0.00     0.037 A 
BRANCH  25  39
ATOM     39  C   UNL A   1      39.838  28.890  29.482  1.00  0.00     0.064 A 
ATOM     40  C   UNL A   1      39.427  28.738  30.815  1.00  0.00     0.173 A 
ATOM     41  C   UNL A   1      38.876  29.305  28.547  1.00  0.00     0.173 A 
ATOM     42  F   UNL A   1      40.303  28.334  31.750  1.00  0.00    -0.203 F 
ATOM     43  C   UNL A   1      38.101  28.944  31.187  1.00  0.00     0.198 A 
ATOM     44  C   UNL A   1      37.559  29.546  28.929  1.00  0.00     0.198 A 
ATOM     45  F   UNL A   1      39.212  29.475  27.259  1.00  0.00    -0.203 F 
ATOM     46  F   UNL A   1      37.719  28.719  32.452  1.00  0.00    -0.200 F 
ATOM     47  C   UNL A   1      37.168  29.350  30.244  1.00  0.00     0.200 A 
ATOM     48  F   UNL A   1      36.664  29.955  28.019  1.00  0.00    -0.200 F 
ATOM     49  F   UNL A   1      35.891  29.540  30.602  1.00  0.00    -0.200 F 
ENDBRANCH  25  39
BRANCH  26  50
ATOM     50  C   UNL A   1      48.985  26.714  26.052  1.00  0.00     0.064 A 
ATOM     51  C   UNL A   1      49.268  26.954  24.702  1.00  0.00     0.173 A 
ATOM     52  C   UNL A   1      50.019  26.215  26.860  1.00  0.00     0.173 A 
ATOM     53  F   UNL A   1      48.308  27.417  23.889  1.00  0.00    -0.203 F 
ATOM     54  C   UNL A   1      50.535  26.703  24.180  1.00  0.00     0.198 A 
ATOM     55  C   UNL A   1      51.293  25.994  26.343  1.00  0.00     0.198 A 
ATOM     56  F   UNL A   1      49.801  25.981  28.162  1.00  0.00    -0.203 F 
ATOM     57  F   UNL A   1      50.774  26.918  22.879  1.00  0.00    -0.200 F 
ATOM     58  C   UNL A   1      51.549  26.235  25.001  1.00  0.00     0.200 A 
ATOM     59  F   UNL A   1      52.275  25.562  27.146  1.00  0.00    -0.200 F 
ATOM     60  F   UNL A   1      52.773  26.016  24.502  1.00  0.00    -0.200 F 
ENDBRANCH  26  50
BRANCH  38  61
ATOM     61  C   UNL A   1      45.987  32.534  28.519  1.00  0.00     0.064 A 
ATOM     62  C   UNL A   1      45.860  33.538  27.550  1.00  0.00     0.173 A 
ATOM     63  C   UNL A   1      46.527  32.887  29.766  1.00  0.00     0.173 A 
ATOM     64  F   UNL A   1      45.367  33.247  26.338  1.00  0.00    -0.203 F 
ATOM     65  C   UNL A   1      46.263  34.843  27.818  1.00  0.00     0.198 A 
ATOM     66  C   UNL A   1      46.899  34.199  30.042  1.00  0.00     0.198 A 
ATOM     67  F   UNL A   1      46.666  31.962  30.730  1.00  0.00    -0.203 F 
ATOM     68  F   UNL A   1      46.162  35.782  26.867  1.00  0.00    -0.200 F 
ATOM     69  C   UNL A   1      46.770  35.175  29.067  1.00  0.00     0.200 A 
ATOM     70  F   UNL A   1      47.372  34.519  31.253  1.00  0.00    -0.200 F 
ATOM     71  F   UNL A   1      47.134  36.437  29.330  1.00  0.00    -0.200 F 
ENDBRANCH  38  61
ENDBRANCH  12  13
ENDBRANCH   5   7
ENDBRANCH   2   3
ENDBRANCH   1   2
BRANCH   1  72
ATOM     72  C   UNL A   1      36.656  20.484  25.001  1.00  0.00     0.117 C 
BRANCH  72  73
ATOM     73  N   UNL A   1      35.449  19.685  25.001  1.00  0.00    -0.356 N 
ATOM     74  C   UNL A   1      34.140  20.035  25.041  1.00  0.00     0.223 C 
ATOM     75  H   UNL A   1      35.607  18.714  24.966  1.00  0.00     0.163 HD
ATOM     76  O   UNL A   1      33.331  19.114  25.189  1.00  0.00    -0.275 OA
BRANCH  74  77
ATOM     77  C   UNL A   1      33.647  21.462  24.813  1.00  0.00     0.079 C 
ATOM     78  C   UNL A   1      32.860  21.937  26.035  1.00  0.00     0.013 C 
ATOM     79  C   UNL A   1      32.910  21.747  23.498  1.00  0.00     0.027 C 
ATOM     80  C   UNL A   1      32.505  23.415  25.927  1.00  0.00     0.002 C 
ATOM     81  C   UNL A   1      32.448  23.212  23.363  1.00  0.00     0.079 C 
ATOM     82  C   UNL A   1      31.768  23.736  24.630  1.00  0.00     0.013 C 
BRANCH  81  83
ATOM     83  C   UNL A   1      33.657  24.030  22.916  1.00  0.00     0.225 C 
ATOM     84  O   UNL A   1      34.768  23.531  22.763  1.00  0.00    -0.275 OA
BRANCH  83  85
ATOM     85  N   UNL A   1      33.353  25.294  22.444  1.00  0.00    -0.339 N 
ATOM     86  C   UNL A   1      32.528  25.556  21.251  1.00  0.00     0.141 C 
ATOM     87  C   UNL A   1      33.696  26.457  23.264  1.00  0.00     0.146 C 
ATOM     88  C   UNL A   1      31.313  26.468  21.548  1.00  0.00     0.143 C 
ATOM     89  C   UNL A   1      32.437  27.190  23.684  1.00  0.00     0.125 C 
ATOM     90  N   UNL A   1      31.615  27.496  22.526  1.00  0.00    -0.317 N 
ATOM     91  C   UNL A   1      32.658  28.562  24.307  1.00  0.00     0.144 C 
ATOM     92  C   UNL A   1      30.977  28.713  22.685  1.00  0.00     0.317 C 
ATOM     93  N   UNL A   1      31.549  29.328  23.794  1.00  0.00    -0.336 N 
ATOM     94  O   UNL A   1      30.089  29.179  22.001  1.00  0.00    -0.249 OA
ATOM     95  H   UNL A   1      31.237  30.178  24.181  1.00  0.00     0.165 HD
ENDBRANCH  83  85
ENDBRANCH  81  83
ENDBRANCH  74  77
ENDBRANCH  72  73
ENDBRANCH   1  72
TORSDOF 12
ENDMDL
MODEL 2
REMARK VINA RESULT:     -13.3      0.358      1.622
REMARK SMILES O=C(NCCCNC(=O)[C@@H]1CCC[C@@H](C(=O)N2CCN3C(=O)NC[C@@H]3C2)C1)c1ccc(-c2c3nc(c(-c4c(F)c(F)c(F)c(F)c4F)c4ccc([nH]4)c(-c4c(F)c(F)c(F)c(F)c4F)c4nc(c(-c5c(F)c(F)c(F)c(F)c5F)c5ccc2[nH]5)C=C4)C=C3)cc1
REMARK SMILES IDX 5 1 4 2 3 3 1 4 2 5 28 7 29 8 90 9 30 10 89 11 31 12 32 13
REMARK SMILES IDX 33 14 83 15 34 16 88 17 82 18 84 19 35 20 87 21 81 22 80 23
REMARK SMILES IDX 36 25 68 26 48 27 67 28 49 29 52 30 66 31 85 32 50 33 51 34
REMARK SMILES IDX 65 36 86 37 53 38 37 39 38 40 46 41 39 42 40 43 44 44 47 45
REMARK SMILES IDX 41 46 42 47 45 48 43 49 69 50 70 51 78 52 71 53 72 54 76 55
REMARK SMILES IDX 79 56 73 57 74 58 77 59 75 60 54 61 55 62 63 63 56 64 57 65
REMARK SMILES IDX 61 66 64 67 58 68 59 69 62 70 60 71 6 72 7 73 8 74 9 76
REMARK SMILES IDX 10 77 11 78 27 79 12 80 14 81 13 82 15 83 16 84 17 85 18 86
REMARK SMILES IDX 26 87 19 88 25 89 20 90 24 91 21 92 23 93 22 94
REMARK H PARENT 3 6 84 24 52 35 7 75 23 95
REMARK Flexibility Score: inf
ROOT
ATOM      1  C   UNL A   1      37.816  19.763  24.906  1.00  0.00     0.042 C 
ENDROOT
BRANCH   1   2
ATOM      2  C   UNL A   1      38.961  20.328  25.746  1.00  0.00     0.118 C 
BRANCH   2   3
ATOM      3  N   UNL A   1      40.010  19.335  25.938  1.00  0.00    -0.352 N 
ATOM      4  O   UNL A   1      42.112  18.544  25.863  1.00  0.00    -0.269 OA
ATOM      5  C   UNL A   1      41.365  19.500  26.047  1.00  0.00     0.251 C 
ATOM      6  H   UNL A   1      39.697  18.404  26.000  1.00  0.00     0.163 HD
BRANCH   5   7
ATOM      7  C   UNL A   1      41.928  20.816  26.403  1.00  0.00     0.039 A 
ATOM      8  C   UNL A   1      42.127  21.796  25.425  1.00  0.00     0.014 A 
ATOM      9  C   UNL A   1      42.179  21.102  27.747  1.00  0.00     0.014 A 
ATOM     10  C   UNL A   1      42.668  23.027  25.775  1.00  0.00     0.010 A 
ATOM     11  C   UNL A   1      42.650  22.364  28.107  1.00  0.00     0.010 A 
ATOM     12  C   UNL A   1      42.912  23.330  27.122  1.00  0.00    -0.014 A 
BRANCH  12  13
ATOM     13  C   UNL A   1      43.381  24.679  27.511  1.00  0.00     0.031 A 
ATOM     14  C   UNL A   1      42.422  25.683  28.077  1.00  0.00     0.074 A 
ATOM     15  C   UNL A   1      44.670  25.007  27.303  1.00  0.00     0.049 A 
ATOM     16  N   UNL A   1      42.618  26.943  28.366  1.00  0.00    -0.248 NA
ATOM     17  C   UNL A   1      41.056  25.207  28.339  1.00  0.00     0.031 C 
ATOM     18  C   UNL A   1      45.688  24.109  26.757  1.00  0.00     0.029 A 
ATOM     19  N   UNL A   1      45.339  26.187  27.505  1.00  0.00    -0.354 N 
ATOM     20  C   UNL A   1      41.396  27.419  28.820  1.00  0.00     0.074 A 
ATOM     21  C   UNL A   1      40.458  26.319  28.740  1.00  0.00     0.031 C 
ATOM     22  C   UNL A   1      46.853  24.766  26.671  1.00  0.00     0.029 A 
ATOM     23  C   UNL A   1      46.646  26.149  27.088  1.00  0.00     0.049 A 
ATOM     24  H   UNL A   1      44.923  26.983  27.910  1.00  0.00     0.167 HD
ATOM     25  C   UNL A   1      41.092  28.663  29.263  1.00  0.00     0.037 A 
ATOM     26  C   UNL A   1      47.565  27.128  27.007  1.00  0.00     0.037 A 
ATOM     27  C   UNL A   1      42.041  29.746  29.330  1.00  0.00     0.049 A 
ATOM     28  C   UNL A   1      47.194  28.512  27.455  1.00  0.00     0.074 A 
ATOM     29  C   UNL A   1      41.849  31.034  29.797  1.00  0.00     0.029 A 
ATOM     30  N   UNL A   1      43.359  29.669  28.898  1.00  0.00    -0.354 N 
ATOM     31  N   UNL A   1      46.047  28.949  27.918  1.00  0.00    -0.248 NA
ATOM     32  C   UNL A   1      48.240  29.540  27.373  1.00  0.00     0.031 C 
ATOM     33  C   UNL A   1      43.028  31.754  29.583  1.00  0.00     0.029 A 
ATOM     34  C   UNL A   1      43.981  30.897  29.058  1.00  0.00     0.049 A 
ATOM     35  H   UNL A   1      43.787  28.862  28.533  1.00  0.00     0.167 HD
ATOM     36  C   UNL A   1      46.240  30.291  28.212  1.00  0.00     0.074 A 
ATOM     37  C   UNL A   1      47.615  30.597  27.874  1.00  0.00     0.031 C 
ATOM     38  C   UNL A   1      45.357  31.183  28.726  1.00  0.00     0.037 A 
BRANCH  25  39
ATOM     39  C   UNL A   1      39.666  28.927  29.662  1.00  0.00     0.064 A 
ATOM     40  C   UNL A   1      38.720  29.432  28.757  1.00  0.00     0.173 A 
ATOM     41  C   UNL A   1      39.240  28.674  30.976  1.00  0.00     0.173 A 
ATOM     42  F   UNL A   1      39.074  29.702  27.490  1.00  0.00    -0.203 F 
ATOM     43  C   UNL A   1      37.418  29.718  29.162  1.00  0.00     0.198 A 
ATOM     44  C   UNL A   1      37.928  28.927  31.369  1.00  0.00     0.198 A 
ATOM     45  F   UNL A   1      40.098  28.183  31.883  1.00  0.00    -0.203 F 
ATOM     46  F   UNL A   1      36.556  30.270  28.297  1.00  0.00    -0.200 F 
ATOM     47  C   UNL A   1      37.023  29.463  30.466  1.00  0.00     0.200 A 
ATOM     48  F   UNL A   1      37.545  28.663  32.625  1.00  0.00    -0.200 F 
ATOM     49  F   UNL A   1      35.772  29.745  30.857  1.00  0.00    -0.200 F 
ENDBRANCH  25  39
BRANCH  26  50
ATOM     50  C   UNL A   1      48.912  26.813  26.467  1.00  0.00     0.064 A 
ATOM     51  C   UNL A   1      49.912  26.275  27.286  1.00  0.00     0.173 A 
ATOM     52  C   UNL A   1      49.204  26.986  25.106  1.00  0.00     0.173 A 
ATOM     53  F   UNL A   1      49.684  26.105  28.597  1.00  0.00    -0.203 F 
ATOM     54  C   UNL A   1      51.155  25.924  26.765  1.00  0.00     0.198 A 
ATOM     55  C   UNL A   1      50.437  26.607  24.579  1.00  0.00     0.198 A 
ATOM     56  F   UNL A   1      48.275  27.487  24.277  1.00  0.00    -0.203 F 
ATOM     57  F   UNL A   1      52.104  25.434  27.574  1.00  0.00    -0.200 F 
ATOM     58  C   UNL A   1      51.413  26.079  25.411  1.00  0.00     0.200 A 
ATOM     59  F   UNL A   1      50.673  26.738  23.267  1.00  0.00    -0.200 F 
ATOM     60  F   UNL A   1      52.602  25.720  24.907  1.00  0.00    -0.200 F 
ENDBRANCH  26  50
BRANCH  38  61
ATOM     61  C   UNL A   1      45.858  32.568  29.014  1.00  0.00     0.064 A 
ATOM     62  C   UNL A   1      45.733  33.612  28.088  1.00  0.00     0.173 A 
ATOM     63  C   UNL A   1      46.395  32.869  30.276  1.00  0.00     0.173 A 
ATOM     64  F   UNL A   1      45.242  33.372  26.863  1.00  0.00    -0.203 F 
ATOM     65  C   UNL A   1      46.133  34.906  28.411  1.00  0.00     0.198 A 
ATOM     66  C   UNL A   1      46.764  34.170  30.607  1.00  0.00     0.198 A 
ATOM     67  F   UNL A   1      46.532  31.905  31.200  1.00  0.00    -0.203 F 
ATOM     68  F   UNL A   1      46.034  35.884  27.500  1.00  0.00    -0.200 F 
ATOM     69  C   UNL A   1      46.636  35.185  29.673  1.00  0.00     0.200 A 
ATOM     70  F   UNL A   1      47.234  34.439  31.833  1.00  0.00    -0.200 F 
ATOM     71  F   UNL A   1      46.998  36.436  29.990  1.00  0.00    -0.200 F 
ENDBRANCH  38  61
ENDBRANCH  12  13
ENDBRANCH   5   7
ENDBRANCH   2   3
ENDBRANCH   1   2
BRANCH   1  72
ATOM     72  C   UNL A   1      36.546  20.612  25.010  1.00  0.00     0.117 C 
BRANCH  72  73
ATOM     73  N   UNL A   1      35.373  19.765  25.035  1.00  0.00    -0.356 N 
ATOM     74  C   UNL A   1      34.050  20.061  25.049  1.00  0.00     0.223 C 
ATOM     75  H   UNL A   1      35.571  18.801  25.045  1.00  0.00     0.163 HD
ATOM     76  O   UNL A   1      33.278  19.115  25.230  1.00  0.00    -0.275 OA
BRANCH  74  77
ATOM     77  C   UNL A   1      33.501  21.456  24.754  1.00  0.00     0.079 C 
ATOM     78  C   UNL A   1      32.443  21.824  25.793  1.00  0.00     0.013 C 
ATOM     79  C   UNL A   1      33.034  21.736  23.319  1.00  0.00     0.027 C 
ATOM     80  C   UNL A   1      32.000  23.274  25.645  1.00  0.00     0.002 C 
ATOM     81  C   UNL A   1      32.494  23.166  23.123  1.00  0.00     0.079 C 
ATOM     82  C   UNL A   1      31.525  23.589  24.230  1.00  0.00     0.013 C 
BRANCH  81  83
ATOM     83  C   UNL A   1      33.698  24.089  22.958  1.00  0.00     0.225 C 
ATOM     84  O   UNL A   1      34.854  23.677  23.016  1.00  0.00    -0.275 OA
BRANCH  83  85
ATOM     85  N   UNL A   1      33.396  25.351  22.479  1.00  0.00    -0.339 N 
ATOM     86  C   UNL A   1      32.632  25.606  21.245  1.00  0.00     0.141 C 
ATOM     87  C   UNL A   1      33.671  26.514  23.324  1.00  0.00     0.146 C 
ATOM     88  C   UNL A   1      31.385  26.492  21.481  1.00  0.00     0.143 C 
ATOM     89  C   UNL A   1      32.377  27.218  23.680  1.00  0.00     0.125 C 
ATOM     90  N   UNL A   1      31.614  27.518  22.482  1.00  0.00    -0.317 N 
ATOM     91  C   UNL A   1      32.537  28.590  24.323  1.00  0.00     0.144 C 
ATOM     92  C   UNL A   1      30.944  28.722  22.614  1.00  0.00     0.317 C 
ATOM     93  N   UNL A   1      31.444  29.338  23.756  1.00  0.00    -0.336 N 
ATOM     94  O   UNL A   1      30.085  29.176  21.886  1.00  0.00    -0.249 OA
ATOM     95  H   UNL A   1      31.094  30.179  24.132  1.00  0.00     0.165 HD
ENDBRANCH  83  85
ENDBRANCH  81  83
ENDBRANCH  74  77
ENDBRANCH  72  73
ENDBRANCH   1  72
TORSDOF 12
ENDMDL
MODEL 3
REMARK VINA RESULT:     -13.3      0.237      1.598
REMARK SMILES O=C(NCCCNC(=O)[C@@H]1CCC[C@@H](C(=O)N2CCN3C(=O)NC[C@@H]3C2)C1)c1ccc(-c2c3nc(c(-c4c(F)c(F)c(F)c(F)c4F)c4ccc([nH]4)c(-c4c(F)c(F)c(F)c(F)c4F)c4nc(c(-c5c(F)c(F)c(F)c(F)c5F)c5ccc2[nH]5)C=C4)C=C3)cc1
REMARK SMILES IDX 5 1 4 2 3 3 1 4 2 5 28 7 29 8 90 9 30 10 89 11 31 12 32 13
REMARK SMILES IDX 33 14 83 15 34 16 88 17 82 18 84 19 35 20 87 21 81 22 80 23
REMARK SMILES IDX 36 25 68 26 48 27 67 28 49 29 52 30 66 31 85 32 50 33 51 34
REMARK SMILES IDX 65 36 86 37 53 38 37 39 38 40 46 41 39 42 40 43 44 44 47 45
REMARK SMILES IDX 41 46 42 47 45 48 43 49 69 50 70 51 78 52 71 53 72 54 76 55
REMARK SMILES IDX 79 56 73 57 74 58 77 59 75 60 54 61 55 62 63 63 56 64 57 65
REMARK SMILES IDX 61 66 64 67 58 68 59 69 62 70 60 71 6 72 7 73 8 74 9 76
REMARK SMILES IDX 10 77 11 78 27 79 12 80 14 81 13 82 15 83 16 84 17 85 18 86
REMARK SMILES IDX 26 87 19 88 25 89 20 90 24 91 21 92 23 93 22 94
REMARK H PARENT 3 6 84 24 52 35 7 75 23 95
REMARK Flexibility Score: inf
ROOT
ATOM      1  C   UNL A   1      37.800  19.631  24.972  1.00  0.00     0.042 C 
ENDROOT
BRANCH   1   2
ATOM      2  C   UNL A   1      39.013  20.271  25.645  1.00  0.00     0.118 C 
BRANCH   2   3
ATOM      3  N   UNL A   1      40.037  19.276  25.936  1.00  0.00    -0.352 N 
ATOM      4  O   UNL A   1      42.128  18.453  25.996  1.00  0.00    -0.269 OA
ATOM      5  C   UNL A   1      41.389  19.428  26.094  1.00  0.00     0.251 C 
ATOM      6  H   UNL A   1      39.707  18.354  26.035  1.00  0.00     0.163 HD
BRANCH   5   7
ATOM      7  C   UNL A   1      41.958  20.754  26.403  1.00  0.00     0.039 A 
ATOM      8  C   UNL A   1      42.138  21.706  25.394  1.00  0.00     0.014 A 
ATOM      9  C   UNL A   1      42.233  21.078  27.733  1.00  0.00     0.014 A 
ATOM     10  C   UNL A   1      42.684  22.947  25.700  1.00  0.00     0.010 A 
ATOM     11  C   UNL A   1      42.710  22.349  28.049  1.00  0.00     0.010 A 
ATOM     12  C   UNL A   1      42.952  23.288  27.033  1.00  0.00    -0.014 A 
BRANCH  12  13
ATOM     13  C   UNL A   1      43.427  24.647  27.374  1.00  0.00     0.031 A 
ATOM     14  C   UNL A   1      42.478  25.667  27.926  1.00  0.00     0.074 A 
ATOM     15  C   UNL A   1      44.713  24.969  27.137  1.00  0.00     0.049 A 
ATOM     16  N   UNL A   1      42.678  26.935  28.175  1.00  0.00    -0.248 NA
ATOM     17  C   UNL A   1      41.116  25.200  28.223  1.00  0.00     0.031 C 
ATOM     18  C   UNL A   1      45.722  24.054  26.601  1.00  0.00     0.029 A 
ATOM     19  N   UNL A   1      45.385  26.154  27.294  1.00  0.00    -0.354 N 
ATOM     20  C   UNL A   1      41.463  27.425  28.634  1.00  0.00     0.074 A 
ATOM     21  C   UNL A   1      40.524  26.323  28.601  1.00  0.00     0.031 C 
ATOM     22  C   UNL A   1      46.885  24.708  26.477  1.00  0.00     0.029 A 
ATOM     23  C   UNL A   1      46.685  26.103  26.857  1.00  0.00     0.049 A 
ATOM     24  H   UNL A   1      44.975  26.961  27.682  1.00  0.00     0.167 HD
ATOM     25  C   UNL A   1      41.166  28.681  29.046  1.00  0.00     0.037 A 
ATOM     26  C   UNL A   1      47.603  27.079  26.733  1.00  0.00     0.037 A 
ATOM     27  C   UNL A   1      42.116  29.765  29.066  1.00  0.00     0.049 A 
ATOM     28  C   UNL A   1      47.239  28.476  27.146  1.00  0.00     0.074 A 
ATOM     29  C   UNL A   1      41.931  31.066  29.498  1.00  0.00     0.029 A 
ATOM     30  N   UNL A   1      43.427  29.675  28.616  1.00  0.00    -0.354 N 
ATOM     31  N   UNL A   1      46.099  28.926  27.614  1.00  0.00    -0.248 NA
ATOM     32  C   UNL A   1      48.283  29.500  27.018  1.00  0.00     0.031 C 
ATOM     33  C   UNL A   1      43.107  31.780  29.245  1.00  0.00     0.029 A 
ATOM     34  C   UNL A   1      44.051  30.907  28.729  1.00  0.00     0.049 A 
ATOM     35  H   UNL A   1      43.849  28.858  28.267  1.00  0.00     0.167 HD
ATOM     36  C   UNL A   1      46.296  30.276  27.866  1.00  0.00     0.074 A 
ATOM     37  C   UNL A   1      47.666  30.572  27.497  1.00  0.00     0.031 C 
ATOM     38  C   UNL A   1      45.421  31.183  28.368  1.00  0.00     0.037 A 
BRANCH  25  39
ATOM     39  C   UNL A   1      39.747  28.957  29.459  1.00  0.00     0.064 A 
ATOM     40  C   UNL A   1      39.299  28.752  30.773  1.00  0.00     0.173 A 
ATOM     41  C   UNL A   1      38.817  29.434  28.521  1.00  0.00     0.173 A 
ATOM     42  F   UNL A   1      40.142  28.289  31.709  1.00  0.00    -0.203 F 
ATOM     43  C   UNL A   1      37.966  28.964  31.120  1.00  0.00     0.198 A 
ATOM     44  C   UNL A   1      37.494  29.680  28.880  1.00  0.00     0.198 A 
ATOM     45  F   UNL A   1      39.189  29.657  27.251  1.00  0.00    -0.203 F 
ATOM     46  F   UNL A   1      37.548  28.688  32.363  1.00  0.00    -0.200 F 
ATOM     47  C   UNL A   1      37.066  29.431  30.174  1.00  0.00     0.200 A 
ATOM     48  F   UNL A   1      36.631  30.148  27.968  1.00  0.00    -0.200 F 
ATOM     49  F   UNL A   1      35.783  29.628  30.508  1.00  0.00    -0.200 F 
ENDBRANCH  25  39
BRANCH  26  50
ATOM     50  C   UNL A   1      48.941  26.748  26.181  1.00  0.00     0.064 A 
ATOM     51  C   UNL A   1      49.932  26.172  26.984  1.00  0.00     0.173 A 
ATOM     52  C   UNL A   1      49.232  26.944  24.822  1.00  0.00     0.173 A 
ATOM     53  F   UNL A   1      49.705  25.978  28.292  1.00  0.00    -0.203 F 
ATOM     54  C   UNL A   1      51.166  25.807  26.450  1.00  0.00     0.198 A 
ATOM     55  C   UNL A   1      50.454  26.551  24.283  1.00  0.00     0.198 A 
ATOM     56  F   UNL A   1      48.311  27.482  24.009  1.00  0.00    -0.203 F 
ATOM     57  F   UNL A   1      52.107  25.280  27.245  1.00  0.00    -0.200 F 
ATOM     58  C   UNL A   1      51.422  25.986  25.099  1.00  0.00     0.200 A 
ATOM     59  F   UNL A   1      50.688  26.706  22.973  1.00  0.00    -0.200 F 
ATOM     60  F   UNL A   1      52.601  25.613  24.583  1.00  0.00    -0.200 F 
ENDBRANCH  26  50
BRANCH  38  61
ATOM     61  C   UNL A   1      45.927  32.576  28.608  1.00  0.00     0.064 A 
ATOM     62  C   UNL A   1      46.668  32.913  29.748  1.00  0.00     0.173 A 
ATOM     63  C   UNL A   1      45.735  33.566  27.631  1.00  0.00     0.173 A 
ATOM     64  F   UNL A   1      46.864  32.008  30.718  1.00  0.00    -0.203 F 
ATOM     65  C   UNL A   1      47.192  34.193  29.906  1.00  0.00     0.198 A 
ATOM     66  C   UNL A   1      46.287  34.835  27.777  1.00  0.00     0.198 A 
ATOM     67  F   UNL A   1      45.035  33.292  26.518  1.00  0.00    -0.203 F 
ATOM     68  F   UNL A   1      47.871  34.505  31.018  1.00  0.00    -0.200 F 
ATOM     69  C   UNL A   1      47.012  35.148  28.916  1.00  0.00     0.200 A 
ATOM     70  F   UNL A   1      46.126  35.749  26.811  1.00  0.00    -0.200 F 
ATOM     71  F   UNL A   1      47.539  36.372  29.059  1.00  0.00    -0.200 F 
ENDBRANCH  38  61
ENDBRANCH  12  13
ENDBRANCH   5   7
ENDBRANCH   2   3
ENDBRANCH   1   2
BRANCH   1  72
ATOM     72  C   UNL A   1      36.556  20.519  25.053  1.00  0.00     0.117 C 
BRANCH  72  73
ATOM     73  N   UNL A   1      35.355  19.713  25.000  1.00  0.00    -0.356 N 
ATOM     74  C   UNL A   1      34.043  20.054  25.004  1.00  0.00     0.223 C 
ATOM     75  H   UNL A   1      35.521  18.744  24.954  1.00  0.00     0.163 HD
ATOM     76  O   UNL A   1      33.236  19.126  25.109  1.00  0.00    -0.275 OA
BRANCH  74  77
ATOM     77  C   UNL A   1      33.548  21.482  24.785  1.00  0.00     0.079 C 
ATOM     78  C   UNL A   1      32.718  21.930  25.987  1.00  0.00     0.013 C 
ATOM     79  C   UNL A   1      32.853  21.786  23.450  1.00  0.00     0.027 C 
ATOM     80  C   UNL A   1      32.356  23.407  25.893  1.00  0.00     0.002 C 
ATOM     81  C   UNL A   1      32.387  23.250  23.326  1.00  0.00     0.079 C 
ATOM     82  C   UNL A   1      31.661  23.747  24.578  1.00  0.00     0.013 C 
BRANCH  81  83
ATOM     83  C   UNL A   1      33.604  24.084  22.934  1.00  0.00     0.225 C 
ATOM     84  O   UNL A   1      34.710  23.584  22.750  1.00  0.00    -0.275 OA
BRANCH  83  85
ATOM     85  N   UNL A   1      33.313  25.379  22.545  1.00  0.00    -0.339 N 
ATOM     86  C   UNL A   1      32.335  25.729  21.499  1.00  0.00     0.141 C 
ATOM     87  C   UNL A   1      33.850  26.491  23.330  1.00  0.00     0.146 C 
ATOM     88  C   UNL A   1      31.239  26.701  22.001  1.00  0.00     0.143 C 
ATOM     89  C   UNL A   1      32.718  27.282  23.956  1.00  0.00     0.125 C 
ATOM     90  N   UNL A   1      31.751  27.676  22.946  1.00  0.00    -0.317 N 
ATOM     91  C   UNL A   1      33.118  28.618  24.570  1.00  0.00     0.144 C 
ATOM     92  C   UNL A   1      31.224  28.923  23.230  1.00  0.00     0.317 C 
ATOM     93  N   UNL A   1      31.995  29.464  24.253  1.00  0.00    -0.336 N 
ATOM     94  O   UNL A   1      30.274  29.463  22.702  1.00  0.00    -0.249 OA
ATOM     95  H   UNL A   1      31.800  30.318  24.703  1.00  0.00     0.165 HD
ENDBRANCH  83  85
ENDBRANCH  81  83
ENDBRANCH  74  77
ENDBRANCH  72  73
ENDBRANCH   1  72
TORSDOF 12
ENDMDL
