MODEL 1
REMARK VINA RESULT:     -11.0      0.000      0.000
REMARK SMILES CC[N@@H+](Cc1cccc(C)n1)Cc1csc(C(=O)NCCCNC(=O)c2ccc(-c3c4nc(c(-c5c(F)c(F)c(F)c(F)c5F)c5ccc([nH]5)c(-c5c(F)c(F)c(F)c(F)c5F)c5nc(c(-c6c(F)c(F)c(F)c(F)c6F)c6ccc3[nH]6)C=C5)C=C4)cc2)n1
REMARK SMILES IDX 20 1 19 2 17 3 18 4 16 6 13 7 14 8 89 9 15 10 12 11 3 12
REMARK SMILES IDX 2 14 1 15 4 16 5 17 6 18 11 19 7 20 9 21 8 22 10 23 21 24
REMARK SMILES IDX 22 25 23 26 24 27 25 29 26 30 27 31 88 32 28 33 87 34 29 35
REMARK SMILES IDX 30 36 31 37 81 38 32 39 86 40 80 41 82 42 33 43 85 44 79 45
REMARK SMILES IDX 78 46 34 48 66 49 46 50 65 51 47 52 50 53 64 54 83 55 48 56
REMARK SMILES IDX 49 57 63 59 84 60 51 61 35 62 36 63 44 64 37 65 38 66 42 67
REMARK SMILES IDX 45 68 39 69 40 70 43 71 41 72 67 73 68 74 76 75 69 76 70 77
REMARK SMILES IDX 74 78 77 79 71 80 72 81 75 82 73 83 52 84 53 85 61 86 54 87
REMARK SMILES IDX 55 88 59 89 62 90 56 91 57 92 60 93 58 94
REMARK H PARENT 19 5 3 13 23 28 82 47 50 58
REMARK Flexibility Score: inf
ROOT
ATOM      1  C   UNL A   1      30.858  31.262  25.461  1.00  0.00     0.118 C 
ENDROOT
BRANCH   1   2
ATOM      2  N   UNL A   1      29.919  31.988  24.628  1.00  0.00    -0.350 N 
ATOM      3  C   UNL A   1      29.111  31.536  23.601  1.00  0.00     0.280 C 
ATOM      4  O   UNL A   1      28.370  32.391  23.100  1.00  0.00    -0.267 OA
ATOM      5  H   UNL A   1      29.845  32.951  24.823  1.00  0.00     0.163 HD
BRANCH   3   6
ATOM      6  C   UNL A   1      29.133  30.131  23.187  1.00  0.00     0.181 A 
ATOM      7  C   UNL A   1      29.928  28.134  22.601  1.00  0.00     0.106 A 
ATOM      8  C   UNL A   1      28.612  27.787  22.851  1.00  0.00     0.097 A 
ATOM      9  N   UNL A   1      30.188  29.492  22.719  1.00  0.00    -0.230 NA
ATOM     10  S   UNL A   1      27.714  29.169  23.323  1.00  0.00    -0.117 S 
BRANCH   7  11
ATOM     11  C   UNL A   1      31.040  27.201  22.206  1.00  0.00     0.320 C 
BRANCH  11  12
ATOM     12  N   UNL A   1      31.496  26.288  23.278  1.00  0.00    -0.325 N 
ATOM     13  H   UNL A   1      30.740  26.355  23.959  1.00  0.00     0.348 HD
BRANCH  12  14
ATOM     14  C   UNL A   1      31.591  24.872  22.907  1.00  0.00     0.259 C 
ATOM     15  C   UNL A   1      33.017  24.344  22.819  1.00  0.00     0.071 C 
ENDBRANCH  12  14
BRANCH  12  16
ATOM     16  C   UNL A   1      32.760  26.724  23.912  1.00  0.00     0.319 C 
BRANCH  16  17
ATOM     17  C   UNL A   1      32.610  27.464  25.228  1.00  0.00     0.095 A 
ATOM     18  C   UNL A   1      31.496  27.283  26.045  1.00  0.00     0.030 A 
ATOM     19  N   UNL A   1      33.671  28.219  25.615  1.00  0.00    -0.252 NA
ATOM     20  C   UNL A   1      31.449  27.926  27.275  1.00  0.00     0.004 A 
ATOM     21  C   UNL A   1      33.627  28.809  26.833  1.00  0.00     0.038 A 
ATOM     22  C   UNL A   1      32.531  28.696  27.680  1.00  0.00     0.023 A 
ATOM     23  C   UNL A   1      34.854  29.558  27.256  1.00  0.00     0.067 C 
ENDBRANCH  16  17
ENDBRANCH  12  16
ENDBRANCH  11  12
ENDBRANCH   7  11
ENDBRANCH   3   6
ENDBRANCH   1   2
BRANCH   1  24
ATOM     24  C   UNL A   1      31.085  31.942  26.803  1.00  0.00     0.042 C 
BRANCH  24  25
ATOM     25  C   UNL A   1      32.484  32.527  26.934  1.00  0.00     0.118 C 
BRANCH  25  26
ATOM     26  N   UNL A   1      32.463  33.922  27.365  1.00  0.00    -0.352 N 
ATOM     27  C   UNL A   1      33.186  34.566  28.332  1.00  0.00     0.251 C 
ATOM     28  H   UNL A   1      31.823  34.492  26.881  1.00  0.00     0.163 HD
ATOM     29  O   UNL A   1      32.869  35.711  28.663  1.00  0.00    -0.269 OA
BRANCH  27  30
ATOM     30  C   UNL A   1      34.329  33.906  28.991  1.00  0.00     0.039 A 
ATOM     31  C   UNL A   1      34.081  32.841  29.862  1.00  0.00     0.014 A 
ATOM     32  C   UNL A   1      35.638  34.350  28.790  1.00  0.00     0.014 A 
ATOM     33  C   UNL A   1      35.146  32.191  30.487  1.00  0.00     0.010 A 
ATOM     34  C   UNL A   1      36.704  33.645  29.339  1.00  0.00     0.010 A 
ATOM     35  C   UNL A   1      36.469  32.569  30.206  1.00  0.00    -0.014 A 
BRANCH  35  36
ATOM     36  C   UNL A   1      37.619  31.868  30.831  1.00  0.00     0.031 A 
ATOM     37  C   UNL A   1      38.052  32.230  32.225  1.00  0.00     0.074 A 
ATOM     38  C   UNL A   1      38.304  30.949  30.124  1.00  0.00     0.049 A 
ATOM     39  N   UNL A   1      39.073  31.791  32.916  1.00  0.00    -0.248 NA
ATOM     40  C   UNL A   1      37.247  33.243  32.926  1.00  0.00     0.031 C 
ATOM     41  C   UNL A   1      38.011  30.549  28.747  1.00  0.00     0.029 A 
ATOM     42  N   UNL A   1      39.396  30.191  30.465  1.00  0.00    -0.354 N 
ATOM     43  C   UNL A   1      39.036  32.477  34.123  1.00  0.00     0.074 A 
ATOM     44  C   UNL A   1      37.934  33.411  34.045  1.00  0.00     0.031 C 
ATOM     45  C   UNL A   1      38.889  29.607  28.367  1.00  0.00     0.029 A 
ATOM     46  C   UNL A   1      39.827  29.363  29.458  1.00  0.00     0.049 A 
ATOM     47  H   UNL A   1      39.829  30.237  31.348  1.00  0.00     0.167 HD
ATOM     48  C   UNL A   1      39.827  32.320  35.210  1.00  0.00     0.037 A 
ATOM     49  C   UNL A   1      40.869  28.511  29.418  1.00  0.00     0.037 A 
ATOM     50  C   UNL A   1      40.912  31.378  35.291  1.00  0.00     0.049 A 
ATOM     51  C   UNL A   1      41.735  28.358  30.640  1.00  0.00     0.074 A 
ATOM     52  C   UNL A   1      41.760  31.124  36.355  1.00  0.00     0.029 A 
ATOM     53  N   UNL A   1      41.294  30.528  34.263  1.00  0.00    -0.354 N 
ATOM     54  N   UNL A   1      41.656  28.974  31.794  1.00  0.00    -0.248 NA
ATOM     55  C   UNL A   1      42.827  27.378  30.557  1.00  0.00     0.031 C 
ATOM     56  C   UNL A   1      42.678  30.147  35.958  1.00  0.00     0.029 A 
ATOM     57  C   UNL A   1      42.370  29.754  34.665  1.00  0.00     0.049 A 
ATOM     58  H   UNL A   1      40.865  30.484  33.378  1.00  0.00     0.167 HD
ATOM     59  C   UNL A   1      42.662  28.434  32.584  1.00  0.00     0.074 A 
ATOM     60  C   UNL A   1      43.326  27.428  31.784  1.00  0.00     0.031 C 
ATOM     61  C   UNL A   1      43.007  28.744  33.859  1.00  0.00     0.037 A 
BRANCH  48  62
ATOM     62  C   UNL A   1      39.535  33.178  36.409  1.00  0.00     0.064 A 
ATOM     63  C   UNL A   1      38.592  32.791  37.373  1.00  0.00     0.173 A 
ATOM     64  C   UNL A   1      40.226  34.382  36.615  1.00  0.00     0.173 A 
ATOM     65  F   UNL A   1      37.894  31.656  37.216  1.00  0.00    -0.203 F 
ATOM     66  C   UNL A   1      38.330  33.589  38.482  1.00  0.00     0.198 A 
ATOM     67  C   UNL A   1      39.985  35.162  37.743  1.00  0.00     0.198 A 
ATOM     68  F   UNL A   1      41.142  34.798  35.728  1.00  0.00    -0.203 F 
ATOM     69  F   UNL A   1      37.387  33.222  39.362  1.00  0.00    -0.200 F 
ATOM     70  C   UNL A   1      39.032  34.769  38.672  1.00  0.00     0.200 A 
ATOM     71  F   UNL A   1      40.674  36.296  37.932  1.00  0.00    -0.200 F 
ATOM     72  F   UNL A   1      38.785  35.533  39.745  1.00  0.00    -0.200 F 
ENDBRANCH  48  62
BRANCH  49  73
ATOM     73  C   UNL A   1      41.140  27.720  28.190  1.00  0.00     0.064 A 
ATOM     74  C   UNL A   1      40.595  26.439  28.019  1.00  0.00     0.173 A 
ATOM     75  C   UNL A   1      41.967  28.216  27.171  1.00  0.00     0.173 A 
ATOM     76  F   UNL A   1      39.812  25.914  28.973  1.00  0.00    -0.203 F 
ATOM     77  C   UNL A   1      40.892  25.673  26.895  1.00  0.00     0.198 A 
ATOM     78  C   UNL A   1      42.239  27.461  26.032  1.00  0.00     0.198 A 
ATOM     79  F   UNL A   1      42.508  29.438  27.280  1.00  0.00    -0.203 F 
ATOM     80  F   UNL A   1      40.406  24.429  26.787  1.00  0.00    -0.200 F 
ATOM     81  C   UNL A   1      41.712  26.185  25.900  1.00  0.00     0.200 A 
ATOM     82  F   UNL A   1      43.018  27.967  25.066  1.00  0.00    -0.200 F 
ATOM     83  F   UNL A   1      42.000  25.447  24.820  1.00  0.00    -0.200 F 
ENDBRANCH  49  73
BRANCH  61  84
ATOM     84  C   UNL A   1      44.116  27.948  34.482  1.00  0.00     0.064 A 
ATOM     85  C   UNL A   1      45.449  28.384  34.449  1.00  0.00     0.173 A 
ATOM     86  C   UNL A   1      43.835  26.743  35.145  1.00  0.00     0.173 A 
ATOM     87  F   UNL A   1      45.772  29.521  33.816  1.00  0.00    -0.203 F 
ATOM     88  C   UNL A   1      46.464  27.625  35.026  1.00  0.00     0.198 A 
ATOM     89  C   UNL A   1      44.848  26.005  35.750  1.00  0.00     0.198 A 
ATOM     90  F   UNL A   1      42.577  26.286  35.213  1.00  0.00    -0.203 F 
ATOM     91  F   UNL A   1      47.738  28.032  34.932  1.00  0.00    -0.200 F 
ATOM     92  C   UNL A   1      46.163  26.440  35.681  1.00  0.00     0.200 A 
ATOM     93  F   UNL A   1      44.552  24.868  36.394  1.00  0.00    -0.200 F 
ATOM     94  F   UNL A   1      47.140  25.714  36.238  1.00  0.00    -0.200 F 
ENDBRANCH  61  84
ENDBRANCH  35  36
ENDBRANCH  27  30
ENDBRANCH  25  26
ENDBRANCH  24  25
ENDBRANCH   1  24
TORSDOF 15
ENDMDL
MODEL 2
REMARK VINA RESULT:     -11.0      2.571      4.094
REMARK SMILES CC[N@@H+](Cc1cccc(C)n1)Cc1csc(C(=O)NCCCNC(=O)c2ccc(-c3c4nc(c(-c5c(F)c(F)c(F)c(F)c5F)c5ccc([nH]5)c(-c5c(F)c(F)c(F)c(F)c5F)c5nc(c(-c6c(F)c(F)c(F)c(F)c6F)c6ccc3[nH]6)C=C5)C=C4)cc2)n1
REMARK SMILES IDX 20 1 19 2 17 3 18 4 16 6 13 7 14 8 89 9 15 10 12 11 3 12
REMARK SMILES IDX 2 14 1 15 4 16 5 17 6 18 11 19 7 20 9 21 8 22 10 23 21 24
REMARK SMILES IDX 22 25 23 26 24 27 25 29 26 30 27 31 88 32 28 33 87 34 29 35
REMARK SMILES IDX 30 36 31 37 81 38 32 39 86 40 80 41 82 42 33 43 85 44 79 45
REMARK SMILES IDX 78 46 34 48 66 49 46 50 65 51 47 52 50 53 64 54 83 55 48 56
REMARK SMILES IDX 49 57 63 59 84 60 51 61 35 62 36 63 44 64 37 65 38 66 42 67
REMARK SMILES IDX 45 68 39 69 40 70 43 71 41 72 67 73 68 74 76 75 69 76 70 77
REMARK SMILES IDX 74 78 77 79 71 80 72 81 75 82 73 83 52 84 53 85 61 86 54 87
REMARK SMILES IDX 55 88 59 89 62 90 56 91 57 92 60 93 58 94
REMARK H PARENT 19 5 3 13 23 28 82 47 50 58
REMARK Flexibility Score: inf
ROOT
ATOM      1  C   UNL A   1      32.487  28.290  23.121  1.00  0.00     0.118 C 
ENDROOT
BRANCH   1   2
ATOM      2  N   UNL A   1      32.858  27.510  21.956  1.00  0.00    -0.350 N 
ATOM      3  C   UNL A   1      32.990  26.140  21.810  1.00  0.00     0.280 C 
ATOM      4  O   UNL A   1      33.277  25.759  20.669  1.00  0.00    -0.267 OA
ATOM      5  H   UNL A   1      33.044  28.035  21.143  1.00  0.00     0.163 HD
BRANCH   3   6
ATOM      6  C   UNL A   1      32.766  25.237  22.942  1.00  0.00     0.181 A 
ATOM      7  C   UNL A   1      33.148  24.098  24.818  1.00  0.00     0.106 A 
ATOM      8  C   UNL A   1      31.775  23.947  24.739  1.00  0.00     0.097 A 
ATOM      9  N   UNL A   1      33.707  24.768  23.739  1.00  0.00    -0.230 NA
ATOM     10  S   UNL A   1      31.171  24.730  23.338  1.00  0.00    -0.117 S 
BRANCH   7  11
ATOM     11  C   UNL A   1      34.043  23.595  25.918  1.00  0.00     0.320 C 
BRANCH  11  12
ATOM     12  N   UNL A   1      34.815  22.378  25.583  1.00  0.00    -0.325 N 
ATOM     13  H   UNL A   1      35.149  22.073  26.497  1.00  0.00     0.348 HD
BRANCH  12  14
ATOM     14  C   UNL A   1      34.034  21.262  25.038  1.00  0.00     0.259 C 
ATOM     15  C   UNL A   1      34.783  19.936  24.998  1.00  0.00     0.071 C 
ENDBRANCH  12  14
BRANCH  12  16
ATOM     16  C   UNL A   1      35.975  22.651  24.708  1.00  0.00     0.319 C 
BRANCH  16  17
ATOM     17  C   UNL A   1      37.303  22.829  25.419  1.00  0.00     0.095 A 
ATOM     18  C   UNL A   1      37.601  23.990  26.130  1.00  0.00     0.030 A 
ATOM     19  N   UNL A   1      38.133  21.754  25.418  1.00  0.00    -0.252 NA
ATOM     20  C   UNL A   1      38.800  24.067  26.826  1.00  0.00     0.004 A 
ATOM     21  C   UNL A   1      39.281  21.830  26.132  1.00  0.00     0.038 A 
ATOM     22  C   UNL A   1      39.651  22.970  26.835  1.00  0.00     0.023 A 
ATOM     23  C   UNL A   1      40.122  20.590  26.176  1.00  0.00     0.067 C 
ENDBRANCH  16  17
ENDBRANCH  12  16
ENDBRANCH  11  12
ENDBRANCH   7  11
ENDBRANCH   3   6
ENDBRANCH   1   2
BRANCH   1  24
ATOM     24  C   UNL A   1      33.698  28.868  23.837  1.00  0.00     0.042 C 
BRANCH  24  25
ATOM     25  C   UNL A   1      33.523  28.901  25.349  1.00  0.00     0.118 C 
BRANCH  25  26
ATOM     26  N   UNL A   1      33.096  30.212  25.828  1.00  0.00    -0.352 N 
ATOM     27  C   UNL A   1      33.541  30.964  26.882  1.00  0.00     0.251 C 
ATOM     28  H   UNL A   1      32.368  30.623  25.308  1.00  0.00     0.163 HD
ATOM     29  O   UNL A   1      32.904  31.962  27.225  1.00  0.00    -0.269 OA
BRANCH  27  30
ATOM     30  C   UNL A   1      34.762  30.587  27.621  1.00  0.00     0.039 A 
ATOM     31  C   UNL A   1      35.815  31.503  27.693  1.00  0.00     0.014 A 
ATOM     32  C   UNL A   1      34.893  29.326  28.208  1.00  0.00     0.014 A 
ATOM     33  C   UNL A   1      36.974  31.175  28.398  1.00  0.00     0.010 A 
ATOM     34  C   UNL A   1      36.009  29.035  28.986  1.00  0.00     0.010 A 
ATOM     35  C   UNL A   1      37.068  29.949  29.076  1.00  0.00    -0.014 A 
BRANCH  35  36
ATOM     36  C   UNL A   1      38.276  29.595  29.862  1.00  0.00     0.031 A 
ATOM     37  C   UNL A   1      38.487  30.190  31.226  1.00  0.00     0.074 A 
ATOM     38  C   UNL A   1      39.207  28.784  29.323  1.00  0.00     0.049 A 
ATOM     39  N   UNL A   1      39.509  30.067  32.036  1.00  0.00    -0.248 NA
ATOM     40  C   UNL A   1      37.420  31.065  31.739  1.00  0.00     0.031 C 
ATOM     41  C   UNL A   1      39.139  28.185  27.990  1.00  0.00     0.029 A 
ATOM     42  N   UNL A   1      40.399  28.331  29.830  1.00  0.00    -0.354 N 
ATOM     43  C   UNL A   1      39.210  30.851  33.143  1.00  0.00     0.074 A 
ATOM     44  C   UNL A   1      37.946  31.500  32.873  1.00  0.00     0.031 C 
ATOM     45  C   UNL A   1      40.232  27.430  27.791  1.00  0.00     0.029 A 
ATOM     46  C   UNL A   1      41.092  27.520  28.966  1.00  0.00     0.049 A 
ATOM     47  H   UNL A   1      40.726  28.566  30.729  1.00  0.00     0.167 HD
ATOM     48  C   UNL A   1      39.909  30.991  34.294  1.00  0.00     0.037 A 
ATOM     49  C   UNL A   1      42.292  26.924  29.104  1.00  0.00     0.037 A 
ATOM     50  C   UNL A   1      41.158  30.331  34.565  1.00  0.00     0.049 A 
ATOM     51  C   UNL A   1      43.050  27.100  30.393  1.00  0.00     0.074 A 
ATOM     52  C   UNL A   1      41.937  30.388  35.709  1.00  0.00     0.029 A 
ATOM     53  N   UNL A   1      41.811  29.486  33.680  1.00  0.00    -0.354 N 
ATOM     54  N   UNL A   1      42.731  27.801  31.454  1.00  0.00    -0.248 NA
ATOM     55  C   UNL A   1      44.330  26.387  30.509  1.00  0.00     0.031 C 
ATOM     56  C   UNL A   1      43.077  29.606  35.501  1.00  0.00     0.029 A 
ATOM     57  C   UNL A   1      42.985  29.020  34.249  1.00  0.00     0.049 A 
ATOM     58  H   UNL A   1      41.488  29.252  32.779  1.00  0.00     0.167 HD
ATOM     59  C   UNL A   1      43.750  27.587  32.373  1.00  0.00     0.074 A 
ATOM     60  C   UNL A   1      44.688  26.677  31.751  1.00  0.00     0.031 C 
ATOM     61  C   UNL A   1      43.897  28.100  33.620  1.00  0.00     0.037 A 
BRANCH  48  62
ATOM     62  C   UNL A   1      39.327  31.883  35.353  1.00  0.00     0.064 A 
ATOM     63  C   UNL A   1      38.486  31.376  36.356  1.00  0.00     0.173 A 
ATOM     64  C   UNL A   1      39.636  33.251  35.389  1.00  0.00     0.173 A 
ATOM     65  F   UNL A   1      38.149  30.077  36.359  1.00  0.00    -0.203 F 
ATOM     66  C   UNL A   1      37.954  32.208  37.336  1.00  0.00     0.198 A 
ATOM     67  C   UNL A   1      39.129  34.075  36.391  1.00  0.00     0.198 A 
ATOM     68  F   UNL A   1      40.439  33.789  34.458  1.00  0.00    -0.203 F 
ATOM     69  F   UNL A   1      37.113  31.708  38.253  1.00  0.00    -0.200 F 
ATOM     70  C   UNL A   1      38.282  33.554  37.359  1.00  0.00     0.200 A 
ATOM     71  F   UNL A   1      39.457  35.374  36.419  1.00  0.00    -0.200 F 
ATOM     72  F   UNL A   1      37.776  34.353  38.308  1.00  0.00    -0.200 F 
ENDBRANCH  48  62
BRANCH  49  73
ATOM     73  C   UNL A   1      42.843  26.089  28.005  1.00  0.00     0.064 A 
ATOM     74  C   UNL A   1      42.615  24.706  27.965  1.00  0.00     0.173 A 
ATOM     75  C   UNL A   1      43.625  26.650  26.986  1.00  0.00     0.173 A 
ATOM     76  F   UNL A   1      41.888  24.119  28.927  1.00  0.00    -0.203 F 
ATOM     77  C   UNL A   1      43.176  23.912  26.968  1.00  0.00     0.198 A 
ATOM     78  C   UNL A   1      44.160  25.860  25.971  1.00  0.00     0.198 A 
ATOM     79  F   UNL A   1      43.867  27.969  26.972  1.00  0.00    -0.203 F 
ATOM     80  F   UNL A   1      42.993  22.585  26.988  1.00  0.00    -0.200 F 
ATOM     81  C   UNL A   1      43.946  24.490  25.969  1.00  0.00     0.200 A 
ATOM     82  F   UNL A   1      44.889  26.425  24.998  1.00  0.00    -0.200 F 
ATOM     83  F   UNL A   1      44.488  23.726  25.011  1.00  0.00    -0.200 F 
ENDBRANCH  49  73
BRANCH  61  84
ATOM     84  C   UNL A   1      45.088  27.643  34.412  1.00  0.00     0.064 A 
ATOM     85  C   UNL A   1      45.032  26.521  35.253  1.00  0.00     0.173 A 
ATOM     86  C   UNL A   1      46.309  28.326  34.307  1.00  0.00     0.173 A 
ATOM     87  F   UNL A   1      43.884  25.843  35.398  1.00  0.00    -0.203 F 
ATOM     88  C   UNL A   1      46.147  26.121  35.985  1.00  0.00     0.198 A 
ATOM     89  C   UNL A   1      47.431  27.902  35.015  1.00  0.00     0.198 A 
ATOM     90  F   UNL A   1      46.419  29.400  33.512  1.00  0.00    -0.203 F 
ATOM     91  F   UNL A   1      46.054  25.080  36.826  1.00  0.00    -0.200 F 
ATOM     92  C   UNL A   1      47.345  26.807  35.862  1.00  0.00     0.200 A 
ATOM     93  F   UNL A   1      48.592  28.558  34.883  1.00  0.00    -0.200 F 
ATOM     94  F   UNL A   1      48.417  26.417  36.564  1.00  0.00    -0.200 F 
ENDBRANCH  61  84
ENDBRANCH  35  36
ENDBRANCH  27  30
ENDBRANCH  25  26
ENDBRANCH  24  25
ENDBRANCH   1  24
TORSDOF 15
ENDMDL
MODEL 3
REMARK VINA RESULT:     -11.0      2.586      4.240
REMARK SMILES CC[N@@H+](Cc1cccc(C)n1)Cc1csc(C(=O)NCCCNC(=O)c2ccc(-c3c4nc(c(-c5c(F)c(F)c(F)c(F)c5F)c5ccc([nH]5)c(-c5c(F)c(F)c(F)c(F)c5F)c5nc(c(-c6c(F)c(F)c(F)c(F)c6F)c6ccc3[nH]6)C=C5)C=C4)cc2)n1
REMARK SMILES IDX 20 1 19 2 17 3 18 4 16 6 13 7 14 8 89 9 15 10 12 11 3 12
REMARK SMILES IDX 2 14 1 15 4 16 5 17 6 18 11 19 7 20 9 21 8 22 10 23 21 24
REMARK SMILES IDX 22 25 23 26 24 27 25 29 26 30 27 31 88 32 28 33 87 34 29 35
REMARK SMILES IDX 30 36 31 37 81 38 32 39 86 40 80 41 82 42 33 43 85 44 79 45
REMARK SMILES IDX 78 46 34 48 66 49 46 50 65 51 47 52 50 53 64 54 83 55 48 56
REMARK SMILES IDX 49 57 63 59 84 60 51 61 35 62 36 63 44 64 37 65 38 66 42 67
REMARK SMILES IDX 45 68 39 69 40 70 43 71 41 72 67 73 68 74 76 75 69 76 70 77
REMARK SMILES IDX 74 78 77 79 71 80 72 81 75 82 73 83 52 84 53 85 61 86 54 87
REMARK SMILES IDX 55 88 59 89 62 90 56 91 57 92 60 93 58 94
REMARK H PARENT 19 5 3 13 23 28 82 47 50 58
REMARK Flexibility Score: inf
ROOT
ATOM      1  C   UNL A   1      32.697  28.242  23.078  1.00  0.00     0.118 C 
ENDROOT
BRANCH   1   2
ATOM      2  N   UNL A   1      32.990  27.425  21.917  1.00  0.00    -0.350 N 
ATOM      3  C   UNL A   1      33.049  26.048  21.793  1.00  0.00     0.280 C 
ATOM      4  O   UNL A   1      33.279  25.634  20.650  1.00  0.00    -0.267 OA
ATOM      5  H   UNL A   1      33.175  27.926  21.089  1.00  0.00     0.163 HD
BRANCH   3   6
ATOM      6  C   UNL A   1      32.817  25.177  22.947  1.00  0.00     0.181 A 
ATOM      7  C   UNL A   1      33.125  24.193  24.921  1.00  0.00     0.106 A 
ATOM      8  C   UNL A   1      31.804  23.846  24.702  1.00  0.00     0.097 A 
ATOM      9  N   UNL A   1      33.712  24.883  23.871  1.00  0.00    -0.230 NA
ATOM     10  S   UNL A   1      31.270  24.469  23.197  1.00  0.00    -0.117 S 
BRANCH   7  11
ATOM     11  C   UNL A   1      33.944  23.873  26.143  1.00  0.00     0.320 C 
BRANCH  11  12
ATOM     12  N   UNL A   1      34.682  22.591  26.078  1.00  0.00    -0.325 N 
ATOM     13  H   UNL A   1      35.105  22.535  27.004  1.00  0.00     0.348 HD
BRANCH  12  14
ATOM     14  C   UNL A   1      33.854  21.390  25.931  1.00  0.00     0.259 C 
ATOM     15  C   UNL A   1      34.413  20.361  24.956  1.00  0.00     0.071 C 
ENDBRANCH  12  14
BRANCH  12  16
ATOM     16  C   UNL A   1      35.751  22.589  25.055  1.00  0.00     0.319 C 
BRANCH  16  17
ATOM     17  C   UNL A   1      37.158  22.803  25.580  1.00  0.00     0.095 A 
ATOM     18  C   UNL A   1      37.550  24.014  26.147  1.00  0.00     0.030 A 
ATOM     19  N   UNL A   1      37.973  21.718  25.569  1.00  0.00    -0.252 NA
ATOM     20  C   UNL A   1      38.827  24.128  26.681  1.00  0.00     0.004 A 
ATOM     21  C   UNL A   1      39.202  21.832  26.127  1.00  0.00     0.038 A 
ATOM     22  C   UNL A   1      39.665  23.021  26.678  1.00  0.00     0.023 A 
ATOM     23  C   UNL A   1      40.033  20.586  26.173  1.00  0.00     0.067 C 
ENDBRANCH  16  17
ENDBRANCH  12  16
ENDBRANCH  11  12
ENDBRANCH   7  11
ENDBRANCH   3   6
ENDBRANCH   1   2
BRANCH   1  24
ATOM     24  C   UNL A   1      33.959  28.708  23.789  1.00  0.00     0.042 C 
BRANCH  24  25
ATOM     25  C   UNL A   1      33.792  28.765  25.301  1.00  0.00     0.118 C 
BRANCH  25  26
ATOM     26  N   UNL A   1      33.261  30.048  25.752  1.00  0.00    -0.352 N 
ATOM     27  C   UNL A   1      33.603  30.826  26.824  1.00  0.00     0.251 C 
ATOM     28  H   UNL A   1      32.538  30.413  25.192  1.00  0.00     0.163 HD
ATOM     29  O   UNL A   1      32.889  31.784  27.129  1.00  0.00    -0.269 OA
BRANCH  27  30
ATOM     30  C   UNL A   1      34.804  30.526  27.627  1.00  0.00     0.039 A 
ATOM     31  C   UNL A   1      34.847  29.333  28.355  1.00  0.00     0.014 A 
ATOM     32  C   UNL A   1      35.870  31.425  27.701  1.00  0.00     0.014 A 
ATOM     33  C   UNL A   1      35.977  29.021  29.110  1.00  0.00     0.010 A 
ATOM     34  C   UNL A   1      37.032  31.072  28.379  1.00  0.00     0.010 A 
ATOM     35  C   UNL A   1      37.093  29.874  29.103  1.00  0.00    -0.014 A 
BRANCH  35  36
ATOM     36  C   UNL A   1      38.320  29.543  29.871  1.00  0.00     0.031 A 
ATOM     37  C   UNL A   1      38.545  30.152  31.227  1.00  0.00     0.074 A 
ATOM     38  C   UNL A   1      39.253  28.742  29.323  1.00  0.00     0.049 A 
ATOM     39  N   UNL A   1      39.581  30.051  32.020  1.00  0.00    -0.248 NA
ATOM     40  C   UNL A   1      37.473  31.016  31.751  1.00  0.00     0.031 C 
ATOM     41  C   UNL A   1      39.172  28.131  27.996  1.00  0.00     0.029 A 
ATOM     42  N   UNL A   1      40.460  28.311  29.813  1.00  0.00    -0.354 N 
ATOM     43  C   UNL A   1      39.290  30.840  33.126  1.00  0.00     0.074 A 
ATOM     44  C   UNL A   1      38.012  31.468  32.873  1.00  0.00     0.031 C 
ATOM     45  C   UNL A   1      40.272  27.391  27.784  1.00  0.00     0.029 A 
ATOM     46  C   UNL A   1      41.151  27.503  28.944  1.00  0.00     0.049 A 
ATOM     47  H   UNL A   1      40.798  28.558  30.704  1.00  0.00     0.167 HD
ATOM     48  C   UNL A   1      40.006  30.999  34.263  1.00  0.00     0.037 A 
ATOM     49  C   UNL A   1      42.361  26.926  29.067  1.00  0.00     0.037 A 
ATOM     50  C   UNL A   1      41.269  30.360  34.519  1.00  0.00     0.049 A 
ATOM     51  C   UNL A   1      43.138  27.123  30.340  1.00  0.00     0.074 A 
ATOM     52  C   UNL A   1      42.066  30.437  35.649  1.00  0.00     0.029 A 
ATOM     53  N   UNL A   1      41.919  29.517  33.629  1.00  0.00    -0.354 N 
ATOM     54  N   UNL A   1      42.827  27.828  31.401  1.00  0.00    -0.248 NA
ATOM     55  C   UNL A   1      44.430  26.430  30.440  1.00  0.00     0.031 C 
ATOM     56  C   UNL A   1      43.214  29.670  35.428  1.00  0.00     0.029 A 
ATOM     57  C   UNL A   1      43.110  29.073  34.182  1.00  0.00     0.049 A 
ATOM     58  H   UNL A   1      41.584  29.272  32.736  1.00  0.00     0.167 HD
ATOM     59  C   UNL A   1      43.864  27.637  32.304  1.00  0.00     0.074 A 
ATOM     60  C   UNL A   1      44.805  26.736  31.674  1.00  0.00     0.031 C 
ATOM     61  C   UNL A   1      44.024  28.161  33.545  1.00  0.00     0.037 A 
BRANCH  48  62
ATOM     62  C   UNL A   1      39.429  31.891  35.326  1.00  0.00     0.064 A 
ATOM     63  C   UNL A   1      39.722  33.264  35.367  1.00  0.00     0.173 A 
ATOM     64  C   UNL A   1      38.550  31.381  36.292  1.00  0.00     0.173 A 
ATOM     65  F   UNL A   1      40.568  33.800  34.474  1.00  0.00    -0.203 F 
ATOM     66  C   UNL A   1      39.181  34.084  36.352  1.00  0.00     0.198 A 
ATOM     67  C   UNL A   1      37.984  32.211  37.256  1.00  0.00     0.198 A 
ATOM     68  F   UNL A   1      38.231  30.078  36.297  1.00  0.00    -0.203 F 
ATOM     69  F   UNL A   1      39.517  35.381  36.401  1.00  0.00    -0.200 F 
ATOM     70  C   UNL A   1      38.305  33.560  37.290  1.00  0.00     0.200 A 
ATOM     71  F   UNL A   1      37.128  31.706  38.155  1.00  0.00    -0.200 F 
ATOM     72  F   UNL A   1      37.778  34.353  38.233  1.00  0.00    -0.200 F 
ENDBRANCH  48  62
BRANCH  49  73
ATOM     73  C   UNL A   1      42.905  26.090  27.965  1.00  0.00     0.064 A 
ATOM     74  C   UNL A   1      43.661  26.660  26.930  1.00  0.00     0.173 A 
ATOM     75  C   UNL A   1      42.663  24.709  27.910  1.00  0.00     0.173 A 
ATOM     76  F   UNL A   1      43.904  27.979  26.929  1.00  0.00    -0.203 F 
ATOM     77  C   UNL A   1      44.125  25.890  25.867  1.00  0.00     0.198 A 
ATOM     78  C   UNL A   1      43.155  23.934  26.862  1.00  0.00     0.198 A 
ATOM     79  F   UNL A   1      41.954  24.112  28.877  1.00  0.00    -0.203 F 
ATOM     80  F   UNL A   1      44.793  26.472  24.862  1.00  0.00    -0.200 F 
ATOM     81  C   UNL A   1      43.874  24.526  25.835  1.00  0.00     0.200 A 
ATOM     82  F   UNL A   1      42.925  22.614  26.844  1.00  0.00    -0.200 F 
ATOM     83  F   UNL A   1      44.318  23.785  24.811  1.00  0.00    -0.200 F 
ENDBRANCH  49  73
BRANCH  61  84
ATOM     84  C   UNL A   1      45.235  27.729  34.321  1.00  0.00     0.064 A 
ATOM     85  C   UNL A   1      46.456  28.413  34.229  1.00  0.00     0.173 A 
ATOM     86  C   UNL A   1      45.162  26.628  35.187  1.00  0.00     0.173 A 
ATOM     87  F   UNL A   1      46.581  29.463  33.404  1.00  0.00    -0.203 F 
ATOM     88  C   UNL A   1      47.569  27.990  34.952  1.00  0.00     0.198 A 
ATOM     89  C   UNL A   1      46.268  26.228  35.934  1.00  0.00     0.198 A 
ATOM     90  F   UNL A   1      44.016  25.943  35.318  1.00  0.00    -0.203 F 
ATOM     91  F   UNL A   1      48.741  28.624  34.805  1.00  0.00    -0.200 F 
ATOM     92  C   UNL A   1      47.472  26.902  35.807  1.00  0.00     0.200 A 
ATOM     93  F   UNL A   1      46.168  25.186  36.770  1.00  0.00    -0.200 F 
ATOM     94  F   UNL A   1      48.543  26.499  36.503  1.00  0.00    -0.200 F 
ENDBRANCH  61  84
ENDBRANCH  35  36
ENDBRANCH  27  30
ENDBRANCH  25  26
ENDBRANCH  24  25
ENDBRANCH   1  24
TORSDOF 15
ENDMDL
