MODEL 1
REMARK VINA RESULT:     -13.5      0.000      0.000
REMARK SMILES CN(C)c1ccc(CCC(=O)N2C[C@@H](C(=O)NCCCNC(=O)c3ccc(-c4c5nc(c(-c6c(F)c(F)c(F)c(F)c6F)c6ccc([nH]6)c(-c6c(F)c(F)c(F)c(F)c6F)c6nc(c(-c7c(F)c(F)c(F)c(F)c7F)c7ccc4[nH]7)C=C6)C=C5)cc3)[C@H](c3cccnc3)C2)cc1
REMARK SMILES IDX 15 1 16 2 17 3 14 5 12 6 13 7 94 8 87 9 10 10 11 11 9 12
REMARK SMILES IDX 8 13 7 14 4 15 5 16 96 17 6 18 95 19 2 20 1 21 3 22 88 23
REMARK SMILES IDX 89 24 93 25 90 26 92 27 91 28 18 29 19 30 20 31 21 32 22 33
REMARK SMILES IDX 23 35 24 36 25 37 86 38 26 39 85 40 27 41 28 42 29 43 79 44
REMARK SMILES IDX 30 45 84 46 78 47 80 48 31 49 83 50 77 51 76 52 32 54 64 55
REMARK SMILES IDX 44 56 63 57 45 58 48 59 62 60 81 61 46 62 47 63 61 65 82 66
REMARK SMILES IDX 49 67 33 68 34 69 42 70 35 71 36 72 40 73 43 74 37 75 38 76
REMARK SMILES IDX 41 77 39 78 65 79 66 80 74 81 67 82 68 83 72 84 75 85 69 86
REMARK SMILES IDX 70 87 73 88 71 89 50 90 51 91 59 92 52 93 53 94 57 95 60 96
REMARK SMILES IDX 54 97 55 98 58 99 56 100
REMARK H PARENT 17 4 21 34 80 53 48 64
REMARK Flexibility Score: inf
ROOT
ATOM      1  C   UNL A   1      34.866  21.244  25.544  1.00  0.00     0.225 C 
ATOM      2  O   UNL A   1      34.300  21.575  26.589  1.00  0.00    -0.275 OA
ATOM      3  N   UNL A   1      36.144  20.796  25.631  1.00  0.00    -0.356 N 
ATOM      4  H   UNL A   1      36.380  20.440  26.517  1.00  0.00     0.163 HD
ENDROOT
BRANCH   1   5
ATOM      5  C   UNL A   1      34.099  21.288  24.249  1.00  0.00     0.107 C 
ATOM      6  N   UNL A   1      33.083  22.854  22.841  1.00  0.00    -0.341 N 
ATOM      7  C   UNL A   1      34.188  22.675  23.715  1.00  0.00     0.133 C 
ATOM      8  C   UNL A   1      32.055  21.835  23.083  1.00  0.00     0.128 C 
ATOM      9  C   UNL A   1      32.617  20.897  24.203  1.00  0.00     0.054 C 
BRANCH   6  10
ATOM     10  C   UNL A   1      32.986  23.957  22.020  1.00  0.00     0.222 C 
ATOM     11  O   UNL A   1      33.280  23.897  20.826  1.00  0.00    -0.275 OA
BRANCH  10  12
ATOM     12  C   UNL A   1      32.624  25.313  22.685  1.00  0.00     0.105 C 
BRANCH  12  13
ATOM     13  C   UNL A   1      31.368  25.440  23.581  1.00  0.00     0.045 C 
BRANCH  13  14
ATOM     14  C   UNL A   1      30.457  26.654  23.425  1.00  0.00    -0.047 A 
ATOM     15  C   UNL A   1      28.711  28.846  22.824  1.00  0.00     0.036 A 
ATOM     16  C   UNL A   1      30.077  28.897  22.523  1.00  0.00     0.026 A 
ATOM     17  C   UNL A   1      28.248  27.711  23.501  1.00  0.00     0.026 A 
ATOM     18  C   UNL A   1      30.939  27.826  22.820  1.00  0.00     0.006 A 
ATOM     19  C   UNL A   1      29.110  26.642  23.822  1.00  0.00     0.006 A 
BRANCH  15  20
ATOM     20  N   UNL A   1      27.889  29.932  22.502  1.00  0.00    -0.378 N 
ATOM     21  C   UNL A   1      28.084  30.453  21.155  1.00  0.00     0.143 C 
ATOM     22  C   UNL A   1      27.654  30.950  23.526  1.00  0.00     0.143 C 
ENDBRANCH  15  20
ENDBRANCH  13  14
ENDBRANCH  12  13
ENDBRANCH  10  12
ENDBRANCH   6  10
BRANCH   9  23
ATOM     23  C   UNL A   1      32.616  19.382  24.067  1.00  0.00    -0.024 A 
ATOM     24  C   UNL A   1      32.836  18.609  25.226  1.00  0.00     0.007 A 
ATOM     25  C   UNL A   1      32.624  18.697  22.862  1.00  0.00     0.115 A 
ATOM     26  C   UNL A   1      33.179  17.268  25.133  1.00  0.00     0.020 A 
ATOM     27  N   UNL A   1      32.906  17.376  22.747  1.00  0.00    -0.264 NA
ATOM     28  C   UNL A   1      33.213  16.703  23.877  1.00  0.00     0.111 A 
ENDBRANCH   9  23
ENDBRANCH   1   5
BRANCH   3  29
ATOM     29  C   UNL A   1      37.229  20.742  24.670  1.00  0.00     0.117 C 
BRANCH  29  30
ATOM     30  C   UNL A   1      38.150  19.569  25.005  1.00  0.00     0.042 C 
BRANCH  30  31
ATOM     31  C   UNL A   1      39.199  19.908  26.068  1.00  0.00     0.118 C 
BRANCH  31  32
ATOM     32  N   UNL A   1      40.318  18.982  26.049  1.00  0.00    -0.352 N 
ATOM     33  C   UNL A   1      41.670  19.229  26.066  1.00  0.00     0.251 C 
ATOM     34  H   UNL A   1      40.070  18.030  26.021  1.00  0.00     0.163 HD
ATOM     35  O   UNL A   1      42.451  18.316  25.817  1.00  0.00    -0.269 OA
BRANCH  33  36
ATOM     36  C   UNL A   1      42.197  20.583  26.359  1.00  0.00     0.039 A 
ATOM     37  C   UNL A   1      42.540  21.407  25.283  1.00  0.00     0.014 A 
ATOM     38  C   UNL A   1      42.409  21.030  27.666  1.00  0.00     0.014 A 
ATOM     39  C   UNL A   1      43.037  22.692  25.516  1.00  0.00     0.010 A 
ATOM     40  C   UNL A   1      42.840  22.338  27.899  1.00  0.00     0.010 A 
ATOM     41  C   UNL A   1      43.157  23.184  26.826  1.00  0.00    -0.014 A 
BRANCH  41  42
ATOM     42  C   UNL A   1      43.580  24.590  27.069  1.00  0.00     0.031 A 
ATOM     43  C   UNL A   1      42.608  25.619  27.577  1.00  0.00     0.074 A 
ATOM     44  C   UNL A   1      44.849  24.951  26.792  1.00  0.00     0.049 A 
ATOM     45  N   UNL A   1      42.809  26.886  27.844  1.00  0.00    -0.248 NA
ATOM     46  C   UNL A   1      41.224  25.174  27.796  1.00  0.00     0.031 C 
ATOM     47  C   UNL A   1      45.875  24.066  26.239  1.00  0.00     0.029 A 
ATOM     48  N   UNL A   1      45.491  26.156  26.932  1.00  0.00    -0.354 N 
ATOM     49  C   UNL A   1      41.581  27.390  28.254  1.00  0.00     0.074 A 
ATOM     50  C   UNL A   1      40.629  26.304  28.153  1.00  0.00     0.031 C 
ATOM     51  C   UNL A   1      47.024  24.748  26.115  1.00  0.00     0.029 A 
ATOM     52  C   UNL A   1      46.808  26.126  26.546  1.00  0.00     0.049 A 
ATOM     53  H   UNL A   1      45.048  26.966  27.277  1.00  0.00     0.167 HD
ATOM     54  C   UNL A   1      41.280  28.637  28.694  1.00  0.00     0.037 A 
ATOM     55  C   UNL A   1      47.740  27.097  26.538  1.00  0.00     0.037 A 
ATOM     56  C   UNL A   1      42.231  29.713  28.810  1.00  0.00     0.049 A 
ATOM     57  C   UNL A   1      47.380  28.469  27.036  1.00  0.00     0.074 A 
ATOM     58  C   UNL A   1      42.033  30.990  29.307  1.00  0.00     0.029 A 
ATOM     59  N   UNL A   1      43.559  29.642  28.417  1.00  0.00    -0.354 N 
ATOM     60  N   UNL A   1      46.236  28.910  27.498  1.00  0.00    -0.248 NA
ATOM     61  C   UNL A   1      48.449  29.478  27.024  1.00  0.00     0.031 C 
ATOM     62  C   UNL A   1      43.227  31.707  29.168  1.00  0.00     0.029 A 
ATOM     63  C   UNL A   1      44.185  30.861  28.637  1.00  0.00     0.049 A 
ATOM     64  H   UNL A   1      43.995  28.844  28.039  1.00  0.00     0.167 HD
ATOM     65  C   UNL A   1      46.449  30.235  27.847  1.00  0.00     0.074 A 
ATOM     66  C   UNL A   1      47.841  30.520  27.571  1.00  0.00     0.031 C 
ATOM     67  C   UNL A   1      45.570  31.137  28.348  1.00  0.00     0.037 A 
BRANCH  54  68
ATOM     68  C   UNL A   1      39.857  28.911  29.087  1.00  0.00     0.064 A 
ATOM     69  C   UNL A   1      38.903  29.337  28.150  1.00  0.00     0.173 A 
ATOM     70  C   UNL A   1      39.427  28.695  30.406  1.00  0.00     0.173 A 
ATOM     71  F   UNL A   1      39.262  29.567  26.878  1.00  0.00    -0.203 F 
ATOM     72  C   UNL A   1      37.580  29.562  28.524  1.00  0.00     0.198 A 
ATOM     73  C   UNL A   1      38.097  28.893  30.769  1.00  0.00     0.198 A 
ATOM     74  F   UNL A   1      40.295  28.279  31.340  1.00  0.00    -0.203 F 
ATOM     75  F   UNL A   1      36.697  30.012  27.622  1.00  0.00    -0.200 F 
ATOM     76  C   UNL A   1      37.177  29.332  29.831  1.00  0.00     0.200 A 
ATOM     77  F   UNL A   1      37.706  28.655  32.029  1.00  0.00    -0.200 F 
ATOM     78  F   UNL A   1      35.902  29.541  30.187  1.00  0.00    -0.200 F 
ENDBRANCH  54  68
BRANCH  55  79
ATOM     79  C   UNL A   1      49.116  26.800  26.060  1.00  0.00     0.064 A 
ATOM     80  C   UNL A   1      49.474  27.005  24.721  1.00  0.00     0.173 A 
ATOM     81  C   UNL A   1      50.097  26.299  26.929  1.00  0.00     0.173 A 
ATOM     82  F   UNL A   1      48.565  27.462  23.847  1.00  0.00    -0.203 F 
ATOM     83  C   UNL A   1      50.754  26.699  24.263  1.00  0.00     0.198 A 
ATOM     84  C   UNL A   1      51.384  26.023  26.477  1.00  0.00     0.198 A 
ATOM     85  F   UNL A   1      49.806  26.090  28.221  1.00  0.00    -0.203 F 
ATOM     86  F   UNL A   1      51.056  26.859  22.967  1.00  0.00    -0.200 F 
ATOM     87  C   UNL A   1      51.710  26.215  25.143  1.00  0.00     0.200 A 
ATOM     88  F   UNL A   1      52.309  25.569  27.334  1.00  0.00    -0.200 F 
ATOM     89  F   UNL A   1      52.942  25.926  24.703  1.00  0.00    -0.200 F 
ENDBRANCH  55  79
BRANCH  67  90
ATOM     90  C   UNL A   1      46.097  32.513  28.644  1.00  0.00     0.064 A 
ATOM     91  C   UNL A   1      46.655  32.835  29.890  1.00  0.00     0.173 A 
ATOM     92  C   UNL A   1      46.046  33.521  27.669  1.00  0.00     0.173 A 
ATOM     93  F   UNL A   1      46.712  31.913  30.863  1.00  0.00    -0.203 F 
ATOM     94  C   UNL A   1      47.105  34.124  30.162  1.00  0.00     0.198 A 
ATOM     95  C   UNL A   1      46.527  34.800  27.933  1.00  0.00     0.198 A 
ATOM     96  F   UNL A   1      45.528  33.265  26.458  1.00  0.00    -0.203 F 
ATOM     97  F   UNL A   1      47.576  34.425  31.381  1.00  0.00    -0.200 F 
ATOM     98  C   UNL A   1      47.045  35.104  29.183  1.00  0.00     0.200 A 
ATOM     99  F   UNL A   1      46.481  35.743  26.981  1.00  0.00    -0.200 F 
ATOM    100  F   UNL A   1      47.477  36.345  29.447  1.00  0.00    -0.200 F 
ENDBRANCH  67  90
ENDBRANCH  41  42
ENDBRANCH  33  36
ENDBRANCH  31  32
ENDBRANCH  30  31
ENDBRANCH  29  30
ENDBRANCH   3  29
TORSDOF 16
ENDMDL
MODEL 2
REMARK VINA RESULT:     -13.3      5.422     10.544
REMARK SMILES CN(C)c1ccc(CCC(=O)N2C[C@@H](C(=O)NCCCNC(=O)c3ccc(-c4c5nc(c(-c6c(F)c(F)c(F)c(F)c6F)c6ccc([nH]6)c(-c6c(F)c(F)c(F)c(F)c6F)c6nc(c(-c7c(F)c(F)c(F)c(F)c7F)c7ccc4[nH]7)C=C6)C=C5)cc3)[C@H](c3cccnc3)C2)cc1
REMARK SMILES IDX 15 1 16 2 17 3 14 5 12 6 13 7 94 8 87 9 10 10 11 11 9 12
REMARK SMILES IDX 8 13 7 14 4 15 5 16 96 17 6 18 95 19 2 20 1 21 3 22 88 23
REMARK SMILES IDX 89 24 93 25 90 26 92 27 91 28 18 29 19 30 20 31 21 32 22 33
REMARK SMILES IDX 23 35 24 36 25 37 86 38 26 39 85 40 27 41 28 42 29 43 79 44
REMARK SMILES IDX 30 45 84 46 78 47 80 48 31 49 83 50 77 51 76 52 32 54 64 55
REMARK SMILES IDX 44 56 63 57 45 58 48 59 62 60 81 61 46 62 47 63 61 65 82 66
REMARK SMILES IDX 49 67 33 68 34 69 42 70 35 71 36 72 40 73 43 74 37 75 38 76
REMARK SMILES IDX 41 77 39 78 65 79 66 80 74 81 67 82 68 83 72 84 75 85 69 86
REMARK SMILES IDX 70 87 73 88 71 89 50 90 51 91 59 92 52 93 53 94 57 95 60 96
REMARK SMILES IDX 54 97 55 98 58 99 56 100
REMARK H PARENT 17 4 21 34 80 53 48 64
REMARK Flexibility Score: inf
ROOT
ATOM      1  C   UNL A   1      32.062  29.156  24.564  1.00  0.00     0.225 C 
ATOM      2  O   UNL A   1      33.024  28.908  23.832  1.00  0.00    -0.275 OA
ATOM      3  N   UNL A   1      32.069  30.330  25.244  1.00  0.00    -0.356 N 
ATOM      4  H   UNL A   1      32.637  31.022  24.836  1.00  0.00     0.163 HD
ENDROOT
BRANCH   1   5
ATOM      5  C   UNL A   1      30.910  28.187  24.613  1.00  0.00     0.107 C 
ATOM      6  N   UNL A   1      30.495  25.951  25.152  1.00  0.00    -0.341 N 
ATOM      7  C   UNL A   1      31.298  27.065  25.511  1.00  0.00     0.133 C 
ATOM      8  C   UNL A   1      29.908  26.137  23.821  1.00  0.00     0.128 C 
ATOM      9  C   UNL A   1      30.367  27.550  23.329  1.00  0.00     0.054 C 
BRANCH   6  10
ATOM     10  C   UNL A   1      30.457  24.811  25.928  1.00  0.00     0.222 C 
ATOM     11  O   UNL A   1      29.649  24.688  26.848  1.00  0.00    -0.275 OA
BRANCH  10  12
ATOM     12  C   UNL A   1      31.560  23.745  25.688  1.00  0.00     0.105 C 
BRANCH  12  13
ATOM     13  C   UNL A   1      31.643  22.987  24.340  1.00  0.00     0.045 C 
BRANCH  13  14
ATOM     14  C   UNL A   1      32.231  21.580  24.308  1.00  0.00    -0.047 A 
ATOM     15  C   UNL A   1      33.067  18.840  24.401  1.00  0.00     0.036 A 
ATOM     16  C   UNL A   1      33.242  19.694  25.496  1.00  0.00     0.026 A 
ATOM     17  C   UNL A   1      32.538  19.400  23.232  1.00  0.00     0.026 A 
ATOM     18  C   UNL A   1      32.837  21.041  25.453  1.00  0.00     0.006 A 
ATOM     19  C   UNL A   1      32.149  20.755  23.174  1.00  0.00     0.006 A 
BRANCH  15  20
ATOM     20  N   UNL A   1      33.477  17.505  24.490  1.00  0.00    -0.378 N 
ATOM     21  C   UNL A   1      33.875  16.915  23.219  1.00  0.00     0.143 C 
ATOM     22  C   UNL A   1      32.731  16.610  25.375  1.00  0.00     0.143 C 
ENDBRANCH  15  20
ENDBRANCH  13  14
ENDBRANCH  12  13
ENDBRANCH  10  12
ENDBRANCH   6  10
BRANCH   9  23
ATOM     23  C   UNL A   1      29.389  28.571  22.769  1.00  0.00    -0.024 A 
ATOM     24  C   UNL A   1      29.903  29.631  21.994  1.00  0.00     0.007 A 
ATOM     25  C   UNL A   1      28.053  28.666  23.128  1.00  0.00     0.115 A 
ATOM     26  C   UNL A   1      29.140  30.762  21.738  1.00  0.00     0.020 A 
ATOM     27  N   UNL A   1      27.270  29.736  22.848  1.00  0.00    -0.264 NA
ATOM     28  C   UNL A   1      27.840  30.771  22.194  1.00  0.00     0.111 A 
ENDBRANCH   9  23
ENDBRANCH   1   5
BRANCH   3  29
ATOM     29  C   UNL A   1      31.402  30.762  26.457  1.00  0.00     0.117 C 
BRANCH  29  30
ATOM     30  C   UNL A   1      31.387  32.289  26.516  1.00  0.00     0.042 C 
BRANCH  30  31
ATOM     31  C   UNL A   1      32.676  32.886  27.086  1.00  0.00     0.118 C 
BRANCH  31  32
ATOM     32  N   UNL A   1      32.471  34.219  27.628  1.00  0.00    -0.352 N 
ATOM     33  C   UNL A   1      33.061  34.834  28.706  1.00  0.00     0.251 C 
ATOM     34  H   UNL A   1      31.807  34.765  27.149  1.00  0.00     0.163 HD
ATOM     35  O   UNL A   1      32.585  35.881  29.134  1.00  0.00    -0.269 OA
BRANCH  33  36
ATOM     36  C   UNL A   1      34.247  34.244  29.370  1.00  0.00     0.039 A 
ATOM     37  C   UNL A   1      34.038  33.336  30.413  1.00  0.00     0.014 A 
ATOM     38  C   UNL A   1      35.550  34.610  29.023  1.00  0.00     0.014 A 
ATOM     39  C   UNL A   1      35.131  32.755  31.063  1.00  0.00     0.010 A 
ATOM     40  C   UNL A   1      36.640  33.977  29.625  1.00  0.00     0.010 A 
ATOM     41  C   UNL A   1      36.442  33.041  30.651  1.00  0.00    -0.014 A 
BRANCH  41  42
ATOM     42  C   UNL A   1      37.598  32.337  31.268  1.00  0.00     0.031 A 
ATOM     43  C   UNL A   1      38.089  32.702  32.643  1.00  0.00     0.074 A 
ATOM     44  C   UNL A   1      38.236  31.381  30.565  1.00  0.00     0.049 A 
ATOM     45  N   UNL A   1      39.079  32.189  33.330  1.00  0.00    -0.248 NA
ATOM     46  C   UNL A   1      37.390  33.798  33.328  1.00  0.00     0.031 C 
ATOM     47  C   UNL A   1      37.900  30.971  29.201  1.00  0.00     0.029 A 
ATOM     48  N   UNL A   1      39.303  30.582  30.897  1.00  0.00    -0.354 N 
ATOM     49  C   UNL A   1      39.127  32.903  34.522  1.00  0.00     0.074 A 
ATOM     50  C   UNL A   1      38.097  33.917  34.443  1.00  0.00     0.031 C 
ATOM     51  C   UNL A   1      38.722  29.981  28.823  1.00  0.00     0.029 A 
ATOM     52  C   UNL A   1      39.664  29.706  29.903  1.00  0.00     0.049 A 
ATOM     53  H   UNL A   1      39.765  30.632  31.766  1.00  0.00     0.167 HD
ATOM     54  C   UNL A   1      39.940  32.715  35.591  1.00  0.00     0.037 A 
ATOM     55  C   UNL A   1      40.646  28.786  29.862  1.00  0.00     0.037 A 
ATOM     56  C   UNL A   1      40.955  31.695  35.676  1.00  0.00     0.049 A 
ATOM     57  C   UNL A   1      41.529  28.596  31.064  1.00  0.00     0.074 A 
ATOM     58  C   UNL A   1      41.782  31.386  36.742  1.00  0.00     0.029 A 
ATOM     59  N   UNL A   1      41.286  30.821  34.651  1.00  0.00    -0.354 N 
ATOM     60  N   UNL A   1      41.510  29.222  32.214  1.00  0.00    -0.248 NA
ATOM     61  C   UNL A   1      42.566  27.558  30.963  1.00  0.00     0.031 C 
ATOM     62  C   UNL A   1      42.647  30.360  36.347  1.00  0.00     0.029 A 
ATOM     63  C   UNL A   1      42.323  29.991  35.053  1.00  0.00     0.049 A 
ATOM     64  H   UNL A   1      40.849  30.792  33.769  1.00  0.00     0.167 HD
ATOM     65  C   UNL A   1      42.513  28.646  32.980  1.00  0.00     0.074 A 
ATOM     66  C   UNL A   1      43.104  27.599  32.174  1.00  0.00     0.031 C 
ATOM     67  C   UNL A   1      42.912  28.958  34.238  1.00  0.00     0.037 A 
BRANCH  54  68
ATOM     68  C   UNL A   1      39.768  33.635  36.765  1.00  0.00     0.064 A 
ATOM     69  C   UNL A   1      38.928  33.307  37.841  1.00  0.00     0.173 A 
ATOM     70  C   UNL A   1      40.491  34.836  36.843  1.00  0.00     0.173 A 
ATOM     71  F   UNL A   1      38.208  32.176  37.813  1.00  0.00    -0.203 F 
ATOM     72  C   UNL A   1      38.798  34.157  38.936  1.00  0.00     0.198 A 
ATOM     73  C   UNL A   1      40.381  35.670  37.953  1.00  0.00     0.198 A 
ATOM     74  F   UNL A   1      41.315  35.195  35.847  1.00  0.00    -0.203 F 
ATOM     75  F   UNL A   1      37.956  33.844  39.930  1.00  0.00    -0.200 F 
ATOM     76  C   UNL A   1      39.531  35.334  38.995  1.00  0.00     0.200 A 
ATOM     77  F   UNL A   1      41.101  36.798  38.016  1.00  0.00    -0.200 F 
ATOM     78  F   UNL A   1      39.410  36.147  40.053  1.00  0.00    -0.200 F 
ENDBRANCH  54  68
BRANCH  55  79
ATOM     79  C   UNL A   1      40.831  27.954  28.644  1.00  0.00     0.064 A 
ATOM     80  C   UNL A   1      41.697  28.360  27.619  1.00  0.00     0.173 A 
ATOM     81  C   UNL A   1      40.143  26.744  28.476  1.00  0.00     0.173 A 
ATOM     82  F   UNL A   1      42.361  29.521  27.724  1.00  0.00    -0.203 F 
ATOM     83  C   UNL A   1      41.851  27.598  26.463  1.00  0.00     0.198 A 
ATOM     84  C   UNL A   1      40.321  25.967  27.334  1.00  0.00     0.198 A 
ATOM     85  F   UNL A   1      39.307  26.309  29.430  1.00  0.00    -0.203 F 
ATOM     86  F   UNL A   1      42.648  28.033  25.478  1.00  0.00    -0.200 F 
ATOM     87  C   UNL A   1      41.168  26.398  26.324  1.00  0.00     0.200 A 
ATOM     88  F   UNL A   1      39.671  24.803  27.211  1.00  0.00    -0.200 F 
ATOM     89  F   UNL A   1      41.320  25.664  25.215  1.00  0.00    -0.200 F 
ENDBRANCH  55  79
BRANCH  67  90
ATOM     90  C   UNL A   1      44.031  28.143  34.821  1.00  0.00     0.064 A 
ATOM     91  C   UNL A   1      45.372  28.534  34.689  1.00  0.00     0.173 A 
ATOM     92  C   UNL A   1      43.761  26.958  35.522  1.00  0.00     0.173 A 
ATOM     93  F   UNL A   1      45.687  29.650  34.013  1.00  0.00    -0.203 F 
ATOM     94  C   UNL A   1      46.402  27.751  35.203  1.00  0.00     0.198 A 
ATOM     95  C   UNL A   1      44.791  26.193  36.063  1.00  0.00     0.198 A 
ATOM     96  F   UNL A   1      42.496  26.541  35.684  1.00  0.00    -0.203 F 
ATOM     97  F   UNL A   1      47.678  28.112  35.009  1.00  0.00    -0.200 F 
ATOM     98  C   UNL A   1      46.110  26.583  35.894  1.00  0.00     0.200 A 
ATOM     99  F   UNL A   1      44.507  25.073  36.742  1.00  0.00    -0.200 F 
ATOM    100  F   UNL A   1      47.102  25.828  36.386  1.00  0.00    -0.200 F 
ENDBRANCH  67  90
ENDBRANCH  41  42
ENDBRANCH  33  36
ENDBRANCH  31  32
ENDBRANCH  30  31
ENDBRANCH  29  30
ENDBRANCH   3  29
TORSDOF 16
ENDMDL
MODEL 3
REMARK VINA RESULT:     -13.2      5.556     11.568
REMARK SMILES CN(C)c1ccc(CCC(=O)N2C[C@@H](C(=O)NCCCNC(=O)c3ccc(-c4c5nc(c(-c6c(F)c(F)c(F)c(F)c6F)c6ccc([nH]6)c(-c6c(F)c(F)c(F)c(F)c6F)c6nc(c(-c7c(F)c(F)c(F)c(F)c7F)c7ccc4[nH]7)C=C6)C=C5)cc3)[C@H](c3cccnc3)C2)cc1
REMARK SMILES IDX 15 1 16 2 17 3 14 5 12 6 13 7 94 8 87 9 10 10 11 11 9 12
REMARK SMILES IDX 8 13 7 14 4 15 5 16 96 17 6 18 95 19 2 20 1 21 3 22 88 23
REMARK SMILES IDX 89 24 93 25 90 26 92 27 91 28 18 29 19 30 20 31 21 32 22 33
REMARK SMILES IDX 23 35 24 36 25 37 86 38 26 39 85 40 27 41 28 42 29 43 79 44
REMARK SMILES IDX 30 45 84 46 78 47 80 48 31 49 83 50 77 51 76 52 32 54 64 55
REMARK SMILES IDX 44 56 63 57 45 58 48 59 62 60 81 61 46 62 47 63 61 65 82 66
REMARK SMILES IDX 49 67 33 68 34 69 42 70 35 71 36 72 40 73 43 74 37 75 38 76
REMARK SMILES IDX 41 77 39 78 65 79 66 80 74 81 67 82 68 83 72 84 75 85 69 86
REMARK SMILES IDX 70 87 73 88 71 89 50 90 51 91 59 92 52 93 53 94 57 95 60 96
REMARK SMILES IDX 54 97 55 98 58 99 56 100
REMARK H PARENT 17 4 21 34 80 53 48 64
REMARK Flexibility Score: inf
ROOT
ATOM      1  C   UNL A   1      32.139  29.146  24.688  1.00  0.00     0.225 C 
ATOM      2  O   UNL A   1      33.156  28.921  24.027  1.00  0.00    -0.275 OA
ATOM      3  N   UNL A   1      32.030  30.357  25.291  1.00  0.00    -0.356 N 
ATOM      4  H   UNL A   1      32.575  31.060  24.871  1.00  0.00     0.163 HD
ENDROOT
BRANCH   1   5
ATOM      5  C   UNL A   1      31.052  28.106  24.736  1.00  0.00     0.107 C 
ATOM      6  N   UNL A   1      30.793  25.832  25.214  1.00  0.00    -0.341 N 
ATOM      7  C   UNL A   1      31.535  26.983  25.587  1.00  0.00     0.133 C 
ATOM      8  C   UNL A   1      30.157  26.021  23.905  1.00  0.00     0.128 C 
ATOM      9  C   UNL A   1      30.514  27.475  23.447  1.00  0.00     0.054 C 
BRANCH   6  10
ATOM     10  C   UNL A   1      30.848  24.669  25.953  1.00  0.00     0.222 C 
ATOM     11  O   UNL A   1      31.173  24.677  27.140  1.00  0.00    -0.275 OA
BRANCH  10  12
ATOM     12  C   UNL A   1      30.618  23.331  25.199  1.00  0.00     0.105 C 
BRANCH  12  13
ATOM     13  C   UNL A   1      31.341  22.038  25.650  1.00  0.00     0.045 C 
BRANCH  13  14
ATOM     14  C   UNL A   1      32.865  21.981  25.613  1.00  0.00    -0.047 A 
ATOM     15  C   UNL A   1      35.700  21.557  25.606  1.00  0.00     0.036 A 
ATOM     16  C   UNL A   1      34.990  21.730  26.800  1.00  0.00     0.026 A 
ATOM     17  C   UNL A   1      34.978  21.677  24.412  1.00  0.00     0.026 A 
ATOM     18  C   UNL A   1      33.600  21.943  26.808  1.00  0.00     0.006 A 
ATOM     19  C   UNL A   1      33.587  21.912  24.410  1.00  0.00     0.006 A 
BRANCH  15  20
ATOM     20  N   UNL A   1      37.081  21.340  25.644  1.00  0.00    -0.378 N 
ATOM     21  C   UNL A   1      37.879  22.559  25.682  1.00  0.00     0.143 C 
ATOM     22  C   UNL A   1      37.637  20.268  24.818  1.00  0.00     0.143 C 
ENDBRANCH  15  20
ENDBRANCH  13  14
ENDBRANCH  12  13
ENDBRANCH  10  12
ENDBRANCH   6  10
BRANCH   9  23
ATOM     23  C   UNL A   1      29.458  28.448  22.946  1.00  0.00    -0.024 A 
ATOM     24  C   UNL A   1      29.890  29.637  22.322  1.00  0.00     0.007 A 
ATOM     25  C   UNL A   1      28.105  28.365  23.236  1.00  0.00     0.115 A 
ATOM     26  C   UNL A   1      29.023  30.705  22.146  1.00  0.00     0.020 A 
ATOM     27  N   UNL A   1      27.225  29.375  23.029  1.00  0.00    -0.264 NA
ATOM     28  C   UNL A   1      27.710  30.531  22.526  1.00  0.00     0.111 A 
ENDBRANCH   9  23
ENDBRANCH   1   5
BRANCH   3  29
ATOM     29  C   UNL A   1      31.266  30.814  26.436  1.00  0.00     0.117 C 
BRANCH  29  30
ATOM     30  C   UNL A   1      31.302  32.341  26.497  1.00  0.00     0.042 C 
BRANCH  30  31
ATOM     31  C   UNL A   1      32.563  32.891  27.167  1.00  0.00     0.118 C 
BRANCH  31  32
ATOM     32  N   UNL A   1      32.405  34.274  27.585  1.00  0.00    -0.352 N 
ATOM     33  C   UNL A   1      33.016  34.964  28.604  1.00  0.00     0.251 C 
ATOM     34  H   UNL A   1      31.761  34.797  27.056  1.00  0.00     0.163 HD
ATOM     35  O   UNL A   1      32.577  36.061  28.934  1.00  0.00    -0.269 OA
BRANCH  33  36
ATOM     36  C   UNL A   1      34.181  34.396  29.323  1.00  0.00     0.039 A 
ATOM     37  C   UNL A   1      33.951  33.715  30.522  1.00  0.00     0.014 A 
ATOM     38  C   UNL A   1      35.490  34.570  28.867  1.00  0.00     0.014 A 
ATOM     39  C   UNL A   1      35.023  33.162  31.229  1.00  0.00     0.010 A 
ATOM     40  C   UNL A   1      36.553  33.958  29.536  1.00  0.00     0.010 A 
ATOM     41  C   UNL A   1      36.330  33.246  30.724  1.00  0.00    -0.014 A 
BRANCH  41  42
ATOM     42  C   UNL A   1      37.453  32.561  31.419  1.00  0.00     0.031 A 
ATOM     43  C   UNL A   1      38.161  31.392  30.791  1.00  0.00     0.074 A 
ATOM     44  C   UNL A   1      37.814  32.976  32.650  1.00  0.00     0.049 A 
ATOM     45  N   UNL A   1      39.159  30.681  31.257  1.00  0.00    -0.248 NA
ATOM     46  C   UNL A   1      37.674  30.948  29.477  1.00  0.00     0.031 C 
ATOM     47  C   UNL A   1      37.172  34.059  33.396  1.00  0.00     0.029 A 
ATOM     48  N   UNL A   1      38.805  32.535  33.492  1.00  0.00    -0.354 N 
ATOM     49  C   UNL A   1      39.413  29.706  30.300  1.00  0.00     0.074 A 
ATOM     50  C   UNL A   1      38.433  29.885  29.250  1.00  0.00     0.031 C 
ATOM     51  C   UNL A   1      37.803  34.218  34.570  1.00  0.00     0.029 A 
ATOM     52  C   UNL A   1      38.870  33.229  34.675  1.00  0.00     0.049 A 
ATOM     53  H   UNL A   1      39.413  31.793  33.267  1.00  0.00     0.167 HD
ATOM     54  C   UNL A   1      40.387  28.763  30.289  1.00  0.00     0.037 A 
ATOM     55  C   UNL A   1      39.695  33.085  35.730  1.00  0.00     0.037 A 
ATOM     56  C   UNL A   1      41.373  28.595  31.327  1.00  0.00     0.049 A 
ATOM     57  C   UNL A   1      40.770  32.034  35.687  1.00  0.00     0.074 A 
ATOM     58  C   UNL A   1      42.438  27.711  31.372  1.00  0.00     0.029 A 
ATOM     59  N   UNL A   1      41.412  29.322  32.507  1.00  0.00    -0.354 N 
ATOM     60  N   UNL A   1      41.050  31.173  34.741  1.00  0.00    -0.248 NA
ATOM     61  C   UNL A   1      41.652  31.945  36.860  1.00  0.00     0.031 C 
ATOM     62  C   UNL A   1      43.090  27.868  32.600  1.00  0.00     0.029 A 
ATOM     63  C   UNL A   1      42.467  28.888  33.298  1.00  0.00     0.049 A 
ATOM     64  H   UNL A   1      40.784  30.042  32.749  1.00  0.00     0.167 HD
ATOM     65  C   UNL A   1      42.148  30.454  35.192  1.00  0.00     0.074 A 
ATOM     66  C   UNL A   1      42.501  30.999  36.485  1.00  0.00     0.031 C 
ATOM     67  C   UNL A   1      42.804  29.431  34.590  1.00  0.00     0.037 A 
BRANCH  54  68
ATOM     68  C   UNL A   1      40.440  27.831  29.112  1.00  0.00     0.064 A 
ATOM     69  C   UNL A   1      39.661  26.664  29.061  1.00  0.00     0.173 A 
ATOM     70  C   UNL A   1      41.238  28.133  27.998  1.00  0.00     0.173 A 
ATOM     71  F   UNL A   1      38.887  26.324  30.102  1.00  0.00    -0.203 F 
ATOM     72  C   UNL A   1      39.700  25.824  27.952  1.00  0.00     0.198 A 
ATOM     73  C   UNL A   1      41.253  27.306  26.879  1.00  0.00     0.198 A 
ATOM     74  F   UNL A   1      41.996  29.241  27.990  1.00  0.00    -0.203 F 
ATOM     75  F   UNL A   1      38.982  24.692  27.945  1.00  0.00    -0.200 F 
ATOM     76  C   UNL A   1      40.490  26.149  26.859  1.00  0.00     0.200 A 
ATOM     77  F   UNL A   1      42.004  27.629  25.817  1.00  0.00    -0.200 F 
ATOM     78  F   UNL A   1      40.519  25.342  25.789  1.00  0.00    -0.200 F 
ENDBRANCH  54  68
BRANCH  55  79
ATOM     79  C   UNL A   1      39.551  33.977  36.910  1.00  0.00     0.064 A 
ATOM     80  C   UNL A   1      40.177  35.230  36.946  1.00  0.00     0.173 A 
ATOM     81  C   UNL A   1      38.793  33.594  38.025  1.00  0.00     0.173 A 
ATOM     82  F   UNL A   1      40.931  35.633  35.911  1.00  0.00    -0.203 F 
ATOM     83  C   UNL A   1      40.069  36.057  38.061  1.00  0.00     0.198 A 
ATOM     84  C   UNL A   1      38.660  34.434  39.128  1.00  0.00     0.198 A 
ATOM     85  F   UNL A   1      38.170  32.406  38.038  1.00  0.00    -0.203 F 
ATOM     86  F   UNL A   1      40.717  37.230  38.089  1.00  0.00    -0.200 F 
ATOM     87  C   UNL A   1      39.305  35.661  39.149  1.00  0.00     0.200 A 
ATOM     88  F   UNL A   1      37.909  34.054  40.170  1.00  0.00    -0.200 F 
ATOM     89  F   UNL A   1      39.197  36.459  40.220  1.00  0.00    -0.200 F 
ENDBRANCH  55  79
BRANCH  67  90
ATOM     90  C   UNL A   1      43.979  28.848  35.321  1.00  0.00     0.064 A 
ATOM     91  C   UNL A   1      43.822  27.831  36.274  1.00  0.00     0.173 A 
ATOM     92  C   UNL A   1      45.279  29.311  35.065  1.00  0.00     0.173 A 
ATOM     93  F   UNL A   1      42.599  27.365  36.569  1.00  0.00    -0.203 F 
ATOM     94  C   UNL A   1      44.917  27.327  36.972  1.00  0.00     0.198 A 
ATOM     95  C   UNL A   1      46.376  28.782  35.741  1.00  0.00     0.198 A 
ATOM     96  F   UNL A   1      45.487  30.278  34.159  1.00  0.00    -0.203 F 
ATOM     97  F   UNL A   1      44.734  26.400  37.923  1.00  0.00    -0.200 F 
ATOM     98  C   UNL A   1      46.193  27.799  36.701  1.00  0.00     0.200 A 
ATOM     99  F   UNL A   1      47.609  29.229  35.468  1.00  0.00    -0.200 F 
ATOM    100  F   UNL A   1      47.245  27.314  37.374  1.00  0.00    -0.200 F 
ENDBRANCH  67  90
ENDBRANCH  41  42
ENDBRANCH  33  36
ENDBRANCH  31  32
ENDBRANCH  30  31
ENDBRANCH  29  30
ENDBRANCH   3  29
TORSDOF 16
ENDMDL
