MODEL 1
REMARK VINA RESULT:     -12.2      0.000      0.000
REMARK SMILES CC(C)=CC[N@H+]1CCCC[C@H]1C(=O)NCCCNC(=O)c1ccc(-c2c3nc(c(-c4c(F)c(F)c(F)c(F)c4F)c4ccc([nH]4)c(-c4c(F)c(F)c(F)c(F)c4F)c4nc(c(-c5c(F)c(F)c(F)c(F)c5F)c5ccc2[nH]5)C=C4)C=C3)cc1
REMARK SMILES IDX 16 1 15 2 14 3 12 4 13 5 11 7 6 8 7 9 8 11 10 12 9 13 5 14
REMARK SMILES IDX 4 15 1 16 2 17 3 18 17 19 18 20 19 21 20 23 21 24 22 25
REMARK SMILES IDX 83 26 23 27 82 28 24 29 25 30 26 31 76 32 27 33 81 34 75 35
REMARK SMILES IDX 77 36 28 37 80 38 74 39 73 40 29 42 61 43 41 44 60 45 42 46
REMARK SMILES IDX 45 47 59 48 78 49 43 50 44 51 58 53 79 54 46 55 30 56 31 57
REMARK SMILES IDX 39 58 32 59 33 60 37 61 40 62 34 63 35 64 38 65 36 66 62 67
REMARK SMILES IDX 63 68 71 69 64 70 65 71 69 72 72 73 66 74 67 75 70 76 68 77
REMARK SMILES IDX 47 78 48 79 56 80 49 81 50 82 54 83 57 84 51 85 52 86 55 87
REMARK SMILES IDX 53 88
REMARK H PARENT 14 6 6 10 18 22 77 41 45 52
REMARK Flexibility Score: inf
ROOT
ATOM      1  C   UNL A   1      31.510  31.957  26.670  1.00  0.00     0.042 C 
ENDROOT
BRANCH   1   2
ATOM      2  C   UNL A   1      31.753  30.481  26.444  1.00  0.00     0.118 C 
BRANCH   2   3
ATOM      3  N   UNL A   1      32.569  30.137  25.302  1.00  0.00    -0.351 N 
ATOM      4  C   UNL A   1      32.592  29.019  24.519  1.00  0.00     0.278 C 
ATOM      5  O   UNL A   1      33.313  29.119  23.519  1.00  0.00    -0.268 OA
ATOM      6  H   UNL A   1      33.222  30.828  25.045  1.00  0.00     0.163 HD
BRANCH   4   7
ATOM      7  C   UNL A   1      31.852  27.686  24.881  1.00  0.00     0.274 C 
ATOM      8  N   UNL A   1      31.669  26.691  23.773  1.00  0.00    -0.321 N 
ATOM      9  C   UNL A   1      32.960  26.292  23.204  1.00  0.00     0.263 C 
ATOM     10  H   UNL A   1      31.258  25.850  24.177  1.00  0.00     0.349 HD
ATOM     11  C   UNL A   1      33.785  25.549  24.256  1.00  0.00     0.062 C 
ATOM     12  C   UNL A   1      32.607  26.951  26.012  1.00  0.00     0.076 C 
ATOM     13  C   UNL A   1      33.932  26.331  25.557  1.00  0.00     0.012 C 
BRANCH   8  14
ATOM     14  C   UNL A   1      30.712  27.134  22.779  1.00  0.00     0.291 C 
BRANCH  14  15
ATOM     15  C   UNL A   1      29.383  27.700  23.188  1.00  0.00     0.032 C 
ATOM     16  C   UNL A   1      29.806  29.905  22.025  1.00  0.00     0.039 C 
ATOM     17  C   UNL A   1      28.944  28.914  22.775  1.00  0.00    -0.075 C 
ATOM     18  C   UNL A   1      27.515  29.338  22.961  1.00  0.00     0.039 C 
ENDBRANCH  14  15
ENDBRANCH   8  14
ENDBRANCH   4   7
ENDBRANCH   2   3
ENDBRANCH   1   2
BRANCH   1  19
ATOM     19  C   UNL A   1      32.682  32.707  27.277  1.00  0.00     0.118 C 
BRANCH  19  20
ATOM     20  N   UNL A   1      32.389  34.087  27.653  1.00  0.00    -0.352 N 
ATOM     21  C   UNL A   1      32.969  34.938  28.567  1.00  0.00     0.251 C 
ATOM     22  H   UNL A   1      31.635  34.485  27.159  1.00  0.00     0.163 HD
ATOM     23  O   UNL A   1      32.472  36.046  28.759  1.00  0.00    -0.269 OA
BRANCH  21  24
ATOM     24  C   UNL A   1      34.146  34.523  29.364  1.00  0.00     0.039 A 
ATOM     25  C   UNL A   1      33.952  33.974  30.635  1.00  0.00     0.014 A 
ATOM     26  C   UNL A   1      35.439  34.661  28.871  1.00  0.00     0.014 A 
ATOM     27  C   UNL A   1      35.042  33.463  31.349  1.00  0.00     0.010 A 
ATOM     28  C   UNL A   1      36.495  34.022  29.506  1.00  0.00     0.010 A 
ATOM     29  C   UNL A   1      36.315  33.422  30.760  1.00  0.00    -0.014 A 
BRANCH  29  30
ATOM     30  C   UNL A   1      37.483  32.789  31.429  1.00  0.00     0.031 A 
ATOM     31  C   UNL A   1      38.203  31.648  30.759  1.00  0.00     0.074 A 
ATOM     32  C   UNL A   1      37.830  33.164  32.676  1.00  0.00     0.049 A 
ATOM     33  N   UNL A   1      39.138  30.863  31.232  1.00  0.00    -0.248 NA
ATOM     34  C   UNL A   1      37.779  31.309  29.390  1.00  0.00     0.031 C 
ATOM     35  C   UNL A   1      37.172  34.208  33.464  1.00  0.00     0.029 A 
ATOM     36  N   UNL A   1      38.815  32.696  33.510  1.00  0.00    -0.354 N 
ATOM     37  C   UNL A   1      39.380  29.923  30.238  1.00  0.00     0.074 A 
ATOM     38  C   UNL A   1      38.450  30.191  29.165  1.00  0.00     0.031 C 
ATOM     39  C   UNL A   1      37.793  34.325  34.649  1.00  0.00     0.029 A 
ATOM     40  C   UNL A   1      38.860  33.334  34.726  1.00  0.00     0.049 A 
ATOM     41  H   UNL A   1      39.433  31.971  33.259  1.00  0.00     0.167 HD
ATOM     42  C   UNL A   1      40.316  28.945  30.205  1.00  0.00     0.037 A 
ATOM     43  C   UNL A   1      39.669  33.138  35.785  1.00  0.00     0.037 A 
ATOM     44  C   UNL A   1      41.282  28.722  31.247  1.00  0.00     0.049 A 
ATOM     45  C   UNL A   1      40.725  32.069  35.711  1.00  0.00     0.074 A 
ATOM     46  C   UNL A   1      42.325  27.813  31.277  1.00  0.00     0.029 A 
ATOM     47  N   UNL A   1      41.326  29.424  32.443  1.00  0.00    -0.354 N 
ATOM     48  N   UNL A   1      40.988  31.231  34.737  1.00  0.00    -0.248 NA
ATOM     49  C   UNL A   1      41.602  31.922  36.881  1.00  0.00     0.031 C 
ATOM     50  C   UNL A   1      42.978  27.941  32.508  1.00  0.00     0.029 A 
ATOM     51  C   UNL A   1      42.371  28.960  33.224  1.00  0.00     0.049 A 
ATOM     52  H   UNL A   1      40.707  30.145  32.697  1.00  0.00     0.167 HD
ATOM     53  C   UNL A   1      42.074  30.479  35.162  1.00  0.00     0.074 A 
ATOM     54  C   UNL A   1      42.432  30.971  36.478  1.00  0.00     0.031 C 
ATOM     55  C   UNL A   1      42.717  29.472  34.524  1.00  0.00     0.037 A 
BRANCH  42  56
ATOM     56  C   UNL A   1      40.353  28.058  28.994  1.00  0.00     0.064 A 
ATOM     57  C   UNL A   1      39.629  26.855  28.939  1.00  0.00     0.173 A 
ATOM     58  C   UNL A   1      41.099  28.424  27.864  1.00  0.00     0.173 A 
ATOM     59  F   UNL A   1      38.909  26.452  29.996  1.00  0.00    -0.203 F 
ATOM     60  C   UNL A   1      39.683  26.036  27.814  1.00  0.00     0.198 A 
ATOM     61  C   UNL A   1      41.124  27.618  26.728  1.00  0.00     0.198 A 
ATOM     62  F   UNL A   1      41.804  29.565  27.860  1.00  0.00    -0.203 F 
ATOM     63  F   UNL A   1      39.033  24.864  27.810  1.00  0.00    -0.200 F 
ATOM     64  C   UNL A   1      40.424  26.421  26.707  1.00  0.00     0.200 A 
ATOM     65  F   UNL A   1      41.830  27.998  25.654  1.00  0.00    -0.200 F 
ATOM     66  F   UNL A   1      40.471  25.634  25.624  1.00  0.00    -0.200 F 
ENDBRANCH  42  56
BRANCH  43  67
ATOM     67  C   UNL A   1      39.535  33.994  36.992  1.00  0.00     0.064 A 
ATOM     68  C   UNL A   1      38.780  33.566  38.094  1.00  0.00     0.173 A 
ATOM     69  C   UNL A   1      40.151  35.251  37.075  1.00  0.00     0.173 A 
ATOM     70  F   UNL A   1      38.155  32.379  38.055  1.00  0.00    -0.203 F 
ATOM     71  C   UNL A   1      38.627  34.370  39.221  1.00  0.00     0.198 A 
ATOM     72  C   UNL A   1      40.022  36.043  38.214  1.00  0.00     0.198 A 
ATOM     73  F   UNL A   1      40.892  35.704  36.053  1.00  0.00    -0.203 F 
ATOM     74  F   UNL A   1      37.862  33.955  40.239  1.00  0.00    -0.200 F 
ATOM     75  C   UNL A   1      39.253  35.605  39.283  1.00  0.00     0.200 A 
ATOM     76  F   UNL A   1      40.641  37.230  38.277  1.00  0.00    -0.200 F 
ATOM     77  F   UNL A   1      39.110  36.378  40.368  1.00  0.00    -0.200 F 
ENDBRANCH  43  67
BRANCH  55  78
ATOM     78  C   UNL A   1      43.897  28.860  35.219  1.00  0.00     0.064 A 
ATOM     79  C   UNL A   1      43.758  27.756  36.073  1.00  0.00     0.173 A 
ATOM     80  C   UNL A   1      45.190  29.357  34.990  1.00  0.00     0.173 A 
ATOM     81  F   UNL A   1      42.541  27.255  36.334  1.00  0.00    -0.203 F 
ATOM     82  C   UNL A   1      44.867  27.186  36.691  1.00  0.00     0.198 A 
ATOM     83  C   UNL A   1      46.300  28.766  35.587  1.00  0.00     0.198 A 
ATOM     84  F   UNL A   1      45.377  30.406  34.176  1.00  0.00    -0.203 F 
ATOM     85  F   UNL A   1      44.706  26.161  37.537  1.00  0.00    -0.200 F 
ATOM     86  C   UNL A   1      46.137  27.686  36.441  1.00  0.00     0.200 A 
ATOM     87  F   UNL A   1      47.528  29.241  35.334  1.00  0.00    -0.200 F 
ATOM     88  F   UNL A   1      47.205  27.129  37.031  1.00  0.00    -0.200 F 
ENDBRANCH  55  78
ENDBRANCH  29  30
ENDBRANCH  21  24
ENDBRANCH  19  20
ENDBRANCH   1  19
TORSDOF 12
ENDMDL
MODEL 2
REMARK VINA RESULT:     -12.0      6.373     11.709
REMARK SMILES CC(C)=CC[N@H+]1CCCC[C@H]1C(=O)NCCCNC(=O)c1ccc(-c2c3nc(c(-c4c(F)c(F)c(F)c(F)c4F)c4ccc([nH]4)c(-c4c(F)c(F)c(F)c(F)c4F)c4nc(c(-c5c(F)c(F)c(F)c(F)c5F)c5ccc2[nH]5)C=C4)C=C3)cc1
REMARK SMILES IDX 16 1 15 2 14 3 12 4 13 5 11 7 6 8 7 9 8 11 10 12 9 13 5 14
REMARK SMILES IDX 4 15 1 16 2 17 3 18 17 19 18 20 19 21 20 23 21 24 22 25
REMARK SMILES IDX 83 26 23 27 82 28 24 29 25 30 26 31 76 32 27 33 81 34 75 35
REMARK SMILES IDX 77 36 28 37 80 38 74 39 73 40 29 42 61 43 41 44 60 45 42 46
REMARK SMILES IDX 45 47 59 48 78 49 43 50 44 51 58 53 79 54 46 55 30 56 31 57
REMARK SMILES IDX 39 58 32 59 33 60 37 61 40 62 34 63 35 64 38 65 36 66 62 67
REMARK SMILES IDX 63 68 71 69 64 70 65 71 69 72 72 73 66 74 67 75 70 76 68 77
REMARK SMILES IDX 47 78 48 79 56 80 49 81 50 82 54 83 57 84 51 85 52 86 55 87
REMARK SMILES IDX 53 88
REMARK H PARENT 14 6 6 10 18 22 77 41 45 52
REMARK Flexibility Score: inf
ROOT
ATOM      1  C   UNL A   1      38.056  19.927  24.986  1.00  0.00     0.042 C 
ENDROOT
BRANCH   1   2
ATOM      2  C   UNL A   1      37.044  21.048  24.891  1.00  0.00     0.118 C 
BRANCH   2   3
ATOM      3  N   UNL A   1      36.182  21.227  26.036  1.00  0.00    -0.351 N 
ATOM      4  C   UNL A   1      34.892  21.663  26.130  1.00  0.00     0.278 C 
ATOM      5  O   UNL A   1      34.401  21.545  27.259  1.00  0.00    -0.268 OA
ATOM      6  H   UNL A   1      36.598  20.998  26.898  1.00  0.00     0.163 HD
BRANCH   4   7
ATOM      7  C   UNL A   1      34.112  22.338  24.950  1.00  0.00     0.274 C 
ATOM      8  N   UNL A   1      32.620  22.424  25.087  1.00  0.00    -0.321 N 
ATOM      9  C   UNL A   1      32.243  23.166  26.292  1.00  0.00     0.263 C 
ATOM     10  H   UNL A   1      32.267  22.960  24.294  1.00  0.00     0.349 HD
ATOM     11  C   UNL A   1      32.703  24.619  26.175  1.00  0.00     0.062 C 
ATOM     12  C   UNL A   1      34.619  23.782  24.737  1.00  0.00     0.076 C 
ATOM     13  C   UNL A   1      34.186  24.749  25.845  1.00  0.00     0.012 C 
BRANCH   8  14
ATOM     14  C   UNL A   1      31.975  21.131  24.978  1.00  0.00     0.291 C 
BRANCH  14  15
ATOM     15  C   UNL A   1      32.379  20.155  23.911  1.00  0.00     0.032 C 
ATOM     16  C   UNL A   1      32.687  18.263  25.559  1.00  0.00     0.039 C 
ATOM     17  C   UNL A   1      32.615  18.845  24.165  1.00  0.00    -0.075 C 
ATOM     18  C   UNL A   1      32.742  17.840  23.056  1.00  0.00     0.039 C 
ENDBRANCH  14  15
ENDBRANCH   8  14
ENDBRANCH   4   7
ENDBRANCH   2   3
ENDBRANCH   1   2
BRANCH   1  19
ATOM     19  C   UNL A   1      39.246  20.221  25.881  1.00  0.00     0.118 C 
BRANCH  19  20
ATOM     20  N   UNL A   1      40.269  19.180  25.892  1.00  0.00    -0.352 N 
ATOM     21  C   UNL A   1      41.630  19.225  26.092  1.00  0.00     0.251 C 
ATOM     22  H   UNL A   1      39.919  18.274  25.725  1.00  0.00     0.163 HD
ATOM     23  O   UNL A   1      42.292  18.197  25.964  1.00  0.00    -0.269 OA
BRANCH  21  24
ATOM     24  C   UNL A   1      42.319  20.497  26.404  1.00  0.00     0.039 A 
ATOM     25  C   UNL A   1      42.859  21.257  25.361  1.00  0.00     0.014 A 
ATOM     26  C   UNL A   1      42.434  20.957  27.713  1.00  0.00     0.014 A 
ATOM     27  C   UNL A   1      43.402  22.519  25.626  1.00  0.00     0.010 A 
ATOM     28  C   UNL A   1      42.831  22.265  27.955  1.00  0.00     0.010 A 
ATOM     29  C   UNL A   1      43.331  23.062  26.917  1.00  0.00    -0.014 A 
BRANCH  29  30
ATOM     30  C   UNL A   1      43.791  24.443  27.228  1.00  0.00     0.031 A 
ATOM     31  C   UNL A   1      42.812  25.457  27.759  1.00  0.00     0.074 A 
ATOM     32  C   UNL A   1      45.053  24.814  26.935  1.00  0.00     0.049 A 
ATOM     33  N   UNL A   1      42.969  26.743  27.949  1.00  0.00    -0.248 NA
ATOM     34  C   UNL A   1      41.458  24.971  28.072  1.00  0.00     0.031 C 
ATOM     35  C   UNL A   1      46.081  23.949  26.354  1.00  0.00     0.029 A 
ATOM     36  N   UNL A   1      45.683  26.026  27.072  1.00  0.00    -0.354 N 
ATOM     37  C   UNL A   1      41.730  27.217  28.361  1.00  0.00     0.074 A 
ATOM     38  C   UNL A   1      40.816  26.098  28.330  1.00  0.00     0.031 C 
ATOM     39  C   UNL A   1      47.221  24.646  26.217  1.00  0.00     0.029 A 
ATOM     40  C   UNL A   1      46.992  26.019  26.655  1.00  0.00     0.049 A 
ATOM     41  H   UNL A   1      45.239  26.826  27.436  1.00  0.00     0.167 HD
ATOM     42  C   UNL A   1      41.390  28.465  28.763  1.00  0.00     0.037 A 
ATOM     43  C   UNL A   1      47.905  27.009  26.625  1.00  0.00     0.037 A 
ATOM     44  C   UNL A   1      42.317  29.561  28.853  1.00  0.00     0.049 A 
ATOM     45  C   UNL A   1      47.514  28.379  27.111  1.00  0.00     0.074 A 
ATOM     46  C   UNL A   1      42.096  30.842  29.326  1.00  0.00     0.029 A 
ATOM     47  N   UNL A   1      43.649  29.498  28.469  1.00  0.00    -0.354 N 
ATOM     48  N   UNL A   1      46.356  28.797  27.562  1.00  0.00    -0.248 NA
ATOM     49  C   UNL A   1      48.558  29.412  27.089  1.00  0.00     0.031 C 
ATOM     50  C   UNL A   1      43.285  31.566  29.193  1.00  0.00     0.029 A 
ATOM     51  C   UNL A   1      44.259  30.723  28.681  1.00  0.00     0.049 A 
ATOM     52  H   UNL A   1      44.094  28.702  28.100  1.00  0.00     0.167 HD
ATOM     53  C   UNL A   1      46.539  30.130  27.905  1.00  0.00     0.074 A 
ATOM     54  C   UNL A   1      47.924  30.447  27.622  1.00  0.00     0.031 C 
ATOM     55  C   UNL A   1      45.642  31.013  28.405  1.00  0.00     0.037 A 
BRANCH  42  56
ATOM     56  C   UNL A   1      39.960  28.704  29.156  1.00  0.00     0.064 A 
ATOM     57  C   UNL A   1      39.013  29.181  28.235  1.00  0.00     0.173 A 
ATOM     58  C   UNL A   1      39.523  28.430  30.461  1.00  0.00     0.173 A 
ATOM     59  F   UNL A   1      39.380  29.470  26.978  1.00  0.00    -0.203 F 
ATOM     60  C   UNL A   1      37.693  29.410  28.617  1.00  0.00     0.198 A 
ATOM     61  C   UNL A   1      38.195  28.629  30.829  1.00  0.00     0.198 A 
ATOM     62  F   UNL A   1      40.385  27.967  31.379  1.00  0.00    -0.203 F 
ATOM     63  F   UNL A   1      36.824  29.923  27.736  1.00  0.00    -0.200 F 
ATOM     64  C   UNL A   1      37.284  29.128  29.911  1.00  0.00     0.200 A 
ATOM     65  F   UNL A   1      37.798  28.343  32.077  1.00  0.00    -0.200 F 
ATOM     66  F   UNL A   1      36.013  29.344  30.275  1.00  0.00    -0.200 F 
ENDBRANCH  42  56
BRANCH  43  67
ATOM     67  C   UNL A   1      49.286  26.735  26.150  1.00  0.00     0.064 A 
ATOM     68  C   UNL A   1      49.645  26.976  24.815  1.00  0.00     0.173 A 
ATOM     69  C   UNL A   1      50.273  26.229  27.008  1.00  0.00     0.173 A 
ATOM     70  F   UNL A   1      48.731  27.441  23.951  1.00  0.00    -0.203 F 
ATOM     71  C   UNL A   1      50.930  26.700  24.353  1.00  0.00     0.198 A 
ATOM     72  C   UNL A   1      51.565  25.981  26.551  1.00  0.00     0.198 A 
ATOM     73  F   UNL A   1      49.984  25.990  28.295  1.00  0.00    -0.203 F 
ATOM     74  F   UNL A   1      51.231  26.896  23.062  1.00  0.00    -0.200 F 
ATOM     75  C   UNL A   1      51.891  26.208  25.223  1.00  0.00     0.200 A 
ATOM     76  F   UNL A   1      52.496  25.520  27.398  1.00  0.00    -0.200 F 
ATOM     77  F   UNL A   1      53.128  25.947  24.779  1.00  0.00    -0.200 F 
ENDBRANCH  43  67
BRANCH  55  78
ATOM     78  C   UNL A   1      46.137  32.394  28.718  1.00  0.00     0.064 A 
ATOM     79  C   UNL A   1      46.690  32.713  29.967  1.00  0.00     0.173 A 
ATOM     80  C   UNL A   1      46.099  33.399  27.739  1.00  0.00     0.173 A 
ATOM     81  F   UNL A   1      46.735  31.790  30.939  1.00  0.00    -0.203 F 
ATOM     82  C   UNL A   1      47.166  33.994  30.232  1.00  0.00     0.198 A 
ATOM     83  C   UNL A   1      46.602  34.671  27.997  1.00  0.00     0.198 A 
ATOM     84  F   UNL A   1      45.585  33.142  26.526  1.00  0.00    -0.203 F 
ATOM     85  F   UNL A   1      47.650  34.288  31.445  1.00  0.00    -0.200 F 
ATOM     86  C   UNL A   1      47.129  34.968  29.244  1.00  0.00     0.200 A 
ATOM     87  F   UNL A   1      46.578  35.607  27.039  1.00  0.00    -0.200 F 
ATOM     88  F   UNL A   1      47.596  36.199  29.499  1.00  0.00    -0.200 F 
ENDBRANCH  55  78
ENDBRANCH  29  30
ENDBRANCH  21  24
ENDBRANCH  19  20
ENDBRANCH   1  19
TORSDOF 12
ENDMDL
MODEL 3
REMARK VINA RESULT:     -12.0      0.585      7.684
REMARK SMILES CC(C)=CC[N@H+]1CCCC[C@H]1C(=O)NCCCNC(=O)c1ccc(-c2c3nc(c(-c4c(F)c(F)c(F)c(F)c4F)c4ccc([nH]4)c(-c4c(F)c(F)c(F)c(F)c4F)c4nc(c(-c5c(F)c(F)c(F)c(F)c5F)c5ccc2[nH]5)C=C4)C=C3)cc1
REMARK SMILES IDX 16 1 15 2 14 3 12 4 13 5 11 7 6 8 7 9 8 11 10 12 9 13 5 14
REMARK SMILES IDX 4 15 1 16 2 17 3 18 17 19 18 20 19 21 20 23 21 24 22 25
REMARK SMILES IDX 83 26 23 27 82 28 24 29 25 30 26 31 76 32 27 33 81 34 75 35
REMARK SMILES IDX 77 36 28 37 80 38 74 39 73 40 29 42 61 43 41 44 60 45 42 46
REMARK SMILES IDX 45 47 59 48 78 49 43 50 44 51 58 53 79 54 46 55 30 56 31 57
REMARK SMILES IDX 39 58 32 59 33 60 37 61 40 62 34 63 35 64 38 65 36 66 62 67
REMARK SMILES IDX 63 68 71 69 64 70 65 71 69 72 72 73 66 74 67 75 70 76 68 77
REMARK SMILES IDX 47 78 48 79 56 80 49 81 50 82 54 83 57 84 51 85 52 86 55 87
REMARK SMILES IDX 53 88
REMARK H PARENT 14 6 6 10 18 22 77 41 45 52
REMARK Flexibility Score: inf
ROOT
ATOM      1  C   UNL A   1      31.403  32.149  26.646  1.00  0.00     0.042 C 
ENDROOT
BRANCH   1   2
ATOM      2  C   UNL A   1      31.581  30.663  26.423  1.00  0.00     0.118 C 
BRANCH   2   3
ATOM      3  N   UNL A   1      32.486  30.281  25.364  1.00  0.00    -0.351 N 
ATOM      4  C   UNL A   1      32.583  29.130  24.636  1.00  0.00     0.278 C 
ATOM      5  O   UNL A   1      33.378  29.197  23.691  1.00  0.00    -0.268 OA
ATOM      6  H   UNL A   1      33.150  30.969  25.128  1.00  0.00     0.163 HD
BRANCH   4   7
ATOM      7  C   UNL A   1      31.833  27.803  24.999  1.00  0.00     0.274 C 
ATOM      8  N   UNL A   1      31.677  26.791  23.903  1.00  0.00    -0.321 N 
ATOM      9  C   UNL A   1      32.981  26.382  23.374  1.00  0.00     0.263 C 
ATOM     10  H   UNL A   1      31.254  25.957  24.309  1.00  0.00     0.349 HD
ATOM     11  C   UNL A   1      33.778  25.655  24.458  1.00  0.00     0.062 C 
ATOM     12  C   UNL A   1      32.557  27.085  26.161  1.00  0.00     0.076 C 
ATOM     13  C   UNL A   1      33.892  26.457  25.750  1.00  0.00     0.012 C 
BRANCH   8  14
ATOM     14  C   UNL A   1      30.746  27.220  22.878  1.00  0.00     0.291 C 
BRANCH  14  15
ATOM     15  C   UNL A   1      29.314  27.517  23.213  1.00  0.00     0.032 C 
ATOM     16  C   UNL A   1      29.558  29.981  22.705  1.00  0.00     0.039 C 
ATOM     17  C   UNL A   1      28.761  28.744  23.052  1.00  0.00    -0.075 C 
ATOM     18  C   UNL A   1      27.276  28.953  23.125  1.00  0.00     0.039 C 
ENDBRANCH  14  15
ENDBRANCH   8  14
ENDBRANCH   4   7
ENDBRANCH   2   3
ENDBRANCH   1   2
BRANCH   1  19
ATOM     19  C   UNL A   1      32.657  32.878  27.090  1.00  0.00     0.118 C 
BRANCH  19  20
ATOM     20  N   UNL A   1      32.422  34.216  27.626  1.00  0.00    -0.352 N 
ATOM     21  C   UNL A   1      33.020  34.918  28.648  1.00  0.00     0.251 C 
ATOM     22  H   UNL A   1      31.701  34.708  27.170  1.00  0.00     0.163 HD
ATOM     23  O   UNL A   1      32.573  36.019  28.964  1.00  0.00    -0.269 OA
BRANCH  21  24
ATOM     24  C   UNL A   1      34.155  34.350  29.410  1.00  0.00     0.039 A 
ATOM     25  C   UNL A   1      33.898  33.601  30.563  1.00  0.00     0.014 A 
ATOM     26  C   UNL A   1      35.471  34.540  28.999  1.00  0.00     0.014 A 
ATOM     27  C   UNL A   1      34.948  32.954  31.223  1.00  0.00     0.010 A 
ATOM     28  C   UNL A   1      36.488  33.780  29.560  1.00  0.00     0.010 A 
ATOM     29  C   UNL A   1      36.245  32.984  30.687  1.00  0.00    -0.014 A 
BRANCH  29  30
ATOM     30  C   UNL A   1      37.373  32.221  31.287  1.00  0.00     0.031 A 
ATOM     31  C   UNL A   1      37.871  32.579  32.663  1.00  0.00     0.074 A 
ATOM     32  C   UNL A   1      38.015  31.285  30.561  1.00  0.00     0.049 A 
ATOM     33  N   UNL A   1      38.929  32.147  33.302  1.00  0.00    -0.248 NA
ATOM     34  C   UNL A   1      37.106  33.598  33.401  1.00  0.00     0.031 C 
ATOM     35  C   UNL A   1      37.677  30.891  29.192  1.00  0.00     0.029 A 
ATOM     36  N   UNL A   1      39.101  30.504  30.869  1.00  0.00    -0.354 N 
ATOM     37  C   UNL A   1      38.973  32.868  34.489  1.00  0.00     0.074 A 
ATOM     38  C   UNL A   1      37.878  33.810  34.454  1.00  0.00     0.031 C 
ATOM     39  C   UNL A   1      38.514  29.920  28.792  1.00  0.00     0.029 A 
ATOM     40  C   UNL A   1      39.477  29.656  29.856  1.00  0.00     0.049 A 
ATOM     41  H   UNL A   1      39.567  30.546  31.736  1.00  0.00     0.167 HD
ATOM     42  C   UNL A   1      39.827  32.734  35.531  1.00  0.00     0.037 A 
ATOM     43  C   UNL A   1      40.487  28.767  29.790  1.00  0.00     0.037 A 
ATOM     44  C   UNL A   1      40.876  31.752  35.590  1.00  0.00     0.049 A 
ATOM     45  C   UNL A   1      41.401  28.611  30.975  1.00  0.00     0.074 A 
ATOM     46  C   UNL A   1      41.744  31.477  36.632  1.00  0.00     0.029 A 
ATOM     47  N   UNL A   1      41.192  30.876  34.562  1.00  0.00    -0.354 N 
ATOM     48  N   UNL A   1      41.391  29.252  32.118  1.00  0.00    -0.248 NA
ATOM     49  C   UNL A   1      42.465  27.604  30.862  1.00  0.00     0.031 C 
ATOM     50  C   UNL A   1      42.610  30.459  36.219  1.00  0.00     0.029 A 
ATOM     51  C   UNL A   1      42.251  30.068  34.938  1.00  0.00     0.049 A 
ATOM     52  H   UNL A   1      40.732  30.835  33.693  1.00  0.00     0.167 HD
ATOM     53  C   UNL A   1      42.422  28.708  32.871  1.00  0.00     0.074 A 
ATOM     54  C   UNL A   1      43.030  27.673  32.059  1.00  0.00     0.031 C 
ATOM     55  C   UNL A   1      42.832  29.035  34.120  1.00  0.00     0.037 A 
BRANCH  42  56
ATOM     56  C   UNL A   1      39.648  33.659  36.701  1.00  0.00     0.064 A 
ATOM     57  C   UNL A   1      40.296  34.904  36.762  1.00  0.00     0.173 A 
ATOM     58  C   UNL A   1      38.799  33.311  37.762  1.00  0.00     0.173 A 
ATOM     59  F   UNL A   1      41.127  35.281  35.780  1.00  0.00    -0.203 F 
ATOM     60  C   UNL A   1      40.130  35.746  37.859  1.00  0.00     0.198 A 
ATOM     61  C   UNL A   1      38.610  34.170  38.842  1.00  0.00     0.198 A 
ATOM     62  F   UNL A   1      38.151  32.136  37.752  1.00  0.00    -0.203 F 
ATOM     63  F   UNL A   1      40.807  36.900  37.922  1.00  0.00    -0.200 F 
ATOM     64  C   UNL A   1      39.282  35.382  38.894  1.00  0.00     0.200 A 
ATOM     65  F   UNL A   1      37.780  33.823  39.836  1.00  0.00    -0.200 F 
ATOM     66  F   UNL A   1      39.120  36.195  39.947  1.00  0.00    -0.200 F 
ENDBRANCH  42  56
BRANCH  43  67
ATOM     67  C   UNL A   1      40.667  27.933  28.574  1.00  0.00     0.064 A 
ATOM     68  C   UNL A   1      41.469  28.379  27.512  1.00  0.00     0.173 A 
ATOM     69  C   UNL A   1      40.049  26.681  28.441  1.00  0.00     0.173 A 
ATOM     70  F   UNL A   1      42.065  29.578  27.583  1.00  0.00    -0.203 F 
ATOM     71  C   UNL A   1      41.625  27.616  26.356  1.00  0.00     0.198 A 
ATOM     72  C   UNL A   1      40.229  25.907  27.298  1.00  0.00     0.198 A 
ATOM     73  F   UNL A   1      39.280  26.205  29.431  1.00  0.00    -0.203 F 
ATOM     74  F   UNL A   1      42.358  28.087  25.340  1.00  0.00    -0.200 F 
ATOM     75  C   UNL A   1      41.010  26.378  26.253  1.00  0.00     0.200 A 
ATOM     76  F   UNL A   1      39.646  24.703  27.207  1.00  0.00    -0.200 F 
ATOM     77  F   UNL A   1      41.164  25.642  25.144  1.00  0.00    -0.200 F 
ENDBRANCH  43  67
BRANCH  55  78
ATOM     78  C   UNL A   1      43.965  28.243  34.703  1.00  0.00     0.064 A 
ATOM     79  C   UNL A   1      43.744  27.044  35.396  1.00  0.00     0.173 A 
ATOM     80  C   UNL A   1      45.291  28.667  34.525  1.00  0.00     0.173 A 
ATOM     81  F   UNL A   1      42.494  26.605  35.604  1.00  0.00    -0.203 F 
ATOM     82  C   UNL A   1      44.809  26.309  35.910  1.00  0.00     0.198 A 
ATOM     83  C   UNL A   1      46.355  27.915  35.014  1.00  0.00     0.198 A 
ATOM     84  F   UNL A   1      45.555  29.803  33.863  1.00  0.00    -0.203 F 
ATOM     85  F   UNL A   1      44.573  25.190  36.606  1.00  0.00    -0.200 F 
ATOM     86  C   UNL A   1      46.113  26.741  35.712  1.00  0.00     0.200 A 
ATOM     87  F   UNL A   1      47.614  28.326  34.811  1.00  0.00    -0.200 F 
ATOM     88  F   UNL A   1      47.137  26.027  36.200  1.00  0.00    -0.200 F 
ENDBRANCH  55  78
ENDBRANCH  29  30
ENDBRANCH  21  24
ENDBRANCH  19  20
ENDBRANCH   1  19
TORSDOF 12
ENDMDL
