MODEL 1
REMARK VINA RESULT:     -12.6      0.000      0.000
REMARK SMILES CC[C@@H](Oc1ccc(/C=C2\SC(=S)N(NC(=O)c3ccccc3O)C2=O)cc1)C(=O)NCCCNC(=O)c1ccc(-c2c3nc(c(-c4c(F)c(F)c(F)c(F)c4F)c4ccc([nH]4)c(-c4c(F)c(F)c(F)c(F)c4F)c4nc(c(-c5c(F)c(F)c(F)c(F)c5F)c5ccc2[nH]5)C=C4)C=C3)cc1
REMARK SMILES IDX 29 1 30 2 31 3 3 5 2 6 1 7 4 8 5 9 6 10 28 11 7 12 27 13
REMARK SMILES IDX 8 14 9 15 10 16 11 17 25 18 12 19 14 20 26 21 13 22 15 23
REMARK SMILES IDX 16 24 17 26 18 27 19 28 23 29 20 30 22 31 21 32 24 33 32 35
REMARK SMILES IDX 33 36 34 37 35 38 36 39 37 41 38 42 39 43 100 44 40 45 99 46
REMARK SMILES IDX 41 47 42 48 43 49 93 50 44 51 98 52 92 53 94 54 45 55 97 56
REMARK SMILES IDX 91 57 90 58 46 60 78 61 58 62 77 63 59 64 62 65 76 66 95 67
REMARK SMILES IDX 60 68 61 69 75 71 96 72 63 73 47 74 48 75 56 76 49 77 50 78
REMARK SMILES IDX 54 79 57 80 51 81 52 82 55 83 53 84 79 85 80 86 88 87 81 88
REMARK SMILES IDX 82 89 86 90 89 91 83 92 84 93 87 94 85 95 64 96 65 97 73 98
REMARK SMILES IDX 66 99 67 100 71 101 74 102 68 103 69 104 72 105 70 106
REMARK H PARENT 31 4 15 25 24 34 35 40 94 59 62 70
REMARK Flexibility Score: inf
ROOT
ATOM      1  C   UNL A   1      41.159  21.160  27.044  1.00  0.00     0.261 C 
ATOM      2  O   UNL A   1      41.132  20.074  27.630  1.00  0.00    -0.271 OA
ATOM      3  N   UNL A   1      42.224  21.407  26.209  1.00  0.00    -0.353 N 
ATOM      4  H   UNL A   1      42.908  20.698  26.189  1.00  0.00     0.163 HD
ENDROOT
BRANCH   1   5
ATOM      5  C   UNL A   1      40.062  22.225  27.278  1.00  0.00     0.261 C 
BRANCH   5   6
ATOM      6  C   UNL A   1      40.730  23.409  27.998  1.00  0.00     0.052 C 
ATOM      7  C   UNL A   1      40.657  24.756  27.294  1.00  0.00     0.008 C 
ENDBRANCH   5   6
BRANCH   5   8
ATOM      8  O   UNL A   1      39.596  22.441  25.947  1.00  0.00    -0.481 OA
BRANCH   8   9
ATOM      9  C   UNL A   1      38.295  22.448  25.578  1.00  0.00     0.120 A 
ATOM     10  C   UNL A   1      37.643  23.644  25.893  1.00  0.00     0.047 A 
ATOM     11  C   UNL A   1      37.572  21.417  25.000  1.00  0.00     0.047 A 
ATOM     12  C   UNL A   1      36.265  23.772  25.743  1.00  0.00     0.012 A 
ATOM     13  C   UNL A   1      36.179  21.521  24.885  1.00  0.00     0.012 A 
ATOM     14  C   UNL A   1      35.518  22.686  25.293  1.00  0.00    -0.024 A 
BRANCH  14  15
ATOM     15  C   UNL A   1      34.059  22.773  25.343  1.00  0.00     0.029 C 
ATOM     16  C   UNL A   1      33.314  23.339  24.383  1.00  0.00     0.082 C 
ATOM     17  S   UNL A   1      33.858  24.150  22.960  1.00  0.00    -0.052 SA
ATOM     18  C   UNL A   1      31.833  23.401  24.471  1.00  0.00     0.285 C 
ATOM     19  C   UNL A   1      32.275  24.845  22.648  1.00  0.00     0.168 C 
ATOM     20  N   UNL A   1      31.381  24.367  23.587  1.00  0.00    -0.198 N 
ATOM     21  O   UNL A   1      31.159  22.685  25.206  1.00  0.00    -0.266 OA
ATOM     22  S   UNL A   1      31.960  25.897  21.392  1.00  0.00    -0.050 S 
BRANCH  20  23
ATOM     23  N   UNL A   1      30.050  24.808  23.601  1.00  0.00    -0.254 N 
ATOM     24  C   UNL A   1      29.624  26.025  24.095  1.00  0.00     0.274 C 
ATOM     25  H   UNL A   1      29.368  24.204  23.230  1.00  0.00     0.192 HD
ATOM     26  O   UNL A   1      28.469  26.402  23.913  1.00  0.00    -0.267 OA
BRANCH  24  27
ATOM     27  C   UNL A   1      30.529  26.869  24.901  1.00  0.00     0.083 A 
ATOM     28  C   UNL A   1      30.903  28.098  24.340  1.00  0.00     0.018 A 
ATOM     29  C   UNL A   1      30.953  26.539  26.192  1.00  0.00     0.128 A 
ATOM     30  C   UNL A   1      31.641  29.014  25.090  1.00  0.00     0.001 A 
ATOM     31  C   UNL A   1      31.671  27.463  26.948  1.00  0.00     0.047 A 
ATOM     32  C   UNL A   1      32.012  28.701  26.399  1.00  0.00     0.004 A 
BRANCH  29  33
ATOM     33  O   UNL A   1      30.677  25.340  26.788  1.00  0.00    -0.507 OA
ATOM     34  H   UNL A   1      29.858  25.211  27.224  1.00  0.00     0.293 HD
ENDBRANCH  29  33
ENDBRANCH  24  27
ENDBRANCH  20  23
ENDBRANCH  14  15
ENDBRANCH   8   9
ENDBRANCH   5   8
ENDBRANCH   1   5
BRANCH   3  35
ATOM     35  C   UNL A   1      42.502  22.551  25.347  1.00  0.00     0.118 C 
BRANCH  35  36
ATOM     36  C   UNL A   1      43.967  22.638  24.919  1.00  0.00     0.042 C 
BRANCH  36  37
ATOM     37  C   UNL A   1      44.855  23.460  25.845  1.00  0.00     0.118 C 
BRANCH  37  38
ATOM     38  N   UNL A   1      45.549  24.534  25.151  1.00  0.00    -0.352 N 
ATOM     39  C   UNL A   1      45.551  25.891  25.351  1.00  0.00     0.251 C 
ATOM     40  H   UNL A   1      46.116  24.233  24.406  1.00  0.00     0.163 HD
ATOM     41  O   UNL A   1      46.095  26.608  24.513  1.00  0.00    -0.269 OA
BRANCH  39  42
ATOM     42  C   UNL A   1      44.906  26.521  26.529  1.00  0.00     0.039 A 
ATOM     43  C   UNL A   1      44.954  27.916  26.636  1.00  0.00     0.014 A 
ATOM     44  C   UNL A   1      44.324  25.778  27.559  1.00  0.00     0.014 A 
ATOM     45  C   UNL A   1      44.378  28.561  27.735  1.00  0.00     0.010 A 
ATOM     46  C   UNL A   1      43.684  26.425  28.622  1.00  0.00     0.010 A 
ATOM     47  C   UNL A   1      43.707  27.822  28.723  1.00  0.00    -0.014 A 
BRANCH  47  48
ATOM     48  C   UNL A   1      43.025  28.512  29.849  1.00  0.00     0.031 A 
ATOM     49  C   UNL A   1      41.637  29.069  29.689  1.00  0.00     0.074 A 
ATOM     50  C   UNL A   1      43.674  28.664  31.021  1.00  0.00     0.049 A 
ATOM     51  N   UNL A   1      40.895  29.709  30.562  1.00  0.00    -0.248 NA
ATOM     52  C   UNL A   1      41.004  28.907  28.372  1.00  0.00     0.031 C 
ATOM     53  C   UNL A   1      45.042  28.219  31.292  1.00  0.00     0.029 A 
ATOM     54  N   UNL A   1      43.273  29.240  32.201  1.00  0.00    -0.354 N 
ATOM     55  C   UNL A   1      39.716  30.025  29.900  1.00  0.00     0.074 A 
ATOM     56  C   UNL A   1      39.860  29.553  28.538  1.00  0.00     0.031 C 
ATOM     57  C   UNL A   1      45.358  28.516  32.561  1.00  0.00     0.029 A 
ATOM     58  C   UNL A   1      44.229  29.200  33.186  1.00  0.00     0.049 A 
ATOM     59  H   UNL A   1      42.384  29.644  32.329  1.00  0.00     0.167 HD
ATOM     60  C   UNL A   1      38.606  30.629  30.388  1.00  0.00     0.037 A 
ATOM     61  C   UNL A   1      44.202  29.659  34.451  1.00  0.00     0.037 A 
ATOM     62  C   UNL A   1      38.455  31.085  31.746  1.00  0.00     0.049 A 
ATOM     63  C   UNL A   1      42.953  30.317  34.971  1.00  0.00     0.074 A 
ATOM     64  C   UNL A   1      37.350  31.669  32.344  1.00  0.00     0.029 A 
ATOM     65  N   UNL A   1      39.439  31.007  32.720  1.00  0.00    -0.354 N 
ATOM     66  N   UNL A   1      41.823  30.553  34.351  1.00  0.00    -0.248 NA
ATOM     67  C   UNL A   1      42.974  30.763  36.371  1.00  0.00     0.031 C 
ATOM     68  C   UNL A   1      37.678  31.978  33.668  1.00  0.00     0.029 A 
ATOM     69  C   UNL A   1      38.972  31.548  33.909  1.00  0.00     0.049 A 
ATOM     70  H   UNL A   1      40.336  30.625  32.587  1.00  0.00     0.167 HD
ATOM     71  C   UNL A   1      40.995  31.159  35.286  1.00  0.00     0.074 A 
ATOM     72  C   UNL A   1      41.744  31.230  36.523  1.00  0.00     0.031 C 
ATOM     73  C   UNL A   1      39.730  31.618  35.131  1.00  0.00     0.037 A 
BRANCH  60  74
ATOM     74  C   UNL A   1      37.453  30.827  29.447  1.00  0.00     0.064 A 
ATOM     75  C   UNL A   1      36.566  29.781  29.148  1.00  0.00     0.173 A 
ATOM     76  C   UNL A   1      37.200  32.084  28.878  1.00  0.00     0.173 A 
ATOM     77  F   UNL A   1      36.770  28.557  29.658  1.00  0.00    -0.203 F 
ATOM     78  C   UNL A   1      35.483  29.981  28.297  1.00  0.00     0.198 A 
ATOM     79  C   UNL A   1      36.099  32.287  28.048  1.00  0.00     0.198 A 
ATOM     80  F   UNL A   1      38.012  33.120  29.137  1.00  0.00    -0.203 F 
ATOM     81  F   UNL A   1      34.674  28.956  27.994  1.00  0.00    -0.200 F 
ATOM     82  C   UNL A   1      35.246  31.234  27.753  1.00  0.00     0.200 A 
ATOM     83  F   UNL A   1      35.865  33.503  27.534  1.00  0.00    -0.200 F 
ATOM     84  F   UNL A   1      34.197  31.427  26.941  1.00  0.00    -0.200 F 
ENDBRANCH  60  74
BRANCH  61  85
ATOM     85  C   UNL A   1      45.393  29.493  35.324  1.00  0.00     0.064 A 
ATOM     86  C   UNL A   1      46.410  30.456  35.347  1.00  0.00     0.173 A 
ATOM     87  C   UNL A   1      45.538  28.368  36.149  1.00  0.00     0.173 A 
ATOM     88  F   UNL A   1      46.326  31.538  34.560  1.00  0.00    -0.203 F 
ATOM     89  C   UNL A   1      47.539  30.290  36.146  1.00  0.00     0.198 A 
ATOM     90  C   UNL A   1      46.654  28.216  36.967  1.00  0.00     0.198 A 
ATOM     91  F   UNL A   1      44.588  27.421  36.165  1.00  0.00    -0.203 F 
ATOM     92  F   UNL A   1      48.520  31.203  36.115  1.00  0.00    -0.200 F 
ATOM     93  C   UNL A   1      47.657  29.173  36.959  1.00  0.00     0.200 A 
ATOM     94  F   UNL A   1      46.758  27.142  37.763  1.00  0.00    -0.200 F 
ATOM     95  F   UNL A   1      48.742  29.016  37.730  1.00  0.00    -0.200 F 
ENDBRANCH  61  85
BRANCH  73  96
ATOM     96  C   UNL A   1      39.074  32.229  36.336  1.00  0.00     0.064 A 
ATOM     97  C   UNL A   1      39.308  33.563  36.700  1.00  0.00     0.173 A 
ATOM     98  C   UNL A   1      38.193  31.475  37.127  1.00  0.00     0.173 A 
ATOM     99  F   UNL A   1      40.154  34.319  35.986  1.00  0.00    -0.203 F 
ATOM    100  C   UNL A   1      38.707  34.111  37.831  1.00  0.00     0.198 A 
ATOM    101  C   UNL A   1      37.574  32.036  38.240  1.00  0.00     0.198 A 
ATOM    102  F   UNL A   1      37.932  30.196  36.819  1.00  0.00    -0.203 F 
ATOM    103  F   UNL A   1      38.987  35.372  38.190  1.00  0.00    -0.200 F 
ATOM    104  C   UNL A   1      37.837  33.350  38.597  1.00  0.00     0.200 A 
ATOM    105  F   UNL A   1      36.725  31.302  38.974  1.00  0.00    -0.200 F 
ATOM    106  F   UNL A   1      37.262  33.879  39.684  1.00  0.00    -0.200 F 
ENDBRANCH  73  96
ENDBRANCH  47  48
ENDBRANCH  39  42
ENDBRANCH  37  38
ENDBRANCH  36  37
ENDBRANCH  35  36
ENDBRANCH   3  35
TORSDOF 17
ENDMDL
MODEL 2
REMARK VINA RESULT:     -12.4      5.320     12.475
REMARK SMILES CC[C@@H](Oc1ccc(/C=C2\SC(=S)N(NC(=O)c3ccccc3O)C2=O)cc1)C(=O)NCCCNC(=O)c1ccc(-c2c3nc(c(-c4c(F)c(F)c(F)c(F)c4F)c4ccc([nH]4)c(-c4c(F)c(F)c(F)c(F)c4F)c4nc(c(-c5c(F)c(F)c(F)c(F)c5F)c5ccc2[nH]5)C=C4)C=C3)cc1
REMARK SMILES IDX 29 1 30 2 31 3 3 5 2 6 1 7 4 8 5 9 6 10 28 11 7 12 27 13
REMARK SMILES IDX 8 14 9 15 10 16 11 17 25 18 12 19 14 20 26 21 13 22 15 23
REMARK SMILES IDX 16 24 17 26 18 27 19 28 23 29 20 30 22 31 21 32 24 33 32 35
REMARK SMILES IDX 33 36 34 37 35 38 36 39 37 41 38 42 39 43 100 44 40 45 99 46
REMARK SMILES IDX 41 47 42 48 43 49 93 50 44 51 98 52 92 53 94 54 45 55 97 56
REMARK SMILES IDX 91 57 90 58 46 60 78 61 58 62 77 63 59 64 62 65 76 66 95 67
REMARK SMILES IDX 60 68 61 69 75 71 96 72 63 73 47 74 48 75 56 76 49 77 50 78
REMARK SMILES IDX 54 79 57 80 51 81 52 82 55 83 53 84 79 85 80 86 88 87 81 88
REMARK SMILES IDX 82 89 86 90 89 91 83 92 84 93 87 94 85 95 64 96 65 97 73 98
REMARK SMILES IDX 66 99 67 100 71 101 74 102 68 103 69 104 72 105 70 106
REMARK H PARENT 31 4 15 25 24 34 35 40 94 59 62 70
REMARK Flexibility Score: inf
ROOT
ATOM      1  C   UNL A   1      35.508  33.157  33.271  1.00  0.00     0.261 C 
ATOM      2  O   UNL A   1      35.094  33.637  34.330  1.00  0.00    -0.271 OA
ATOM      3  N   UNL A   1      34.573  32.761  32.342  1.00  0.00    -0.353 N 
ATOM      4  H   UNL A   1      33.636  32.855  32.631  1.00  0.00     0.163 HD
ENDROOT
BRANCH   1   5
ATOM      5  C   UNL A   1      37.021  32.962  33.017  1.00  0.00     0.261 C 
BRANCH   5   6
ATOM      6  C   UNL A   1      37.672  34.355  33.075  1.00  0.00     0.052 C 
ATOM      7  C   UNL A   1      39.005  34.510  32.360  1.00  0.00     0.008 C 
ENDBRANCH   5   6
BRANCH   5   8
ATOM      8  O   UNL A   1      37.358  32.035  34.048  1.00  0.00    -0.481 OA
BRANCH   8   9
ATOM      9  C   UNL A   1      38.386  31.159  33.990  1.00  0.00     0.120 A 
ATOM     10  C   UNL A   1      39.465  31.528  34.799  1.00  0.00     0.047 A 
ATOM     11  C   UNL A   1      38.489  30.021  33.206  1.00  0.00     0.047 A 
ATOM     12  C   UNL A   1      40.675  30.841  34.740  1.00  0.00     0.012 A 
ATOM     13  C   UNL A   1      39.715  29.350  33.108  1.00  0.00     0.012 A 
ATOM     14  C   UNL A   1      40.823  29.783  33.846  1.00  0.00    -0.024 A 
BRANCH  14  15
ATOM     15  C   UNL A   1      42.157  29.216  33.650  1.00  0.00     0.029 C 
ATOM     16  C   UNL A   1      42.703  28.301  34.464  1.00  0.00     0.082 C 
ATOM     17  S   UNL A   1      42.049  27.660  35.926  1.00  0.00    -0.052 SA
ATOM     18  C   UNL A   1      44.060  27.747  34.224  1.00  0.00     0.285 C 
ATOM     19  C   UNL A   1      43.586  26.957  36.406  1.00  0.00     0.168 C 
ATOM     20  N   UNL A   1      44.509  27.167  35.400  1.00  0.00    -0.198 N 
ATOM     21  O   UNL A   1      44.641  27.799  33.145  1.00  0.00    -0.266 OA
ATOM     22  S   UNL A   1      43.828  26.163  37.853  1.00  0.00    -0.050 S 
BRANCH  20  23
ATOM     23  N   UNL A   1      45.841  26.753  35.549  1.00  0.00    -0.254 N 
ATOM     24  C   UNL A   1      46.361  25.569  35.066  1.00  0.00     0.274 C 
ATOM     25  H   UNL A   1      46.452  27.353  36.035  1.00  0.00     0.192 HD
ATOM     26  O   UNL A   1      47.573  25.364  35.091  1.00  0.00    -0.267 OA
BRANCH  24  27
ATOM     27  C   UNL A   1      45.470  24.503  34.565  1.00  0.00     0.083 A 
ATOM     28  C   UNL A   1      44.921  23.644  35.527  1.00  0.00     0.018 A 
ATOM     29  C   UNL A   1      45.102  24.367  33.223  1.00  0.00     0.128 A 
ATOM     30  C   UNL A   1      43.962  22.701  35.156  1.00  0.00     0.001 A 
ATOM     31  C   UNL A   1      44.129  23.438  32.857  1.00  0.00     0.047 A 
ATOM     32  C   UNL A   1      43.557  22.608  33.824  1.00  0.00     0.004 A 
BRANCH  29  33
ATOM     33  O   UNL A   1      45.633  25.128  32.219  1.00  0.00    -0.507 OA
ATOM     34  H   UNL A   1      45.473  24.901  31.324  1.00  0.00     0.293 HD
ENDBRANCH  29  33
ENDBRANCH  24  27
ENDBRANCH  20  23
ENDBRANCH  14  15
ENDBRANCH   8   9
ENDBRANCH   5   8
ENDBRANCH   1   5
BRANCH   3  35
ATOM     35  C   UNL A   1      34.749  32.224  30.996  1.00  0.00     0.118 C 
BRANCH  35  36
ATOM     36  C   UNL A   1      34.422  33.237  29.899  1.00  0.00     0.042 C 
BRANCH  36  37
ATOM     37  C   UNL A   1      34.657  32.736  28.479  1.00  0.00     0.118 C 
BRANCH  37  38
ATOM     38  N   UNL A   1      34.019  31.455  28.222  1.00  0.00    -0.352 N 
ATOM     39  C   UNL A   1      34.541  30.195  28.071  1.00  0.00     0.251 C 
ATOM     40  H   UNL A   1      33.039  31.499  28.142  1.00  0.00     0.163 HD
ATOM     41  O   UNL A   1      33.798  29.292  27.689  1.00  0.00    -0.269 OA
BRANCH  39  42
ATOM     42  C   UNL A   1      35.969  29.891  28.335  1.00  0.00     0.039 A 
ATOM     43  C   UNL A   1      36.878  30.044  27.281  1.00  0.00     0.014 A 
ATOM     44  C   UNL A   1      36.422  29.394  29.560  1.00  0.00     0.014 A 
ATOM     45  C   UNL A   1      38.233  29.754  27.469  1.00  0.00     0.010 A 
ATOM     46  C   UNL A   1      37.787  29.174  29.770  1.00  0.00     0.010 A 
ATOM     47  C   UNL A   1      38.707  29.347  28.727  1.00  0.00    -0.014 A 
BRANCH  47  48
ATOM     48  C   UNL A   1      40.158  29.117  28.949  1.00  0.00     0.031 A 
ATOM     49  C   UNL A   1      41.009  30.147  29.641  1.00  0.00     0.074 A 
ATOM     50  C   UNL A   1      40.724  27.979  28.498  1.00  0.00     0.049 A 
ATOM     51  N   UNL A   1      42.292  30.117  29.910  1.00  0.00    -0.248 NA
ATOM     52  C   UNL A   1      40.337  31.383  30.069  1.00  0.00     0.031 C 
ATOM     53  C   UNL A   1      40.023  26.923  27.765  1.00  0.00     0.029 A 
ATOM     54  N   UNL A   1      42.016  27.524  28.584  1.00  0.00    -0.354 N 
ATOM     55  C   UNL A   1      42.579  31.325  30.533  1.00  0.00     0.074 A 
ATOM     56  C   UNL A   1      41.349  32.088  30.557  1.00  0.00     0.031 C 
ATOM     57  C   UNL A   1      40.887  25.934  27.488  1.00  0.00     0.029 A 
ATOM     58  C   UNL A   1      42.207  26.297  27.996  1.00  0.00     0.049 A 
ATOM     59  H   UNL A   1      42.737  28.028  29.024  1.00  0.00     0.167 HD
ATOM     60  C   UNL A   1      43.753  31.749  31.060  1.00  0.00     0.037 A 
ATOM     61  C   UNL A   1      43.319  25.546  27.879  1.00  0.00     0.037 A 
ATOM     62  C   UNL A   1      44.975  30.985  31.052  1.00  0.00     0.049 A 
ATOM     63  C   UNL A   1      44.606  26.036  28.483  1.00  0.00     0.074 A 
ATOM     64  C   UNL A   1      46.203  31.314  31.600  1.00  0.00     0.029 A 
ATOM     65  N   UNL A   1      45.123  29.737  30.465  1.00  0.00    -0.354 N 
ATOM     66  N   UNL A   1      44.848  27.153  29.124  1.00  0.00    -0.248 NA
ATOM     67  C   UNL A   1      45.774  25.154  28.354  1.00  0.00     0.031 C 
ATOM     68  C   UNL A   1      47.104  30.282  31.314  1.00  0.00     0.029 A 
ATOM     69  C   UNL A   1      46.426  29.290  30.624  1.00  0.00     0.049 A 
ATOM     70  H   UNL A   1      44.409  29.242  30.003  1.00  0.00     0.167 HD
ATOM     71  C   UNL A   1      46.186  27.102  29.488  1.00  0.00     0.074 A 
ATOM     72  C   UNL A   1      46.698  25.831  29.019  1.00  0.00     0.031 C 
ATOM     73  C   UNL A   1      46.925  28.027  30.148  1.00  0.00     0.037 A 
BRANCH  60  74
ATOM     74  C   UNL A   1      43.775  33.104  31.704  1.00  0.00     0.064 A 
ATOM     75  C   UNL A   1      43.664  33.254  33.095  1.00  0.00     0.173 A 
ATOM     76  C   UNL A   1      43.961  34.261  30.932  1.00  0.00     0.173 A 
ATOM     77  F   UNL A   1      43.475  32.180  33.876  1.00  0.00    -0.203 F 
ATOM     78  C   UNL A   1      43.714  34.514  33.687  1.00  0.00     0.198 A 
ATOM     79  C   UNL A   1      44.037  35.517  31.531  1.00  0.00     0.198 A 
ATOM     80  F   UNL A   1      44.081  34.174  29.598  1.00  0.00    -0.203 F 
ATOM     81  F   UNL A   1      43.564  34.635  35.013  1.00  0.00    -0.200 F 
ATOM     82  C   UNL A   1      43.908  35.643  32.905  1.00  0.00     0.200 A 
ATOM     83  F   UNL A   1      44.238  36.607  30.775  1.00  0.00    -0.200 F 
ATOM     84  F   UNL A   1      43.965  36.853  33.477  1.00  0.00    -0.200 F 
ENDBRANCH  60  74
BRANCH  61  85
ATOM     85  C   UNL A   1      43.257  24.238  27.178  1.00  0.00     0.064 A 
ATOM     86  C   UNL A   1      42.829  23.082  27.844  1.00  0.00     0.173 A 
ATOM     87  C   UNL A   1      43.630  24.118  25.831  1.00  0.00     0.173 A 
ATOM     88  F   UNL A   1      42.483  23.145  29.138  1.00  0.00    -0.203 F 
ATOM     89  C   UNL A   1      42.794  21.850  27.195  1.00  0.00     0.198 A 
ATOM     90  C   UNL A   1      43.570  22.890  25.177  1.00  0.00     0.198 A 
ATOM     91  F   UNL A   1      44.043  25.196  25.149  1.00  0.00    -0.203 F 
ATOM     92  F   UNL A   1      42.424  20.751  27.868  1.00  0.00    -0.200 F 
ATOM     93  C   UNL A   1      43.160  21.756  25.861  1.00  0.00     0.200 A 
ATOM     94  F   UNL A   1      43.910  22.806  23.883  1.00  0.00    -0.200 F 
ATOM     95  F   UNL A   1      43.123  20.571  25.237  1.00  0.00    -0.200 F 
ENDBRANCH  61  85
BRANCH  73  96
ATOM     96  C   UNL A   1      48.364  27.689  30.409  1.00  0.00     0.064 A 
ATOM     97  C   UNL A   1      48.772  27.108  31.619  1.00  0.00     0.173 A 
ATOM     98  C   UNL A   1      49.343  27.936  29.435  1.00  0.00     0.173 A 
ATOM     99  F   UNL A   1      47.876  26.868  32.588  1.00  0.00    -0.203 F 
ATOM    100  C   UNL A   1      50.113  26.816  31.856  1.00  0.00     0.198 A 
ATOM    101  C   UNL A   1      50.678  27.617  29.665  1.00  0.00     0.198 A 
ATOM    102  F   UNL A   1      49.004  28.485  28.258  1.00  0.00    -0.203 F 
ATOM    103  F   UNL A   1      50.487  26.312  33.040  1.00  0.00    -0.200 F 
ATOM    104  C   UNL A   1      51.064  27.066  30.878  1.00  0.00     0.200 A 
ATOM    105  F   UNL A   1      51.594  27.849  28.715  1.00  0.00    -0.200 F 
ATOM    106  F   UNL A   1      52.353  26.786  31.108  1.00  0.00    -0.200 F 
ENDBRANCH  73  96
ENDBRANCH  47  48
ENDBRANCH  39  42
ENDBRANCH  37  38
ENDBRANCH  36  37
ENDBRANCH  35  36
ENDBRANCH   3  35
TORSDOF 17
ENDMDL
MODEL 3
REMARK VINA RESULT:     -12.2      4.752      9.300
REMARK SMILES CC[C@@H](Oc1ccc(/C=C2\SC(=S)N(NC(=O)c3ccccc3O)C2=O)cc1)C(=O)NCCCNC(=O)c1ccc(-c2c3nc(c(-c4c(F)c(F)c(F)c(F)c4F)c4ccc([nH]4)c(-c4c(F)c(F)c(F)c(F)c4F)c4nc(c(-c5c(F)c(F)c(F)c(F)c5F)c5ccc2[nH]5)C=C4)C=C3)cc1
REMARK SMILES IDX 29 1 30 2 31 3 3 5 2 6 1 7 4 8 5 9 6 10 28 11 7 12 27 13
REMARK SMILES IDX 8 14 9 15 10 16 11 17 25 18 12 19 14 20 26 21 13 22 15 23
REMARK SMILES IDX 16 24 17 26 18 27 19 28 23 29 20 30 22 31 21 32 24 33 32 35
REMARK SMILES IDX 33 36 34 37 35 38 36 39 37 41 38 42 39 43 100 44 40 45 99 46
REMARK SMILES IDX 41 47 42 48 43 49 93 50 44 51 98 52 92 53 94 54 45 55 97 56
REMARK SMILES IDX 91 57 90 58 46 60 78 61 58 62 77 63 59 64 62 65 76 66 95 67
REMARK SMILES IDX 60 68 61 69 75 71 96 72 63 73 47 74 48 75 56 76 49 77 50 78
REMARK SMILES IDX 54 79 57 80 51 81 52 82 55 83 53 84 79 85 80 86 88 87 81 88
REMARK SMILES IDX 82 89 86 90 89 91 83 92 84 93 87 94 85 95 64 96 65 97 73 98
REMARK SMILES IDX 66 99 67 100 71 101 74 102 68 103 69 104 72 105 70 106
REMARK H PARENT 31 4 15 25 24 34 35 40 94 59 62 70
REMARK Flexibility Score: inf
ROOT
ATOM      1  C   UNL A   1      39.975  19.573  25.923  1.00  0.00     0.261 C 
ATOM      2  O   UNL A   1      39.023  19.018  25.369  1.00  0.00    -0.271 OA
ATOM      3  N   UNL A   1      41.112  18.828  26.135  1.00  0.00    -0.353 N 
ATOM      4  H   UNL A   1      41.046  17.884  25.861  1.00  0.00     0.163 HD
ENDROOT
BRANCH   1   5
ATOM      5  C   UNL A   1      39.877  21.039  26.408  1.00  0.00     0.261 C 
BRANCH   5   6
ATOM      6  C   UNL A   1      41.309  21.601  26.439  1.00  0.00     0.052 C 
ATOM      7  C   UNL A   1      41.765  22.221  27.750  1.00  0.00     0.008 C 
ENDBRANCH   5   6
BRANCH   5   8
ATOM      8  O   UNL A   1      38.974  21.589  25.450  1.00  0.00    -0.481 OA
BRANCH   8   9
ATOM      9  C   UNL A   1      37.794  22.175  25.751  1.00  0.00     0.120 A 
ATOM     10  C   UNL A   1      36.718  21.282  25.729  1.00  0.00     0.047 A 
ATOM     11  C   UNL A   1      37.555  23.515  26.011  1.00  0.00     0.047 A 
ATOM     12  C   UNL A   1      35.407  21.735  25.847  1.00  0.00     0.012 A 
ATOM     13  C   UNL A   1      36.237  23.985  26.088  1.00  0.00     0.012 A 
ATOM     14  C   UNL A   1      35.158  23.101  25.966  1.00  0.00    -0.024 A 
BRANCH  14  15
ATOM     15  C   UNL A   1      33.776  23.569  25.877  1.00  0.00     0.029 C 
ATOM     16  C   UNL A   1      33.193  23.954  24.732  1.00  0.00     0.082 C 
ATOM     17  S   UNL A   1      33.912  24.081  23.169  1.00  0.00    -0.052 SA
ATOM     18  C   UNL A   1      31.783  24.418  24.686  1.00  0.00     0.285 C 
ATOM     19  C   UNL A   1      32.565  25.012  22.531  1.00  0.00     0.168 C 
ATOM     20  N   UNL A   1      31.591  25.117  23.506  1.00  0.00    -0.198 N 
ATOM     21  O   UNL A   1      30.954  24.183  25.561  1.00  0.00    -0.266 OA
ATOM     22  S   UNL A   1      32.521  25.632  20.983  1.00  0.00    -0.050 S 
BRANCH  20  23
ATOM     23  N   UNL A   1      30.424  25.862  23.277  1.00  0.00    -0.254 N 
ATOM     24  C   UNL A   1      30.287  27.214  23.522  1.00  0.00     0.274 C 
ATOM     25  H   UNL A   1      29.644  25.385  22.915  1.00  0.00     0.192 HD
ATOM     26  O   UNL A   1      29.291  27.820  23.134  1.00  0.00    -0.267 OA
BRANCH  24  27
ATOM     27  C   UNL A   1      31.305  27.945  24.304  1.00  0.00     0.083 A 
ATOM     28  C   UNL A   1      31.346  27.680  25.680  1.00  0.00     0.018 A 
ATOM     29  C   UNL A   1      32.250  28.805  23.735  1.00  0.00     0.128 A 
ATOM     30  C   UNL A   1      32.364  28.221  26.466  1.00  0.00     0.001 A 
ATOM     31  C   UNL A   1      33.278  29.328  24.518  1.00  0.00     0.047 A 
ATOM     32  C   UNL A   1      33.336  29.032  25.881  1.00  0.00     0.004 A 
BRANCH  29  33
ATOM     33  O   UNL A   1      32.244  29.157  22.414  1.00  0.00    -0.507 OA
ATOM     34  H   UNL A   1      32.089  30.047  22.167  1.00  0.00     0.293 HD
ENDBRANCH  29  33
ENDBRANCH  24  27
ENDBRANCH  20  23
ENDBRANCH  14  15
ENDBRANCH   8   9
ENDBRANCH   5   8
ENDBRANCH   1   5
BRANCH   3  35
ATOM     35  C   UNL A   1      42.401  19.213  26.701  1.00  0.00     0.118 C 
BRANCH  35  36
ATOM     36  C   UNL A   1      43.407  18.063  26.739  1.00  0.00     0.042 C 
BRANCH  36  37
ATOM     37  C   UNL A   1      44.774  18.392  26.152  1.00  0.00     0.118 C 
BRANCH  37  38
ATOM     38  N   UNL A   1      44.755  18.485  24.701  1.00  0.00    -0.352 N 
ATOM     39  C   UNL A   1      44.706  19.569  23.861  1.00  0.00     0.251 C 
ATOM     40  H   UNL A   1      44.781  17.617  24.239  1.00  0.00     0.163 HD
ATOM     41  O   UNL A   1      44.528  19.376  22.660  1.00  0.00    -0.269 OA
BRANCH  39  42
ATOM     42  C   UNL A   1      44.843  20.962  24.354  1.00  0.00     0.039 A 
ATOM     43  C   UNL A   1      45.501  21.165  25.573  1.00  0.00     0.014 A 
ATOM     44  C   UNL A   1      44.281  22.057  23.692  1.00  0.00     0.014 A 
ATOM     45  C   UNL A   1      45.642  22.455  26.094  1.00  0.00     0.010 A 
ATOM     46  C   UNL A   1      44.485  23.354  24.174  1.00  0.00     0.010 A 
ATOM     47  C   UNL A   1      45.164  23.567  25.382  1.00  0.00    -0.014 A 
BRANCH  47  48
ATOM     48  C   UNL A   1      45.385  24.945  25.895  1.00  0.00     0.031 A 
ATOM     49  C   UNL A   1      46.746  25.584  25.836  1.00  0.00     0.074 A 
ATOM     50  C   UNL A   1      44.355  25.617  26.446  1.00  0.00     0.049 A 
ATOM     51  N   UNL A   1      47.121  26.772  26.246  1.00  0.00    -0.248 NA
ATOM     52  C   UNL A   1      47.833  24.778  25.262  1.00  0.00     0.031 C 
ATOM     53  C   UNL A   1      42.998  25.093  26.613  1.00  0.00     0.029 A 
ATOM     54  N   UNL A   1      44.289  26.884  26.972  1.00  0.00    -0.354 N 
ATOM     55  C   UNL A   1      48.482  26.853  25.982  1.00  0.00     0.074 A 
ATOM     56  C   UNL A   1      48.879  25.577  25.425  1.00  0.00     0.031 C 
ATOM     57  C   UNL A   1      42.229  26.036  27.179  1.00  0.00     0.029 A 
ATOM     58  C   UNL A   1      43.043  27.219  27.443  1.00  0.00     0.049 A 
ATOM     59  H   UNL A   1      45.061  27.493  27.009  1.00  0.00     0.167 HD
ATOM     60  C   UNL A   1      49.319  27.903  26.164  1.00  0.00     0.037 A 
ATOM     61  C   UNL A   1      42.603  28.352  28.022  1.00  0.00     0.037 A 
ATOM     62  C   UNL A   1      48.924  29.179  26.703  1.00  0.00     0.049 A 
ATOM     63  C   UNL A   1      43.551  29.506  28.201  1.00  0.00     0.074 A 
ATOM     64  C   UNL A   1      49.693  30.317  26.882  1.00  0.00     0.029 A 
ATOM     65  N   UNL A   1      47.648  29.488  27.149  1.00  0.00    -0.354 N 
ATOM     66  N   UNL A   1      44.821  29.590  27.890  1.00  0.00    -0.248 NA
ATOM     67  C   UNL A   1      42.999  30.727  28.805  1.00  0.00     0.031 C 
ATOM     68  C   UNL A   1      48.892  31.301  27.471  1.00  0.00     0.029 A 
ATOM     69  C   UNL A   1      47.612  30.792  27.619  1.00  0.00     0.049 A 
ATOM     70  H   UNL A   1      46.881  28.871  27.135  1.00  0.00     0.167 HD
ATOM     71  C   UNL A   1      45.216  30.872  28.243  1.00  0.00     0.074 A 
ATOM     72  C   UNL A   1      44.044  31.541  28.769  1.00  0.00     0.031 C 
ATOM     73  C   UNL A   1      46.442  31.443  28.145  1.00  0.00     0.037 A 
BRANCH  60  74
ATOM     74  C   UNL A   1      50.755  27.722  25.764  1.00  0.00     0.064 A 
ATOM     75  C   UNL A   1      51.734  27.354  26.701  1.00  0.00     0.173 A 
ATOM     76  C   UNL A   1      51.150  27.867  24.426  1.00  0.00     0.173 A 
ATOM     77  F   UNL A   1      51.409  27.213  27.995  1.00  0.00    -0.203 F 
ATOM     78  C   UNL A   1      53.058  27.161  26.317  1.00  0.00     0.198 A 
ATOM     79  C   UNL A   1      52.471  27.646  24.041  1.00  0.00     0.198 A 
ATOM     80  F   UNL A   1      50.253  28.210  23.488  1.00  0.00    -0.203 F 
ATOM     81  F   UNL A   1      53.981  26.850  27.236  1.00  0.00    -0.200 F 
ATOM     82  C   UNL A   1      53.424  27.300  24.987  1.00  0.00     0.200 A 
ATOM     83  F   UNL A   1      52.821  27.768  22.752  1.00  0.00    -0.200 F 
ATOM     84  F   UNL A   1      54.697  27.104  24.616  1.00  0.00    -0.200 F 
ENDBRANCH  60  74
BRANCH  61  85
ATOM     85  C   UNL A   1      41.186  28.459  28.455  1.00  0.00     0.064 A 
ATOM     86  C   UNL A   1      40.200  28.941  27.584  1.00  0.00     0.173 A 
ATOM     87  C   UNL A   1      40.792  28.086  29.749  1.00  0.00     0.173 A 
ATOM     88  F   UNL A   1      40.533  29.330  26.346  1.00  0.00    -0.203 F 
ATOM     89  C   UNL A   1      38.875  29.065  27.997  1.00  0.00     0.198 A 
ATOM     90  C   UNL A   1      39.462  28.185  30.151  1.00  0.00     0.198 A 
ATOM     91  F   UNL A   1      41.698  27.614  30.618  1.00  0.00    -0.203 F 
ATOM     92  F   UNL A   1      37.960  29.573  27.160  1.00  0.00    -0.200 F 
ATOM     93  C   UNL A   1      38.507  28.682  29.278  1.00  0.00     0.200 A 
ATOM     94  F   UNL A   1      39.107  27.801  31.385  1.00  0.00    -0.200 F 
ATOM     95  F   UNL A   1      37.231  28.799  29.673  1.00  0.00    -0.200 F 
ENDBRANCH  61  85
BRANCH  73  96
ATOM     96  C   UNL A   1      46.570  32.865  28.607  1.00  0.00     0.064 A 
ATOM     97  C   UNL A   1      46.914  33.178  29.930  1.00  0.00     0.173 A 
ATOM     98  C   UNL A   1      46.360  33.927  27.713  1.00  0.00     0.173 A 
ATOM     99  F   UNL A   1      47.108  32.200  30.826  1.00  0.00    -0.203 F 
ATOM    100  C   UNL A   1      47.012  34.503  30.350  1.00  0.00     0.198 A 
ATOM    101  C   UNL A   1      46.486  35.249  28.130  1.00  0.00     0.198 A 
ATOM    102  F   UNL A   1      46.034  33.681  26.435  1.00  0.00    -0.203 F 
ATOM    103  F   UNL A   1      47.289  34.778  31.632  1.00  0.00    -0.200 F 
ATOM    104  C   UNL A   1      46.803  35.536  29.449  1.00  0.00     0.200 A 
ATOM    105  F   UNL A   1      46.294  36.247  27.256  1.00  0.00    -0.200 F 
ATOM    106  F   UNL A   1      46.896  36.809  29.855  1.00  0.00    -0.200 F 
ENDBRANCH  73  96
ENDBRANCH  47  48
ENDBRANCH  39  42
ENDBRANCH  37  38
ENDBRANCH  36  37
ENDBRANCH  35  36
ENDBRANCH   3  35
TORSDOF 17
ENDMDL
