MODEL 1
REMARK VINA RESULT:     -11.8      0.000      0.000
REMARK SMILES CCC(CC)(NC(=O)c1ccc(N)c(F)c1)C(=O)NCCCNC(=O)c1ccc(-c2c3nc(c(-c4c(F)c(F)c(F)c(F)c4F)c4ccc([nH]4)c(-c4c(F)c(F)c(F)c(F)c4F)c4nc(c(-c5c(F)c(F)c(F)c(F)c5F)c5ccc2[nH]5)C=C4)C=C3)cc1
REMARK SMILES IDX 20 1 19 2 17 3 18 4 3 6 2 7 1 8 4 9 5 10 6 11 7 12 8 14 9 15
REMARK SMILES IDX 10 16 16 17 11 18 14 19 12 20 15 21 13 22 21 25 22 26 23 27
REMARK SMILES IDX 24 28 25 30 26 31 27 32 88 33 28 34 87 35 29 36 30 37 31 38
REMARK SMILES IDX 81 39 32 40 86 41 80 42 82 43 33 44 85 45 79 46 78 47 34 49
REMARK SMILES IDX 66 50 46 51 65 52 47 53 50 54 64 55 83 56 48 57 49 58 63 60
REMARK SMILES IDX 84 61 51 62 35 63 36 64 44 65 37 66 38 67 42 68 45 69 39 70
REMARK SMILES IDX 40 71 43 72 41 73 67 74 68 75 76 76 69 77 70 78 74 79 77 80
REMARK SMILES IDX 71 81 72 82 75 83 73 84 52 85 53 86 61 87 54 88 55 89 59 90
REMARK SMILES IDX 62 91 56 92 57 93 60 94 58 95
REMARK H PARENT 19 5 6 13 13 23 13 24 23 29 82 48 50 59
REMARK Flexibility Score: inf
ROOT
ATOM      1  C   UNL A   1      31.434  30.345  25.994  1.00  0.00     0.117 C 
ENDROOT
BRANCH   1   2
ATOM      2  N   UNL A   1      31.280  30.035  24.575  1.00  0.00    -0.354 N 
ATOM      3  C   UNL A   1      31.591  28.956  23.775  1.00  0.00     0.245 C 
ATOM      4  O   UNL A   1      31.199  29.039  22.607  1.00  0.00    -0.272 OA
ATOM      5  H   UNL A   1      30.855  30.767  24.072  1.00  0.00     0.163 HD
BRANCH   3   6
ATOM      6  C   UNL A   1      32.319  27.677  24.308  1.00  0.00     0.118 C 
BRANCH   6   7
ATOM      7  C   UNL A   1      31.541  26.903  25.418  1.00  0.00     0.035 C 
ATOM      8  C   UNL A   1      30.211  26.251  25.056  1.00  0.00     0.007 C 
ENDBRANCH   6   7
BRANCH   6   9
ATOM      9  C   UNL A   1      33.627  28.305  24.910  1.00  0.00     0.035 C 
ATOM     10  C   UNL A   1      34.030  27.951  26.330  1.00  0.00     0.007 C 
ENDBRANCH   6   9
BRANCH   6  11
ATOM     11  N   UNL A   1      32.623  26.663  23.236  1.00  0.00    -0.338 N 
ATOM     12  C   UNL A   1      33.534  25.605  23.163  1.00  0.00     0.252 C 
ATOM     13  H   UNL A   1      32.071  26.766  22.426  1.00  0.00     0.164 HD
ATOM     14  O   UNL A   1      34.018  25.371  22.052  1.00  0.00    -0.269 OA
BRANCH  12  15
ATOM     15  C   UNL A   1      33.891  24.664  24.282  1.00  0.00     0.042 A 
ATOM     16  C   UNL A   1      33.105  23.571  24.595  1.00  0.00     0.016 A 
ATOM     17  C   UNL A   1      35.142  24.702  24.911  1.00  0.00     0.055 A 
ATOM     18  C   UNL A   1      33.447  22.573  25.503  1.00  0.00     0.029 A 
ATOM     19  C   UNL A   1      35.523  23.675  25.801  1.00  0.00     0.146 A 
ATOM     20  C   UNL A   1      34.673  22.607  26.129  1.00  0.00     0.068 A 
ATOM     21  F   UNL A   1      36.760  23.697  26.322  1.00  0.00    -0.205 F 
BRANCH  20  22
ATOM     22  N   UNL A   1      35.068  21.505  26.874  1.00  0.00    -0.396 N 
ATOM     23  H   UNL A   1      35.359  20.682  26.418  1.00  0.00     0.156 HD
ATOM     24  H   UNL A   1      35.058  21.547  27.857  1.00  0.00     0.156 HD
ENDBRANCH  20  22
ENDBRANCH  12  15
ENDBRANCH   6  11
ENDBRANCH   3   6
ENDBRANCH   1   2
BRANCH   1  25
ATOM     25  C   UNL A   1      31.305  31.800  26.456  1.00  0.00     0.042 C 
BRANCH  25  26
ATOM     26  C   UNL A   1      32.558  32.560  26.881  1.00  0.00     0.118 C 
BRANCH  26  27
ATOM     27  N   UNL A   1      32.315  33.869  27.444  1.00  0.00    -0.352 N 
ATOM     28  C   UNL A   1      33.024  34.559  28.397  1.00  0.00     0.251 C 
ATOM     29  H   UNL A   1      31.523  34.336  27.092  1.00  0.00     0.163 HD
ATOM     30  O   UNL A   1      32.632  35.663  28.755  1.00  0.00    -0.269 OA
BRANCH  28  31
ATOM     31  C   UNL A   1      34.227  33.972  29.034  1.00  0.00     0.039 A 
ATOM     32  C   UNL A   1      34.031  32.965  29.983  1.00  0.00     0.014 A 
ATOM     33  C   UNL A   1      35.522  34.418  28.752  1.00  0.00     0.014 A 
ATOM     34  C   UNL A   1      35.128  32.373  30.615  1.00  0.00     0.010 A 
ATOM     35  C   UNL A   1      36.623  33.787  29.344  1.00  0.00     0.010 A 
ATOM     36  C   UNL A   1      36.437  32.759  30.283  1.00  0.00    -0.014 A 
BRANCH  36  37
ATOM     37  C   UNL A   1      37.602  32.080  30.917  1.00  0.00     0.031 A 
ATOM     38  C   UNL A   1      38.062  32.468  32.296  1.00  0.00     0.074 A 
ATOM     39  C   UNL A   1      38.257  31.115  30.243  1.00  0.00     0.049 A 
ATOM     40  N   UNL A   1      39.051  31.984  33.006  1.00  0.00    -0.248 NA
ATOM     41  C   UNL A   1      37.323  33.551  32.960  1.00  0.00     0.031 C 
ATOM     42  C   UNL A   1      37.933  30.665  28.890  1.00  0.00     0.029 A 
ATOM     43  N   UNL A   1      39.333  30.339  30.602  1.00  0.00    -0.354 N 
ATOM     44  C   UNL A   1      39.056  32.704  34.195  1.00  0.00     0.074 A 
ATOM     45  C   UNL A   1      38.003  33.692  34.089  1.00  0.00     0.031 C 
ATOM     46  C   UNL A   1      38.775  29.678  28.540  1.00  0.00     0.029 A 
ATOM     47  C   UNL A   1      39.723  29.452  29.628  1.00  0.00     0.049 A 
ATOM     48  H   UNL A   1      39.783  30.413  31.474  1.00  0.00     0.167 HD
ATOM     49  C   UNL A   1      39.851  32.544  35.280  1.00  0.00     0.037 A 
ATOM     50  C   UNL A   1      40.736  28.564  29.605  1.00  0.00     0.037 A 
ATOM     51  C   UNL A   1      40.895  31.557  35.387  1.00  0.00     0.049 A 
ATOM     52  C   UNL A   1      41.627  28.431  30.812  1.00  0.00     0.074 A 
ATOM     53  C   UNL A   1      41.721  31.287  36.465  1.00  0.00     0.029 A 
ATOM     54  N   UNL A   1      41.268  30.686  34.374  1.00  0.00    -0.354 N 
ATOM     55  N   UNL A   1      41.574  29.068  31.956  1.00  0.00    -0.248 NA
ATOM     56  C   UNL A   1      42.717  27.448  30.726  1.00  0.00     0.031 C 
ATOM     57  C   UNL A   1      42.632  30.296  36.084  1.00  0.00     0.029 A 
ATOM     58  C   UNL A   1      42.332  29.899  34.791  1.00  0.00     0.049 A 
ATOM     59  H   UNL A   1      40.840  30.632  33.488  1.00  0.00     0.167 HD
ATOM     60  C   UNL A   1      42.598  28.544  32.734  1.00  0.00     0.074 A 
ATOM     61  C   UNL A   1      43.245  27.523  31.938  1.00  0.00     0.031 C 
ATOM     62  C   UNL A   1      42.966  28.879  33.996  1.00  0.00     0.037 A 
BRANCH  49  63
ATOM     63  C   UNL A   1      39.629  33.465  36.449  1.00  0.00     0.064 A 
ATOM     64  C   UNL A   1      40.217  34.737  36.507  1.00  0.00     0.173 A 
ATOM     65  C   UNL A   1      38.779  33.088  37.501  1.00  0.00     0.173 A 
ATOM     66  F   UNL A   1      41.042  35.146  35.532  1.00  0.00    -0.203 F 
ATOM     67  C   UNL A   1      39.989  35.584  37.590  1.00  0.00     0.198 A 
ATOM     68  C   UNL A   1      38.528  33.950  38.565  1.00  0.00     0.198 A 
ATOM     69  F   UNL A   1      38.181  31.887  37.492  1.00  0.00    -0.203 F 
ATOM     70  F   UNL A   1      40.603  36.774  37.648  1.00  0.00    -0.200 F 
ATOM     71  C   UNL A   1      39.139  35.193  38.613  1.00  0.00     0.200 A 
ATOM     72  F   UNL A   1      37.692  33.578  39.544  1.00  0.00    -0.200 F 
ATOM     73  F   UNL A   1      38.914  36.013  39.650  1.00  0.00    -0.200 F 
ENDBRANCH  49  63
BRANCH  50  74
ATOM     74  C   UNL A   1      40.958  27.718  28.402  1.00  0.00     0.064 A 
ATOM     75  C   UNL A   1      41.798  28.143  27.363  1.00  0.00     0.173 A 
ATOM     76  C   UNL A   1      40.322  26.476  28.257  1.00  0.00     0.173 A 
ATOM     77  F   UNL A   1      42.412  29.333  27.442  1.00  0.00    -0.203 F 
ATOM     78  C   UNL A   1      41.974  27.370  26.216  1.00  0.00     0.198 A 
ATOM     79  C   UNL A   1      40.524  25.689  27.126  1.00  0.00     0.198 A 
ATOM     80  F   UNL A   1      39.509  26.021  29.223  1.00  0.00    -0.203 F 
ATOM     81  F   UNL A   1      42.739  27.826  25.216  1.00  0.00    -0.200 F 
ATOM     82  C   UNL A   1      41.342  26.141  26.102  1.00  0.00     0.200 A 
ATOM     83  F   UNL A   1      39.925  24.495  27.026  1.00  0.00    -0.200 F 
ATOM     84  F   UNL A   1      41.514  25.397  25.001  1.00  0.00    -0.200 F 
ENDBRANCH  50  74
BRANCH  62  85
ATOM     85  C   UNL A   1      44.099  28.108  34.615  1.00  0.00     0.064 A 
ATOM     86  C   UNL A   1      45.425  28.561  34.556  1.00  0.00     0.173 A 
ATOM     87  C   UNL A   1      43.846  26.913  35.308  1.00  0.00     0.173 A 
ATOM     88  F   UNL A   1      45.724  29.689  33.894  1.00  0.00    -0.203 F 
ATOM     89  C   UNL A   1      46.458  27.834  35.142  1.00  0.00     0.198 A 
ATOM     90  C   UNL A   1      44.877  26.208  35.923  1.00  0.00     0.198 A 
ATOM     91  F   UNL A   1      42.596  26.436  35.401  1.00  0.00    -0.203 F 
ATOM     92  F   UNL A   1      47.724  28.260  35.026  1.00  0.00    -0.200 F 
ATOM     93  C   UNL A   1      46.183  26.664  35.832  1.00  0.00     0.200 A 
ATOM     94  F   UNL A   1      44.605  25.085  36.603  1.00  0.00    -0.200 F 
ATOM     95  F   UNL A   1      47.178  25.970  36.403  1.00  0.00    -0.200 F 
ENDBRANCH  62  85
ENDBRANCH  36  37
ENDBRANCH  28  31
ENDBRANCH  26  27
ENDBRANCH  25  26
ENDBRANCH   1  25
TORSDOF 15
ENDMDL
MODEL 2
REMARK VINA RESULT:     -11.7      5.291      9.649
REMARK SMILES CCC(CC)(NC(=O)c1ccc(N)c(F)c1)C(=O)NCCCNC(=O)c1ccc(-c2c3nc(c(-c4c(F)c(F)c(F)c(F)c4F)c4ccc([nH]4)c(-c4c(F)c(F)c(F)c(F)c4F)c4nc(c(-c5c(F)c(F)c(F)c(F)c5F)c5ccc2[nH]5)C=C4)C=C3)cc1
REMARK SMILES IDX 20 1 19 2 17 3 18 4 3 6 2 7 1 8 4 9 5 10 6 11 7 12 8 14 9 15
REMARK SMILES IDX 10 16 16 17 11 18 14 19 12 20 15 21 13 22 21 25 22 26 23 27
REMARK SMILES IDX 24 28 25 30 26 31 27 32 88 33 28 34 87 35 29 36 30 37 31 38
REMARK SMILES IDX 81 39 32 40 86 41 80 42 82 43 33 44 85 45 79 46 78 47 34 49
REMARK SMILES IDX 66 50 46 51 65 52 47 53 50 54 64 55 83 56 48 57 49 58 63 60
REMARK SMILES IDX 84 61 51 62 35 63 36 64 44 65 37 66 38 67 42 68 45 69 39 70
REMARK SMILES IDX 40 71 43 72 41 73 67 74 68 75 76 76 69 77 70 78 74 79 77 80
REMARK SMILES IDX 71 81 72 82 75 83 73 84 52 85 53 86 61 87 54 88 55 89 59 90
REMARK SMILES IDX 62 91 56 92 57 93 60 94 58 95
REMARK H PARENT 19 5 6 13 13 23 13 24 23 29 82 48 50 59
REMARK Flexibility Score: inf
ROOT
ATOM      1  C   UNL A   1      36.769  20.540  24.786  1.00  0.00     0.117 C 
ENDROOT
BRANCH   1   2
ATOM      2  N   UNL A   1      35.461  20.257  25.375  1.00  0.00    -0.354 N 
ATOM      3  C   UNL A   1      34.319  20.993  25.607  1.00  0.00     0.245 C 
ATOM      4  O   UNL A   1      33.362  20.351  26.049  1.00  0.00    -0.272 OA
ATOM      5  H   UNL A   1      35.377  19.324  25.678  1.00  0.00     0.163 HD
BRANCH   3   6
ATOM      6  C   UNL A   1      34.200  22.517  25.271  1.00  0.00     0.118 C 
BRANCH   6   7
ATOM      7  C   UNL A   1      34.409  22.867  23.764  1.00  0.00     0.035 C 
ATOM      8  C   UNL A   1      33.277  22.579  22.785  1.00  0.00     0.007 C 
ENDBRANCH   6   7
BRANCH   6   9
ATOM      9  C   UNL A   1      35.378  23.107  26.126  1.00  0.00     0.035 C 
ATOM     10  C   UNL A   1      36.348  24.078  25.476  1.00  0.00     0.007 C 
ENDBRANCH   6   9
BRANCH   6  11
ATOM     11  N   UNL A   1      32.872  23.119  25.652  1.00  0.00    -0.338 N 
ATOM     12  C   UNL A   1      32.484  24.416  25.998  1.00  0.00     0.252 C 
ATOM     13  H   UNL A   1      32.131  22.469  25.658  1.00  0.00     0.164 HD
ATOM     14  O   UNL A   1      31.583  24.516  26.835  1.00  0.00    -0.269 OA
BRANCH  12  15
ATOM     15  C   UNL A   1      32.983  25.689  25.367  1.00  0.00     0.042 A 
ATOM     16  C   UNL A   1      32.664  26.031  24.067  1.00  0.00     0.016 A 
ATOM     17  C   UNL A   1      33.592  26.699  26.121  1.00  0.00     0.055 A 
ATOM     18  C   UNL A   1      32.952  27.255  23.469  1.00  0.00     0.029 A 
ATOM     19  C   UNL A   1      33.851  27.960  25.544  1.00  0.00     0.146 A 
ATOM     20  C   UNL A   1      33.556  28.251  24.202  1.00  0.00     0.068 A 
ATOM     21  F   UNL A   1      34.360  28.933  26.316  1.00  0.00    -0.205 F 
BRANCH  20  22
ATOM     22  N   UNL A   1      33.653  29.518  23.646  1.00  0.00    -0.396 N 
ATOM     23  H   UNL A   1      33.500  29.645  22.682  1.00  0.00     0.156 HD
ATOM     24  H   UNL A   1      33.872  30.291  24.216  1.00  0.00     0.156 HD
ENDBRANCH  20  22
ENDBRANCH  12  15
ENDBRANCH   6  11
ENDBRANCH   3   6
ENDBRANCH   1   2
BRANCH   1  25
ATOM     25  C   UNL A   1      37.912  19.542  24.999  1.00  0.00     0.042 C 
BRANCH  25  26
ATOM     26  C   UNL A   1      39.091  19.938  25.883  1.00  0.00     0.118 C 
BRANCH  26  27
ATOM     27  N   UNL A   1      40.196  19.006  25.877  1.00  0.00    -0.352 N 
ATOM     28  C   UNL A   1      41.529  19.226  26.126  1.00  0.00     0.251 C 
ATOM     29  H   UNL A   1      39.958  18.076  25.662  1.00  0.00     0.163 HD
ATOM     30  O   UNL A   1      42.317  18.292  26.048  1.00  0.00    -0.269 OA
BRANCH  28  31
ATOM     31  C   UNL A   1      42.037  20.583  26.440  1.00  0.00     0.039 A 
ATOM     32  C   UNL A   1      42.321  21.433  25.367  1.00  0.00     0.014 A 
ATOM     33  C   UNL A   1      42.280  21.013  27.749  1.00  0.00     0.014 A 
ATOM     34  C   UNL A   1      42.801  22.724  25.603  1.00  0.00     0.010 A 
ATOM     35  C   UNL A   1      42.708  22.324  27.986  1.00  0.00     0.010 A 
ATOM     36  C   UNL A   1      42.975  23.193  26.915  1.00  0.00    -0.014 A 
BRANCH  36  37
ATOM     37  C   UNL A   1      43.429  24.591  27.157  1.00  0.00     0.031 A 
ATOM     38  C   UNL A   1      42.482  25.624  27.704  1.00  0.00     0.074 A 
ATOM     39  C   UNL A   1      44.700  24.937  26.872  1.00  0.00     0.049 A 
ATOM     40  N   UNL A   1      42.703  26.885  27.982  1.00  0.00    -0.248 NA
ATOM     41  C   UNL A   1      41.102  25.187  27.961  1.00  0.00     0.031 C 
ATOM     42  C   UNL A   1      45.711  24.041  26.311  1.00  0.00     0.029 A 
ATOM     43  N   UNL A   1      45.360  26.134  27.014  1.00  0.00    -0.354 N 
ATOM     44  C   UNL A   1      41.492  27.392  28.440  1.00  0.00     0.074 A 
ATOM     45  C   UNL A   1      40.529  26.315  28.355  1.00  0.00     0.031 C 
ATOM     46  C   UNL A   1      46.868  24.711  26.177  1.00  0.00     0.029 A 
ATOM     47  C   UNL A   1      46.671  26.093  26.605  1.00  0.00     0.049 A 
ATOM     48  H   UNL A   1      44.933  26.945  27.374  1.00  0.00     0.167 HD
ATOM     49  C   UNL A   1      41.215  28.634  28.907  1.00  0.00     0.037 A 
ATOM     50  C   UNL A   1      47.609  27.060  26.567  1.00  0.00     0.037 A 
ATOM     51  C   UNL A   1      42.175  29.704  28.997  1.00  0.00     0.049 A 
ATOM     52  C   UNL A   1      47.264  28.441  27.058  1.00  0.00     0.074 A 
ATOM     53  C   UNL A   1      42.000  30.982  29.500  1.00  0.00     0.029 A 
ATOM     54  N   UNL A   1      43.490  29.627  28.560  1.00  0.00    -0.354 N 
ATOM     55  N   UNL A   1      46.136  28.886  27.557  1.00  0.00    -0.248 NA
ATOM     56  C   UNL A   1      48.326  29.454  26.989  1.00  0.00     0.031 C 
ATOM     57  C   UNL A   1      43.188  31.695  29.313  1.00  0.00     0.029 A 
ATOM     58  C   UNL A   1      44.127  30.844  28.755  1.00  0.00     0.049 A 
ATOM     59  H   UNL A   1      43.910  28.826  28.170  1.00  0.00     0.167 HD
ATOM     60  C   UNL A   1      46.361  30.216  27.887  1.00  0.00     0.074 A 
ATOM     61  C   UNL A   1      47.740  30.501  27.550  1.00  0.00     0.031 C 
ATOM     62  C   UNL A   1      45.502  31.118  28.423  1.00  0.00     0.037 A 
BRANCH  49  63
ATOM     63  C   UNL A   1      39.806  28.911  29.355  1.00  0.00     0.064 A 
ATOM     64  C   UNL A   1      38.836  29.411  28.472  1.00  0.00     0.173 A 
ATOM     65  C   UNL A   1      39.409  28.629  30.672  1.00  0.00     0.173 A 
ATOM     66  F   UNL A   1      39.162  29.703  27.204  1.00  0.00    -0.203 F 
ATOM     67  C   UNL A   1      37.532  29.648  28.900  1.00  0.00     0.198 A 
ATOM     68  C   UNL A   1      38.096  28.837  31.086  1.00  0.00     0.198 A 
ATOM     69  F   UNL A   1      40.292  28.140  31.555  1.00  0.00    -0.203 F 
ATOM     70  F   UNL A   1      36.637  30.174  28.052  1.00  0.00    -0.200 F 
ATOM     71  C   UNL A   1      37.161  29.354  30.202  1.00  0.00     0.200 A 
ATOM     72  F   UNL A   1      37.734  28.535  32.340  1.00  0.00    -0.200 F 
ATOM     73  F   UNL A   1      35.903  29.575  30.609  1.00  0.00    -0.200 F 
ENDBRANCH  49  63
BRANCH  50  74
ATOM     74  C   UNL A   1      48.972  26.756  26.056  1.00  0.00     0.064 A 
ATOM     75  C   UNL A   1      49.968  26.253  26.905  1.00  0.00     0.173 A 
ATOM     76  C   UNL A   1      49.313  26.978  24.714  1.00  0.00     0.173 A 
ATOM     77  F   UNL A   1      49.700  26.045  28.203  1.00  0.00    -0.203 F 
ATOM     78  C   UNL A   1      51.258  26.007  26.437  1.00  0.00     0.198 A 
ATOM     79  C   UNL A   1      50.593  26.700  24.239  1.00  0.00     0.198 A 
ATOM     80  F   UNL A   1      48.398  27.457  23.858  1.00  0.00    -0.203 F 
ATOM     81  F   UNL A   1      52.203  25.578  27.283  1.00  0.00    -0.200 F 
ATOM     82  C   UNL A   1      51.567  26.225  25.104  1.00  0.00     0.200 A 
ATOM     83  F   UNL A   1      50.884  26.897  22.946  1.00  0.00    -0.200 F 
ATOM     84  F   UNL A   1      52.806  25.985  24.653  1.00  0.00    -0.200 F 
ENDBRANCH  50  74
BRANCH  62  85
ATOM     85  C   UNL A   1      46.036  32.492  28.718  1.00  0.00     0.064 A 
ATOM     86  C   UNL A   1      46.655  32.802  29.938  1.00  0.00     0.173 A 
ATOM     87  C   UNL A   1      45.958  33.505  27.749  1.00  0.00     0.173 A 
ATOM     88  F   UNL A   1      46.743  31.876  30.905  1.00  0.00    -0.203 F 
ATOM     89  C   UNL A   1      47.148  34.080  30.188  1.00  0.00     0.198 A 
ATOM     90  C   UNL A   1      46.485  34.771  27.989  1.00  0.00     0.198 A 
ATOM     91  F   UNL A   1      45.383  33.263  26.561  1.00  0.00    -0.203 F 
ATOM     92  F   UNL A   1      47.686  34.367  31.382  1.00  0.00    -0.200 F 
ATOM     93  C   UNL A   1      47.071  35.060  29.211  1.00  0.00     0.200 A 
ATOM     94  F   UNL A   1      46.424  35.712  27.036  1.00  0.00    -0.200 F 
ATOM     95  F   UNL A   1      47.555  36.288  29.450  1.00  0.00    -0.200 F 
ENDBRANCH  62  85
ENDBRANCH  36  37
ENDBRANCH  28  31
ENDBRANCH  26  27
ENDBRANCH  25  26
ENDBRANCH   1  25
TORSDOF 15
ENDMDL
MODEL 3
REMARK VINA RESULT:     -11.7      0.395      7.352
REMARK SMILES CCC(CC)(NC(=O)c1ccc(N)c(F)c1)C(=O)NCCCNC(=O)c1ccc(-c2c3nc(c(-c4c(F)c(F)c(F)c(F)c4F)c4ccc([nH]4)c(-c4c(F)c(F)c(F)c(F)c4F)c4nc(c(-c5c(F)c(F)c(F)c(F)c5F)c5ccc2[nH]5)C=C4)C=C3)cc1
REMARK SMILES IDX 20 1 19 2 17 3 18 4 3 6 2 7 1 8 4 9 5 10 6 11 7 12 8 14 9 15
REMARK SMILES IDX 10 16 16 17 11 18 14 19 12 20 15 21 13 22 21 25 22 26 23 27
REMARK SMILES IDX 24 28 25 30 26 31 27 32 88 33 28 34 87 35 29 36 30 37 31 38
REMARK SMILES IDX 81 39 32 40 86 41 80 42 82 43 33 44 85 45 79 46 78 47 34 49
REMARK SMILES IDX 66 50 46 51 65 52 47 53 50 54 64 55 83 56 48 57 49 58 63 60
REMARK SMILES IDX 84 61 51 62 35 63 36 64 44 65 37 66 38 67 42 68 45 69 39 70
REMARK SMILES IDX 40 71 43 72 41 73 67 74 68 75 76 76 69 77 70 78 74 79 77 80
REMARK SMILES IDX 71 81 72 82 75 83 73 84 52 85 53 86 61 87 54 88 55 89 59 90
REMARK SMILES IDX 62 91 56 92 57 93 60 94 58 95
REMARK H PARENT 19 5 6 13 13 23 13 24 23 29 82 48 50 59
REMARK Flexibility Score: inf
ROOT
ATOM      1  C   UNL A   1      31.510  30.393  26.059  1.00  0.00     0.117 C 
ENDROOT
BRANCH   1   2
ATOM      2  N   UNL A   1      31.395  30.061  24.640  1.00  0.00    -0.354 N 
ATOM      3  C   UNL A   1      31.680  28.952  23.874  1.00  0.00     0.245 C 
ATOM      4  O   UNL A   1      31.339  29.030  22.690  1.00  0.00    -0.272 OA
ATOM      5  H   UNL A   1      31.030  30.804  24.107  1.00  0.00     0.163 HD
BRANCH   3   6
ATOM      6  C   UNL A   1      32.317  27.648  24.460  1.00  0.00     0.118 C 
BRANCH   6   7
ATOM      7  C   UNL A   1      31.475  26.959  25.579  1.00  0.00     0.035 C 
ATOM      8  C   UNL A   1      30.176  26.263  25.189  1.00  0.00     0.007 C 
ENDBRANCH   6   7
BRANCH   6   9
ATOM      9  C   UNL A   1      33.652  28.212  25.066  1.00  0.00     0.035 C 
ATOM     10  C   UNL A   1      34.031  27.843  26.489  1.00  0.00     0.007 C 
ENDBRANCH   6   9
BRANCH   6  11
ATOM     11  N   UNL A   1      32.575  26.583  23.425  1.00  0.00    -0.338 N 
ATOM     12  C   UNL A   1      33.448  25.491  23.386  1.00  0.00     0.252 C 
ATOM     13  H   UNL A   1      32.020  26.674  22.617  1.00  0.00     0.164 HD
ATOM     14  O   UNL A   1      33.912  25.197  22.282  1.00  0.00    -0.269 OA
BRANCH  12  15
ATOM     15  C   UNL A   1      33.781  24.581  24.539  1.00  0.00     0.042 A 
ATOM     16  C   UNL A   1      32.893  23.624  24.992  1.00  0.00     0.016 A 
ATOM     17  C   UNL A   1      35.078  24.491  25.059  1.00  0.00     0.055 A 
ATOM     18  C   UNL A   1      33.185  22.647  25.940  1.00  0.00     0.029 A 
ATOM     19  C   UNL A   1      35.403  23.478  25.987  1.00  0.00     0.146 A 
ATOM     20  C   UNL A   1      34.457  22.556  26.460  1.00  0.00     0.068 A 
ATOM     21  F   UNL A   1      36.674  23.368  26.403  1.00  0.00    -0.205 F 
BRANCH  20  22
ATOM     22  N   UNL A   1      34.773  21.459  27.248  1.00  0.00    -0.396 N 
ATOM     23  H   UNL A   1      35.664  21.391  27.662  1.00  0.00     0.156 HD
ATOM     24  H   UNL A   1      34.107  20.749  27.396  1.00  0.00     0.156 HD
ENDBRANCH  20  22
ENDBRANCH  12  15
ENDBRANCH   6  11
ENDBRANCH   3   6
ENDBRANCH   1   2
BRANCH   1  25
ATOM     25  C   UNL A   1      31.360  31.853  26.497  1.00  0.00     0.042 C 
BRANCH  25  26
ATOM     26  C   UNL A   1      32.605  32.645  26.887  1.00  0.00     0.118 C 
BRANCH  26  27
ATOM     27  N   UNL A   1      32.344  33.951  27.449  1.00  0.00    -0.352 N 
ATOM     28  C   UNL A   1      33.020  34.633  28.432  1.00  0.00     0.251 C 
ATOM     29  H   UNL A   1      31.566  34.422  27.072  1.00  0.00     0.163 HD
ATOM     30  O   UNL A   1      32.618  35.735  28.783  1.00  0.00    -0.269 OA
BRANCH  28  31
ATOM     31  C   UNL A   1      34.198  34.038  29.107  1.00  0.00     0.039 A 
ATOM     32  C   UNL A   1      33.963  33.065  30.083  1.00  0.00     0.014 A 
ATOM     33  C   UNL A   1      35.508  34.447  28.836  1.00  0.00     0.014 A 
ATOM     34  C   UNL A   1      35.035  32.468  30.751  1.00  0.00     0.010 A 
ATOM     35  C   UNL A   1      36.584  33.810  29.467  1.00  0.00     0.010 A 
ATOM     36  C   UNL A   1      36.358  32.815  30.432  1.00  0.00    -0.014 A 
BRANCH  36  37
ATOM     37  C   UNL A   1      37.496  32.130  31.107  1.00  0.00     0.031 A 
ATOM     38  C   UNL A   1      38.283  31.064  30.396  1.00  0.00     0.074 A 
ATOM     39  C   UNL A   1      37.815  32.461  32.374  1.00  0.00     0.049 A 
ATOM     40  N   UNL A   1      39.306  30.365  30.823  1.00  0.00    -0.248 NA
ATOM     41  C   UNL A   1      37.859  30.728  29.029  1.00  0.00     0.031 C 
ATOM     42  C   UNL A   1      37.115  33.455  33.186  1.00  0.00     0.029 A 
ATOM     43  N   UNL A   1      38.810  31.997  33.201  1.00  0.00    -0.354 N 
ATOM     44  C   UNL A   1      39.643  29.507  29.783  1.00  0.00     0.074 A 
ATOM     45  C   UNL A   1      38.684  29.738  28.724  1.00  0.00     0.031 C 
ATOM     46  C   UNL A   1      37.714  33.544  34.386  1.00  0.00     0.029 A 
ATOM     47  C   UNL A   1      38.815  32.587  34.442  1.00  0.00     0.049 A 
ATOM     48  H   UNL A   1      39.458  31.307  32.930  1.00  0.00     0.167 HD
ATOM     49  C   UNL A   1      40.668  28.623  29.711  1.00  0.00     0.037 A 
ATOM     50  C   UNL A   1      39.608  32.374  35.511  1.00  0.00     0.037 A 
ATOM     51  C   UNL A   1      41.625  28.397  30.764  1.00  0.00     0.049 A 
ATOM     52  C   UNL A   1      40.718  31.360  35.416  1.00  0.00     0.074 A 
ATOM     53  C   UNL A   1      42.726  27.558  30.765  1.00  0.00     0.029 A 
ATOM     54  N   UNL A   1      41.589  29.005  32.011  1.00  0.00    -0.354 N 
ATOM     55  N   UNL A   1      41.070  30.609  34.401  1.00  0.00    -0.248 NA
ATOM     56  C   UNL A   1      41.546  31.170  36.615  1.00  0.00     0.031 C 
ATOM     57  C   UNL A   1      43.319  27.611  32.031  1.00  0.00     0.029 A 
ATOM     58  C   UNL A   1      42.629  28.535  32.799  1.00  0.00     0.049 A 
ATOM     59  H   UNL A   1      40.922  29.672  32.296  1.00  0.00     0.167 HD
ATOM     60  C   UNL A   1      42.174  29.883  34.827  1.00  0.00     0.074 A 
ATOM     61  C   UNL A   1      42.446  30.298  36.187  1.00  0.00     0.031 C 
ATOM     62  C   UNL A   1      42.898  28.958  34.150  1.00  0.00     0.037 A 
BRANCH  49  63
ATOM     63  C   UNL A   1      40.809  27.821  28.447  1.00  0.00     0.064 A 
ATOM     64  C   UNL A   1      41.601  28.263  27.377  1.00  0.00     0.173 A 
ATOM     65  C   UNL A   1      40.180  26.571  28.322  1.00  0.00     0.173 A 
ATOM     66  F   UNL A   1      42.219  29.452  27.439  1.00  0.00    -0.203 F 
ATOM     67  C   UNL A   1      41.732  27.501  26.218  1.00  0.00     0.198 A 
ATOM     68  C   UNL A   1      40.341  25.798  27.176  1.00  0.00     0.198 A 
ATOM     69  F   UNL A   1      39.420  26.094  29.319  1.00  0.00    -0.203 F 
ATOM     70  F   UNL A   1      42.453  27.968  25.189  1.00  0.00    -0.200 F 
ATOM     71  C   UNL A   1      41.110  26.267  26.121  1.00  0.00     0.200 A 
ATOM     72  F   UNL A   1      39.753  24.597  27.092  1.00  0.00    -0.200 F 
ATOM     73  F   UNL A   1      41.244  25.531  25.009  1.00  0.00    -0.200 F 
ENDBRANCH  49  63
BRANCH  50  74
ATOM     74  C   UNL A   1      39.392  33.146  36.764  1.00  0.00     0.064 A 
ATOM     75  C   UNL A   1      40.127  34.309  37.034  1.00  0.00     0.173 A 
ATOM     76  C   UNL A   1      38.459  32.729  37.725  1.00  0.00     0.173 A 
ATOM     77  F   UNL A   1      41.048  34.738  36.158  1.00  0.00    -0.203 F 
ATOM     78  C   UNL A   1      39.955  35.010  38.226  1.00  0.00     0.198 A 
ATOM     79  C   UNL A   1      38.263  33.449  38.901  1.00  0.00     0.198 A 
ATOM     80  F   UNL A   1      37.727  31.624  37.516  1.00  0.00    -0.203 F 
ATOM     81  F   UNL A   1      40.710  36.087  38.481  1.00  0.00    -0.200 F 
ATOM     82  C   UNL A   1      39.019  34.583  39.155  1.00  0.00     0.200 A 
ATOM     83  F   UNL A   1      37.346  33.042  39.790  1.00  0.00    -0.200 F 
ATOM     84  F   UNL A   1      38.851  35.259  40.300  1.00  0.00    -0.200 F 
ENDBRANCH  50  74
BRANCH  62  85
ATOM     85  C   UNL A   1      44.082  28.355  34.853  1.00  0.00     0.064 A 
ATOM     86  C   UNL A   1      43.976  27.179  35.611  1.00  0.00     0.173 A 
ATOM     87  C   UNL A   1      45.351  28.945  34.736  1.00  0.00     0.173 A 
ATOM     88  F   UNL A   1      42.785  26.582  35.768  1.00  0.00    -0.203 F 
ATOM     89  C   UNL A   1      45.088  26.634  36.249  1.00  0.00     0.198 A 
ATOM     90  C   UNL A   1      46.467  28.377  35.345  1.00  0.00     0.198 A 
ATOM     91  F   UNL A   1      45.512  30.067  34.018  1.00  0.00    -0.203 F 
ATOM     92  F   UNL A   1      44.951  25.541  37.012  1.00  0.00    -0.200 F 
ATOM     93  C   UNL A   1      46.333  27.228  36.108  1.00  0.00     0.200 A 
ATOM     94  F   UNL A   1      47.672  28.944  35.194  1.00  0.00    -0.200 F 
ATOM     95  F   UNL A   1      47.403  26.697  36.716  1.00  0.00    -0.200 F 
ENDBRANCH  62  85
ENDBRANCH  36  37
ENDBRANCH  28  31
ENDBRANCH  26  27
ENDBRANCH  25  26
ENDBRANCH   1  25
TORSDOF 15
ENDMDL
