MODEL 1
REMARK VINA RESULT:     -11.7      0.000      0.000
REMARK SMILES O=CN1CCC[C@@H](C(=O)NCCCNC(=O)c2ccc(-c3c4nc(c(-c5c(F)c(F)c(F)c(F)c5F)c5ccc([nH]5)c(-c5c(F)c(F)c(F)c(F)c5F)c5nc(c(-c6c(F)c(F)c(F)c(F)c6F)c6ccc3[nH]6)C=C5)C=C4)cc2)C1
REMARK SMILES IDX 12 1 11 2 10 3 8 4 9 5 7 7 3 8 4 9 80 10 5 11 6 12 2 13 1 14
REMARK SMILES IDX 13 15 14 16 15 17 16 19 17 20 18 21 79 22 19 23 78 24 20 25
REMARK SMILES IDX 21 26 22 27 72 28 23 29 77 30 71 31 73 32 24 33 76 34 70 35
REMARK SMILES IDX 69 36 25 38 57 39 37 40 56 41 38 42 41 43 55 44 74 45 39 46
REMARK SMILES IDX 40 47 54 49 75 50 42 51 26 52 27 53 35 54 28 55 29 56 33 57
REMARK SMILES IDX 36 58 30 59 31 60 34 61 32 62 58 63 59 64 67 65 60 66 61 67
REMARK SMILES IDX 65 68 68 69 62 70 63 71 66 72 64 73 43 74 44 75 52 76 45 77
REMARK SMILES IDX 46 78 50 79 53 80 47 81 48 82 51 83 49 84
REMARK H PARENT 10 6 14 18 73 37 41 48
REMARK Flexibility Score: inf
ROOT
ATOM      1  C   UNL A   1      31.461  32.053  26.672  1.00  0.00     0.042 C 
ENDROOT
BRANCH   1   2
ATOM      2  C   UNL A   1      31.709  30.597  26.317  1.00  0.00     0.117 C 
BRANCH   2   3
ATOM      3  N   UNL A   1      31.343  30.259  24.952  1.00  0.00    -0.356 N 
ATOM      4  C   UNL A   1      31.286  29.041  24.344  1.00  0.00     0.224 C 
ATOM      5  O   UNL A   1      30.866  29.005  23.186  1.00  0.00    -0.275 OA
ATOM      6  H   UNL A   1      31.099  31.024  24.382  1.00  0.00     0.163 HD
BRANCH   4   7
ATOM      7  C   UNL A   1      31.778  27.800  25.070  1.00  0.00     0.098 C 
ATOM      8  N   UNL A   1      31.630  25.391  25.309  1.00  0.00    -0.344 N 
ATOM      9  C   UNL A   1      33.054  25.137  25.199  1.00  0.00     0.119 C 
ATOM     10  C   UNL A   1      31.135  26.519  24.533  1.00  0.00     0.132 C 
ATOM     11  C   UNL A   1      33.836  26.382  25.620  1.00  0.00     0.022 C 
ATOM     12  C   UNL A   1      33.313  27.655  24.939  1.00  0.00     0.017 C 
BRANCH   8  13
ATOM     13  C   UNL A   1      30.860  24.839  26.310  1.00  0.00     0.339 C 
ATOM     14  O   UNL A   1      31.277  24.120  27.210  1.00  0.00    -0.279 OA
ENDBRANCH   8  13
ENDBRANCH   4   7
ENDBRANCH   2   3
ENDBRANCH   1   2
BRANCH   1  15
ATOM     15  C   UNL A   1      32.650  32.783  27.276  1.00  0.00     0.118 C 
BRANCH  15  16
ATOM     16  N   UNL A   1      32.370  34.165  27.637  1.00  0.00    -0.352 N 
ATOM     17  C   UNL A   1      32.957  34.982  28.577  1.00  0.00     0.251 C 
ATOM     18  H   UNL A   1      31.641  34.585  27.124  1.00  0.00     0.163 HD
ATOM     19  O   UNL A   1      32.480  36.087  28.806  1.00  0.00    -0.269 OA
BRANCH  17  20
ATOM     20  C   UNL A   1      34.136  34.519  29.345  1.00  0.00     0.039 A 
ATOM     21  C   UNL A   1      33.941  33.954  30.608  1.00  0.00     0.014 A 
ATOM     22  C   UNL A   1      35.426  34.631  28.829  1.00  0.00     0.014 A 
ATOM     23  C   UNL A   1      35.027  33.419  31.304  1.00  0.00     0.010 A 
ATOM     24  C   UNL A   1      36.486  33.995  29.466  1.00  0.00     0.010 A 
ATOM     25  C   UNL A   1      36.301  33.386  30.716  1.00  0.00    -0.014 A 
BRANCH  25  26
ATOM     26  C   UNL A   1      37.455  32.731  31.389  1.00  0.00     0.031 A 
ATOM     27  C   UNL A   1      38.159  31.577  30.727  1.00  0.00     0.074 A 
ATOM     28  C   UNL A   1      37.824  33.126  32.623  1.00  0.00     0.049 A 
ATOM     29  N   UNL A   1      39.123  30.819  31.187  1.00  0.00    -0.248 NA
ATOM     30  C   UNL A   1      37.695  31.202  29.381  1.00  0.00     0.031 C 
ATOM     31  C   UNL A   1      37.189  34.193  33.397  1.00  0.00     0.029 A 
ATOM     32  N   UNL A   1      38.818  32.664  33.452  1.00  0.00    -0.354 N 
ATOM     33  C   UNL A   1      39.366  29.876  30.196  1.00  0.00     0.074 A 
ATOM     34  C   UNL A   1      38.405  30.111  29.142  1.00  0.00     0.031 C 
ATOM     35  C   UNL A   1      37.823  34.325  34.572  1.00  0.00     0.029 A 
ATOM     36  C   UNL A   1      38.879  33.321  34.658  1.00  0.00     0.049 A 
ATOM     37  H   UNL A   1      39.428  31.933  33.205  1.00  0.00     0.167 HD
ATOM     38  C   UNL A   1      40.323  28.919  30.155  1.00  0.00     0.037 A 
ATOM     39  C   UNL A   1      39.689  33.130  35.716  1.00  0.00     0.037 A 
ATOM     40  C   UNL A   1      41.295  28.704  31.195  1.00  0.00     0.049 A 
ATOM     41  C   UNL A   1      40.739  32.053  35.651  1.00  0.00     0.074 A 
ATOM     42  C   UNL A   1      42.340  27.797  31.225  1.00  0.00     0.029 A 
ATOM     43  N   UNL A   1      41.339  29.404  32.392  1.00  0.00    -0.354 N 
ATOM     44  N   UNL A   1      41.003  31.210  34.681  1.00  0.00    -0.248 NA
ATOM     45  C   UNL A   1      41.610  31.904  36.825  1.00  0.00     0.031 C 
ATOM     46  C   UNL A   1      42.983  27.911  32.462  1.00  0.00     0.029 A 
ATOM     47  C   UNL A   1      42.379  28.933  33.177  1.00  0.00     0.049 A 
ATOM     48  H   UNL A   1      40.722  30.129  32.646  1.00  0.00     0.167 HD
ATOM     49  C   UNL A   1      42.085  30.455  35.113  1.00  0.00     0.074 A 
ATOM     50  C   UNL A   1      42.439  30.950  36.427  1.00  0.00     0.031 C 
ATOM     51  C   UNL A   1      42.726  29.442  34.480  1.00  0.00     0.037 A 
BRANCH  38  52
ATOM     52  C   UNL A   1      40.373  28.035  28.940  1.00  0.00     0.064 A 
ATOM     53  C   UNL A   1      41.132  28.379  27.811  1.00  0.00     0.173 A 
ATOM     54  C   UNL A   1      39.682  26.815  28.916  1.00  0.00     0.173 A 
ATOM     55  F   UNL A   1      41.803  29.540  27.775  1.00  0.00    -0.203 F 
ATOM     56  C   UNL A   1      41.171  27.550  26.692  1.00  0.00     0.198 A 
ATOM     57  C   UNL A   1      39.752  25.971  27.811  1.00  0.00     0.198 A 
ATOM     58  F   UNL A   1      38.945  26.434  29.971  1.00  0.00    -0.203 F 
ATOM     59  F   UNL A   1      41.859  27.927  25.605  1.00  0.00    -0.200 F 
ATOM     60  C   UNL A   1      40.488  26.344  26.697  1.00  0.00     0.200 A 
ATOM     61  F   UNL A   1      39.104  24.799  27.823  1.00  0.00    -0.200 F 
ATOM     62  F   UNL A   1      40.535  25.542  25.623  1.00  0.00    -0.200 F 
ENDBRANCH  38  52
BRANCH  39  63
ATOM     63  C   UNL A   1      39.553  33.988  36.924  1.00  0.00     0.064 A 
ATOM     64  C   UNL A   1      38.793  33.570  38.025  1.00  0.00     0.173 A 
ATOM     65  C   UNL A   1      40.173  35.244  37.000  1.00  0.00     0.173 A 
ATOM     66  F   UNL A   1      38.163  32.386  37.993  1.00  0.00    -0.203 F 
ATOM     67  C   UNL A   1      38.636  34.385  39.145  1.00  0.00     0.198 A 
ATOM     68  C   UNL A   1      40.042  36.045  38.134  1.00  0.00     0.198 A 
ATOM     69  F   UNL A   1      40.916  35.691  35.976  1.00  0.00    -0.203 F 
ATOM     70  F   UNL A   1      37.861  33.982  40.160  1.00  0.00    -0.200 F 
ATOM     71  C   UNL A   1      39.267  35.618  39.201  1.00  0.00     0.200 A 
ATOM     72  F   UNL A   1      40.666  37.230  38.190  1.00  0.00    -0.200 F 
ATOM     73  F   UNL A   1      39.118  36.401  40.279  1.00  0.00    -0.200 F 
ENDBRANCH  39  63
BRANCH  51  74
ATOM     74  C   UNL A   1      43.904  28.826  35.179  1.00  0.00     0.064 A 
ATOM     75  C   UNL A   1      45.209  29.302  34.986  1.00  0.00     0.173 A 
ATOM     76  C   UNL A   1      43.716  27.770  36.085  1.00  0.00     0.173 A 
ATOM     77  F   UNL A   1      45.444  30.299  34.121  1.00  0.00    -0.203 F 
ATOM     78  C   UNL A   1      46.287  28.725  35.655  1.00  0.00     0.198 A 
ATOM     79  C   UNL A   1      44.790  27.220  36.777  1.00  0.00     0.198 A 
ATOM     80  F   UNL A   1      42.487  27.284  36.312  1.00  0.00    -0.203 F 
ATOM     81  F   UNL A   1      47.531  29.161  35.417  1.00  0.00    -0.200 F 
ATOM     82  C   UNL A   1      46.076  27.692  36.555  1.00  0.00     0.200 A 
ATOM     83  F   UNL A   1      44.582  26.233  37.660  1.00  0.00    -0.200 F 
ATOM     84  F   UNL A   1      47.112  27.145  37.206  1.00  0.00    -0.200 F 
ENDBRANCH  51  74
ENDBRANCH  25  26
ENDBRANCH  17  20
ENDBRANCH  15  16
ENDBRANCH   1  15
TORSDOF 11
ENDMDL
MODEL 2
REMARK VINA RESULT:     -11.7      2.750      9.318
REMARK SMILES O=CN1CCC[C@@H](C(=O)NCCCNC(=O)c2ccc(-c3c4nc(c(-c5c(F)c(F)c(F)c(F)c5F)c5ccc([nH]5)c(-c5c(F)c(F)c(F)c(F)c5F)c5nc(c(-c6c(F)c(F)c(F)c(F)c6F)c6ccc3[nH]6)C=C5)C=C4)cc2)C1
REMARK SMILES IDX 12 1 11 2 10 3 8 4 9 5 7 7 3 8 4 9 80 10 5 11 6 12 2 13 1 14
REMARK SMILES IDX 13 15 14 16 15 17 16 19 17 20 18 21 79 22 19 23 78 24 20 25
REMARK SMILES IDX 21 26 22 27 72 28 23 29 77 30 71 31 73 32 24 33 76 34 70 35
REMARK SMILES IDX 69 36 25 38 57 39 37 40 56 41 38 42 41 43 55 44 74 45 39 46
REMARK SMILES IDX 40 47 54 49 75 50 42 51 26 52 27 53 35 54 28 55 29 56 33 57
REMARK SMILES IDX 36 58 30 59 31 60 34 61 32 62 58 63 59 64 67 65 60 66 61 67
REMARK SMILES IDX 65 68 68 69 62 70 63 71 66 72 64 73 43 74 44 75 52 76 45 77
REMARK SMILES IDX 46 78 50 79 53 80 47 81 48 82 51 83 49 84
REMARK H PARENT 10 6 14 18 73 37 41 48
REMARK Flexibility Score: inf
ROOT
ATOM      1  C   UNL A   1      33.055  35.344  28.376  1.00  0.00     0.042 C 
ENDROOT
BRANCH   1   2
ATOM      2  C   UNL A   1      33.619  36.413  29.295  1.00  0.00     0.117 C 
BRANCH   2   3
ATOM      3  N   UNL A   1      32.749  36.740  30.412  1.00  0.00    -0.356 N 
ATOM      4  C   UNL A   1      32.832  36.364  31.719  1.00  0.00     0.224 C 
ATOM      5  O   UNL A   1      32.007  36.842  32.500  1.00  0.00    -0.275 OA
ATOM      6  H   UNL A   1      31.985  37.321  30.191  1.00  0.00     0.163 HD
BRANCH   4   7
ATOM      7  C   UNL A   1      33.878  35.352  32.158  1.00  0.00     0.098 C 
ATOM      8  N   UNL A   1      35.830  34.910  33.527  1.00  0.00    -0.344 N 
ATOM      9  C   UNL A   1      35.305  33.719  34.166  1.00  0.00     0.119 C 
ATOM     10  C   UNL A   1      34.844  35.929  33.196  1.00  0.00     0.132 C 
ATOM     11  C   UNL A   1      34.243  33.078  33.272  1.00  0.00     0.022 C 
ATOM     12  C   UNL A   1      33.210  34.099  32.771  1.00  0.00     0.017 C 
BRANCH   8  13
ATOM     13  C   UNL A   1      37.091  34.951  32.971  1.00  0.00     0.339 C 
ATOM     14  O   UNL A   1      38.143  34.953  33.599  1.00  0.00    -0.279 OA
ENDBRANCH   8  13
ENDBRANCH   4   7
ENDBRANCH   2   3
ENDBRANCH   1   2
BRANCH   1  15
ATOM     15  C   UNL A   1      33.646  33.955  28.560  1.00  0.00     0.118 C 
BRANCH  15  16
ATOM     16  N   UNL A   1      33.059  32.945  27.691  1.00  0.00    -0.352 N 
ATOM     17  C   UNL A   1      33.531  31.711  27.304  1.00  0.00     0.251 C 
ATOM     18  H   UNL A   1      32.180  33.185  27.317  1.00  0.00     0.163 HD
ATOM     19  O   UNL A   1      32.926  31.065  26.457  1.00  0.00    -0.269 OA
BRANCH  17  20
ATOM     20  C   UNL A   1      34.788  31.175  27.875  1.00  0.00     0.039 A 
ATOM     21  C   UNL A   1      35.890  32.025  28.001  1.00  0.00     0.014 A 
ATOM     22  C   UNL A   1      34.886  29.848  28.292  1.00  0.00     0.014 A 
ATOM     23  C   UNL A   1      37.051  31.568  28.629  1.00  0.00     0.010 A 
ATOM     24  C   UNL A   1      35.995  29.430  29.021  1.00  0.00     0.010 A 
ATOM     25  C   UNL A   1      37.095  30.283  29.193  1.00  0.00    -0.014 A 
BRANCH  25  26
ATOM     26  C   UNL A   1      38.278  29.805  29.957  1.00  0.00     0.031 A 
ATOM     27  C   UNL A   1      38.526  30.305  31.356  1.00  0.00     0.074 A 
ATOM     28  C   UNL A   1      39.168  28.981  29.370  1.00  0.00     0.049 A 
ATOM     29  N   UNL A   1      39.543  30.079  32.150  1.00  0.00    -0.248 NA
ATOM     30  C   UNL A   1      37.512  31.207  31.926  1.00  0.00     0.031 C 
ATOM     31  C   UNL A   1      39.074  28.469  28.002  1.00  0.00     0.029 A 
ATOM     32  N   UNL A   1      40.336  28.437  29.846  1.00  0.00    -0.354 N 
ATOM     33  C   UNL A   1      39.296  30.819  33.299  1.00  0.00     0.074 A 
ATOM     34  C   UNL A   1      38.072  31.555  33.074  1.00  0.00     0.031 C 
ATOM     35  C   UNL A   1      40.121  27.665  27.758  1.00  0.00     0.029 A 
ATOM     36  C   UNL A   1      40.986  27.641  28.933  1.00  0.00     0.049 A 
ATOM     37  H   UNL A   1      40.675  28.602  30.755  1.00  0.00     0.167 HD
ATOM     38  C   UNL A   1      40.008  30.860  34.449  1.00  0.00     0.037 A 
ATOM     39  C   UNL A   1      42.152  26.975  29.030  1.00  0.00     0.037 A 
ATOM     40  C   UNL A   1      41.213  30.106  34.679  1.00  0.00     0.049 A 
ATOM     41  C   UNL A   1      42.932  27.044  30.316  1.00  0.00     0.074 A 
ATOM     42  C   UNL A   1      41.980  30.035  35.830  1.00  0.00     0.029 A 
ATOM     43  N   UNL A   1      41.829  29.294  33.738  1.00  0.00    -0.354 N 
ATOM     44  N   UNL A   1      42.654  27.694  31.420  1.00  0.00    -0.248 NA
ATOM     45  C   UNL A   1      44.185  26.278  30.373  1.00  0.00     0.031 C 
ATOM     46  C   UNL A   1      43.087  29.223  35.568  1.00  0.00     0.029 A 
ATOM     47  C   UNL A   1      42.978  28.737  34.274  1.00  0.00     0.049 A 
ATOM     48  H   UNL A   1      41.497  29.136  32.824  1.00  0.00     0.167 HD
ATOM     49  C   UNL A   1      43.676  27.394  32.309  1.00  0.00     0.074 A 
ATOM     50  C   UNL A   1      44.574  26.489  31.621  1.00  0.00     0.031 C 
ATOM     51  C   UNL A   1      43.857  27.829  33.580  1.00  0.00     0.037 A 
BRANCH  38  52
ATOM     52  C   UNL A   1      39.498  31.742  35.554  1.00  0.00     0.064 A 
ATOM     53  C   UNL A   1      38.519  31.299  36.457  1.00  0.00     0.173 A 
ATOM     54  C   UNL A   1      40.017  33.033  35.734  1.00  0.00     0.173 A 
ATOM     55  F   UNL A   1      37.980  30.078  36.324  1.00  0.00    -0.203 F 
ATOM     56  C   UNL A   1      38.057  32.127  37.478  1.00  0.00     0.198 A 
ATOM     57  C   UNL A   1      39.579  33.844  36.777  1.00  0.00     0.198 A 
ATOM     58  F   UNL A   1      40.959  33.506  34.903  1.00  0.00    -0.203 F 
ATOM     59  F   UNL A   1      37.082  31.700  38.294  1.00  0.00    -0.200 F 
ATOM     60  C   UNL A   1      38.593  33.395  37.641  1.00  0.00     0.200 A 
ATOM     61  F   UNL A   1      40.109  35.064  36.943  1.00  0.00    -0.200 F 
ATOM     62  F   UNL A   1      38.154  34.186  38.630  1.00  0.00    -0.200 F 
ENDBRANCH  38  52
BRANCH  39  63
ATOM     63  C   UNL A   1      42.648  26.170  27.881  1.00  0.00     0.064 A 
ATOM     64  C   UNL A   1      43.550  26.712  26.955  1.00  0.00     0.173 A 
ATOM     65  C   UNL A   1      42.225  24.848  27.680  1.00  0.00     0.173 A 
ATOM     66  F   UNL A   1      43.968  27.979  27.091  1.00  0.00    -0.203 F 
ATOM     67  C   UNL A   1      43.992  25.972  25.860  1.00  0.00     0.198 A 
ATOM     68  C   UNL A   1      42.692  24.097  26.602  1.00  0.00     0.198 A 
ATOM     69  F   UNL A   1      41.366  24.279  28.539  1.00  0.00    -0.203 F 
ATOM     70  F   UNL A   1      44.813  26.533  24.963  1.00  0.00    -0.200 F 
ATOM     71  C   UNL A   1      43.568  24.663  25.688  1.00  0.00     0.200 A 
ATOM     72  F   UNL A   1      42.291  22.828  26.449  1.00  0.00    -0.200 F 
ATOM     73  F   UNL A   1      43.994  23.951  24.637  1.00  0.00    -0.200 F 
ENDBRANCH  39  63
BRANCH  51  74
ATOM     74  C   UNL A   1      45.048  27.303  34.329  1.00  0.00     0.064 A 
ATOM     75  C   UNL A   1      46.278  27.977  34.330  1.00  0.00     0.173 A 
ATOM     76  C   UNL A   1      44.942  26.127  35.089  1.00  0.00     0.173 A 
ATOM     77  F   UNL A   1      46.435  29.097  33.609  1.00  0.00    -0.203 F 
ATOM     78  C   UNL A   1      47.366  27.479  35.043  1.00  0.00     0.198 A 
ATOM     79  C   UNL A   1      46.021  25.652  35.828  1.00  0.00     0.198 A 
ATOM     80  F   UNL A   1      43.786  25.448  35.128  1.00  0.00    -0.203 F 
ATOM     81  F   UNL A   1      48.546  28.111  34.988  1.00  0.00    -0.200 F 
ATOM     82  C   UNL A   1      47.235  26.322  35.797  1.00  0.00     0.200 A 
ATOM     83  F   UNL A   1      45.887  24.543  36.570  1.00  0.00    -0.200 F 
ATOM     84  F   UNL A   1      48.279  25.850  36.491  1.00  0.00    -0.200 F 
ENDBRANCH  51  74
ENDBRANCH  25  26
ENDBRANCH  17  20
ENDBRANCH  15  16
ENDBRANCH   1  15
TORSDOF 11
ENDMDL
MODEL 3
REMARK VINA RESULT:     -11.6      0.314      2.081
REMARK SMILES O=CN1CCC[C@@H](C(=O)NCCCNC(=O)c2ccc(-c3c4nc(c(-c5c(F)c(F)c(F)c(F)c5F)c5ccc([nH]5)c(-c5c(F)c(F)c(F)c(F)c5F)c5nc(c(-c6c(F)c(F)c(F)c(F)c6F)c6ccc3[nH]6)C=C5)C=C4)cc2)C1
REMARK SMILES IDX 12 1 11 2 10 3 8 4 9 5 7 7 3 8 4 9 80 10 5 11 6 12 2 13 1 14
REMARK SMILES IDX 13 15 14 16 15 17 16 19 17 20 18 21 79 22 19 23 78 24 20 25
REMARK SMILES IDX 21 26 22 27 72 28 23 29 77 30 71 31 73 32 24 33 76 34 70 35
REMARK SMILES IDX 69 36 25 38 57 39 37 40 56 41 38 42 41 43 55 44 74 45 39 46
REMARK SMILES IDX 40 47 54 49 75 50 42 51 26 52 27 53 35 54 28 55 29 56 33 57
REMARK SMILES IDX 36 58 30 59 31 60 34 61 32 62 58 63 59 64 67 65 60 66 61 67
REMARK SMILES IDX 65 68 68 69 62 70 63 71 66 72 64 73 43 74 44 75 52 76 45 77
REMARK SMILES IDX 46 78 50 79 53 80 47 81 48 82 51 83 49 84
REMARK H PARENT 10 6 14 18 73 37 41 48
REMARK Flexibility Score: inf
ROOT
ATOM      1  C   UNL A   1      31.501  32.022  26.868  1.00  0.00     0.042 C 
ENDROOT
BRANCH   1   2
ATOM      2  C   UNL A   1      31.777  30.608  26.386  1.00  0.00     0.117 C 
BRANCH   2   3
ATOM      3  N   UNL A   1      31.403  30.381  25.001  1.00  0.00    -0.356 N 
ATOM      4  C   UNL A   1      31.289  29.211  24.312  1.00  0.00     0.224 C 
ATOM      5  O   UNL A   1      30.875  29.273  23.153  1.00  0.00    -0.275 OA
ATOM      6  H   UNL A   1      31.200  31.193  24.482  1.00  0.00     0.163 HD
BRANCH   4   7
ATOM      7  C   UNL A   1      31.715  27.901  24.955  1.00  0.00     0.098 C 
ATOM      8  N   UNL A   1      31.451  25.491  25.027  1.00  0.00    -0.344 N 
ATOM      9  C   UNL A   1      32.862  25.176  24.908  1.00  0.00     0.119 C 
ATOM     10  C   UNL A   1      31.017  26.692  24.327  1.00  0.00     0.132 C 
ATOM     11  C   UNL A   1      33.698  26.351  25.418  1.00  0.00     0.022 C 
ATOM     12  C   UNL A   1      33.242  27.691  24.822  1.00  0.00     0.017 C 
BRANCH   8  13
ATOM     13  C   UNL A   1      30.646  24.910  25.984  1.00  0.00     0.339 C 
ATOM     14  O   UNL A   1      29.667  25.434  26.501  1.00  0.00    -0.279 OA
ENDBRANCH   8  13
ENDBRANCH   4   7
ENDBRANCH   2   3
ENDBRANCH   1   2
BRANCH   1  15
ATOM     15  C   UNL A   1      32.733  32.826  27.251  1.00  0.00     0.118 C 
BRANCH  15  16
ATOM     16  N   UNL A   1      32.445  34.203  27.626  1.00  0.00    -0.352 N 
ATOM     17  C   UNL A   1      33.011  35.007  28.590  1.00  0.00     0.251 C 
ATOM     18  H   UNL A   1      31.726  34.629  27.105  1.00  0.00     0.163 HD
ATOM     19  O   UNL A   1      32.528  36.108  28.824  1.00  0.00    -0.269 OA
BRANCH  17  20
ATOM     20  C   UNL A   1      34.175  34.535  29.374  1.00  0.00     0.039 A 
ATOM     21  C   UNL A   1      33.964  34.031  30.661  1.00  0.00     0.014 A 
ATOM     22  C   UNL A   1      35.467  34.577  28.851  1.00  0.00     0.014 A 
ATOM     23  C   UNL A   1      35.032  33.487  31.377  1.00  0.00     0.010 A 
ATOM     24  C   UNL A   1      36.505  33.931  29.514  1.00  0.00     0.010 A 
ATOM     25  C   UNL A   1      36.302  33.383  30.789  1.00  0.00    -0.014 A 
BRANCH  25  26
ATOM     26  C   UNL A   1      37.434  32.716  31.486  1.00  0.00     0.031 A 
ATOM     27  C   UNL A   1      38.132  31.546  30.846  1.00  0.00     0.074 A 
ATOM     28  C   UNL A   1      37.788  33.115  32.724  1.00  0.00     0.049 A 
ATOM     29  N   UNL A   1      39.076  30.777  31.328  1.00  0.00    -0.248 NA
ATOM     30  C   UNL A   1      37.685  31.168  29.495  1.00  0.00     0.031 C 
ATOM     31  C   UNL A   1      37.155  34.198  33.478  1.00  0.00     0.029 A 
ATOM     32  N   UNL A   1      38.759  32.645  33.573  1.00  0.00    -0.354 N 
ATOM     33  C   UNL A   1      39.321  29.822  30.350  1.00  0.00     0.074 A 
ATOM     34  C   UNL A   1      38.383  30.063  29.277  1.00  0.00     0.031 C 
ATOM     35  C   UNL A   1      37.771  34.329  34.663  1.00  0.00     0.029 A 
ATOM     36  C   UNL A   1      38.810  33.311  34.776  1.00  0.00     0.049 A 
ATOM     37  H   UNL A   1      39.362  31.902  33.344  1.00  0.00     0.167 HD
ATOM     38  C   UNL A   1      40.264  28.851  30.333  1.00  0.00     0.037 A 
ATOM     39  C   UNL A   1      39.598  33.115  35.849  1.00  0.00     0.037 A 
ATOM     40  C   UNL A   1      41.214  28.629  31.392  1.00  0.00     0.049 A 
ATOM     41  C   UNL A   1      40.633  32.021  35.810  1.00  0.00     0.074 A 
ATOM     42  C   UNL A   1      42.245  27.706  31.447  1.00  0.00     0.029 A 
ATOM     43  N   UNL A   1      41.248  29.338  32.584  1.00  0.00    -0.354 N 
ATOM     44  N   UNL A   1      40.900  31.167  34.852  1.00  0.00    -0.248 NA
ATOM     45  C   UNL A   1      41.480  31.869  37.001  1.00  0.00     0.031 C 
ATOM     46  C   UNL A   1      42.867  27.821  32.694  1.00  0.00     0.029 A 
ATOM     47  C   UNL A   1      42.267  28.858  33.391  1.00  0.00     0.049 A 
ATOM     48  H   UNL A   1      40.639  30.074  32.821  1.00  0.00     0.167 HD
ATOM     49  C   UNL A   1      41.962  30.399  35.309  1.00  0.00     0.074 A 
ATOM     50  C   UNL A   1      42.301  30.899  36.625  1.00  0.00     0.031 C 
ATOM     51  C   UNL A   1      42.599  29.372  34.696  1.00  0.00     0.037 A 
BRANCH  38  52
ATOM     52  C   UNL A   1      40.321  27.957  29.126  1.00  0.00     0.064 A 
ATOM     53  C   UNL A   1      39.616  26.744  29.074  1.00  0.00     0.173 A 
ATOM     54  C   UNL A   1      41.060  28.332  27.994  1.00  0.00     0.173 A 
ATOM     55  F   UNL A   1      38.903  26.331  30.132  1.00  0.00    -0.203 F 
ATOM     56  C   UNL A   1      39.676  25.926  27.948  1.00  0.00     0.198 A 
ATOM     57  C   UNL A   1      41.088  27.529  26.856  1.00  0.00     0.198 A 
ATOM     58  F   UNL A   1      41.749  29.484  27.987  1.00  0.00    -0.203 F 
ATOM     59  F   UNL A   1      39.038  24.747  27.944  1.00  0.00    -0.200 F 
ATOM     60  C   UNL A   1      40.405  26.324  26.838  1.00  0.00     0.200 A 
ATOM     61  F   UNL A   1      41.781  27.922  25.779  1.00  0.00    -0.200 F 
ATOM     62  F   UNL A   1      40.453  25.540  25.751  1.00  0.00    -0.200 F 
ENDBRANCH  38  52
BRANCH  39  63
ATOM     63  C   UNL A   1      39.455  33.985  37.047  1.00  0.00     0.064 A 
ATOM     64  C   UNL A   1      40.089  35.234  37.113  1.00  0.00     0.173 A 
ATOM     65  C   UNL A   1      38.689  33.585  38.153  1.00  0.00     0.173 A 
ATOM     66  F   UNL A   1      40.849  35.653  36.091  1.00  0.00    -0.203 F 
ATOM     67  C   UNL A   1      39.983  36.038  38.246  1.00  0.00     0.198 A 
ATOM     68  C   UNL A   1      38.557  34.404  39.273  1.00  0.00     0.198 A 
ATOM     69  F   UNL A   1      38.057  32.402  38.140  1.00  0.00    -0.203 F 
ATOM     70  F   UNL A   1      40.642  37.203  38.302  1.00  0.00    -0.200 F 
ATOM     71  C   UNL A   1      39.212  35.626  39.322  1.00  0.00     0.200 A 
ATOM     72  F   UNL A   1      37.799  34.009  40.304  1.00  0.00    -0.200 F 
ATOM     73  F   UNL A   1      39.108  36.400  40.411  1.00  0.00    -0.200 F 
ENDBRANCH  39  63
BRANCH  51  74
ATOM     74  C   UNL A   1      43.755  28.743  35.419  1.00  0.00     0.064 A 
ATOM     75  C   UNL A   1      43.580  27.657  36.289  1.00  0.00     0.173 A 
ATOM     76  C   UNL A   1      45.062  29.210  35.206  1.00  0.00     0.173 A 
ATOM     77  F   UNL A   1      42.350  27.182  36.538  1.00  0.00    -0.203 F 
ATOM     78  C   UNL A   1      44.667  27.079  36.940  1.00  0.00     0.198 A 
ATOM     79  C   UNL A   1      46.149  28.608  35.831  1.00  0.00     0.198 A 
ATOM     80  F   UNL A   1      45.285  30.241  34.378  1.00  0.00    -0.203 F 
ATOM     81  F   UNL A   1      44.471  26.076  37.806  1.00  0.00    -0.200 F 
ATOM     82  C   UNL A   1      45.951  27.549  36.704  1.00  0.00     0.200 A 
ATOM     83  F   UNL A   1      47.390  29.052  35.588  1.00  0.00    -0.200 F 
ATOM     84  F   UNL A   1      46.997  26.985  37.323  1.00  0.00    -0.200 F 
ENDBRANCH  51  74
ENDBRANCH  25  26
ENDBRANCH  17  20
ENDBRANCH  15  16
ENDBRANCH   1  15
TORSDOF 11
ENDMDL
