MODEL 1
REMARK VINA RESULT:     -13.5      0.000      0.000
REMARK SMILES CS(=O)(=O)c1ccc(C2=NN(c3ccc(C(=O)NCCCNC(=O)c4ccc(-c5c6nc(c(-c7c(F)c(F)c(F)c(F)c7F)c7ccc([nH]7)c(-c7c(F)c(F)c(F)c(F)c7F)c7nc(c(-c8c(F)c(F)c(F)c(F)c8F)c8ccc5[nH]8)C=C7)C=C6)cc4)cc3)[C@H](c3ccccc3)C2)cc1
REMARK SMILES IDX 19 1 18 2 16 3 17 4 15 6 12 7 13 8 89 9 14 10 88 11 11 12
REMARK SMILES IDX 9 13 10 14 97 15 90 16 8 17 5 18 6 19 99 20 7 21 98 22 2 23
REMARK SMILES IDX 1 24 3 25 4 26 91 27 92 28 96 29 93 30 95 31 94 32 20 33
REMARK SMILES IDX 21 34 22 35 23 36 24 38 25 39 26 40 87 41 27 42 86 43 28 44
REMARK SMILES IDX 29 45 30 46 80 47 31 48 85 49 79 50 81 51 32 52 84 53 78 54
REMARK SMILES IDX 77 55 33 57 65 58 45 59 64 60 46 61 49 62 63 63 82 64 47 65
REMARK SMILES IDX 48 66 62 68 83 69 50 70 34 71 35 72 43 73 36 74 37 75 41 76
REMARK SMILES IDX 44 77 38 78 39 79 42 80 40 81 66 82 67 83 75 84 68 85 69 86
REMARK SMILES IDX 73 87 76 88 70 89 71 90 74 91 72 92 51 93 52 94 60 95 53 96
REMARK SMILES IDX 54 97 58 98 61 99 55 100 56 101 59 102 57 103
REMARK H PARENT 18 5 22 37 81 56 49 67
REMARK Flexibility Score: inf
ROOT
ATOM      1  C   UNL A   1      38.272  20.485  25.005  1.00  0.00     0.118 C 
ENDROOT
BRANCH   1   2
ATOM      2  N   UNL A   1      38.877  21.674  25.583  1.00  0.00    -0.352 N 
ATOM      3  C   UNL A   1      38.355  22.919  25.832  1.00  0.00     0.251 C 
ATOM      4  O   UNL A   1      39.046  23.733  26.441  1.00  0.00    -0.269 OA
ATOM      5  H   UNL A   1      39.821  21.568  25.840  1.00  0.00     0.163 HD
BRANCH   3   6
ATOM      6  C   UNL A   1      36.969  23.278  25.446  1.00  0.00     0.039 A 
ATOM      7  C   UNL A   1      34.279  23.828  24.832  1.00  0.00     0.060 A 
ATOM      8  C   UNL A   1      34.703  23.764  26.164  1.00  0.00     0.029 A 
ATOM      9  C   UNL A   1      35.230  23.694  23.819  1.00  0.00     0.029 A 
ATOM     10  C   UNL A   1      36.040  23.496  26.472  1.00  0.00     0.016 A 
ATOM     11  C   UNL A   1      36.567  23.434  24.120  1.00  0.00     0.016 A 
BRANCH   7  12
ATOM     12  N   UNL A   1      32.949  23.997  24.499  1.00  0.00    -0.257 N 
ATOM     13  C   UNL A   1      31.243  25.185  24.104  1.00  0.00     0.071 C 
ATOM     14  N   UNL A   1      32.533  25.176  23.991  1.00  0.00    -0.176 NA
ATOM     15  C   UNL A   1      30.640  23.982  24.782  1.00  0.00     0.091 C 
ATOM     16  C   UNL A   1      31.881  23.076  24.881  1.00  0.00     0.144 C 
BRANCH  13  17
ATOM     17  C   UNL A   1      30.433  26.317  23.630  1.00  0.00    -0.002 A 
ATOM     18  C   UNL A   1      29.016  28.583  22.857  1.00  0.00     0.067 A 
ATOM     19  C   UNL A   1      30.387  28.507  22.598  1.00  0.00     0.021 A 
ATOM     20  C   UNL A   1      28.348  27.532  23.498  1.00  0.00     0.021 A 
ATOM     21  C   UNL A   1      31.096  27.377  22.999  1.00  0.00     0.011 A 
ATOM     22  C   UNL A   1      29.058  26.387  23.874  1.00  0.00     0.011 A 
BRANCH  18  23
ATOM     23  S   UNL A   1      28.130  30.055  22.396  1.00  0.00     0.175 S 
ATOM     24  C   UNL A   1      29.143  31.396  22.953  1.00  0.00     0.163 C 
ATOM     25  O   UNL A   1      26.911  30.089  23.183  1.00  0.00    -0.224 OA
ATOM     26  O   UNL A   1      28.092  30.081  20.947  1.00  0.00    -0.224 OA
ENDBRANCH  18  23
ENDBRANCH  13  17
BRANCH  16  27
ATOM     27  C   UNL A   1      31.932  21.827  24.004  1.00  0.00    -0.023 A 
ATOM     28  C   UNL A   1      31.778  21.839  22.609  1.00  0.00     0.006 A 
ATOM     29  C   UNL A   1      32.217  20.589  24.618  1.00  0.00     0.006 A 
ATOM     30  C   UNL A   1      31.890  20.659  21.864  1.00  0.00     0.000 A 
ATOM     31  C   UNL A   1      32.356  19.418  23.871  1.00  0.00     0.000 A 
ATOM     32  C   UNL A   1      32.186  19.452  22.492  1.00  0.00     0.000 A 
ENDBRANCH  16  27
ENDBRANCH   7  12
ENDBRANCH   3   6
ENDBRANCH   1   2
BRANCH   1  33
ATOM     33  C   UNL A   1      39.037  19.222  25.394  1.00  0.00     0.042 C 
BRANCH  33  34
ATOM     34  C   UNL A   1      40.120  19.463  26.440  1.00  0.00     0.118 C 
BRANCH  34  35
ATOM     35  N   UNL A   1      41.372  18.806  26.096  1.00  0.00    -0.352 N 
ATOM     36  C   UNL A   1      42.609  19.342  25.838  1.00  0.00     0.251 C 
ATOM     37  H   UNL A   1      41.324  17.824  26.041  1.00  0.00     0.163 HD
ATOM     38  O   UNL A   1      43.487  18.631  25.357  1.00  0.00    -0.269 OA
BRANCH  36  39
ATOM     39  C   UNL A   1      42.890  20.768  26.114  1.00  0.00     0.039 A 
ATOM     40  C   UNL A   1      43.033  21.177  27.444  1.00  0.00     0.014 A 
ATOM     41  C   UNL A   1      42.968  21.711  25.086  1.00  0.00     0.014 A 
ATOM     42  C   UNL A   1      43.312  22.514  27.738  1.00  0.00     0.010 A 
ATOM     43  C   UNL A   1      43.317  23.030  25.373  1.00  0.00     0.010 A 
ATOM     44  C   UNL A   1      43.488  23.446  26.702  1.00  0.00    -0.014 A 
BRANCH  44  45
ATOM     45  C   UNL A   1      43.860  24.854  26.995  1.00  0.00     0.031 A 
ATOM     46  C   UNL A   1      42.839  25.813  27.540  1.00  0.00     0.074 A 
ATOM     47  C   UNL A   1      45.106  25.282  26.712  1.00  0.00     0.049 A 
ATOM     48  N   UNL A   1      42.962  27.090  27.807  1.00  0.00    -0.248 NA
ATOM     49  C   UNL A   1      41.495  25.274  27.799  1.00  0.00     0.031 C 
ATOM     50  C   UNL A   1      46.171  24.461  26.135  1.00  0.00     0.029 A 
ATOM     51  N   UNL A   1      45.685  26.518  26.864  1.00  0.00    -0.354 N 
ATOM     52  C   UNL A   1      41.713  27.507  28.249  1.00  0.00     0.074 A 
ATOM     53  C   UNL A   1      40.832  26.361  28.168  1.00  0.00     0.031 C 
ATOM     54  C   UNL A   1      47.278  25.207  25.999  1.00  0.00     0.029 A 
ATOM     55  C   UNL A   1      46.992  26.567  26.445  1.00  0.00     0.049 A 
ATOM     56  H   UNL A   1      45.209  27.295  27.236  1.00  0.00     0.167 HD
ATOM     57  C   UNL A   1      41.340  28.728  28.700  1.00  0.00     0.037 A 
ATOM     58  C   UNL A   1      47.860  27.597  26.416  1.00  0.00     0.037 A 
ATOM     59  C   UNL A   1      42.226  29.859  28.802  1.00  0.00     0.049 A 
ATOM     60  C   UNL A   1      47.420  28.944  26.922  1.00  0.00     0.074 A 
ATOM     61  C   UNL A   1      41.960  31.120  29.308  1.00  0.00     0.029 A 
ATOM     62  N   UNL A   1      43.549  29.866  28.385  1.00  0.00    -0.354 N 
ATOM     63  N   UNL A   1      46.258  29.305  27.409  1.00  0.00    -0.248 NA
ATOM     64  C   UNL A   1      48.414  30.024  26.881  1.00  0.00     0.031 C 
ATOM     65  C   UNL A   1      43.109  31.903  29.154  1.00  0.00     0.029 A 
ATOM     66  C   UNL A   1      44.106  31.116  28.601  1.00  0.00     0.049 A 
ATOM     67  H   UNL A   1      44.023  29.096  27.995  1.00  0.00     0.167 HD
ATOM     68  C   UNL A   1      46.389  30.642  27.758  1.00  0.00     0.074 A 
ATOM     69  C   UNL A   1      47.750  31.024  27.441  1.00  0.00     0.031 C 
ATOM     70  C   UNL A   1      45.465  31.479  28.290  1.00  0.00     0.037 A 
BRANCH  57  71
ATOM     71  C   UNL A   1      39.912  28.908  29.128  1.00  0.00     0.064 A 
ATOM     72  C   UNL A   1      39.509  28.690  30.454  1.00  0.00     0.173 A 
ATOM     73  C   UNL A   1      38.944  29.351  28.214  1.00  0.00     0.173 A 
ATOM     74  F   UNL A   1      40.393  28.258  31.367  1.00  0.00    -0.203 F 
ATOM     75  C   UNL A   1      38.186  28.883  30.843  1.00  0.00     0.198 A 
ATOM     76  C   UNL A   1      37.629  29.572  28.613  1.00  0.00     0.198 A 
ATOM     77  F   UNL A   1      39.277  29.582  26.935  1.00  0.00    -0.203 F 
ATOM     78  F   UNL A   1      37.815  28.625  32.105  1.00  0.00    -0.200 F 
ATOM     79  C   UNL A   1      37.249  29.331  29.924  1.00  0.00     0.200 A 
ATOM     80  F   UNL A   1      36.727  30.018  27.727  1.00  0.00    -0.200 F 
ATOM     81  F   UNL A   1      35.978  29.526  30.302  1.00  0.00    -0.200 F 
ENDBRANCH  57  71
BRANCH  58  82
ATOM     82  C   UNL A   1      49.242  27.388  25.910  1.00  0.00     0.064 A 
ATOM     83  C   UNL A   1      49.521  27.435  24.537  1.00  0.00     0.173 A 
ATOM     84  C   UNL A   1      50.309  27.131  26.784  1.00  0.00     0.173 A 
ATOM     85  F   UNL A   1      48.531  27.657  23.661  1.00  0.00    -0.203 F 
ATOM     86  C   UNL A   1      50.809  27.209  24.055  1.00  0.00     0.198 A 
ATOM     87  C   UNL A   1      51.602  26.935  26.304  1.00  0.00     0.198 A 
ATOM     88  F   UNL A   1      50.097  27.082  28.106  1.00  0.00    -0.203 F 
ATOM     89  F   UNL A   1      51.038  27.212  22.735  1.00  0.00    -0.200 F 
ATOM     90  C   UNL A   1      51.849  26.965  24.939  1.00  0.00     0.200 A 
ATOM     91  F   UNL A   1      52.607  26.714  27.161  1.00  0.00    -0.200 F 
ATOM     92  F   UNL A   1      53.088  26.752  24.476  1.00  0.00    -0.200 F 
ENDBRANCH  58  82
BRANCH  70  93
ATOM     93  C   UNL A   1      45.903  32.881  28.600  1.00  0.00     0.064 A 
ATOM     94  C   UNL A   1      46.534  33.204  29.810  1.00  0.00     0.173 A 
ATOM     95  C   UNL A   1      45.727  33.904  27.656  1.00  0.00     0.173 A 
ATOM     96  F   UNL A   1      46.711  32.264  30.751  1.00  0.00    -0.203 F 
ATOM     97  C   UNL A   1      46.951  34.506  30.074  1.00  0.00     0.198 A 
ATOM     98  C   UNL A   1      46.172  35.197  27.910  1.00  0.00     0.198 A 
ATOM     99  F   UNL A   1      45.135  33.645  26.481  1.00  0.00    -0.203 F 
ATOM    100  F   UNL A   1      47.508  34.802  31.256  1.00  0.00    -0.200 F 
ATOM    101  C   UNL A   1      46.777  35.500  29.121  1.00  0.00     0.200 A 
ATOM    102  F   UNL A   1      46.016  36.153  26.984  1.00  0.00    -0.200 F 
ATOM    103  F   UNL A   1      47.186  36.750  29.374  1.00  0.00    -0.200 F 
ENDBRANCH  70  93
ENDBRANCH  44  45
ENDBRANCH  36  39
ENDBRANCH  34  35
ENDBRANCH  33  34
ENDBRANCH   1  33
TORSDOF 14
ENDMDL
MODEL 2
REMARK VINA RESULT:     -13.4      0.475      7.109
REMARK SMILES CS(=O)(=O)c1ccc(C2=NN(c3ccc(C(=O)NCCCNC(=O)c4ccc(-c5c6nc(c(-c7c(F)c(F)c(F)c(F)c7F)c7ccc([nH]7)c(-c7c(F)c(F)c(F)c(F)c7F)c7nc(c(-c8c(F)c(F)c(F)c(F)c8F)c8ccc5[nH]8)C=C7)C=C6)cc4)cc3)[C@H](c3ccccc3)C2)cc1
REMARK SMILES IDX 19 1 18 2 16 3 17 4 15 6 12 7 13 8 89 9 14 10 88 11 11 12
REMARK SMILES IDX 9 13 10 14 97 15 90 16 8 17 5 18 6 19 99 20 7 21 98 22 2 23
REMARK SMILES IDX 1 24 3 25 4 26 91 27 92 28 96 29 93 30 95 31 94 32 20 33
REMARK SMILES IDX 21 34 22 35 23 36 24 38 25 39 26 40 87 41 27 42 86 43 28 44
REMARK SMILES IDX 29 45 30 46 80 47 31 48 85 49 79 50 81 51 32 52 84 53 78 54
REMARK SMILES IDX 77 55 33 57 65 58 45 59 64 60 46 61 49 62 63 63 82 64 47 65
REMARK SMILES IDX 48 66 62 68 83 69 50 70 34 71 35 72 43 73 36 74 37 75 41 76
REMARK SMILES IDX 44 77 38 78 39 79 42 80 40 81 66 82 67 83 75 84 68 85 69 86
REMARK SMILES IDX 73 87 76 88 70 89 71 90 74 91 72 92 51 93 52 94 60 95 53 96
REMARK SMILES IDX 54 97 58 98 61 99 55 100 56 101 59 102 57 103
REMARK H PARENT 18 5 22 37 81 56 49 67
REMARK Flexibility Score: inf
ROOT
ATOM      1  C   UNL A   1      38.252  20.443  25.041  1.00  0.00     0.118 C 
ENDROOT
BRANCH   1   2
ATOM      2  N   UNL A   1      38.885  21.645  25.560  1.00  0.00    -0.352 N 
ATOM      3  C   UNL A   1      38.384  22.905  25.774  1.00  0.00     0.251 C 
ATOM      4  O   UNL A   1      39.098  23.733  26.336  1.00  0.00    -0.269 OA
ATOM      5  H   UNL A   1      39.834  21.537  25.797  1.00  0.00     0.163 HD
BRANCH   3   6
ATOM      6  C   UNL A   1      36.992  23.266  25.409  1.00  0.00     0.039 A 
ATOM      7  C   UNL A   1      34.295  23.820  24.833  1.00  0.00     0.060 A 
ATOM      8  C   UNL A   1      34.736  23.751  26.158  1.00  0.00     0.029 A 
ATOM      9  C   UNL A   1      35.232  23.689  23.807  1.00  0.00     0.029 A 
ATOM     10  C   UNL A   1      36.078  23.481  26.447  1.00  0.00     0.016 A 
ATOM     11  C   UNL A   1      36.572  23.427  24.088  1.00  0.00     0.016 A 
BRANCH   7  12
ATOM     12  N   UNL A   1      32.960  23.991  24.518  1.00  0.00    -0.257 N 
ATOM     13  C   UNL A   1      31.252  25.181  24.142  1.00  0.00     0.071 C 
ATOM     14  N   UNL A   1      32.540  25.168  24.011  1.00  0.00    -0.176 NA
ATOM     15  C   UNL A   1      30.656  23.984  24.836  1.00  0.00     0.091 C 
ATOM     16  C   UNL A   1      31.895  23.075  24.921  1.00  0.00     0.144 C 
BRANCH  13  17
ATOM     17  C   UNL A   1      30.438  26.314  23.674  1.00  0.00    -0.002 A 
ATOM     18  C   UNL A   1      29.007  28.577  22.920  1.00  0.00     0.067 A 
ATOM     19  C   UNL A   1      30.388  28.535  22.711  1.00  0.00     0.021 A 
ATOM     20  C   UNL A   1      28.337  27.493  23.502  1.00  0.00     0.021 A 
ATOM     21  C   UNL A   1      31.103  27.405  23.102  1.00  0.00     0.011 A 
ATOM     22  C   UNL A   1      29.054  26.350  23.868  1.00  0.00     0.011 A 
BRANCH  18  23
ATOM     23  S   UNL A   1      28.110  30.046  22.472  1.00  0.00     0.175 S 
ATOM     24  C   UNL A   1      29.129  31.391  23.012  1.00  0.00     0.163 C 
ATOM     25  O   UNL A   1      26.904  30.079  23.280  1.00  0.00    -0.224 OA
ATOM     26  O   UNL A   1      28.048  30.071  21.025  1.00  0.00    -0.224 OA
ENDBRANCH  18  23
ENDBRANCH  13  17
BRANCH  16  27
ATOM     27  C   UNL A   1      31.930  21.821  24.050  1.00  0.00    -0.023 A 
ATOM     28  C   UNL A   1      31.764  21.827  22.657  1.00  0.00     0.006 A 
ATOM     29  C   UNL A   1      32.211  20.585  24.669  1.00  0.00     0.006 A 
ATOM     30  C   UNL A   1      31.862  20.642  21.917  1.00  0.00     0.000 A 
ATOM     31  C   UNL A   1      32.335  19.408  23.927  1.00  0.00     0.000 A 
ATOM     32  C   UNL A   1      32.154  19.436  22.550  1.00  0.00     0.000 A 
ENDBRANCH  16  27
ENDBRANCH   7  12
ENDBRANCH   3   6
ENDBRANCH   1   2
BRANCH   1  33
ATOM     33  C   UNL A   1      39.065  19.194  25.376  1.00  0.00     0.042 C 
BRANCH  33  34
ATOM     34  C   UNL A   1      40.108  19.420  26.465  1.00  0.00     0.118 C 
BRANCH  34  35
ATOM     35  N   UNL A   1      41.393  18.828  26.126  1.00  0.00    -0.352 N 
ATOM     36  C   UNL A   1      42.605  19.426  25.887  1.00  0.00     0.251 C 
ATOM     37  H   UNL A   1      41.394  17.846  26.058  1.00  0.00     0.163 HD
ATOM     38  O   UNL A   1      43.522  18.765  25.407  1.00  0.00    -0.269 OA
BRANCH  36  39
ATOM     39  C   UNL A   1      42.815  20.861  26.185  1.00  0.00     0.039 A 
ATOM     40  C   UNL A   1      42.971  21.252  27.519  1.00  0.00     0.014 A 
ATOM     41  C   UNL A   1      42.812  21.825  25.174  1.00  0.00     0.014 A 
ATOM     42  C   UNL A   1      43.184  22.597  27.832  1.00  0.00     0.010 A 
ATOM     43  C   UNL A   1      43.095  23.156  25.479  1.00  0.00     0.010 A 
ATOM     44  C   UNL A   1      43.280  23.556  26.810  1.00  0.00    -0.014 A 
BRANCH  44  45
ATOM     45  C   UNL A   1      43.581  24.977  27.121  1.00  0.00     0.031 A 
ATOM     46  C   UNL A   1      44.961  25.530  26.894  1.00  0.00     0.074 A 
ATOM     47  C   UNL A   1      42.624  25.753  27.666  1.00  0.00     0.049 A 
ATOM     48  N   UNL A   1      45.427  26.727  27.155  1.00  0.00    -0.248 NA
ATOM     49  C   UNL A   1      45.957  24.612  26.320  1.00  0.00     0.031 C 
ATOM     50  C   UNL A   1      41.262  25.319  27.980  1.00  0.00     0.029 A 
ATOM     51  N   UNL A   1      42.652  27.068  28.060  1.00  0.00    -0.354 N 
ATOM     52  C   UNL A   1      46.766  26.700  26.791  1.00  0.00     0.074 A 
ATOM     53  C   UNL A   1      47.054  25.356  26.338  1.00  0.00     0.031 C 
ATOM     54  C   UNL A   1      40.579  26.351  28.499  1.00  0.00     0.029 A 
ATOM     55  C   UNL A   1      41.463  27.509  28.588  1.00  0.00     0.049 A 
ATOM     56  H   UNL A   1      43.448  27.640  27.973  1.00  0.00     0.167 HD
ATOM     57  C   UNL A   1      47.669  27.709  26.813  1.00  0.00     0.037 A 
ATOM     58  C   UNL A   1      41.127  28.710  29.096  1.00  0.00     0.037 A 
ATOM     59  C   UNL A   1      47.372  29.052  27.242  1.00  0.00     0.049 A 
ATOM     60  C   UNL A   1      42.149  29.815  29.110  1.00  0.00     0.074 A 
ATOM     61  C   UNL A   1      48.201  30.161  27.240  1.00  0.00     0.029 A 
ATOM     62  N   UNL A   1      46.151  29.466  27.753  1.00  0.00    -0.354 N 
ATOM     63  N   UNL A   1      43.392  29.797  28.691  1.00  0.00    -0.248 NA
ATOM     64  C   UNL A   1      41.721  31.107  29.660  1.00  0.00     0.031 C 
ATOM     65  C   UNL A   1      47.495  31.234  27.793  1.00  0.00     0.029 A 
ATOM     66  C   UNL A   1      46.211  30.808  28.092  1.00  0.00     0.049 A 
ATOM     67  H   UNL A   1      45.358  28.891  27.859  1.00  0.00     0.167 HD
ATOM     68  C   UNL A   1      43.883  31.078  28.901  1.00  0.00     0.074 A 
ATOM     69  C   UNL A   1      42.799  31.853  29.469  1.00  0.00     0.031 C 
ATOM     70  C   UNL A   1      45.121  31.568  28.647  1.00  0.00     0.037 A 
BRANCH  57  71
ATOM     71  C   UNL A   1      49.066  27.407  26.354  1.00  0.00     0.064 A 
ATOM     72  C   UNL A   1      49.424  27.471  24.998  1.00  0.00     0.173 A 
ATOM     73  C   UNL A   1      50.071  27.098  27.283  1.00  0.00     0.173 A 
ATOM     74  F   UNL A   1      48.499  27.753  24.067  1.00  0.00    -0.203 F 
ATOM     75  C   UNL A   1      50.729  27.210  24.587  1.00  0.00     0.198 A 
ATOM     76  C   UNL A   1      51.381  26.867  26.872  1.00  0.00     0.198 A 
ATOM     77  F   UNL A   1      49.785  27.032  28.591  1.00  0.00    -0.203 F 
ATOM     78  F   UNL A   1      51.037  27.232  23.283  1.00  0.00    -0.200 F 
ATOM     79  C   UNL A   1      51.708  26.916  25.525  1.00  0.00     0.200 A 
ATOM     80  F   UNL A   1      52.329  26.598  27.780  1.00  0.00    -0.200 F 
ATOM     81  F   UNL A   1      52.965  26.676  25.130  1.00  0.00    -0.200 F 
ENDBRANCH  57  71
BRANCH  58  82
ATOM     82  C   UNL A   1      39.752  28.940  29.611  1.00  0.00     0.064 A 
ATOM     83  C   UNL A   1      39.437  28.696  30.955  1.00  0.00     0.173 A 
ATOM     84  C   UNL A   1      38.724  29.398  28.773  1.00  0.00     0.173 A 
ATOM     85  F   UNL A   1      40.380  28.237  31.790  1.00  0.00    -0.203 F 
ATOM     86  C   UNL A   1      38.142  28.880  31.437  1.00  0.00     0.198 A 
ATOM     87  C   UNL A   1      37.437  29.610  29.262  1.00  0.00     0.198 A 
ATOM     88  F   UNL A   1      38.974  29.652  27.481  1.00  0.00    -0.203 F 
ATOM     89  F   UNL A   1      37.858  28.593  32.714  1.00  0.00    -0.200 F 
ATOM     90  C   UNL A   1      37.145  29.341  30.592  1.00  0.00     0.200 A 
ATOM     91  F   UNL A   1      36.479  30.071  28.447  1.00  0.00    -0.200 F 
ATOM     92  F   UNL A   1      35.901  29.521  31.055  1.00  0.00    -0.200 F 
ENDBRANCH  58  82
BRANCH  70  93
ATOM     93  C   UNL A   1      45.361  33.020  28.947  1.00  0.00     0.064 A 
ATOM     94  C   UNL A   1      45.035  34.025  28.025  1.00  0.00     0.173 A 
ATOM     95  C   UNL A   1      45.885  33.410  30.189  1.00  0.00     0.173 A 
ATOM     96  F   UNL A   1      44.546  33.701  26.818  1.00  0.00    -0.203 F 
ATOM     97  C   UNL A   1      45.248  35.368  28.326  1.00  0.00     0.198 A 
ATOM     98  C   UNL A   1      46.068  34.754  30.498  1.00  0.00     0.198 A 
ATOM     99  F   UNL A   1      46.207  32.487  31.107  1.00  0.00    -0.203 F 
ATOM    100  F   UNL A   1      44.973  36.309  27.413  1.00  0.00    -0.200 F 
ATOM    101  C   UNL A   1      45.756  35.732  29.565  1.00  0.00     0.200 A 
ATOM    102  F   UNL A   1      46.546  35.105  31.699  1.00  0.00    -0.200 F 
ATOM    103  F   UNL A   1      45.952  37.024  29.856  1.00  0.00    -0.200 F 
ENDBRANCH  70  93
ENDBRANCH  44  45
ENDBRANCH  36  39
ENDBRANCH  34  35
ENDBRANCH  33  34
ENDBRANCH   1  33
TORSDOF 14
ENDMDL
MODEL 3
REMARK VINA RESULT:     -13.2      4.336      8.154
REMARK SMILES CS(=O)(=O)c1ccc(C2=NN(c3ccc(C(=O)NCCCNC(=O)c4ccc(-c5c6nc(c(-c7c(F)c(F)c(F)c(F)c7F)c7ccc([nH]7)c(-c7c(F)c(F)c(F)c(F)c7F)c7nc(c(-c8c(F)c(F)c(F)c(F)c8F)c8ccc5[nH]8)C=C7)C=C6)cc4)cc3)[C@H](c3ccccc3)C2)cc1
REMARK SMILES IDX 19 1 18 2 16 3 17 4 15 6 12 7 13 8 89 9 14 10 88 11 11 12
REMARK SMILES IDX 9 13 10 14 97 15 90 16 8 17 5 18 6 19 99 20 7 21 98 22 2 23
REMARK SMILES IDX 1 24 3 25 4 26 91 27 92 28 96 29 93 30 95 31 94 32 20 33
REMARK SMILES IDX 21 34 22 35 23 36 24 38 25 39 26 40 87 41 27 42 86 43 28 44
REMARK SMILES IDX 29 45 30 46 80 47 31 48 85 49 79 50 81 51 32 52 84 53 78 54
REMARK SMILES IDX 77 55 33 57 65 58 45 59 64 60 46 61 49 62 63 63 82 64 47 65
REMARK SMILES IDX 48 66 62 68 83 69 50 70 34 71 35 72 43 73 36 74 37 75 41 76
REMARK SMILES IDX 44 77 38 78 39 79 42 80 40 81 66 82 67 83 75 84 68 85 69 86
REMARK SMILES IDX 73 87 76 88 70 89 71 90 74 91 72 92 51 93 52 94 60 95 53 96
REMARK SMILES IDX 54 97 58 98 61 99 55 100 56 101 59 102 57 103
REMARK H PARENT 18 5 22 37 81 56 49 67
REMARK Flexibility Score: inf
ROOT
ATOM      1  C   UNL A   1      39.025  21.215  25.840  1.00  0.00     0.118 C 
ENDROOT
BRANCH   1   2
ATOM      2  N   UNL A   1      39.349  22.610  26.094  1.00  0.00    -0.352 N 
ATOM      3  C   UNL A   1      38.558  23.732  26.098  1.00  0.00     0.251 C 
ATOM      4  O   UNL A   1      39.053  24.798  26.458  1.00  0.00    -0.269 OA
ATOM      5  H   UNL A   1      40.298  22.778  26.297  1.00  0.00     0.163 HD
BRANCH   3   6
ATOM      6  C   UNL A   1      37.118  23.675  25.746  1.00  0.00     0.039 A 
ATOM      7  C   UNL A   1      34.417  23.711  24.961  1.00  0.00     0.060 A 
ATOM      8  C   UNL A   1      35.433  23.692  24.001  1.00  0.00     0.029 A 
ATOM      9  C   UNL A   1      34.768  23.630  26.310  1.00  0.00     0.029 A 
ATOM     10  C   UNL A   1      36.777  23.669  24.388  1.00  0.00     0.016 A 
ATOM     11  C   UNL A   1      36.106  23.600  26.702  1.00  0.00     0.016 A 
BRANCH   7  12
ATOM     12  N   UNL A   1      33.085  23.828  24.611  1.00  0.00    -0.257 N 
ATOM     13  C   UNL A   1      31.334  24.947  24.215  1.00  0.00     0.071 C 
ATOM     14  N   UNL A   1      32.624  24.998  24.122  1.00  0.00    -0.176 NA
ATOM     15  C   UNL A   1      30.776  23.704  24.860  1.00  0.00     0.091 C 
ATOM     16  C   UNL A   1      32.054  22.852  24.958  1.00  0.00     0.144 C 
BRANCH  13  17
ATOM     17  C   UNL A   1      30.481  26.052  23.752  1.00  0.00    -0.002 A 
ATOM     18  C   UNL A   1      28.990  28.272  22.986  1.00  0.00     0.067 A 
ATOM     19  C   UNL A   1      30.339  28.193  22.630  1.00  0.00     0.021 A 
ATOM     20  C   UNL A   1      28.381  27.247  23.720  1.00  0.00     0.021 A 
ATOM     21  C   UNL A   1      31.086  27.086  23.028  1.00  0.00     0.011 A 
ATOM     22  C   UNL A   1      29.127  26.124  24.093  1.00  0.00     0.011 A 
BRANCH  18  23
ATOM     23  S   UNL A   1      28.059  29.716  22.526  1.00  0.00     0.175 S 
ATOM     24  C   UNL A   1      28.887  31.069  23.313  1.00  0.00     0.163 C 
ATOM     25  O   UNL A   1      26.751  29.602  23.146  1.00  0.00    -0.224 OA
ATOM     26  O   UNL A   1      28.202  29.864  21.092  1.00  0.00    -0.224 OA
ENDBRANCH  18  23
ENDBRANCH  13  17
BRANCH  16  27
ATOM     27  C   UNL A   1      32.174  21.625  24.056  1.00  0.00    -0.023 A 
ATOM     28  C   UNL A   1      32.510  20.343  24.515  1.00  0.00     0.006 A 
ATOM     29  C   UNL A   1      31.862  21.769  22.688  1.00  0.00     0.006 A 
ATOM     30  C   UNL A   1      32.548  19.253  23.636  1.00  0.00     0.000 A 
ATOM     31  C   UNL A   1      31.873  20.676  21.818  1.00  0.00     0.000 A 
ATOM     32  C   UNL A   1      32.223  19.418  22.292  1.00  0.00     0.000 A 
ENDBRANCH  16  27
ENDBRANCH   7  12
ENDBRANCH   3   6
ENDBRANCH   1   2
BRANCH   1  33
ATOM     33  C   UNL A   1      40.217  20.303  26.121  1.00  0.00     0.042 C 
BRANCH  33  34
ATOM     34  C   UNL A   1      41.421  21.036  26.703  1.00  0.00     0.118 C 
BRANCH  34  35
ATOM     35  N   UNL A   1      42.325  21.516  25.668  1.00  0.00    -0.352 N 
ATOM     36  C   UNL A   1      42.820  22.776  25.443  1.00  0.00     0.251 C 
ATOM     37  H   UNL A   1      42.629  20.830  25.031  1.00  0.00     0.163 HD
ATOM     38  O   UNL A   1      43.401  23.019  24.389  1.00  0.00    -0.269 OA
BRANCH  36  39
ATOM     39  C   UNL A   1      42.646  23.850  26.447  1.00  0.00     0.039 A 
ATOM     40  C   UNL A   1      42.932  25.167  26.075  1.00  0.00     0.014 A 
ATOM     41  C   UNL A   1      42.249  23.567  27.757  1.00  0.00     0.014 A 
ATOM     42  C   UNL A   1      42.766  26.204  26.997  1.00  0.00     0.010 A 
ATOM     43  C   UNL A   1      42.014  24.609  28.654  1.00  0.00     0.010 A 
ATOM     44  C   UNL A   1      42.273  25.937  28.285  1.00  0.00    -0.014 A 
BRANCH  44  45
ATOM     45  C   UNL A   1      42.018  27.037  29.249  1.00  0.00     0.031 A 
ATOM     46  C   UNL A   1      42.934  27.248  30.423  1.00  0.00     0.074 A 
ATOM     47  C   UNL A   1      40.925  27.810  29.099  1.00  0.00     0.049 A 
ATOM     48  N   UNL A   1      42.844  28.119  31.398  1.00  0.00    -0.248 NA
ATOM     49  C   UNL A   1      44.093  26.347  30.530  1.00  0.00     0.031 C 
ATOM     50  C   UNL A   1      39.934  27.673  28.031  1.00  0.00     0.029 A 
ATOM     51  N   UNL A   1      40.458  28.859  29.852  1.00  0.00    -0.354 N 
ATOM     52  C   UNL A   1      43.920  27.862  32.237  1.00  0.00     0.074 A 
ATOM     53  C   UNL A   1      44.623  26.723  31.686  1.00  0.00     0.031 C 
ATOM     54  C   UNL A   1      38.989  28.612  28.183  1.00  0.00     0.029 A 
ATOM     55  C   UNL A   1      39.285  29.395  29.379  1.00  0.00     0.049 A 
ATOM     56  H   UNL A   1      40.919  29.194  30.654  1.00  0.00     0.167 HD
ATOM     57  C   UNL A   1      44.300  28.527  33.353  1.00  0.00     0.037 A 
ATOM     58  C   UNL A   1      38.529  30.400  29.862  1.00  0.00     0.037 A 
ATOM     59  C   UNL A   1      43.612  29.676  33.885  1.00  0.00     0.049 A 
ATOM     60  C   UNL A   1      38.972  31.122  31.105  1.00  0.00     0.074 A 
ATOM     61  C   UNL A   1      43.956  30.459  34.973  1.00  0.00     0.029 A 
ATOM     62  N   UNL A   1      42.437  30.202  33.368  1.00  0.00    -0.354 N 
ATOM     63  N   UNL A   1      40.035  30.917  31.846  1.00  0.00    -0.248 NA
ATOM     64  C   UNL A   1      38.117  32.219  31.575  1.00  0.00     0.031 C 
ATOM     65  C   UNL A   1      42.964  31.431  35.142  1.00  0.00     0.029 A 
ATOM     66  C   UNL A   1      42.031  31.286  34.129  1.00  0.00     0.049 A 
ATOM     67  H   UNL A   1      41.964  29.857  32.577  1.00  0.00     0.167 HD
ATOM     68  C   UNL A   1      39.990  31.875  32.850  1.00  0.00     0.074 A 
ATOM     69  C   UNL A   1      38.803  32.671  32.614  1.00  0.00     0.031 C 
ATOM     70  C   UNL A   1      40.852  32.075  33.876  1.00  0.00     0.037 A 
BRANCH  57  71
ATOM     71  C   UNL A   1      45.522  28.038  34.076  1.00  0.00     0.064 A 
ATOM     72  C   UNL A   1      46.802  28.521  33.766  1.00  0.00     0.173 A 
ATOM     73  C   UNL A   1      45.407  27.112  35.125  1.00  0.00     0.173 A 
ATOM     74  F   UNL A   1      46.969  29.400  32.767  1.00  0.00    -0.203 F 
ATOM     75  C   UNL A   1      47.925  28.075  34.460  1.00  0.00     0.198 A 
ATOM     76  C   UNL A   1      46.527  26.692  35.836  1.00  0.00     0.198 A 
ATOM     77  F   UNL A   1      44.206  26.625  35.468  1.00  0.00    -0.203 F 
ATOM     78  F   UNL A   1      49.143  28.517  34.116  1.00  0.00    -0.200 F 
ATOM     79  C   UNL A   1      47.785  27.167  35.499  1.00  0.00     0.200 A 
ATOM     80  F   UNL A   1      46.389  25.826  36.850  1.00  0.00    -0.200 F 
ATOM     81  F   UNL A   1      48.865  26.748  36.174  1.00  0.00    -0.200 F 
ENDBRANCH  57  71
BRANCH  58  82
ATOM     82  C   UNL A   1      37.284  30.799  29.153  1.00  0.00     0.064 A 
ATOM     83  C   UNL A   1      36.206  29.910  29.037  1.00  0.00     0.173 A 
ATOM     84  C   UNL A   1      37.149  32.069  28.572  1.00  0.00     0.173 A 
ATOM     85  F   UNL A   1      36.296  28.678  29.558  1.00  0.00    -0.203 F 
ATOM     86  C   UNL A   1      35.049  30.267  28.347  1.00  0.00     0.198 A 
ATOM     87  C   UNL A   1      35.980  32.436  27.908  1.00  0.00     0.198 A 
ATOM     88  F   UNL A   1      38.149  32.957  28.660  1.00  0.00    -0.203 F 
ATOM     89  F   UNL A   1      34.054  29.382  28.210  1.00  0.00    -0.200 F 
ATOM     90  C   UNL A   1      34.935  31.531  27.788  1.00  0.00     0.200 A 
ATOM     91  F   UNL A   1      35.868  33.662  27.382  1.00  0.00    -0.200 F 
ATOM     92  F   UNL A   1      33.822  31.876  27.128  1.00  0.00    -0.200 F 
ENDBRANCH  58  82
BRANCH  70  93
ATOM     93  C   UNL A   1      40.567  33.223  34.801  1.00  0.00     0.064 A 
ATOM     94  C   UNL A   1      41.054  34.513  34.544  1.00  0.00     0.173 A 
ATOM     95  C   UNL A   1      39.762  33.036  35.935  1.00  0.00     0.173 A 
ATOM     96  F   UNL A   1      41.840  34.739  33.481  1.00  0.00    -0.203 F 
ATOM     97  C   UNL A   1      40.765  35.570  35.403  1.00  0.00     0.198 A 
ATOM     98  C   UNL A   1      39.451  34.101  36.775  1.00  0.00     0.198 A 
ATOM     99  F   UNL A   1      39.268  31.823  36.221  1.00  0.00    -0.203 F 
ATOM    100  F   UNL A   1      41.279  36.784  35.164  1.00  0.00    -0.200 F 
ATOM    101  C   UNL A   1      39.957  35.365  36.513  1.00  0.00     0.200 A 
ATOM    102  F   UNL A   1      38.660  33.905  37.838  1.00  0.00    -0.200 F 
ATOM    103  F   UNL A   1      39.674  36.385  37.333  1.00  0.00    -0.200 F 
ENDBRANCH  70  93
ENDBRANCH  44  45
ENDBRANCH  36  39
ENDBRANCH  34  35
ENDBRANCH  33  34
ENDBRANCH   1  33
TORSDOF 14
ENDMDL
