MODEL 1
REMARK VINA RESULT:     -12.2      0.000      0.000
REMARK SMILES NC(=O)C[C@H](NC(=O)[C@@H]1CC(=O)N(CC2CC2)C1)C(=O)NCCCNC(=O)c1ccc(-c2c3nc(c(-c4c(F)c(F)c(F)c(F)c4F)c4ccc([nH]4)c(-c4c(F)c(F)c(F)c(F)c4F)c4nc(c(-c5c(F)c(F)c(F)c(F)c5F)c5ccc2[nH]5)C=C4)C=C3)cc1
REMARK SMILES IDX 22 1 21 2 19 3 20 4 5 6 4 7 2 8 1 9 3 12 6 13 7 14 8 16 9 17
REMARK SMILES IDX 10 18 18 19 11 20 13 21 12 22 14 23 15 24 16 25 17 26 23 27
REMARK SMILES IDX 24 28 25 29 26 30 27 32 28 33 29 34 90 35 30 36 89 37 31 38
REMARK SMILES IDX 32 39 33 40 83 41 34 42 88 43 82 44 84 45 35 46 87 47 81 48
REMARK SMILES IDX 80 49 36 51 68 52 48 53 67 54 49 55 52 56 66 57 85 58 50 59
REMARK SMILES IDX 51 60 65 62 86 63 53 64 37 65 38 66 46 67 39 68 40 69 44 70
REMARK SMILES IDX 47 71 41 72 42 73 45 74 43 75 69 76 70 77 78 78 71 79 72 80
REMARK SMILES IDX 76 81 79 82 73 83 74 84 77 85 75 86 54 87 55 88 63 89 56 90
REMARK SMILES IDX 57 91 61 92 64 93 58 94 59 95 62 96 60 97
REMARK H PARENT 21 5 1 10 1 11 6 15 25 31 84 50 52 61
REMARK Flexibility Score: inf
ROOT
ATOM      1  C   UNL A   1      32.008  30.168  26.559  1.00  0.00     0.117 C 
ENDROOT
BRANCH   1   2
ATOM      2  N   UNL A   1      32.737  30.110  25.313  1.00  0.00    -0.354 N 
ATOM      3  C   UNL A   1      32.618  29.226  24.290  1.00  0.00     0.243 C 
ATOM      4  O   UNL A   1      33.482  29.240  23.412  1.00  0.00    -0.273 OA
ATOM      5  H   UNL A   1      33.415  30.811  25.188  1.00  0.00     0.163 HD
BRANCH   3   6
ATOM      6  C   UNL A   1      31.365  28.343  24.149  1.00  0.00     0.180 C 
BRANCH   6   7
ATOM      7  C   UNL A   1      30.198  29.266  23.831  1.00  0.00     0.134 C 
BRANCH   7   8
ATOM      8  C   UNL A   1      29.962  29.559  22.363  1.00  0.00     0.220 C 
ATOM      9  N   UNL A   1      30.980  30.076  21.626  1.00  0.00    -0.370 N 
ATOM     10  H   UNL A   1      30.846  30.273  20.671  1.00  0.00     0.159 HD
ATOM     11  H   UNL A   1      31.852  30.252  22.047  1.00  0.00     0.159 HD
ATOM     12  O   UNL A   1      28.899  29.274  21.817  1.00  0.00    -0.275 OA
ENDBRANCH   7   8
ENDBRANCH   6   7
BRANCH   6  13
ATOM     13  N   UNL A   1      31.277  27.237  25.143  1.00  0.00    -0.343 N 
ATOM     14  C   UNL A   1      31.934  26.243  25.775  1.00  0.00     0.226 C 
ATOM     15  H   UNL A   1      30.352  27.229  25.481  1.00  0.00     0.164 HD
ATOM     16  O   UNL A   1      31.176  25.528  26.449  1.00  0.00    -0.275 OA
BRANCH  14  17
ATOM     17  C   UNL A   1      33.404  25.846  25.660  1.00  0.00     0.107 C 
ATOM     18  C   UNL A   1      33.928  25.971  24.212  1.00  0.00     0.115 C 
ATOM     19  C   UNL A   1      33.767  24.434  26.029  1.00  0.00     0.133 C 
ATOM     20  C   UNL A   1      33.980  24.547  23.711  1.00  0.00     0.223 C 
ATOM     21  N   UNL A   1      33.989  23.714  24.814  1.00  0.00    -0.342 N 
ATOM     22  O   UNL A   1      34.027  24.212  22.544  1.00  0.00    -0.275 OA
BRANCH  21  23
ATOM     23  C   UNL A   1      33.894  22.264  24.738  1.00  0.00     0.123 C 
BRANCH  23  24
ATOM     24  C   UNL A   1      35.137  21.514  24.352  1.00  0.00     0.008 C 
ATOM     25  C   UNL A   1      36.535  22.085  24.351  1.00  0.00     0.006 C 
ATOM     26  C   UNL A   1      36.159  21.028  25.355  1.00  0.00     0.006 C 
ENDBRANCH  23  24
ENDBRANCH  21  23
ENDBRANCH  14  17
ENDBRANCH   6  13
ENDBRANCH   3   6
ENDBRANCH   1   2
BRANCH   1  27
ATOM     27  C   UNL A   1      31.660  31.610  26.902  1.00  0.00     0.042 C 
BRANCH  27  28
ATOM     28  C   UNL A   1      32.892  32.449  27.221  1.00  0.00     0.118 C 
BRANCH  28  29
ATOM     29  N   UNL A   1      32.555  33.835  27.523  1.00  0.00    -0.352 N 
ATOM     30  C   UNL A   1      33.056  34.646  28.511  1.00  0.00     0.251 C 
ATOM     31  H   UNL A   1      31.876  34.244  26.940  1.00  0.00     0.163 HD
ATOM     32  O   UNL A   1      32.529  35.726  28.752  1.00  0.00    -0.269 OA
BRANCH  30  33
ATOM     33  C   UNL A   1      34.222  34.192  29.290  1.00  0.00     0.039 A 
ATOM     34  C   UNL A   1      34.015  33.431  30.441  1.00  0.00     0.014 A 
ATOM     35  C   UNL A   1      35.517  34.496  28.859  1.00  0.00     0.014 A 
ATOM     36  C   UNL A   1      35.114  32.914  31.127  1.00  0.00     0.010 A 
ATOM     37  C   UNL A   1      36.604  33.913  29.496  1.00  0.00     0.010 A 
ATOM     38  C   UNL A   1      36.414  33.119  30.637  1.00  0.00    -0.014 A 
BRANCH  38  39
ATOM     39  C   UNL A   1      37.597  32.516  31.299  1.00  0.00     0.031 A 
ATOM     40  C   UNL A   1      38.300  31.354  30.655  1.00  0.00     0.074 A 
ATOM     41  C   UNL A   1      37.974  32.953  32.517  1.00  0.00     0.049 A 
ATOM     42  N   UNL A   1      39.266  30.607  31.126  1.00  0.00    -0.248 NA
ATOM     43  C   UNL A   1      37.832  30.956  29.317  1.00  0.00     0.031 C 
ATOM     44  C   UNL A   1      37.334  34.037  33.264  1.00  0.00     0.029 A 
ATOM     45  N   UNL A   1      38.973  32.521  33.353  1.00  0.00    -0.354 N 
ATOM     46  C   UNL A   1      39.497  29.638  30.159  1.00  0.00     0.074 A 
ATOM     47  C   UNL A   1      38.547  29.862  29.093  1.00  0.00     0.031 C 
ATOM     48  C   UNL A   1      37.958  34.189  34.443  1.00  0.00     0.029 A 
ATOM     49  C   UNL A   1      39.012  33.186  34.555  1.00  0.00     0.049 A 
ATOM     50  H   UNL A   1      39.603  31.802  33.115  1.00  0.00     0.167 HD
ATOM     51  C   UNL A   1      40.432  28.660  30.158  1.00  0.00     0.037 A 
ATOM     52  C   UNL A   1      39.796  32.993  35.634  1.00  0.00     0.037 A 
ATOM     53  C   UNL A   1      41.405  28.473  31.201  1.00  0.00     0.049 A 
ATOM     54  C   UNL A   1      40.839  31.907  35.593  1.00  0.00     0.074 A 
ATOM     55  C   UNL A   1      42.455  27.573  31.247  1.00  0.00     0.029 A 
ATOM     56  N   UNL A   1      41.445  29.198  32.382  1.00  0.00    -0.354 N 
ATOM     57  N   UNL A   1      41.108  31.053  34.635  1.00  0.00    -0.248 NA
ATOM     58  C   UNL A   1      41.693  31.760  36.780  1.00  0.00     0.031 C 
ATOM     59  C   UNL A   1      43.095  27.714  32.481  1.00  0.00     0.029 A 
ATOM     60  C   UNL A   1      42.483  28.744  33.177  1.00  0.00     0.049 A 
ATOM     61  H   UNL A   1      40.826  29.927  32.619  1.00  0.00     0.167 HD
ATOM     62  C   UNL A   1      42.178  30.293  35.089  1.00  0.00     0.074 A 
ATOM     63  C   UNL A   1      42.519  30.796  36.403  1.00  0.00     0.031 C 
ATOM     64  C   UNL A   1      42.820  29.270  34.475  1.00  0.00     0.037 A 
BRANCH  51  65
ATOM     65  C   UNL A   1      40.460  27.711  28.995  1.00  0.00     0.064 A 
ATOM     66  C   UNL A   1      39.658  26.561  28.959  1.00  0.00     0.173 A 
ATOM     67  C   UNL A   1      41.245  28.000  27.869  1.00  0.00     0.173 A 
ATOM     68  F   UNL A   1      38.897  26.235  30.014  1.00  0.00    -0.203 F 
ATOM     69  C   UNL A   1      39.655  25.726  27.845  1.00  0.00     0.198 A 
ATOM     70  C   UNL A   1      41.217  27.178  26.745  1.00  0.00     0.198 A 
ATOM     71  F   UNL A   1      42.027  29.091  27.849  1.00  0.00    -0.203 F 
ATOM     72  F   UNL A   1      38.910  24.612  27.847  1.00  0.00    -0.200 F 
ATOM     73  C   UNL A   1      40.425  26.041  26.735  1.00  0.00     0.200 A 
ATOM     74  F   UNL A   1      41.950  27.493  25.668  1.00  0.00    -0.200 F 
ATOM     75  F   UNL A   1      40.406  25.245  25.657  1.00  0.00    -0.200 F 
ENDBRANCH  51  65
BRANCH  52  76
ATOM     76  C   UNL A   1      39.626  33.837  36.846  1.00  0.00     0.064 A 
ATOM     77  C   UNL A   1      38.815  33.419  37.911  1.00  0.00     0.173 A 
ATOM     78  C   UNL A   1      40.242  35.093  36.952  1.00  0.00     0.173 A 
ATOM     79  F   UNL A   1      38.188  32.234  37.850  1.00  0.00    -0.203 F 
ATOM     80  C   UNL A   1      38.599  34.238  39.018  1.00  0.00     0.198 A 
ATOM     81  C   UNL A   1      40.053  35.896  38.074  1.00  0.00     0.198 A 
ATOM     82  F   UNL A   1      41.033  35.538  35.966  1.00  0.00    -0.203 F 
ATOM     83  F   UNL A   1      37.770  33.838  39.992  1.00  0.00    -0.200 F 
ATOM     84  C   UNL A   1      39.221  35.474  39.100  1.00  0.00     0.200 A 
ATOM     85  F   UNL A   1      40.668  37.084  38.157  1.00  0.00    -0.200 F 
ATOM     86  F   UNL A   1      39.010  36.264  40.162  1.00  0.00    -0.200 F 
ENDBRANCH  52  76
BRANCH  64  87
ATOM     87  C   UNL A   1      43.985  28.654  35.190  1.00  0.00     0.064 A 
ATOM     88  C   UNL A   1      43.833  27.541  36.029  1.00  0.00     0.173 A 
ATOM     89  C   UNL A   1      45.283  29.150  34.985  1.00  0.00     0.173 A 
ATOM     90  F   UNL A   1      42.611  27.039  36.270  1.00  0.00    -0.203 F 
ATOM     91  C   UNL A   1      44.933  26.960  36.653  1.00  0.00     0.198 A 
ATOM     92  C   UNL A   1      46.384  28.545  35.582  1.00  0.00     0.198 A 
ATOM     93  F   UNL A   1      45.484  30.207  34.184  1.00  0.00    -0.203 F 
ATOM     94  F   UNL A   1      44.758  25.925  37.486  1.00  0.00    -0.200 F 
ATOM     95  C   UNL A   1      46.207  27.456  36.421  1.00  0.00     0.200 A 
ATOM     96  F   UNL A   1      47.616  29.015  35.344  1.00  0.00    -0.200 F 
ATOM     97  F   UNL A   1      47.267  26.885  37.012  1.00  0.00    -0.200 F 
ENDBRANCH  64  87
ENDBRANCH  38  39
ENDBRANCH  30  33
ENDBRANCH  28  29
ENDBRANCH  27  28
ENDBRANCH   1  27
TORSDOF 16
ENDMDL
MODEL 2
REMARK VINA RESULT:     -12.2      0.772      1.864
REMARK SMILES NC(=O)C[C@H](NC(=O)[C@@H]1CC(=O)N(CC2CC2)C1)C(=O)NCCCNC(=O)c1ccc(-c2c3nc(c(-c4c(F)c(F)c(F)c(F)c4F)c4ccc([nH]4)c(-c4c(F)c(F)c(F)c(F)c4F)c4nc(c(-c5c(F)c(F)c(F)c(F)c5F)c5ccc2[nH]5)C=C4)C=C3)cc1
REMARK SMILES IDX 22 1 21 2 19 3 20 4 5 6 4 7 2 8 1 9 3 12 6 13 7 14 8 16 9 17
REMARK SMILES IDX 10 18 18 19 11 20 13 21 12 22 14 23 15 24 16 25 17 26 23 27
REMARK SMILES IDX 24 28 25 29 26 30 27 32 28 33 29 34 90 35 30 36 89 37 31 38
REMARK SMILES IDX 32 39 33 40 83 41 34 42 88 43 82 44 84 45 35 46 87 47 81 48
REMARK SMILES IDX 80 49 36 51 68 52 48 53 67 54 49 55 52 56 66 57 85 58 50 59
REMARK SMILES IDX 51 60 65 62 86 63 53 64 37 65 38 66 46 67 39 68 40 69 44 70
REMARK SMILES IDX 47 71 41 72 42 73 45 74 43 75 69 76 70 77 78 78 71 79 72 80
REMARK SMILES IDX 76 81 79 82 73 83 74 84 77 85 75 86 54 87 55 88 63 89 56 90
REMARK SMILES IDX 57 91 61 92 64 93 58 94 59 95 62 96 60 97
REMARK H PARENT 21 5 1 10 1 11 6 15 25 31 84 50 52 61
REMARK Flexibility Score: inf
ROOT
ATOM      1  C   UNL A   1      31.821  30.345  26.404  1.00  0.00     0.117 C 
ENDROOT
BRANCH   1   2
ATOM      2  N   UNL A   1      32.582  30.077  25.206  1.00  0.00    -0.354 N 
ATOM      3  C   UNL A   1      32.366  29.146  24.242  1.00  0.00     0.243 C 
ATOM      4  O   UNL A   1      33.258  28.956  23.413  1.00  0.00    -0.273 OA
ATOM      5  H   UNL A   1      33.369  30.651  25.069  1.00  0.00     0.163 HD
BRANCH   3   6
ATOM      6  C   UNL A   1      30.995  28.462  24.096  1.00  0.00     0.180 C 
BRANCH   6   7
ATOM      7  C   UNL A   1      29.991  29.543  23.722  1.00  0.00     0.134 C 
BRANCH   7   8
ATOM      8  C   UNL A   1      29.820  29.808  22.240  1.00  0.00     0.220 C 
ATOM      9  N   UNL A   1      30.922  30.071  21.490  1.00  0.00    -0.370 N 
ATOM     10  H   UNL A   1      30.831  30.246  20.525  1.00  0.00     0.159 HD
ATOM     11  H   UNL A   1      31.811  30.086  21.911  1.00  0.00     0.159 HD
ATOM     12  O   UNL A   1      28.721  29.720  21.698  1.00  0.00    -0.275 OA
ENDBRANCH   7   8
ENDBRANCH   6   7
BRANCH   6  13
ATOM     13  N   UNL A   1      30.717  27.416  25.120  1.00  0.00    -0.343 N 
ATOM     14  C   UNL A   1      30.805  26.109  25.440  1.00  0.00     0.226 C 
ATOM     15  H   UNL A   1      30.291  27.869  25.884  1.00  0.00     0.164 HD
ATOM     16  O   UNL A   1      30.201  25.836  26.488  1.00  0.00    -0.275 OA
BRANCH  14  17
ATOM     17  C   UNL A   1      31.425  24.969  24.634  1.00  0.00     0.107 C 
ATOM     18  C   UNL A   1      31.012  23.582  25.176  1.00  0.00     0.115 C 
ATOM     19  C   UNL A   1      32.927  24.885  24.604  1.00  0.00     0.133 C 
ATOM     20  C   UNL A   1      32.229  23.099  25.929  1.00  0.00     0.223 C 
ATOM     21  N   UNL A   1      33.317  23.822  25.476  1.00  0.00    -0.342 N 
ATOM     22  O   UNL A   1      32.236  22.216  26.764  1.00  0.00    -0.275 OA
BRANCH  21  23
ATOM     23  C   UNL A   1      34.646  23.741  26.062  1.00  0.00     0.123 C 
BRANCH  23  24
ATOM     24  C   UNL A   1      35.809  24.090  25.179  1.00  0.00     0.008 C 
ATOM     25  C   UNL A   1      37.230  23.622  25.383  1.00  0.00     0.006 C 
ATOM     26  C   UNL A   1      36.437  23.116  24.208  1.00  0.00     0.006 C 
ENDBRANCH  23  24
ENDBRANCH  21  23
ENDBRANCH  14  17
ENDBRANCH   6  13
ENDBRANCH   3   6
ENDBRANCH   1   2
BRANCH   1  27
ATOM     27  C   UNL A   1      31.586  31.841  26.559  1.00  0.00     0.042 C 
BRANCH  27  28
ATOM     28  C   UNL A   1      32.728  32.539  27.291  1.00  0.00     0.118 C 
BRANCH  28  29
ATOM     29  N   UNL A   1      32.433  33.939  27.569  1.00  0.00    -0.352 N 
ATOM     30  C   UNL A   1      32.983  34.761  28.521  1.00  0.00     0.251 C 
ATOM     31  H   UNL A   1      31.747  34.351  26.997  1.00  0.00     0.163 HD
ATOM     32  O   UNL A   1      32.490  35.859  28.752  1.00  0.00    -0.269 OA
BRANCH  30  33
ATOM     33  C   UNL A   1      34.160  34.297  29.277  1.00  0.00     0.039 A 
ATOM     34  C   UNL A   1      33.970  33.601  30.472  1.00  0.00     0.014 A 
ATOM     35  C   UNL A   1      35.448  34.526  28.782  1.00  0.00     0.014 A 
ATOM     36  C   UNL A   1      35.075  33.072  31.140  1.00  0.00     0.010 A 
ATOM     37  C   UNL A   1      36.536  33.930  29.405  1.00  0.00     0.010 A 
ATOM     38  C   UNL A   1      36.361  33.199  30.591  1.00  0.00    -0.014 A 
BRANCH  38  39
ATOM     39  C   UNL A   1      37.545  32.581  31.235  1.00  0.00     0.031 A 
ATOM     40  C   UNL A   1      38.231  31.418  30.575  1.00  0.00     0.074 A 
ATOM     41  C   UNL A   1      37.937  33.004  32.454  1.00  0.00     0.049 A 
ATOM     42  N   UNL A   1      39.195  30.658  31.030  1.00  0.00    -0.248 NA
ATOM     43  C   UNL A   1      37.747  31.036  29.238  1.00  0.00     0.031 C 
ATOM     44  C   UNL A   1      37.314  34.087  33.216  1.00  0.00     0.029 A 
ATOM     45  N   UNL A   1      38.941  32.555  33.277  1.00  0.00    -0.354 N 
ATOM     46  C   UNL A   1      39.408  29.696  30.053  1.00  0.00     0.074 A 
ATOM     47  C   UNL A   1      38.450  29.938  28.998  1.00  0.00     0.031 C 
ATOM     48  C   UNL A   1      37.951  34.222  34.391  1.00  0.00     0.029 A 
ATOM     49  C   UNL A   1      38.997  33.210  34.483  1.00  0.00     0.049 A 
ATOM     50  H   UNL A   1      39.561  31.833  33.026  1.00  0.00     0.167 HD
ATOM     51  C   UNL A   1      40.334  28.709  30.034  1.00  0.00     0.037 A 
ATOM     52  C   UNL A   1      39.790  33.000  35.553  1.00  0.00     0.037 A 
ATOM     53  C   UNL A   1      41.315  28.505  31.066  1.00  0.00     0.049 A 
ATOM     54  C   UNL A   1      40.823  31.905  35.493  1.00  0.00     0.074 A 
ATOM     55  C   UNL A   1      42.357  27.595  31.094  1.00  0.00     0.029 A 
ATOM     56  N   UNL A   1      41.373  29.219  32.252  1.00  0.00    -0.354 N 
ATOM     57  N   UNL A   1      41.074  31.058  34.524  1.00  0.00    -0.248 NA
ATOM     58  C   UNL A   1      41.686  31.741  36.670  1.00  0.00     0.031 C 
ATOM     59  C   UNL A   1      43.011  27.720  32.322  1.00  0.00     0.029 A 
ATOM     60  C   UNL A   1      42.415  28.749  33.034  1.00  0.00     0.049 A 
ATOM     61  H   UNL A   1      40.764  29.951  32.502  1.00  0.00     0.167 HD
ATOM     62  C   UNL A   1      42.142  30.285  34.962  1.00  0.00     0.074 A 
ATOM     63  C   UNL A   1      42.500  30.773  36.276  1.00  0.00     0.031 C 
ATOM     64  C   UNL A   1      42.769  29.261  34.333  1.00  0.00     0.037 A 
BRANCH  51  65
ATOM     65  C   UNL A   1      40.342  27.771  28.862  1.00  0.00     0.064 A 
ATOM     66  C   UNL A   1      41.088  28.038  27.706  1.00  0.00     0.173 A 
ATOM     67  C   UNL A   1      39.651  26.552  28.931  1.00  0.00     0.173 A 
ATOM     68  F   UNL A   1      41.758  29.195  27.586  1.00  0.00    -0.203 F 
ATOM     69  C   UNL A   1      41.129  27.127  26.654  1.00  0.00     0.198 A 
ATOM     70  C   UNL A   1      39.718  25.630  27.890  1.00  0.00     0.198 A 
ATOM     71  F   UNL A   1      38.925  26.244  30.017  1.00  0.00    -0.203 F 
ATOM     72  F   UNL A   1      41.819  27.419  25.543  1.00  0.00    -0.200 F 
ATOM     73  C   UNL A   1      40.454  25.919  26.751  1.00  0.00     0.200 A 
ATOM     74  F   UNL A   1      39.077  24.457  27.993  1.00  0.00    -0.200 F 
ATOM     75  F   UNL A   1      40.510  25.035  25.746  1.00  0.00    -0.200 F 
ENDBRANCH  51  65
BRANCH  52  76
ATOM     76  C   UNL A   1      39.639  33.835  36.774  1.00  0.00     0.064 A 
ATOM     77  C   UNL A   1      38.843  33.410  37.848  1.00  0.00     0.173 A 
ATOM     78  C   UNL A   1      40.259  35.089  36.881  1.00  0.00     0.173 A 
ATOM     79  F   UNL A   1      38.212  32.228  37.787  1.00  0.00    -0.203 F 
ATOM     80  C   UNL A   1      38.644  34.221  38.963  1.00  0.00     0.198 A 
ATOM     81  C   UNL A   1      40.088  35.884  38.012  1.00  0.00     0.198 A 
ATOM     82  F   UNL A   1      41.037  35.540  35.887  1.00  0.00    -0.203 F 
ATOM     83  F   UNL A   1      37.828  33.816  39.946  1.00  0.00    -0.200 F 
ATOM     84  C   UNL A   1      39.270  35.456  39.046  1.00  0.00     0.200 A 
ATOM     85  F   UNL A   1      40.707  37.069  38.094  1.00  0.00    -0.200 F 
ATOM     86  F   UNL A   1      39.076  36.237  40.117  1.00  0.00    -0.200 F 
ENDBRANCH  52  76
BRANCH  64  87
ATOM     87  C   UNL A   1      43.936  28.629  35.031  1.00  0.00     0.064 A 
ATOM     88  C   UNL A   1      45.240  29.123  34.885  1.00  0.00     0.173 A 
ATOM     89  C   UNL A   1      43.736  27.548  35.904  1.00  0.00     0.173 A 
ATOM     90  F   UNL A   1      45.485  30.146  34.050  1.00  0.00    -0.203 F 
ATOM     91  C   UNL A   1      46.304  28.547  35.573  1.00  0.00     0.198 A 
ATOM     92  C   UNL A   1      44.796  26.996  36.616  1.00  0.00     0.198 A 
ATOM     93  F   UNL A   1      42.507  27.043  36.086  1.00  0.00    -0.203 F 
ATOM     94  F   UNL A   1      47.548  29.008  35.385  1.00  0.00    -0.200 F 
ATOM     95  C   UNL A   1      46.080  27.491  36.444  1.00  0.00     0.200 A 
ATOM     96  F   UNL A   1      44.576  25.987  37.471  1.00  0.00    -0.200 F 
ATOM     97  F   UNL A   1      47.105  26.947  37.117  1.00  0.00    -0.200 F 
ENDBRANCH  64  87
ENDBRANCH  38  39
ENDBRANCH  30  33
ENDBRANCH  28  29
ENDBRANCH  27  28
ENDBRANCH   1  27
TORSDOF 16
ENDMDL
MODEL 3
REMARK VINA RESULT:     -12.1      5.517     11.186
REMARK SMILES NC(=O)C[C@H](NC(=O)[C@@H]1CC(=O)N(CC2CC2)C1)C(=O)NCCCNC(=O)c1ccc(-c2c3nc(c(-c4c(F)c(F)c(F)c(F)c4F)c4ccc([nH]4)c(-c4c(F)c(F)c(F)c(F)c4F)c4nc(c(-c5c(F)c(F)c(F)c(F)c5F)c5ccc2[nH]5)C=C4)C=C3)cc1
REMARK SMILES IDX 22 1 21 2 19 3 20 4 5 6 4 7 2 8 1 9 3 12 6 13 7 14 8 16 9 17
REMARK SMILES IDX 10 18 18 19 11 20 13 21 12 22 14 23 15 24 16 25 17 26 23 27
REMARK SMILES IDX 24 28 25 29 26 30 27 32 28 33 29 34 90 35 30 36 89 37 31 38
REMARK SMILES IDX 32 39 33 40 83 41 34 42 88 43 82 44 84 45 35 46 87 47 81 48
REMARK SMILES IDX 80 49 36 51 68 52 48 53 67 54 49 55 52 56 66 57 85 58 50 59
REMARK SMILES IDX 51 60 65 62 86 63 53 64 37 65 38 66 46 67 39 68 40 69 44 70
REMARK SMILES IDX 47 71 41 72 42 73 45 74 43 75 69 76 70 77 78 78 71 79 72 80
REMARK SMILES IDX 76 81 79 82 73 83 74 84 77 85 75 86 54 87 55 88 63 89 56 90
REMARK SMILES IDX 57 91 61 92 64 93 58 94 59 95 62 96 60 97
REMARK H PARENT 21 5 1 10 1 11 6 15 25 31 84 50 52 61
REMARK Flexibility Score: inf
ROOT
ATOM      1  C   UNL A   1      37.064  21.259  24.810  1.00  0.00     0.117 C 
ENDROOT
BRANCH   1   2
ATOM      2  N   UNL A   1      36.248  21.418  25.991  1.00  0.00    -0.354 N 
ATOM      3  C   UNL A   1      34.899  21.531  26.093  1.00  0.00     0.243 C 
ATOM      4  O   UNL A   1      34.429  21.865  27.182  1.00  0.00    -0.273 OA
ATOM      5  H   UNL A   1      36.739  21.447  26.843  1.00  0.00     0.163 HD
BRANCH   3   6
ATOM      6  C   UNL A   1      33.980  21.107  24.934  1.00  0.00     0.180 C 
BRANCH   6   7
ATOM      7  C   UNL A   1      34.112  19.598  24.784  1.00  0.00     0.134 C 
BRANCH   7   8
ATOM      8  C   UNL A   1      32.947  18.774  25.293  1.00  0.00     0.220 C 
ATOM      9  N   UNL A   1      32.850  18.531  26.626  1.00  0.00    -0.370 N 
ATOM     10  H   UNL A   1      32.100  17.997  26.976  1.00  0.00     0.159 HD
ATOM     11  H   UNL A   1      33.528  18.890  27.243  1.00  0.00     0.159 HD
ATOM     12  O   UNL A   1      32.061  18.385  24.537  1.00  0.00    -0.275 OA
ENDBRANCH   7   8
ENDBRANCH   6   7
BRANCH   6  13
ATOM     13  N   UNL A   1      33.982  22.041  23.774  1.00  0.00    -0.343 N 
ATOM     14  C   UNL A   1      33.434  23.142  23.219  1.00  0.00     0.226 C 
ATOM     15  H   UNL A   1      34.674  21.721  23.151  1.00  0.00     0.164 HD
ATOM     16  O   UNL A   1      33.826  23.333  22.059  1.00  0.00    -0.275 OA
BRANCH  14  17
ATOM     17  C   UNL A   1      32.350  24.057  23.786  1.00  0.00     0.107 C 
ATOM     18  C   UNL A   1      31.830  25.063  22.735  1.00  0.00     0.115 C 
ATOM     19  C   UNL A   1      32.732  24.944  24.940  1.00  0.00     0.133 C 
ATOM     20  C   UNL A   1      32.486  26.369  23.113  1.00  0.00     0.223 C 
ATOM     21  N   UNL A   1      32.892  26.270  24.431  1.00  0.00    -0.342 N 
ATOM     22  O   UNL A   1      32.607  27.333  22.383  1.00  0.00    -0.275 OA
BRANCH  21  23
ATOM     23  C   UNL A   1      33.689  27.277  25.113  1.00  0.00     0.123 C 
BRANCH  23  24
ATOM     24  C   UNL A   1      33.329  27.590  26.537  1.00  0.00     0.008 C 
ATOM     25  C   UNL A   1      33.603  28.900  27.237  1.00  0.00     0.006 C 
ATOM     26  C   UNL A   1      32.186  28.501  26.923  1.00  0.00     0.006 C 
ENDBRANCH  23  24
ENDBRANCH  21  23
ENDBRANCH  14  17
ENDBRANCH   6  13
ENDBRANCH   3   6
ENDBRANCH   1   2
BRANCH   1  27
ATOM     27  C   UNL A   1      37.997  20.066  24.966  1.00  0.00     0.042 C 
BRANCH  27  28
ATOM     28  C   UNL A   1      39.185  20.369  25.874  1.00  0.00     0.118 C 
BRANCH  28  29
ATOM     29  N   UNL A   1      40.136  19.265  25.927  1.00  0.00    -0.352 N 
ATOM     30  C   UNL A   1      41.501  19.312  26.061  1.00  0.00     0.251 C 
ATOM     31  H   UNL A   1      39.746  18.364  25.856  1.00  0.00     0.163 HD
ATOM     32  O   UNL A   1      42.175  18.301  25.896  1.00  0.00    -0.269 OA
BRANCH  30  33
ATOM     33  C   UNL A   1      42.147  20.596  26.386  1.00  0.00     0.039 A 
ATOM     34  C   UNL A   1      42.582  21.420  25.347  1.00  0.00     0.014 A 
ATOM     35  C   UNL A   1      42.290  20.994  27.718  1.00  0.00     0.014 A 
ATOM     36  C   UNL A   1      43.102  22.680  25.643  1.00  0.00     0.010 A 
ATOM     37  C   UNL A   1      42.732  22.278  28.006  1.00  0.00     0.010 A 
ATOM     38  C   UNL A   1      43.144  23.133  26.972  1.00  0.00    -0.014 A 
BRANCH  38  39
ATOM     39  C   UNL A   1      43.618  24.497  27.312  1.00  0.00     0.031 A 
ATOM     40  C   UNL A   1      42.636  25.528  27.793  1.00  0.00     0.074 A 
ATOM     41  C   UNL A   1      44.907  24.828  27.096  1.00  0.00     0.049 A 
ATOM     42  N   UNL A   1      42.821  26.804  28.020  1.00  0.00    -0.248 NA
ATOM     43  C   UNL A   1      41.254  25.073  28.017  1.00  0.00     0.031 C 
ATOM     44  C   UNL A   1      45.939  23.927  26.581  1.00  0.00     0.029 A 
ATOM     45  N   UNL A   1      45.564  26.022  27.261  1.00  0.00    -0.354 N 
ATOM     46  C   UNL A   1      41.578  27.305  28.381  1.00  0.00     0.074 A 
ATOM     47  C   UNL A   1      40.637  26.210  28.305  1.00  0.00     0.031 C 
ATOM     48  C   UNL A   1      47.097  24.597  26.476  1.00  0.00     0.029 A 
ATOM     49  C   UNL A   1      46.882  25.983  26.875  1.00  0.00     0.049 A 
ATOM     50  H   UNL A   1      45.131  26.830  27.622  1.00  0.00     0.167 HD
ATOM     51  C   UNL A   1      41.257  28.565  28.757  1.00  0.00     0.037 A 
ATOM     52  C   UNL A   1      47.805  26.964  26.826  1.00  0.00     0.037 A 
ATOM     53  C   UNL A   1      42.208  29.637  28.876  1.00  0.00     0.049 A 
ATOM     54  C   UNL A   1      47.421  28.351  27.270  1.00  0.00     0.074 A 
ATOM     55  C   UNL A   1      42.002  30.923  29.342  1.00  0.00     0.029 A 
ATOM     56  N   UNL A   1      43.546  29.548  28.522  1.00  0.00    -0.354 N 
ATOM     57  N   UNL A   1      46.262  28.793  27.696  1.00  0.00    -0.248 NA
ATOM     58  C   UNL A   1      48.474  29.376  27.234  1.00  0.00     0.031 C 
ATOM     59  C   UNL A   1      43.200  31.630  29.217  1.00  0.00     0.029 A 
ATOM     60  C   UNL A   1      44.170  30.767  28.732  1.00  0.00     0.049 A 
ATOM     61  H   UNL A   1      43.987  28.739  28.174  1.00  0.00     0.167 HD
ATOM     62  C   UNL A   1      46.455  30.133  28.006  1.00  0.00     0.074 A 
ATOM     63  C   UNL A   1      47.845  30.429  27.734  1.00  0.00     0.031 C 
ATOM     64  C   UNL A   1      45.560  31.037  28.473  1.00  0.00     0.037 A 
BRANCH  51  65
ATOM     65  C   UNL A   1      39.821  28.863  29.075  1.00  0.00     0.064 A 
ATOM     66  C   UNL A   1      38.922  29.303  28.093  1.00  0.00     0.173 A 
ATOM     67  C   UNL A   1      39.323  28.632  30.367  1.00  0.00     0.173 A 
ATOM     68  F   UNL A   1      39.351  29.548  26.846  1.00  0.00    -0.203 F 
ATOM     69  C   UNL A   1      37.580  29.517  28.396  1.00  0.00     0.198 A 
ATOM     70  C   UNL A   1      37.974  28.819  30.658  1.00  0.00     0.198 A 
ATOM     71  F   UNL A   1      40.139  28.207  31.342  1.00  0.00    -0.203 F 
ATOM     72  F   UNL A   1      36.746  29.973  27.451  1.00  0.00    -0.200 F 
ATOM     73  C   UNL A   1      37.105  29.265  29.675  1.00  0.00     0.200 A 
ATOM     74  F   UNL A   1      37.515  28.560  31.891  1.00  0.00    -0.200 F 
ATOM     75  F   UNL A   1      35.809  29.454  29.959  1.00  0.00    -0.200 F 
ENDBRANCH  51  65
BRANCH  52  76
ATOM     76  C   UNL A   1      49.179  26.676  26.337  1.00  0.00     0.064 A 
ATOM     77  C   UNL A   1      49.545  26.942  25.009  1.00  0.00     0.173 A 
ATOM     78  C   UNL A   1      50.146  26.101  27.174  1.00  0.00     0.173 A 
ATOM     79  F   UNL A   1      48.650  27.474  24.162  1.00  0.00    -0.203 F 
ATOM     80  C   UNL A   1      50.810  26.610  24.529  1.00  0.00     0.198 A 
ATOM     81  C   UNL A   1      51.422  25.801  26.703  1.00  0.00     0.198 A 
ATOM     82  F   UNL A   1      49.853  25.834  28.455  1.00  0.00    -0.203 F 
ATOM     83  F   UNL A   1      51.110  26.817  23.239  1.00  0.00    -0.200 F 
ATOM     84  C   UNL A   1      51.749  26.043  25.377  1.00  0.00     0.200 A 
ATOM     85  F   UNL A   1      52.332  25.268  27.529  1.00  0.00    -0.200 F 
ATOM     86  F   UNL A   1      52.965  25.720  24.915  1.00  0.00    -0.200 F 
ENDBRANCH  52  76
BRANCH  64  87
ATOM     87  C   UNL A   1      46.062  32.420  28.767  1.00  0.00     0.064 A 
ATOM     88  C   UNL A   1      46.590  32.763  30.020  1.00  0.00     0.173 A 
ATOM     89  C   UNL A   1      46.068  33.398  27.760  1.00  0.00     0.173 A 
ATOM     90  F   UNL A   1      46.593  31.867  31.020  1.00  0.00    -0.203 F 
ATOM     91  C   UNL A   1      47.087  34.041  30.260  1.00  0.00     0.198 A 
ATOM     92  C   UNL A   1      46.597  34.664  27.994  1.00  0.00     0.198 A 
ATOM     93  F   UNL A   1      45.583  33.118  26.541  1.00  0.00    -0.203 F 
ATOM     94  F   UNL A   1      47.546  34.360  31.478  1.00  0.00    -0.200 F 
ATOM     95  C   UNL A   1      47.100  34.986  29.245  1.00  0.00     0.200 A 
ATOM     96  F   UNL A   1      46.624  35.571  27.007  1.00  0.00    -0.200 F 
ATOM     97  F   UNL A   1      47.592  36.212  29.475  1.00  0.00    -0.200 F 
ENDBRANCH  64  87
ENDBRANCH  38  39
ENDBRANCH  30  33
ENDBRANCH  28  29
ENDBRANCH  27  28
ENDBRANCH   1  27
TORSDOF 16
ENDMDL
