MODEL 1
REMARK VINA RESULT:     -12.4      0.000      0.000
REMARK SMILES O=C(CO/N=C\c1ccccc1)Nc1ccccc1C(=O)NCCCNC(=O)c1ccc(-c2c3nc(c(-c4c(F)c(F)c(F)c(F)c4F)c4ccc([nH]4)c(-c4c(F)c(F)c(F)c(F)c4F)c4nc(c(-c5c(F)c(F)c(F)c(F)c5F)c5ccc2[nH]5)C=C4)C=C3)cc1
REMARK SMILES IDX 20 1 21 2 22 3 19 5 14 6 15 7 16 8 18 9 17 10 13 11 1 12
REMARK SMILES IDX 2 13 3 15 4 16 5 17 6 18 7 19 8 20 12 21 9 22 11 23 10 24
REMARK SMILES IDX 23 25 24 26 25 27 26 28 27 29 28 31 29 32 30 33 91 34 31 35
REMARK SMILES IDX 90 36 32 37 33 38 34 39 84 40 35 41 89 42 83 43 85 44 36 45
REMARK SMILES IDX 88 46 82 47 81 48 37 50 69 51 49 52 68 53 50 54 53 55 67 56
REMARK SMILES IDX 86 57 51 58 52 59 66 61 87 62 54 63 38 64 39 65 47 66 40 67
REMARK SMILES IDX 41 68 45 69 48 70 42 71 43 72 46 73 44 74 70 75 71 76 79 77
REMARK SMILES IDX 72 78 73 79 77 80 80 81 74 82 75 83 78 84 76 85 55 86 56 87
REMARK SMILES IDX 64 88 57 89 58 90 62 91 65 92 59 93 60 94 63 95 61 96
REMARK H PARENT 22 4 13 14 26 30 85 49 53 60
REMARK Flexibility Score: inf
ROOT
ATOM      1  C   UNL A   1      33.924  25.812  23.232  1.00  0.00     0.253 C 
ATOM      2  O   UNL A   1      33.821  25.480  22.049  1.00  0.00    -0.269 OA
ATOM      3  N   UNL A   1      34.025  27.166  23.500  1.00  0.00    -0.352 N 
ATOM      4  H   UNL A   1      34.223  27.754  22.736  1.00  0.00     0.163 HD
ENDROOT
BRANCH   1   5
ATOM      5  C   UNL A   1      34.159  24.755  24.273  1.00  0.00     0.063 A 
ATOM      6  C   UNL A   1      33.466  24.491  25.475  1.00  0.00     0.054 A 
ATOM      7  C   UNL A   1      34.070  23.638  26.426  1.00  0.00     0.027 A 
ATOM      8  C   UNL A   1      35.259  22.958  26.157  1.00  0.00     0.002 A 
ATOM      9  C   UNL A   1      35.346  24.024  24.010  1.00  0.00     0.016 A 
ATOM     10  C   UNL A   1      35.882  23.127  24.932  1.00  0.00     0.001 A 
BRANCH   6  11
ATOM     11  N   UNL A   1      32.198  24.978  25.882  1.00  0.00    -0.322 N 
ATOM     12  O   UNL A   1      30.773  23.425  24.924  1.00  0.00    -0.271 OA
ATOM     13  C   UNL A   1      30.958  24.475  25.532  1.00  0.00     0.265 C 
ATOM     14  H   UNL A   1      32.201  25.760  26.480  1.00  0.00     0.170 HD
BRANCH  13  15
ATOM     15  C   UNL A   1      29.815  25.463  25.813  1.00  0.00     0.363 C 
BRANCH  15  16
ATOM     16  O   UNL A   1      29.936  26.710  25.151  1.00  0.00    -0.386 OA
BRANCH  16  17
ATOM     17  N   UNL A   1      30.647  26.518  23.964  1.00  0.00    -0.094 NA
ATOM     18  C   UNL A   1      30.337  27.403  23.067  1.00  0.00     0.162 C 
BRANCH  18  19
ATOM     19  C   UNL A   1      29.424  28.548  23.216  1.00  0.00    -0.004 A 
ATOM     20  C   UNL A   1      28.058  28.316  23.058  1.00  0.00     0.010 A 
ATOM     21  C   UNL A   1      29.913  29.839  23.439  1.00  0.00     0.010 A 
ATOM     22  C   UNL A   1      27.166  29.384  23.143  1.00  0.00     0.001 A 
ATOM     23  C   UNL A   1      29.015  30.907  23.508  1.00  0.00     0.001 A 
ATOM     24  C   UNL A   1      27.644  30.677  23.363  1.00  0.00     0.000 A 
ENDBRANCH  18  19
ENDBRANCH  16  17
ENDBRANCH  15  16
ENDBRANCH  13  15
ENDBRANCH   6  11
ENDBRANCH   1   5
BRANCH   3  25
ATOM     25  C   UNL A   1      33.873  27.801  24.777  1.00  0.00     0.118 C 
BRANCH  25  26
ATOM     26  C   UNL A   1      33.137  29.118  24.844  1.00  0.00     0.042 C 
BRANCH  26  27
ATOM     27  C   UNL A   1      32.480  29.425  26.189  1.00  0.00     0.118 C 
BRANCH  27  28
ATOM     28  N   UNL A   1      32.346  30.850  26.518  1.00  0.00    -0.352 N 
ATOM     29  C   UNL A   1      33.133  31.736  27.221  1.00  0.00     0.251 C 
ATOM     30  H   UNL A   1      31.524  31.256  26.163  1.00  0.00     0.163 HD
ATOM     31  O   UNL A   1      32.696  32.860  27.466  1.00  0.00    -0.269 OA
BRANCH  29  32
ATOM     32  C   UNL A   1      34.471  31.356  27.730  1.00  0.00     0.039 A 
ATOM     33  C   UNL A   1      35.472  32.329  27.854  1.00  0.00     0.014 A 
ATOM     34  C   UNL A   1      34.756  30.045  28.092  1.00  0.00     0.014 A 
ATOM     35  C   UNL A   1      36.692  32.005  28.459  1.00  0.00     0.010 A 
ATOM     36  C   UNL A   1      35.893  29.762  28.835  1.00  0.00     0.010 A 
ATOM     37  C   UNL A   1      36.883  30.733  29.024  1.00  0.00    -0.014 A 
BRANCH  37  38
ATOM     38  C   UNL A   1      38.094  30.379  29.813  1.00  0.00     0.031 A 
ATOM     39  C   UNL A   1      39.101  29.408  29.253  1.00  0.00     0.074 A 
ATOM     40  C   UNL A   1      38.222  30.828  31.078  1.00  0.00     0.049 A 
ATOM     41  N   UNL A   1      40.134  28.853  29.837  1.00  0.00    -0.248 NA
ATOM     42  C   UNL A   1      38.887  28.954  27.869  1.00  0.00     0.031 C 
ATOM     43  C   UNL A   1      37.271  31.703  31.770  1.00  0.00     0.029 A 
ATOM     44  N   UNL A   1      39.195  30.592  32.018  1.00  0.00    -0.354 N 
ATOM     45  C   UNL A   1      40.658  27.962  28.908  1.00  0.00     0.074 A 
ATOM     46  C   UNL A   1      39.791  27.995  27.753  1.00  0.00     0.031 C 
ATOM     47  C   UNL A   1      37.722  31.953  33.009  1.00  0.00     0.029 A 
ATOM     48  C   UNL A   1      38.966  31.221  33.218  1.00  0.00     0.049 A 
ATOM     49  H   UNL A   1      39.982  30.026  31.847  1.00  0.00     0.167 HD
ATOM     50  C   UNL A   1      41.780  27.208  28.997  1.00  0.00     0.037 A 
ATOM     51  C   UNL A   1      39.674  31.202  34.364  1.00  0.00     0.037 A 
ATOM     52  C   UNL A   1      42.668  27.222  30.128  1.00  0.00     0.049 A 
ATOM     53  C   UNL A   1      40.942  30.394  34.422  1.00  0.00     0.074 A 
ATOM     54  C   UNL A   1      43.882  26.578  30.282  1.00  0.00     0.029 A 
ATOM     55  N   UNL A   1      42.434  27.921  31.304  1.00  0.00    -0.354 N 
ATOM     56  N   UNL A   1      41.478  29.627  33.504  1.00  0.00    -0.248 NA
ATOM     57  C   UNL A   1      41.710  30.459  35.672  1.00  0.00     0.031 C 
ATOM     58  C   UNL A   1      44.356  26.843  31.571  1.00  0.00     0.029 A 
ATOM     59  C   UNL A   1      43.469  27.702  32.198  1.00  0.00     0.049 A 
ATOM     60  H   UNL A   1      41.648  28.490  31.477  1.00  0.00     0.167 HD
ATOM     61  C   UNL A   1      42.654  29.136  34.054  1.00  0.00     0.074 A 
ATOM     62  C   UNL A   1      42.764  29.711  35.378  1.00  0.00     0.031 C 
ATOM     63  C   UNL A   1      43.560  28.283  33.513  1.00  0.00     0.037 A 
BRANCH  50  64
ATOM     64  C   UNL A   1      42.114  26.314  27.834  1.00  0.00     0.064 A 
ATOM     65  C   UNL A   1      41.577  25.022  27.714  1.00  0.00     0.173 A 
ATOM     66  C   UNL A   1      42.966  26.762  26.814  1.00  0.00     0.173 A 
ATOM     67  F   UNL A   1      40.765  24.536  28.665  1.00  0.00    -0.203 F 
ATOM     68  C   UNL A   1      41.914  24.200  26.642  1.00  0.00     0.198 A 
ATOM     69  C   UNL A   1      43.270  25.951  25.723  1.00  0.00     0.198 A 
ATOM     70  F   UNL A   1      43.504  27.990  26.871  1.00  0.00    -0.203 F 
ATOM     71  F   UNL A   1      41.440  22.947  26.585  1.00  0.00    -0.200 F 
ATOM     72  C   UNL A   1      42.754  24.667  25.643  1.00  0.00     0.200 A 
ATOM     73  F   UNL A   1      44.071  26.411  24.751  1.00  0.00    -0.200 F 
ATOM     74  F   UNL A   1      43.072  23.877  24.609  1.00  0.00    -0.200 F 
ENDBRANCH  50  64
BRANCH  51  75
ATOM     75  C   UNL A   1      39.215  31.997  35.534  1.00  0.00     0.064 A 
ATOM     76  C   UNL A   1      39.596  33.338  35.686  1.00  0.00     0.173 A 
ATOM     77  C   UNL A   1      38.378  31.443  36.513  1.00  0.00     0.173 A 
ATOM     78  F   UNL A   1      40.408  33.909  34.784  1.00  0.00    -0.203 F 
ATOM     79  C   UNL A   1      39.175  34.087  36.783  1.00  0.00     0.198 A 
ATOM     80  C   UNL A   1      37.933  32.203  37.594  1.00  0.00     0.198 A 
ATOM     81  F   UNL A   1      37.976  30.168  36.411  1.00  0.00    -0.203 F 
ATOM     82  F   UNL A   1      39.589  35.353  36.924  1.00  0.00    -0.200 F 
ATOM     83  C   UNL A   1      38.337  33.521  37.732  1.00  0.00     0.200 A 
ATOM     84  F   UNL A   1      37.107  31.658  38.498  1.00  0.00    -0.200 F 
ATOM     85  F   UNL A   1      37.924  34.246  38.780  1.00  0.00    -0.200 F 
ENDBRANCH  51  75
BRANCH  63  86
ATOM     86  C   UNL A   1      44.763  27.944  34.346  1.00  0.00     0.064 A 
ATOM     87  C   UNL A   1      44.783  26.825  35.191  1.00  0.00     0.173 A 
ATOM     88  C   UNL A   1      45.922  28.731  34.271  1.00  0.00     0.173 A 
ATOM     89  F   UNL A   1      43.695  26.048  35.309  1.00  0.00    -0.203 F 
ATOM     90  C   UNL A   1      45.907  26.527  35.956  1.00  0.00     0.198 A 
ATOM     91  C   UNL A   1      47.057  28.410  35.010  1.00  0.00     0.198 A 
ATOM     92  F   UNL A   1      45.958  29.808  33.471  1.00  0.00    -0.203 F 
ATOM     93  F   UNL A   1      45.884  25.486  36.800  1.00  0.00    -0.200 F 
ATOM     94  C   UNL A   1      47.045  27.314  35.859  1.00  0.00     0.200 A 
ATOM     95  F   UNL A   1      48.160  29.162  34.901  1.00  0.00    -0.200 F 
ATOM     96  F   UNL A   1      48.128  27.021  36.591  1.00  0.00    -0.200 F 
ENDBRANCH  63  86
ENDBRANCH  37  38
ENDBRANCH  29  32
ENDBRANCH  27  28
ENDBRANCH  26  27
ENDBRANCH  25  26
ENDBRANCH   3  25
TORSDOF 15
ENDMDL
MODEL 2
REMARK VINA RESULT:     -12.4      0.875      7.381
REMARK SMILES O=C(CO/N=C\c1ccccc1)Nc1ccccc1C(=O)NCCCNC(=O)c1ccc(-c2c3nc(c(-c4c(F)c(F)c(F)c(F)c4F)c4ccc([nH]4)c(-c4c(F)c(F)c(F)c(F)c4F)c4nc(c(-c5c(F)c(F)c(F)c(F)c5F)c5ccc2[nH]5)C=C4)C=C3)cc1
REMARK SMILES IDX 20 1 21 2 22 3 19 5 14 6 15 7 16 8 18 9 17 10 13 11 1 12
REMARK SMILES IDX 2 13 3 15 4 16 5 17 6 18 7 19 8 20 12 21 9 22 11 23 10 24
REMARK SMILES IDX 23 25 24 26 25 27 26 28 27 29 28 31 29 32 30 33 91 34 31 35
REMARK SMILES IDX 90 36 32 37 33 38 34 39 84 40 35 41 89 42 83 43 85 44 36 45
REMARK SMILES IDX 88 46 82 47 81 48 37 50 69 51 49 52 68 53 50 54 53 55 67 56
REMARK SMILES IDX 86 57 51 58 52 59 66 61 87 62 54 63 38 64 39 65 47 66 40 67
REMARK SMILES IDX 41 68 45 69 48 70 42 71 43 72 46 73 44 74 70 75 71 76 79 77
REMARK SMILES IDX 72 78 73 79 77 80 80 81 74 82 75 83 78 84 76 85 55 86 56 87
REMARK SMILES IDX 64 88 57 89 58 90 62 91 65 92 59 93 60 94 63 95 61 96
REMARK H PARENT 22 4 13 14 26 30 85 49 53 60
REMARK Flexibility Score: inf
ROOT
ATOM      1  C   UNL A   1      33.622  26.548  23.486  1.00  0.00     0.253 C 
ATOM      2  O   UNL A   1      33.673  26.270  22.285  1.00  0.00    -0.269 OA
ATOM      3  N   UNL A   1      33.983  27.833  23.851  1.00  0.00    -0.352 N 
ATOM      4  H   UNL A   1      34.456  28.368  23.173  1.00  0.00     0.163 HD
ENDROOT
BRANCH   1   5
ATOM      5  C   UNL A   1      33.399  25.449  24.485  1.00  0.00     0.063 A 
ATOM      6  C   UNL A   1      32.248  25.120  25.236  1.00  0.00     0.054 A 
ATOM      7  C   UNL A   1      32.388  24.234  26.327  1.00  0.00     0.027 A 
ATOM      8  C   UNL A   1      33.594  23.586  26.601  1.00  0.00     0.002 A 
ATOM      9  C   UNL A   1      34.601  24.748  24.761  1.00  0.00     0.016 A 
ATOM     10  C   UNL A   1      34.695  23.819  25.795  1.00  0.00     0.001 A 
BRANCH   6  11
ATOM     11  N   UNL A   1      30.917  25.568  25.043  1.00  0.00    -0.322 N 
ATOM     12  O   UNL A   1      30.297  24.391  23.149  1.00  0.00    -0.271 OA
ATOM     13  C   UNL A   1      30.069  25.245  24.000  1.00  0.00     0.265 C 
ATOM     14  H   UNL A   1      30.557  26.178  25.728  1.00  0.00     0.170 HD
BRANCH  13  15
ATOM     15  C   UNL A   1      28.871  26.202  23.890  1.00  0.00     0.363 C 
BRANCH  15  16
ATOM     16  O   UNL A   1      29.219  27.565  23.724  1.00  0.00    -0.386 OA
BRANCH  16  17
ATOM     17  N   UNL A   1      30.365  27.641  22.928  1.00  0.00    -0.094 NA
ATOM     18  C   UNL A   1      30.463  28.790  22.332  1.00  0.00     0.162 C 
BRANCH  18  19
ATOM     19  C   UNL A   1      29.574  29.954  22.477  1.00  0.00    -0.004 A 
ATOM     20  C   UNL A   1      28.850  30.363  21.357  1.00  0.00     0.010 A 
ATOM     21  C   UNL A   1      29.508  30.670  23.676  1.00  0.00     0.010 A 
ATOM     22  C   UNL A   1      28.035  31.491  21.441  1.00  0.00     0.001 A 
ATOM     23  C   UNL A   1      28.701  31.808  23.749  1.00  0.00     0.001 A 
ATOM     24  C   UNL A   1      27.964  32.214  22.633  1.00  0.00     0.000 A 
ENDBRANCH  18  19
ENDBRANCH  16  17
ENDBRANCH  15  16
ENDBRANCH  13  15
ENDBRANCH   6  11
ENDBRANCH   1   5
BRANCH   3  25
ATOM     25  C   UNL A   1      33.741  28.465  25.115  1.00  0.00     0.118 C 
BRANCH  25  26
ATOM     26  C   UNL A   1      32.625  29.477  25.214  1.00  0.00     0.042 C 
BRANCH  26  27
ATOM     27  C   UNL A   1      32.313  29.962  26.629  1.00  0.00     0.118 C 
BRANCH  27  28
ATOM     28  N   UNL A   1      32.451  31.407  26.848  1.00  0.00    -0.352 N 
ATOM     29  C   UNL A   1      33.419  32.184  27.446  1.00  0.00     0.251 C 
ATOM     30  H   UNL A   1      31.696  31.929  26.494  1.00  0.00     0.163 HD
ATOM     31  O   UNL A   1      33.201  33.384  27.618  1.00  0.00    -0.269 OA
BRANCH  29  32
ATOM     32  C   UNL A   1      34.693  31.607  27.931  1.00  0.00     0.039 A 
ATOM     33  C   UNL A   1      35.810  32.434  28.110  1.00  0.00     0.014 A 
ATOM     34  C   UNL A   1      34.805  30.252  28.217  1.00  0.00     0.014 A 
ATOM     35  C   UNL A   1      36.974  31.922  28.695  1.00  0.00     0.010 A 
ATOM     36  C   UNL A   1      35.891  29.782  28.942  1.00  0.00     0.010 A 
ATOM     37  C   UNL A   1      36.996  30.606  29.185  1.00  0.00    -0.014 A 
BRANCH  37  38
ATOM     38  C   UNL A   1      38.146  30.054  29.951  1.00  0.00     0.031 A 
ATOM     39  C   UNL A   1      38.388  30.498  31.371  1.00  0.00     0.074 A 
ATOM     40  C   UNL A   1      39.041  29.258  29.332  1.00  0.00     0.049 A 
ATOM     41  N   UNL A   1      39.413  30.259  32.153  1.00  0.00    -0.248 NA
ATOM     42  C   UNL A   1      37.373  31.376  31.975  1.00  0.00     0.031 C 
ATOM     43  C   UNL A   1      38.970  28.827  27.934  1.00  0.00     0.029 A 
ATOM     44  N   UNL A   1      40.202  28.687  29.793  1.00  0.00    -0.354 N 
ATOM     45  C   UNL A   1      39.179  30.988  33.313  1.00  0.00     0.074 A 
ATOM     46  C   UNL A   1      37.959  31.733  33.106  1.00  0.00     0.031 C 
ATOM     47  C   UNL A   1      40.020  28.036  27.661  1.00  0.00     0.029 A 
ATOM     48  C   UNL A   1      40.864  27.943  28.846  1.00  0.00     0.049 A 
ATOM     49  H   UNL A   1      40.528  28.800  30.715  1.00  0.00     0.167 HD
ATOM     50  C   UNL A   1      39.899  31.009  34.460  1.00  0.00     0.037 A 
ATOM     51  C   UNL A   1      42.029  27.270  28.921  1.00  0.00     0.037 A 
ATOM     52  C   UNL A   1      41.083  30.222  34.677  1.00  0.00     0.049 A 
ATOM     53  C   UNL A   1      42.787  27.270  30.221  1.00  0.00     0.074 A 
ATOM     54  C   UNL A   1      41.832  30.089  35.833  1.00  0.00     0.029 A 
ATOM     55  N   UNL A   1      41.691  29.431  33.713  1.00  0.00    -0.354 N 
ATOM     56  N   UNL A   1      42.508  27.889  31.342  1.00  0.00    -0.248 NA
ATOM     57  C   UNL A   1      44.016  26.468  30.269  1.00  0.00     0.031 C 
ATOM     58  C   UNL A   1      42.923  29.260  35.552  1.00  0.00     0.029 A 
ATOM     59  C   UNL A   1      42.822  28.828  34.240  1.00  0.00     0.049 A 
ATOM     60  H   UNL A   1      41.366  29.316  32.790  1.00  0.00     0.167 HD
ATOM     61  C   UNL A   1      43.511  27.536  32.234  1.00  0.00     0.074 A 
ATOM     62  C   UNL A   1      44.392  26.629  31.530  1.00  0.00     0.031 C 
ATOM     63  C   UNL A   1      43.687  27.929  33.521  1.00  0.00     0.037 A 
BRANCH  50  64
ATOM     64  C   UNL A   1      39.419  31.905  35.569  1.00  0.00     0.064 A 
ATOM     65  C   UNL A   1      38.508  31.459  36.541  1.00  0.00     0.173 A 
ATOM     66  C   UNL A   1      39.893  33.221  35.676  1.00  0.00     0.173 A 
ATOM     67  F   UNL A   1      38.013  30.213  36.483  1.00  0.00    -0.203 F 
ATOM     68  C   UNL A   1      38.058  32.308  37.548  1.00  0.00     0.198 A 
ATOM     69  C   UNL A   1      39.470  34.056  36.708  1.00  0.00     0.198 A 
ATOM     70  F   UNL A   1      40.770  33.700  34.781  1.00  0.00    -0.203 F 
ATOM     71  F   UNL A   1      37.139  31.879  38.423  1.00  0.00    -0.200 F 
ATOM     72  C   UNL A   1      38.545  33.603  37.636  1.00  0.00     0.200 A 
ATOM     73  F   UNL A   1      39.954  35.303  36.800  1.00  0.00    -0.200 F 
ATOM     74  F   UNL A   1      38.117  34.417  38.610  1.00  0.00    -0.200 F 
ENDBRANCH  50  64
BRANCH  51  75
ATOM     75  C   UNL A   1      42.527  26.516  27.740  1.00  0.00     0.064 A 
ATOM     76  C   UNL A   1      42.080  25.213  27.477  1.00  0.00     0.173 A 
ATOM     77  C   UNL A   1      43.447  27.082  26.845  1.00  0.00     0.173 A 
ATOM     78  F   UNL A   1      41.213  24.622  28.312  1.00  0.00    -0.203 F 
ATOM     79  C   UNL A   1      42.548  24.499  26.376  1.00  0.00     0.198 A 
ATOM     80  C   UNL A   1      43.891  26.377  25.727  1.00  0.00     0.198 A 
ATOM     81  F   UNL A   1      43.899  28.329  27.044  1.00  0.00    -0.203 F 
ATOM     82  F   UNL A   1      42.136  23.241  26.174  1.00  0.00    -0.200 F 
ATOM     83  C   UNL A   1      43.448  25.084  25.498  1.00  0.00     0.200 A 
ATOM     84  F   UNL A   1      44.743  26.954  24.869  1.00  0.00    -0.200 F 
ATOM     85  F   UNL A   1      43.888  24.401  24.433  1.00  0.00    -0.200 F 
ENDBRANCH  51  75
BRANCH  63  86
ATOM     86  C   UNL A   1      44.865  27.356  34.255  1.00  0.00     0.064 A 
ATOM     87  C   UNL A   1      46.102  28.017  34.295  1.00  0.00     0.173 A 
ATOM     88  C   UNL A   1      44.745  26.147  34.956  1.00  0.00     0.173 A 
ATOM     89  F   UNL A   1      46.273  29.170  33.630  1.00  0.00    -0.203 F 
ATOM     90  C   UNL A   1      47.183  27.471  34.981  1.00  0.00     0.198 A 
ATOM     91  C   UNL A   1      45.818  25.621  35.671  1.00  0.00     0.198 A 
ATOM     92  F   UNL A   1      43.582  25.479  34.957  1.00  0.00    -0.203 F 
ATOM     93  F   UNL A   1      48.372  28.092  34.957  1.00  0.00    -0.200 F 
ATOM     94  C   UNL A   1      47.039  26.279  35.674  1.00  0.00     0.200 A 
ATOM     95  F   UNL A   1      45.670  24.478  36.353  1.00  0.00    -0.200 F 
ATOM     96  F   UNL A   1      48.079  25.758  36.339  1.00  0.00    -0.200 F 
ENDBRANCH  63  86
ENDBRANCH  37  38
ENDBRANCH  29  32
ENDBRANCH  27  28
ENDBRANCH  26  27
ENDBRANCH  25  26
ENDBRANCH   3  25
TORSDOF 15
ENDMDL
MODEL 3
REMARK VINA RESULT:     -12.3      0.995      7.943
REMARK SMILES O=C(CO/N=C\c1ccccc1)Nc1ccccc1C(=O)NCCCNC(=O)c1ccc(-c2c3nc(c(-c4c(F)c(F)c(F)c(F)c4F)c4ccc([nH]4)c(-c4c(F)c(F)c(F)c(F)c4F)c4nc(c(-c5c(F)c(F)c(F)c(F)c5F)c5ccc2[nH]5)C=C4)C=C3)cc1
REMARK SMILES IDX 20 1 21 2 22 3 19 5 14 6 15 7 16 8 18 9 17 10 13 11 1 12
REMARK SMILES IDX 2 13 3 15 4 16 5 17 6 18 7 19 8 20 12 21 9 22 11 23 10 24
REMARK SMILES IDX 23 25 24 26 25 27 26 28 27 29 28 31 29 32 30 33 91 34 31 35
REMARK SMILES IDX 90 36 32 37 33 38 34 39 84 40 35 41 89 42 83 43 85 44 36 45
REMARK SMILES IDX 88 46 82 47 81 48 37 50 69 51 49 52 68 53 50 54 53 55 67 56
REMARK SMILES IDX 86 57 51 58 52 59 66 61 87 62 54 63 38 64 39 65 47 66 40 67
REMARK SMILES IDX 41 68 45 69 48 70 42 71 43 72 46 73 44 74 70 75 71 76 79 77
REMARK SMILES IDX 72 78 73 79 77 80 80 81 74 82 75 83 78 84 76 85 55 86 56 87
REMARK SMILES IDX 64 88 57 89 58 90 62 91 65 92 59 93 60 94 63 95 61 96
REMARK H PARENT 22 4 13 14 26 30 85 49 53 60
REMARK Flexibility Score: inf
ROOT
ATOM      1  C   UNL A   1      32.164  26.921  22.778  1.00  0.00     0.253 C 
ATOM      2  O   UNL A   1      32.399  26.547  21.626  1.00  0.00    -0.269 OA
ATOM      3  N   UNL A   1      33.212  26.879  23.680  1.00  0.00    -0.352 N 
ATOM      4  H   UNL A   1      34.005  26.360  23.412  1.00  0.00     0.163 HD
ENDROOT
BRANCH   1   5
ATOM      5  C   UNL A   1      30.742  27.178  23.191  1.00  0.00     0.063 A 
ATOM      6  C   UNL A   1      29.830  26.347  23.879  1.00  0.00     0.054 A 
ATOM      7  C   UNL A   1      28.463  26.704  23.877  1.00  0.00     0.027 A 
ATOM      8  C   UNL A   1      28.015  27.906  23.326  1.00  0.00     0.002 A 
ATOM      9  C   UNL A   1      30.267  28.409  22.673  1.00  0.00     0.016 A 
ATOM     10  C   UNL A   1      28.925  28.777  22.751  1.00  0.00     0.001 A 
BRANCH   6  11
ATOM     11  N   UNL A   1      30.100  25.159  24.605  1.00  0.00    -0.322 N 
ATOM     12  O   UNL A   1      30.715  26.003  26.671  1.00  0.00    -0.271 OA
ATOM     13  C   UNL A   1      30.584  25.060  25.897  1.00  0.00     0.265 C 
ATOM     14  H   UNL A   1      29.923  24.311  24.137  1.00  0.00     0.170 HD
BRANCH  13  15
ATOM     15  C   UNL A   1      31.132  23.661  26.220  1.00  0.00     0.363 C 
BRANCH  15  16
ATOM     16  O   UNL A   1      32.250  23.271  25.443  1.00  0.00    -0.386 OA
BRANCH  16  17
ATOM     17  N   UNL A   1      31.793  22.772  24.221  1.00  0.00    -0.094 NA
ATOM     18  C   UNL A   1      32.763  22.294  23.503  1.00  0.00     0.162 C 
BRANCH  18  19
ATOM     19  C   UNL A   1      34.181  22.175  23.877  1.00  0.00    -0.004 A 
ATOM     20  C   UNL A   1      35.085  23.065  23.296  1.00  0.00     0.010 A 
ATOM     21  C   UNL A   1      34.622  21.160  24.731  1.00  0.00     0.010 A 
ATOM     22  C   UNL A   1      36.443  22.953  23.587  1.00  0.00     0.001 A 
ATOM     23  C   UNL A   1      35.986  21.043  25.007  1.00  0.00     0.001 A 
ATOM     24  C   UNL A   1      36.893  21.941  24.438  1.00  0.00     0.000 A 
ENDBRANCH  18  19
ENDBRANCH  16  17
ENDBRANCH  15  16
ENDBRANCH  13  15
ENDBRANCH   6  11
ENDBRANCH   1   5
BRANCH   3  25
ATOM     25  C   UNL A   1      33.262  27.510  24.967  1.00  0.00     0.118 C 
BRANCH  25  26
ATOM     26  C   UNL A   1      32.994  28.994  25.054  1.00  0.00     0.042 C 
BRANCH  26  27
ATOM     27  C   UNL A   1      32.333  29.458  26.350  1.00  0.00     0.118 C 
BRANCH  27  28
ATOM     28  N   UNL A   1      32.383  30.903  26.605  1.00  0.00    -0.352 N 
ATOM     29  C   UNL A   1      33.285  31.718  27.251  1.00  0.00     0.251 C 
ATOM     30  H   UNL A   1      31.611  31.390  26.237  1.00  0.00     0.163 HD
ATOM     31  O   UNL A   1      32.995  32.900  27.441  1.00  0.00    -0.269 OA
BRANCH  29  32
ATOM     32  C   UNL A   1      34.574  31.202  27.766  1.00  0.00     0.039 A 
ATOM     33  C   UNL A   1      35.635  32.085  28.004  1.00  0.00     0.014 A 
ATOM     34  C   UNL A   1      34.754  29.847  28.022  1.00  0.00     0.014 A 
ATOM     35  C   UNL A   1      36.806  31.624  28.616  1.00  0.00     0.010 A 
ATOM     36  C   UNL A   1      35.840  29.421  28.772  1.00  0.00     0.010 A 
ATOM     37  C   UNL A   1      36.887  30.299  29.075  1.00  0.00    -0.014 A 
BRANCH  37  38
ATOM     38  C   UNL A   1      38.041  29.793  29.866  1.00  0.00     0.031 A 
ATOM     39  C   UNL A   1      38.259  30.279  31.276  1.00  0.00     0.074 A 
ATOM     40  C   UNL A   1      38.959  29.000  29.277  1.00  0.00     0.049 A 
ATOM     41  N   UNL A   1      39.280  30.083  32.074  1.00  0.00    -0.248 NA
ATOM     42  C   UNL A   1      37.218  31.150  31.846  1.00  0.00     0.031 C 
ATOM     43  C   UNL A   1      38.912  28.531  27.891  1.00  0.00     0.029 A 
ATOM     44  N   UNL A   1      40.127  28.468  29.765  1.00  0.00    -0.354 N 
ATOM     45  C   UNL A   1      39.018  30.837  33.212  1.00  0.00     0.074 A 
ATOM     46  C   UNL A   1      37.784  31.550  32.973  1.00  0.00     0.031 C 
ATOM     47  C   UNL A   1      39.982  27.757  27.649  1.00  0.00     0.029 A 
ATOM     48  C   UNL A   1      40.815  27.713  28.845  1.00  0.00     0.049 A 
ATOM     49  H   UNL A   1      40.441  28.612  30.687  1.00  0.00     0.167 HD
ATOM     50  C   UNL A   1      39.725  30.904  34.365  1.00  0.00     0.037 A 
ATOM     51  C   UNL A   1      41.993  27.068  28.950  1.00  0.00     0.037 A 
ATOM     52  C   UNL A   1      40.924  30.149  34.616  1.00  0.00     0.049 A 
ATOM     53  C   UNL A   1      42.737  27.119  30.257  1.00  0.00     0.074 A 
ATOM     54  C   UNL A   1      41.663  30.063  35.781  1.00  0.00     0.029 A 
ATOM     55  N   UNL A   1      41.559  29.347  33.678  1.00  0.00    -0.354 N 
ATOM     56  N   UNL A   1      42.433  27.761  31.358  1.00  0.00    -0.248 NA
ATOM     57  C   UNL A   1      43.983  26.346  30.338  1.00  0.00     0.031 C 
ATOM     58  C   UNL A   1      42.775  29.252  35.533  1.00  0.00     0.029 A 
ATOM     59  C   UNL A   1      42.696  28.782  34.233  1.00  0.00     0.049 A 
ATOM     60  H   UNL A   1      41.246  29.200  32.756  1.00  0.00     0.167 HD
ATOM     61  C   UNL A   1      43.434  27.454  32.269  1.00  0.00     0.074 A 
ATOM     62  C   UNL A   1      44.342  26.548  31.598  1.00  0.00     0.031 C 
ATOM     63  C   UNL A   1      43.589  27.884  33.546  1.00  0.00     0.037 A 
BRANCH  50  64
ATOM     64  C   UNL A   1      39.214  31.818  35.446  1.00  0.00     0.064 A 
ATOM     65  C   UNL A   1      38.369  31.358  36.469  1.00  0.00     0.173 A 
ATOM     66  C   UNL A   1      39.592  33.169  35.472  1.00  0.00     0.173 A 
ATOM     67  F   UNL A   1      37.967  30.078  36.488  1.00  0.00    -0.203 F 
ATOM     68  C   UNL A   1      37.889  32.223  37.448  1.00  0.00     0.198 A 
ATOM     69  C   UNL A   1      39.141  34.023  36.476  1.00  0.00     0.198 A 
ATOM     70  F   UNL A   1      40.403  33.665  34.525  1.00  0.00    -0.203 F 
ATOM     71  F   UNL A   1      37.031  31.773  38.375  1.00  0.00    -0.200 F 
ATOM     72  C   UNL A   1      38.280  33.552  37.457  1.00  0.00     0.200 A 
ATOM     73  F   UNL A   1      39.532  35.304  36.490  1.00  0.00    -0.200 F 
ATOM     74  F   UNL A   1      37.823  34.382  38.404  1.00  0.00    -0.200 F 
ENDBRANCH  50  64
BRANCH  51  75
ATOM     75  C   UNL A   1      42.520  26.294  27.794  1.00  0.00     0.064 A 
ATOM     76  C   UNL A   1      43.469  26.855  26.926  1.00  0.00     0.173 A 
ATOM     77  C   UNL A   1      42.101  24.980  27.540  1.00  0.00     0.173 A 
ATOM     78  F   UNL A   1      43.890  28.113  27.118  1.00  0.00    -0.203 F 
ATOM     79  C   UNL A   1      43.962  26.138  25.838  1.00  0.00     0.198 A 
ATOM     80  C   UNL A   1      42.618  24.254  26.468  1.00  0.00     0.198 A 
ATOM     81  F   UNL A   1      41.203  24.394  28.345  1.00  0.00    -0.203 F 
ATOM     82  F   UNL A   1      44.835  26.714  25.001  1.00  0.00    -0.200 F 
ATOM     83  C   UNL A   1      43.541  24.835  25.614  1.00  0.00     0.200 A 
ATOM     84  F   UNL A   1      42.225  22.989  26.268  1.00  0.00    -0.200 F 
ATOM     85  F   UNL A   1      44.024  24.143  24.574  1.00  0.00    -0.200 F 
ENDBRANCH  51  75
BRANCH  63  86
ATOM     86  C   UNL A   1      44.771  27.357  34.308  1.00  0.00     0.064 A 
ATOM     87  C   UNL A   1      44.708  26.154  35.027  1.00  0.00     0.173 A 
ATOM     88  C   UNL A   1      45.992  28.048  34.290  1.00  0.00     0.173 A 
ATOM     89  F   UNL A   1      43.560  25.462  35.086  1.00  0.00    -0.203 F 
ATOM     90  C   UNL A   1      45.815  25.681  35.727  1.00  0.00     0.198 A 
ATOM     91  C   UNL A   1      47.106  27.554  34.962  1.00  0.00     0.198 A 
ATOM     92  F   UNL A   1      46.107  29.199  33.611  1.00  0.00    -0.203 F 
ATOM     93  F   UNL A   1      45.715  24.559  36.455  1.00  0.00    -0.200 F 
ATOM     94  C   UNL A   1      47.013  26.377  35.689  1.00  0.00     0.200 A 
ATOM     95  F   UNL A   1      48.268  28.220  34.909  1.00  0.00    -0.200 F 
ATOM     96  F   UNL A   1      48.079  25.916  36.357  1.00  0.00    -0.200 F 
ENDBRANCH  63  86
ENDBRANCH  37  38
ENDBRANCH  29  32
ENDBRANCH  27  28
ENDBRANCH  26  27
ENDBRANCH  25  26
ENDBRANCH   3  25
TORSDOF 15
ENDMDL
