MODEL 1
REMARK VINA RESULT:     -12.8      0.000      0.000
REMARK SMILES O=C(Cc1ccc(NC(=O)C2CCCC2)cc1)NCCCNC(=O)c1ccc(-c2c3nc(c(-c4c(F)c(F)c(F)c(F)c4F)c4ccc([nH]4)c(-c4c(F)c(F)c(F)c(F)c4F)c4nc(c(-c5c(F)c(F)c(F)c(F)c5F)c5ccc2[nH]5)C=C4)C=C3)cc1
REMARK SMILES IDX 19 1 18 2 1 3 2 4 3 6 4 7 5 8 17 9 6 10 16 11 7 12 8 13 9 14
REMARK SMILES IDX 10 16 11 17 12 18 15 19 13 20 14 21 20 22 21 23 22 24 23 25
REMARK SMILES IDX 24 27 25 28 26 29 87 30 27 31 86 32 28 33 29 34 30 35 80 36
REMARK SMILES IDX 31 37 85 38 79 39 81 40 32 41 84 42 78 43 77 44 33 46 65 47
REMARK SMILES IDX 45 48 64 49 46 50 49 51 63 52 82 53 47 54 48 55 62 57 83 58
REMARK SMILES IDX 50 59 34 60 35 61 43 62 36 63 37 64 41 65 44 66 38 67 39 68
REMARK SMILES IDX 42 69 40 70 66 71 67 72 75 73 68 74 69 75 73 76 76 77 70 78
REMARK SMILES IDX 71 79 74 80 72 81 51 82 52 83 60 84 53 85 54 86 58 87 61 88
REMARK SMILES IDX 55 89 56 90 59 91 57 92
REMARK H PARENT 18 5 8 15 22 26 81 45 49 56
REMARK Flexibility Score: inf
ROOT
ATOM      1  C   UNL A   1      32.009  30.514  26.908  1.00  0.00     0.117 C 
ENDROOT
BRANCH   1   2
ATOM      2  N   UNL A   1      32.487  29.977  25.645  1.00  0.00    -0.356 N 
ATOM      3  O   UNL A   1      34.395  29.021  26.519  1.00  0.00    -0.275 OA
ATOM      4  C   UNL A   1      33.575  29.113  25.612  1.00  0.00     0.224 C 
ATOM      5  H   UNL A   1      32.036  30.226  24.807  1.00  0.00     0.163 HD
BRANCH   4   6
ATOM      6  C   UNL A   1      33.589  28.188  24.402  1.00  0.00     0.135 C 
BRANCH   6   7
ATOM      7  C   UNL A   1      32.197  27.821  23.919  1.00  0.00    -0.039 A 
ATOM      8  C   UNL A   1      31.344  27.024  24.691  1.00  0.00     0.006 A 
ATOM      9  C   UNL A   1      31.689  28.347  22.725  1.00  0.00     0.006 A 
ATOM     10  C   UNL A   1      30.010  26.855  24.350  1.00  0.00     0.026 A 
ATOM     11  C   UNL A   1      30.326  28.218  22.417  1.00  0.00     0.026 A 
ATOM     12  C   UNL A   1      29.466  27.587  23.318  1.00  0.00     0.041 A 
BRANCH  12  13
ATOM     13  N   UNL A   1      28.087  27.693  23.150  1.00  0.00    -0.326 N 
ATOM     14  C   UNL A   1      27.234  28.752  23.215  1.00  0.00     0.227 C 
ATOM     15  H   UNL A   1      27.644  26.837  22.947  1.00  0.00     0.169 HD
ATOM     16  O   UNL A   1      26.028  28.456  23.251  1.00  0.00    -0.274 OA
BRANCH  14  17
ATOM     17  C   UNL A   1      27.588  30.249  23.045  1.00  0.00     0.079 C 
ATOM     18  C   UNL A   1      28.707  31.012  23.741  1.00  0.00     0.013 C 
ATOM     19  C   UNL A   1      27.908  30.530  21.564  1.00  0.00     0.013 C 
ATOM     20  C   UNL A   1      28.812  32.312  22.960  1.00  0.00     0.001 C 
ATOM     21  C   UNL A   1      28.630  31.882  21.515  1.00  0.00     0.001 C 
ENDBRANCH  14  17
ENDBRANCH  12  13
ENDBRANCH   6   7
ENDBRANCH   4   6
ENDBRANCH   1   2
BRANCH   1  22
ATOM     22  C   UNL A   1      31.709  32.003  26.865  1.00  0.00     0.042 C 
BRANCH  22  23
ATOM     23  C   UNL A   1      32.890  32.911  27.198  1.00  0.00     0.118 C 
BRANCH  23  24
ATOM     24  N   UNL A   1      32.506  34.240  27.654  1.00  0.00    -0.352 N 
ATOM     25  C   UNL A   1      33.033  35.019  28.662  1.00  0.00     0.251 C 
ATOM     26  H   UNL A   1      31.753  34.645  27.166  1.00  0.00     0.163 HD
ATOM     27  O   UNL A   1      32.492  36.079  28.954  1.00  0.00    -0.269 OA
BRANCH  25  28
ATOM     28  C   UNL A   1      34.223  34.571  29.426  1.00  0.00     0.039 A 
ATOM     29  C   UNL A   1      34.029  33.979  30.679  1.00  0.00     0.014 A 
ATOM     30  C   UNL A   1      35.518  34.726  28.929  1.00  0.00     0.014 A 
ATOM     31  C   UNL A   1      35.121  33.462  31.384  1.00  0.00     0.010 A 
ATOM     32  C   UNL A   1      36.597  34.142  29.595  1.00  0.00     0.010 A 
ATOM     33  C   UNL A   1      36.409  33.491  30.823  1.00  0.00    -0.014 A 
BRANCH  33  34
ATOM     34  C   UNL A   1      37.555  32.807  31.485  1.00  0.00     0.031 A 
ATOM     35  C   UNL A   1      38.228  31.630  30.836  1.00  0.00     0.074 A 
ATOM     36  C   UNL A   1      37.945  33.206  32.712  1.00  0.00     0.049 A 
ATOM     37  N   UNL A   1      39.189  30.867  31.297  1.00  0.00    -0.248 NA
ATOM     38  C   UNL A   1      37.745  31.244  29.502  1.00  0.00     0.031 C 
ATOM     39  C   UNL A   1      37.349  34.306  33.472  1.00  0.00     0.029 A 
ATOM     40  N   UNL A   1      38.927  32.724  33.544  1.00  0.00    -0.354 N 
ATOM     41  C   UNL A   1      39.418  29.910  30.317  1.00  0.00     0.074 A 
ATOM     42  C   UNL A   1      38.461  30.155  29.259  1.00  0.00     0.031 C 
ATOM     43  C   UNL A   1      37.989  34.428  34.646  1.00  0.00     0.029 A 
ATOM     44  C   UNL A   1      39.007  33.388  34.745  1.00  0.00     0.049 A 
ATOM     45  H   UNL A   1      39.517  31.974  33.303  1.00  0.00     0.167 HD
ATOM     46  C   UNL A   1      40.353  28.929  30.293  1.00  0.00     0.037 A 
ATOM     47  C   UNL A   1      39.800  33.175  35.813  1.00  0.00     0.037 A 
ATOM     48  C   UNL A   1      41.313  28.692  31.341  1.00  0.00     0.049 A 
ATOM     49  C   UNL A   1      40.807  32.058  35.773  1.00  0.00     0.074 A 
ATOM     50  C   UNL A   1      42.335  27.760  31.380  1.00  0.00     0.029 A 
ATOM     51  N   UNL A   1      41.362  29.386  32.542  1.00  0.00    -0.354 N 
ATOM     52  N   UNL A   1      41.061  31.205  34.811  1.00  0.00    -0.248 NA
ATOM     53  C   UNL A   1      41.641  31.876  36.970  1.00  0.00     0.031 C 
ATOM     54  C   UNL A   1      42.963  27.847  32.627  1.00  0.00     0.029 A 
ATOM     55  C   UNL A   1      42.376  28.879  33.341  1.00  0.00     0.049 A 
ATOM     56  H   UNL A   1      40.766  30.129  32.789  1.00  0.00     0.167 HD
ATOM     57  C   UNL A   1      42.099  30.407  35.272  1.00  0.00     0.074 A 
ATOM     58  C   UNL A   1      42.442  30.889  36.594  1.00  0.00     0.031 C 
ATOM     59  C   UNL A   1      42.711  29.365  34.655  1.00  0.00     0.037 A 
BRANCH  46  60
ATOM     60  C   UNL A   1      40.387  28.027  29.091  1.00  0.00     0.064 A 
ATOM     61  C   UNL A   1      39.639  26.839  29.036  1.00  0.00     0.173 A 
ATOM     62  C   UNL A   1      41.139  28.377  27.958  1.00  0.00     0.173 A 
ATOM     63  F   UNL A   1      38.909  26.453  30.094  1.00  0.00    -0.203 F 
ATOM     64  C   UNL A   1      39.667  26.024  27.908  1.00  0.00     0.198 A 
ATOM     65  C   UNL A   1      41.137  27.576  26.819  1.00  0.00     0.198 A 
ATOM     66  F   UNL A   1      41.866  29.504  27.950  1.00  0.00    -0.203 F 
ATOM     67  F   UNL A   1      38.985  24.871  27.900  1.00  0.00    -0.200 F 
ATOM     68  C   UNL A   1      40.410  26.396  26.798  1.00  0.00     0.200 A 
ATOM     69  F   UNL A   1      41.842  27.947  25.740  1.00  0.00    -0.200 F 
ATOM     70  F   UNL A   1      40.427  25.616  25.709  1.00  0.00    -0.200 F 
ENDBRANCH  46  60
BRANCH  47  71
ATOM     71  C   UNL A   1      39.679  34.045  37.014  1.00  0.00     0.064 A 
ATOM     72  C   UNL A   1      38.894  33.658  38.109  1.00  0.00     0.173 A 
ATOM     73  C   UNL A   1      40.332  35.285  37.087  1.00  0.00     0.173 A 
ATOM     74  F   UNL A   1      38.231  32.492  38.079  1.00  0.00    -0.203 F 
ATOM     75  C   UNL A   1      38.748  34.487  39.220  1.00  0.00     0.198 A 
ATOM     76  C   UNL A   1      40.212  36.098  38.213  1.00  0.00     0.198 A 
ATOM     77  F   UNL A   1      41.098  35.702  36.068  1.00  0.00    -0.203 F 
ATOM     78  F   UNL A   1      37.950  34.115  40.230  1.00  0.00    -0.200 F 
ATOM     79  C   UNL A   1      39.412  35.702  39.274  1.00  0.00     0.200 A 
ATOM     80  F   UNL A   1      40.870  37.264  38.267  1.00  0.00    -0.200 F 
ATOM     81  F   UNL A   1      39.276  36.497  40.344  1.00  0.00    -0.200 F 
ENDBRANCH  47  71
BRANCH  59  82
ATOM     82  C   UNL A   1      43.839  28.695  35.389  1.00  0.00     0.064 A 
ATOM     83  C   UNL A   1      43.615  27.639  36.285  1.00  0.00     0.173 A 
ATOM     84  C   UNL A   1      45.166  29.095  35.168  1.00  0.00     0.173 A 
ATOM     85  F   UNL A   1      42.364  27.228  36.543  1.00  0.00    -0.203 F 
ATOM     86  C   UNL A   1      44.674  27.029  36.954  1.00  0.00     0.198 A 
ATOM     87  C   UNL A   1      46.225  28.460  35.813  1.00  0.00     0.198 A 
ATOM     88  F   UNL A   1      45.439  30.096  34.317  1.00  0.00    -0.203 F 
ATOM     89  F   UNL A   1      44.429  26.060  37.847  1.00  0.00    -0.200 F 
ATOM     90  C   UNL A   1      45.977  27.434  36.712  1.00  0.00     0.200 A 
ATOM     91  F   UNL A   1      47.486  28.842  35.564  1.00  0.00    -0.200 F 
ATOM     92  F   UNL A   1      46.995  26.841  37.351  1.00  0.00    -0.200 F 
ENDBRANCH  59  82
ENDBRANCH  33  34
ENDBRANCH  25  28
ENDBRANCH  23  24
ENDBRANCH  22  23
ENDBRANCH   1  22
TORSDOF 13
ENDMDL
MODEL 2
REMARK VINA RESULT:     -12.6      4.542     10.484
REMARK SMILES O=C(Cc1ccc(NC(=O)C2CCCC2)cc1)NCCCNC(=O)c1ccc(-c2c3nc(c(-c4c(F)c(F)c(F)c(F)c4F)c4ccc([nH]4)c(-c4c(F)c(F)c(F)c(F)c4F)c4nc(c(-c5c(F)c(F)c(F)c(F)c5F)c5ccc2[nH]5)C=C4)C=C3)cc1
REMARK SMILES IDX 19 1 18 2 1 3 2 4 3 6 4 7 5 8 17 9 6 10 16 11 7 12 8 13 9 14
REMARK SMILES IDX 10 16 11 17 12 18 15 19 13 20 14 21 20 22 21 23 22 24 23 25
REMARK SMILES IDX 24 27 25 28 26 29 87 30 27 31 86 32 28 33 29 34 30 35 80 36
REMARK SMILES IDX 31 37 85 38 79 39 81 40 32 41 84 42 78 43 77 44 33 46 65 47
REMARK SMILES IDX 45 48 64 49 46 50 49 51 63 52 82 53 47 54 48 55 62 57 83 58
REMARK SMILES IDX 50 59 34 60 35 61 43 62 36 63 37 64 41 65 44 66 38 67 39 68
REMARK SMILES IDX 42 69 40 70 66 71 67 72 75 73 68 74 69 75 73 76 76 77 70 78
REMARK SMILES IDX 71 79 74 80 72 81 51 82 52 83 60 84 53 85 54 86 58 87 61 88
REMARK SMILES IDX 55 89 56 90 59 91 57 92
REMARK H PARENT 18 5 8 15 22 26 81 45 49 56
REMARK Flexibility Score: inf
ROOT
ATOM      1  C   UNL A   1      34.379  34.907  28.232  1.00  0.00     0.117 C 
ENDROOT
BRANCH   1   2
ATOM      2  N   UNL A   1      34.071  35.191  29.623  1.00  0.00    -0.356 N 
ATOM      3  O   UNL A   1      32.992  37.185  29.210  1.00  0.00    -0.275 OA
ATOM      4  C   UNL A   1      33.234  36.247  29.961  1.00  0.00     0.224 C 
ATOM      5  H   UNL A   1      34.458  34.629  30.332  1.00  0.00     0.163 HD
BRANCH   4   6
ATOM      6  C   UNL A   1      32.532  36.071  31.301  1.00  0.00     0.135 C 
BRANCH   6   7
ATOM      7  C   UNL A   1      33.389  35.357  32.331  1.00  0.00    -0.039 A 
ATOM      8  C   UNL A   1      33.263  33.983  32.559  1.00  0.00     0.006 A 
ATOM      9  C   UNL A   1      34.400  36.038  33.020  1.00  0.00     0.006 A 
ATOM     10  C   UNL A   1      34.174  33.295  33.347  1.00  0.00     0.026 A 
ATOM     11  C   UNL A   1      35.351  35.327  33.768  1.00  0.00     0.026 A 
ATOM     12  C   UNL A   1      35.306  33.933  33.804  1.00  0.00     0.041 A 
BRANCH  12  13
ATOM     13  N   UNL A   1      36.388  33.217  34.312  1.00  0.00    -0.326 N 
ATOM     14  C   UNL A   1      37.424  32.569  33.710  1.00  0.00     0.227 C 
ATOM     15  H   UNL A   1      36.407  33.168  35.296  1.00  0.00     0.169 HD
ATOM     16  O   UNL A   1      38.086  31.827  34.454  1.00  0.00    -0.274 OA
BRANCH  14  17
ATOM     17  C   UNL A   1      37.975  32.811  32.284  1.00  0.00     0.079 C 
ATOM     18  C   UNL A   1      37.183  32.824  30.984  1.00  0.00     0.013 C 
ATOM     19  C   UNL A   1      38.659  34.192  32.232  1.00  0.00     0.013 C 
ATOM     20  C   UNL A   1      38.137  33.440  29.973  1.00  0.00     0.001 C 
ATOM     21  C   UNL A   1      38.818  34.553  30.752  1.00  0.00     0.001 C 
ENDBRANCH  14  17
ENDBRANCH  12  13
ENDBRANCH   6   7
ENDBRANCH   4   6
ENDBRANCH   1   2
BRANCH   1  22
ATOM     22  C   UNL A   1      34.976  33.528  28.005  1.00  0.00     0.042 C 
BRANCH  22  23
ATOM     23  C   UNL A   1      34.508  32.452  28.981  1.00  0.00     0.118 C 
BRANCH  23  24
ATOM     24  N   UNL A   1      34.035  31.234  28.336  1.00  0.00    -0.352 N 
ATOM     25  C   UNL A   1      34.711  30.072  28.031  1.00  0.00     0.251 C 
ATOM     26  H   UNL A   1      33.085  31.241  28.078  1.00  0.00     0.163 HD
ATOM     27  O   UNL A   1      34.148  29.193  27.389  1.00  0.00    -0.269 OA
BRANCH  25  28
ATOM     28  C   UNL A   1      36.127  29.887  28.435  1.00  0.00     0.039 A 
ATOM     29  C   UNL A   1      36.398  29.338  29.693  1.00  0.00     0.014 A 
ATOM     30  C   UNL A   1      37.184  30.246  27.596  1.00  0.00     0.014 A 
ATOM     31  C   UNL A   1      37.717  29.065  30.067  1.00  0.00     0.010 A 
ATOM     32  C   UNL A   1      38.493  29.903  27.937  1.00  0.00     0.010 A 
ATOM     33  C   UNL A   1      38.774  29.295  29.170  1.00  0.00    -0.014 A 
BRANCH  33  34
ATOM     34  C   UNL A   1      40.164  28.865  29.488  1.00  0.00     0.031 A 
ATOM     35  C   UNL A   1      41.083  29.756  30.277  1.00  0.00     0.074 A 
ATOM     36  C   UNL A   1      40.623  27.695  29.003  1.00  0.00     0.049 A 
ATOM     37  N   UNL A   1      42.346  29.581  30.584  1.00  0.00    -0.248 NA
ATOM     38  C   UNL A   1      40.519  31.022  30.767  1.00  0.00     0.031 C 
ATOM     39  C   UNL A   1      39.850  26.756  28.188  1.00  0.00     0.029 A 
ATOM     40  N   UNL A   1      41.857  27.099  29.111  1.00  0.00    -0.354 N 
ATOM     41  C   UNL A   1      42.726  30.713  31.292  1.00  0.00     0.074 A 
ATOM     42  C   UNL A   1      41.577  31.592  31.326  1.00  0.00     0.031 C 
ATOM     43  C   UNL A   1      40.617  25.696  27.889  1.00  0.00     0.029 A 
ATOM     44  C   UNL A   1      41.950  25.899  28.446  1.00  0.00     0.049 A 
ATOM     45  H   UNL A   1      42.604  27.494  29.616  1.00  0.00     0.167 HD
ATOM     46  C   UNL A   1      43.917  30.985  31.879  1.00  0.00     0.037 A 
ATOM     47  C   UNL A   1      42.994  25.062  28.290  1.00  0.00     0.037 A 
ATOM     48  C   UNL A   1      45.057  30.103  31.855  1.00  0.00     0.049 A 
ATOM     49  C   UNL A   1      44.315  25.405  28.924  1.00  0.00     0.074 A 
ATOM     50  C   UNL A   1      46.287  30.267  32.470  1.00  0.00     0.029 A 
ATOM     51  N   UNL A   1      45.112  28.897  31.172  1.00  0.00    -0.354 N 
ATOM     52  N   UNL A   1      44.640  26.444  29.651  1.00  0.00    -0.248 NA
ATOM     53  C   UNL A   1      45.415  24.452  28.715  1.00  0.00     0.031 C 
ATOM     54  C   UNL A   1      47.105  29.192  32.108  1.00  0.00     0.029 A 
ATOM     55  C   UNL A   1      46.366  28.323  31.322  1.00  0.00     0.049 A 
ATOM     56  H   UNL A   1      44.370  28.506  30.657  1.00  0.00     0.167 HD
ATOM     57  C   UNL A   1      45.968  26.260  30.011  1.00  0.00     0.074 A 
ATOM     58  C   UNL A   1      46.384  24.997  29.437  1.00  0.00     0.031 C 
ATOM     59  C   UNL A   1      46.771  27.065  30.749  1.00  0.00     0.037 A 
BRANCH  46  60
ATOM     60  C   UNL A   1      44.057  32.297  32.599  1.00  0.00     0.064 A 
ATOM     61  C   UNL A   1      43.746  32.430  33.962  1.00  0.00     0.173 A 
ATOM     62  C   UNL A   1      44.553  33.427  31.930  1.00  0.00     0.173 A 
ATOM     63  F   UNL A   1      43.260  31.383  34.648  1.00  0.00    -0.203 F 
ATOM     64  C   UNL A   1      43.897  33.648  34.618  1.00  0.00     0.198 A 
ATOM     65  C   UNL A   1      44.735  34.635  32.599  1.00  0.00     0.198 A 
ATOM     66  F   UNL A   1      44.874  33.357  30.630  1.00  0.00    -0.203 F 
ATOM     67  F   UNL A   1      43.546  33.761  35.906  1.00  0.00    -0.200 F 
ATOM     68  C   UNL A   1      44.399  34.747  33.938  1.00  0.00     0.200 A 
ATOM     69  F   UNL A   1      45.237  35.693  31.943  1.00  0.00    -0.200 F 
ATOM     70  F   UNL A   1      44.554  35.917  34.575  1.00  0.00    -0.200 F 
ENDBRANCH  46  60
BRANCH  47  71
ATOM     71  C   UNL A   1      42.832  23.810  27.503  1.00  0.00     0.064 A 
ATOM     72  C   UNL A   1      42.379  22.630  28.109  1.00  0.00     0.173 A 
ATOM     73  C   UNL A   1      43.139  23.762  26.134  1.00  0.00     0.173 A 
ATOM     74  F   UNL A   1      42.095  22.618  29.420  1.00  0.00    -0.203 F 
ATOM     75  C   UNL A   1      42.261  21.446  27.383  1.00  0.00     0.198 A 
ATOM     76  C   UNL A   1      42.988  22.586  25.402  1.00  0.00     0.198 A 
ATOM     77  F   UNL A   1      43.573  24.864  25.504  1.00  0.00    -0.203 F 
ATOM     78  F   UNL A   1      41.876  20.321  28.000  1.00  0.00    -0.200 F 
ATOM     79  C   UNL A   1      42.559  21.427  26.030  1.00  0.00     0.200 A 
ATOM     80  F   UNL A   1      43.262  22.577  24.090  1.00  0.00    -0.200 F 
ATOM     81  F   UNL A   1      42.442  20.289  25.331  1.00  0.00    -0.200 F 
ENDBRANCH  47  71
BRANCH  59  82
ATOM     82  C   UNL A   1      48.174  26.592  31.007  1.00  0.00     0.064 A 
ATOM     83  C   UNL A   1      48.478  25.716  32.060  1.00  0.00     0.173 A 
ATOM     84  C   UNL A   1      49.225  26.995  30.168  1.00  0.00     0.173 A 
ATOM     85  F   UNL A   1      47.513  25.312  32.900  1.00  0.00    -0.203 F 
ATOM     86  C   UNL A   1      49.785  25.287  32.282  1.00  0.00     0.198 A 
ATOM     87  C   UNL A   1      50.524  26.537  30.372  1.00  0.00     0.198 A 
ATOM     88  F   UNL A   1      48.991  27.827  29.141  1.00  0.00    -0.203 F 
ATOM     89  F   UNL A   1      50.057  24.495  33.328  1.00  0.00    -0.200 F 
ATOM     90  C   UNL A   1      50.804  25.690  31.434  1.00  0.00     0.200 A 
ATOM     91  F   UNL A   1      51.505  26.914  29.541  1.00  0.00    -0.200 F 
ATOM     92  F   UNL A   1      52.059  25.269  31.644  1.00  0.00    -0.200 F 
ENDBRANCH  59  82
ENDBRANCH  33  34
ENDBRANCH  25  28
ENDBRANCH  23  24
ENDBRANCH  22  23
ENDBRANCH   1  22
TORSDOF 13
ENDMDL
MODEL 3
REMARK VINA RESULT:     -12.6      7.045     12.192
REMARK SMILES O=C(Cc1ccc(NC(=O)C2CCCC2)cc1)NCCCNC(=O)c1ccc(-c2c3nc(c(-c4c(F)c(F)c(F)c(F)c4F)c4ccc([nH]4)c(-c4c(F)c(F)c(F)c(F)c4F)c4nc(c(-c5c(F)c(F)c(F)c(F)c5F)c5ccc2[nH]5)C=C4)C=C3)cc1
REMARK SMILES IDX 19 1 18 2 1 3 2 4 3 6 4 7 5 8 17 9 6 10 16 11 7 12 8 13 9 14
REMARK SMILES IDX 10 16 11 17 12 18 15 19 13 20 14 21 20 22 21 23 22 24 23 25
REMARK SMILES IDX 24 27 25 28 26 29 87 30 27 31 86 32 28 33 29 34 30 35 80 36
REMARK SMILES IDX 31 37 85 38 79 39 81 40 32 41 84 42 78 43 77 44 33 46 65 47
REMARK SMILES IDX 45 48 64 49 46 50 49 51 63 52 82 53 47 54 48 55 62 57 83 58
REMARK SMILES IDX 50 59 34 60 35 61 43 62 36 63 37 64 41 65 44 66 38 67 39 68
REMARK SMILES IDX 42 69 40 70 66 71 67 72 75 73 68 74 69 75 73 76 76 77 70 78
REMARK SMILES IDX 71 79 74 80 72 81 51 82 52 83 60 84 53 85 54 86 58 87 61 88
REMARK SMILES IDX 55 89 56 90 59 91 57 92
REMARK H PARENT 18 5 8 15 22 26 81 45 49 56
REMARK Flexibility Score: inf
ROOT
ATOM      1  C   UNL A   1      37.773  21.274  24.801  1.00  0.00     0.117 C 
ENDROOT
BRANCH   1   2
ATOM      2  N   UNL A   1      36.705  21.507  25.758  1.00  0.00    -0.356 N 
ATOM      3  O   UNL A   1      36.953  23.798  25.814  1.00  0.00    -0.275 OA
ATOM      4  C   UNL A   1      36.280  22.799  26.042  1.00  0.00     0.224 C 
ATOM      5  H   UNL A   1      36.277  20.743  26.207  1.00  0.00     0.163 HD
BRANCH   4   6
ATOM      6  C   UNL A   1      34.843  22.879  26.540  1.00  0.00     0.135 C 
BRANCH   6   7
ATOM      7  C   UNL A   1      33.870  22.098  25.675  1.00  0.00    -0.039 A 
ATOM      8  C   UNL A   1      33.641  22.446  24.339  1.00  0.00     0.006 A 
ATOM      9  C   UNL A   1      33.241  20.946  26.161  1.00  0.00     0.006 A 
ATOM     10  C   UNL A   1      32.914  21.622  23.492  1.00  0.00     0.026 A 
ATOM     11  C   UNL A   1      32.555  20.089  25.286  1.00  0.00     0.026 A 
ATOM     12  C   UNL A   1      32.524  20.371  23.919  1.00  0.00     0.041 A 
BRANCH  12  13
ATOM     13  N   UNL A   1      32.085  19.401  23.021  1.00  0.00    -0.326 N 
ATOM     14  C   UNL A   1      32.615  18.210  22.627  1.00  0.00     0.227 C 
ATOM     15  H   UNL A   1      31.229  19.618  22.586  1.00  0.00     0.169 HD
ATOM     16  O   UNL A   1      32.083  17.702  21.626  1.00  0.00    -0.274 OA
BRANCH  14  17
ATOM     17  C   UNL A   1      33.646  17.346  23.392  1.00  0.00     0.079 C 
ATOM     18  C   UNL A   1      34.801  17.842  24.251  1.00  0.00     0.013 C 
ATOM     19  C   UNL A   1      32.903  16.433  24.387  1.00  0.00     0.013 C 
ATOM     20  C   UNL A   1      35.251  16.609  25.018  1.00  0.00     0.001 C 
ATOM     21  C   UNL A   1      33.949  15.915  25.380  1.00  0.00     0.001 C 
ENDBRANCH  14  17
ENDBRANCH  12  13
ENDBRANCH   6   7
ENDBRANCH   4   6
ENDBRANCH   1   2
BRANCH   1  22
ATOM     22  C   UNL A   1      38.492  19.949  24.997  1.00  0.00     0.042 C 
BRANCH  22  23
ATOM     23  C   UNL A   1      39.509  19.926  26.134  1.00  0.00     0.118 C 
BRANCH  23  24
ATOM     24  N   UNL A   1      40.564  18.936  25.965  1.00  0.00    -0.352 N 
ATOM     25  C   UNL A   1      41.934  19.080  26.025  1.00  0.00     0.251 C 
ATOM     26  H   UNL A   1      40.250  18.022  25.779  1.00  0.00     0.163 HD
ATOM     27  O   UNL A   1      42.656  18.129  25.751  1.00  0.00    -0.269 OA
BRANCH  25  28
ATOM     28  C   UNL A   1      42.547  20.384  26.379  1.00  0.00     0.039 A 
ATOM     29  C   UNL A   1      43.216  21.100  25.381  1.00  0.00     0.014 A 
ATOM     30  C   UNL A   1      42.472  20.905  27.672  1.00  0.00     0.014 A 
ATOM     31  C   UNL A   1      43.725  22.374  25.658  1.00  0.00     0.010 A 
ATOM     32  C   UNL A   1      42.910  22.206  27.927  1.00  0.00     0.010 A 
ATOM     33  C   UNL A   1      43.528  22.961  26.918  1.00  0.00    -0.014 A 
BRANCH  33  34
ATOM     34  C   UNL A   1      43.922  24.373  27.183  1.00  0.00     0.031 A 
ATOM     35  C   UNL A   1      42.910  25.377  27.662  1.00  0.00     0.074 A 
ATOM     36  C   UNL A   1      45.183  24.769  26.921  1.00  0.00     0.049 A 
ATOM     37  N   UNL A   1      43.055  26.663  27.872  1.00  0.00    -0.248 NA
ATOM     38  C   UNL A   1      41.552  24.878  27.917  1.00  0.00     0.031 C 
ATOM     39  C   UNL A   1      46.252  23.907  26.413  1.00  0.00     0.029 A 
ATOM     40  N   UNL A   1      45.780  26.002  27.034  1.00  0.00    -0.354 N 
ATOM     41  C   UNL A   1      41.808  27.125  28.275  1.00  0.00     0.074 A 
ATOM     42  C   UNL A   1      40.907  25.993  28.230  1.00  0.00     0.031 C 
ATOM     43  C   UNL A   1      47.374  24.630  26.277  1.00  0.00     0.029 A 
ATOM     44  C   UNL A   1      47.097  26.015  26.641  1.00  0.00     0.049 A 
ATOM     45  H   UNL A   1      45.308  26.801  27.363  1.00  0.00     0.167 HD
ATOM     46  C   UNL A   1      41.453  28.373  28.666  1.00  0.00     0.037 A 
ATOM     47  C   UNL A   1      47.981  27.030  26.568  1.00  0.00     0.037 A 
ATOM     48  C   UNL A   1      42.354  29.496  28.722  1.00  0.00     0.049 A 
ATOM     49  C   UNL A   1      47.550  28.413  26.977  1.00  0.00     0.074 A 
ATOM     50  C   UNL A   1      42.099  30.785  29.160  1.00  0.00     0.029 A 
ATOM     51  N   UNL A   1      43.680  29.469  28.317  1.00  0.00    -0.354 N 
ATOM     52  N   UNL A   1      46.388  28.821  27.423  1.00  0.00    -0.248 NA
ATOM     53  C   UNL A   1      48.558  29.477  26.873  1.00  0.00     0.031 C 
ATOM     54  C   UNL A   1      43.252  31.552  28.962  1.00  0.00     0.029 A 
ATOM     55  C   UNL A   1      44.246  30.727  28.463  1.00  0.00     0.049 A 
ATOM     56  H   UNL A   1      44.151  28.675  27.976  1.00  0.00     0.167 HD
ATOM     57  C   UNL A   1      46.532  30.177  27.681  1.00  0.00     0.074 A 
ATOM     58  C   UNL A   1      47.901  30.520  27.358  1.00  0.00     0.031 C 
ATOM     59  C   UNL A   1      45.611  31.060  28.141  1.00  0.00     0.037 A 
BRANCH  46  60
ATOM     60  C   UNL A   1      40.021  28.598  29.065  1.00  0.00     0.064 A 
ATOM     61  C   UNL A   1      39.574  28.374  30.377  1.00  0.00     0.173 A 
ATOM     62  C   UNL A   1      39.091  29.089  28.134  1.00  0.00     0.173 A 
ATOM     63  F   UNL A   1      40.419  27.897  31.305  1.00  0.00    -0.203 F 
ATOM     64  C   UNL A   1      38.249  28.604  30.734  1.00  0.00     0.198 A 
ATOM     65  C   UNL A   1      37.774  29.350  28.504  1.00  0.00     0.198 A 
ATOM     66  F   UNL A   1      39.464  29.328  26.868  1.00  0.00    -0.203 F 
ATOM     67  F   UNL A   1      37.835  28.335  31.980  1.00  0.00    -0.200 F 
ATOM     68  C   UNL A   1      37.352  29.099  29.799  1.00  0.00     0.200 A 
ATOM     69  F   UNL A   1      36.913  29.845  27.602  1.00  0.00    -0.200 F 
ATOM     70  F   UNL A   1      36.079  29.330  30.147  1.00  0.00    -0.200 F 
ENDBRANCH  46  60
BRANCH  47  71
ATOM     71  C   UNL A   1      49.367  26.776  26.094  1.00  0.00     0.064 A 
ATOM     72  C   UNL A   1      49.718  26.975  24.750  1.00  0.00     0.173 A 
ATOM     73  C   UNL A   1      50.366  26.316  26.966  1.00  0.00     0.173 A 
ATOM     74  F   UNL A   1      48.793  27.391  23.872  1.00  0.00    -0.203 F 
ATOM     75  C   UNL A   1      51.006  26.703  24.294  1.00  0.00     0.198 A 
ATOM     76  C   UNL A   1      51.662  26.077  26.515  1.00  0.00     0.198 A 
ATOM     77  F   UNL A   1      50.085  26.112  28.261  1.00  0.00    -0.203 F 
ATOM     78  F   UNL A   1      51.299  26.851  22.995  1.00  0.00    -0.200 F 
ATOM     79  C   UNL A   1      51.979  26.260  25.177  1.00  0.00     0.200 A 
ATOM     80  F   UNL A   1      52.603  25.665  27.376  1.00  0.00    -0.200 F 
ATOM     81  F   UNL A   1      53.219  26.003  24.739  1.00  0.00    -0.200 F 
ENDBRANCH  47  71
BRANCH  59  82
ATOM     82  C   UNL A   1      46.061  32.478  28.355  1.00  0.00     0.064 A 
ATOM     83  C   UNL A   1      45.939  33.453  27.353  1.00  0.00     0.173 A 
ATOM     84  C   UNL A   1      46.591  32.875  29.593  1.00  0.00     0.173 A 
ATOM     85  F   UNL A   1      45.452  33.123  26.148  1.00  0.00    -0.203 F 
ATOM     86  C   UNL A   1      46.360  34.762  27.572  1.00  0.00     0.198 A 
ATOM     87  C   UNL A   1      46.979  34.193  29.819  1.00  0.00     0.198 A 
ATOM     88  F   UNL A   1      46.724  31.986  30.589  1.00  0.00    -0.203 F 
ATOM     89  F   UNL A   1      46.285  35.661  26.581  1.00  0.00    -0.200 F 
ATOM     90  C   UNL A   1      46.871  35.133  28.806  1.00  0.00     0.200 A 
ATOM     91  F   UNL A   1      47.457  34.554  31.018  1.00  0.00    -0.200 F 
ATOM     92  F   UNL A   1      47.268  36.396  29.017  1.00  0.00    -0.200 F 
ENDBRANCH  59  82
ENDBRANCH  33  34
ENDBRANCH  25  28
ENDBRANCH  23  24
ENDBRANCH  22  23
ENDBRANCH   1  22
TORSDOF 13
ENDMDL
