MODEL 1
REMARK VINA RESULT:     -10.5      0.000      0.000
REMARK SMILES CC[C@](C)(NC(=O)NC[C@@H](C)[NH+](C)C)C(=O)NCCCNC(=O)c1ccc(-c2c3nc(c(-c4c(F)c(F)c(F)c(F)c4F)c4ccc([nH]4)c(-c4c(F)c(F)c(F)c(F)c4F)c4nc(c(-c5c(F)c(F)c(F)c(F)c5F)c5ccc2[nH]5)C=C4)C=C3)cc1
REMARK SMILES IDX 18 1 17 2 15 3 16 4 3 6 4 7 2 8 1 9 5 10 6 11 7 13 8 14 9 16
REMARK SMILES IDX 10 17 11 18 12 19 13 20 14 21 19 23 20 24 21 25 22 26 23 28
REMARK SMILES IDX 24 29 25 30 86 31 26 32 85 33 27 34 28 35 29 36 79 37 30 38
REMARK SMILES IDX 84 39 78 40 80 41 31 42 83 43 77 44 76 45 32 47 64 48 44 49
REMARK SMILES IDX 63 50 45 51 48 52 62 53 81 54 46 55 47 56 61 58 82 59 49 60
REMARK SMILES IDX 33 61 34 62 42 63 35 64 36 65 40 66 43 67 37 68 38 69 41 70
REMARK SMILES IDX 39 71 65 72 66 73 74 74 67 75 68 76 72 77 75 78 69 79 70 80
REMARK SMILES IDX 73 81 71 82 50 83 51 84 59 85 52 86 53 87 57 88 60 89 54 90
REMARK SMILES IDX 55 91 58 92 56 93
REMARK H PARENT 17 5 5 12 8 15 12 22 21 27 80 46 48 57
REMARK Flexibility Score: inf
ROOT
ATOM      1  C   UNL A   1      31.336  30.558  25.989  1.00  0.00     0.117 C 
ENDROOT
BRANCH   1   2
ATOM      2  N   UNL A   1      32.297  30.017  25.035  1.00  0.00    -0.354 N 
ATOM      3  C   UNL A   1      33.200  28.983  25.070  1.00  0.00     0.245 C 
ATOM      4  O   UNL A   1      33.560  28.497  23.991  1.00  0.00    -0.272 OA
ATOM      5  H   UNL A   1      32.301  30.501  24.177  1.00  0.00     0.163 HD
BRANCH   3   6
ATOM      6  C   UNL A   1      33.650  28.326  26.383  1.00  0.00     0.117 C 
ATOM      7  C   UNL A   1      32.609  28.368  27.519  1.00  0.00     0.045 C 
BRANCH   6   8
ATOM      8  C   UNL A   1      34.905  29.134  26.861  1.00  0.00     0.035 C 
ATOM      9  C   UNL A   1      34.716  29.921  28.168  1.00  0.00     0.007 C 
ENDBRANCH   6   8
BRANCH   6  10
ATOM     10  N   UNL A   1      33.974  26.912  26.124  1.00  0.00    -0.324 N 
ATOM     11  C   UNL A   1      33.262  25.803  25.887  1.00  0.00     0.315 C 
ATOM     12  H   UNL A   1      34.944  26.743  26.124  1.00  0.00     0.166 HD
ATOM     13  O   UNL A   1      33.876  24.733  25.978  1.00  0.00    -0.249 OA
ATOM     14  N   UNL A   1      31.990  25.721  25.483  1.00  0.00    -0.332 N 
ATOM     15  H   UNL A   1      31.769  24.795  25.233  1.00  0.00     0.165 HD
BRANCH  14  16
ATOM     16  C   UNL A   1      30.817  26.595  25.298  1.00  0.00     0.182 C 
BRANCH  16  17
ATOM     17  C   UNL A   1      30.159  26.554  23.871  1.00  0.00     0.200 C 
ATOM     18  C   UNL A   1      28.646  26.800  23.918  1.00  0.00     0.077 C 
BRANCH  17  19
ATOM     19  N   UNL A   1      30.851  27.391  22.872  1.00  0.00    -0.336 N 
ATOM     20  C   UNL A   1      31.468  26.669  21.764  1.00  0.00     0.332 C 
ATOM     21  C   UNL A   1      30.105  28.548  22.399  1.00  0.00     0.332 C 
ATOM     22  H   UNL A   1      31.620  27.761  23.431  1.00  0.00     0.347 HD
ENDBRANCH  17  19
ENDBRANCH  16  17
ENDBRANCH  14  16
ENDBRANCH   6  10
ENDBRANCH   3   6
ENDBRANCH   1   2
BRANCH   1  23
ATOM     23  C   UNL A   1      31.405  32.017  26.467  1.00  0.00     0.042 C 
BRANCH  23  24
ATOM     24  C   UNL A   1      32.646  32.587  27.149  1.00  0.00     0.118 C 
BRANCH  24  25
ATOM     25  N   UNL A   1      32.531  33.958  27.599  1.00  0.00    -0.352 N 
ATOM     26  C   UNL A   1      33.283  34.611  28.549  1.00  0.00     0.251 C 
ATOM     27  H   UNL A   1      31.825  34.492  27.170  1.00  0.00     0.163 HD
ATOM     28  O   UNL A   1      32.998  35.756  28.876  1.00  0.00    -0.269 OA
BRANCH  26  29
ATOM     29  C   UNL A   1      34.425  33.926  29.201  1.00  0.00     0.039 A 
ATOM     30  C   UNL A   1      35.716  34.205  28.745  1.00  0.00     0.014 A 
ATOM     31  C   UNL A   1      34.232  32.981  30.213  1.00  0.00     0.014 A 
ATOM     32  C   UNL A   1      36.816  33.563  29.323  1.00  0.00     0.010 A 
ATOM     33  C   UNL A   1      35.336  32.373  30.820  1.00  0.00     0.010 A 
ATOM     34  C   UNL A   1      36.640  32.650  30.377  1.00  0.00    -0.014 A 
BRANCH  34  35
ATOM     35  C   UNL A   1      37.817  31.980  30.999  1.00  0.00     0.031 A 
ATOM     36  C   UNL A   1      38.266  32.348  32.388  1.00  0.00     0.074 A 
ATOM     37  C   UNL A   1      38.495  31.040  30.311  1.00  0.00     0.049 A 
ATOM     38  N   UNL A   1      39.253  31.859  33.099  1.00  0.00    -0.248 NA
ATOM     39  C   UNL A   1      37.516  33.417  33.063  1.00  0.00     0.031 C 
ATOM     40  C   UNL A   1      38.190  30.612  28.945  1.00  0.00     0.029 A 
ATOM     41  N   UNL A   1      39.579  30.273  30.665  1.00  0.00    -0.354 N 
ATOM     42  C   UNL A   1      39.242  32.559  34.299  1.00  0.00     0.074 A 
ATOM     43  C   UNL A   1      38.188  33.546  34.197  1.00  0.00     0.031 C 
ATOM     44  C   UNL A   1      39.048  29.644  28.587  1.00  0.00     0.029 A 
ATOM     45  C   UNL A   1      39.985  29.403  29.681  1.00  0.00     0.049 A 
ATOM     46  H   UNL A   1      40.023  30.340  31.541  1.00  0.00     0.167 HD
ATOM     47  C   UNL A   1      40.022  32.382  35.393  1.00  0.00     0.037 A 
ATOM     48  C   UNL A   1      40.998  28.515  29.661  1.00  0.00     0.037 A 
ATOM     49  C   UNL A   1      41.067  31.396  35.498  1.00  0.00     0.049 A 
ATOM     50  C   UNL A   1      41.869  28.357  30.881  1.00  0.00     0.074 A 
ATOM     51  C   UNL A   1      41.881  31.112  36.582  1.00  0.00     0.029 A 
ATOM     52  N   UNL A   1      41.452  30.538  34.478  1.00  0.00    -0.354 N 
ATOM     53  N   UNL A   1      41.801  28.974  32.034  1.00  0.00    -0.248 NA
ATOM     54  C   UNL A   1      42.953  27.367  30.797  1.00  0.00     0.031 C 
ATOM     55  C   UNL A   1      42.796  30.126  36.199  1.00  0.00     0.029 A 
ATOM     56  C   UNL A   1      42.508  29.744  34.899  1.00  0.00     0.049 A 
ATOM     57  H   UNL A   1      41.036  30.499  33.586  1.00  0.00     0.167 HD
ATOM     58  C   UNL A   1      42.802  28.424  32.824  1.00  0.00     0.074 A 
ATOM     59  C   UNL A   1      43.457  27.412  32.021  1.00  0.00     0.031 C 
ATOM     60  C   UNL A   1      43.147  28.729  34.099  1.00  0.00     0.037 A 
BRANCH  47  61
ATOM     61  C   UNL A   1      39.779  33.281  36.574  1.00  0.00     0.064 A 
ATOM     62  C   UNL A   1      40.478  34.487  36.740  1.00  0.00     0.173 A 
ATOM     63  C   UNL A   1      38.807  32.954  37.533  1.00  0.00     0.173 A 
ATOM     64  F   UNL A   1      41.423  34.847  35.857  1.00  0.00    -0.203 F 
ATOM     65  C   UNL A   1      40.238  35.313  37.835  1.00  0.00     0.198 A 
ATOM     66  C   UNL A   1      38.544  33.799  38.609  1.00  0.00     0.198 A 
ATOM     67  F   UNL A   1      38.101  31.819  37.420  1.00  0.00    -0.203 F 
ATOM     68  F   UNL A   1      40.957  36.432  38.000  1.00  0.00    -0.200 F 
ATOM     69  C   UNL A   1      39.266  34.972  38.764  1.00  0.00     0.200 A 
ATOM     70  F   UNL A   1      37.594  33.476  39.495  1.00  0.00    -0.200 F 
ATOM     71  F   UNL A   1      39.031  35.771  39.814  1.00  0.00    -0.200 F 
ENDBRANCH  47  61
BRANCH  48  72
ATOM     72  C   UNL A   1      41.237  27.684  28.449  1.00  0.00     0.064 A 
ATOM     73  C   UNL A   1      42.143  28.091  27.460  1.00  0.00     0.173 A 
ATOM     74  C   UNL A   1      40.548  26.479  28.245  1.00  0.00     0.173 A 
ATOM     75  F   UNL A   1      42.809  29.247  27.596  1.00  0.00    -0.203 F 
ATOM     76  C   UNL A   1      42.332  27.339  26.302  1.00  0.00     0.198 A 
ATOM     77  C   UNL A   1      40.763  25.711  27.103  1.00  0.00     0.198 A 
ATOM     78  F   UNL A   1      39.672  26.041  29.162  1.00  0.00    -0.203 F 
ATOM     79  F   UNL A   1      43.161  27.781  25.347  1.00  0.00    -0.200 F 
ATOM     80  C   UNL A   1      41.646  26.147  26.126  1.00  0.00     0.200 A 
ATOM     81  F   UNL A   1      40.109  24.552  26.945  1.00  0.00    -0.200 F 
ATOM     82  F   UNL A   1      41.828  25.424  25.014  1.00  0.00    -0.200 F 
ENDBRANCH  48  72
BRANCH  60  83
ATOM     83  C   UNL A   1      44.250  27.926  34.731  1.00  0.00     0.064 A 
ATOM     84  C   UNL A   1      44.004  26.712  35.389  1.00  0.00     0.173 A 
ATOM     85  C   UNL A   1      45.582  28.365  34.648  1.00  0.00     0.173 A 
ATOM     86  F   UNL A   1      42.750  26.252  35.509  1.00  0.00    -0.203 F 
ATOM     87  C   UNL A   1      45.043  25.986  35.966  1.00  0.00     0.198 A 
ATOM     88  C   UNL A   1      46.621  27.619  35.194  1.00  0.00     0.198 A 
ATOM     89  F   UNL A   1      45.876  29.516  34.024  1.00  0.00    -0.203 F 
ATOM     90  F   UNL A   1      44.776  24.856  36.638  1.00  0.00    -0.200 F 
ATOM     91  C   UNL A   1      46.351  26.435  35.862  1.00  0.00     0.200 A 
ATOM     92  F   UNL A   1      47.887  28.047  35.077  1.00  0.00    -0.200 F 
ATOM     93  F   UNL A   1      47.349  25.731  36.412  1.00  0.00    -0.200 F 
ENDBRANCH  60  83
ENDBRANCH  34  35
ENDBRANCH  26  29
ENDBRANCH  24  25
ENDBRANCH  23  24
ENDBRANCH   1  23
TORSDOF 15
ENDMDL
MODEL 2
REMARK VINA RESULT:     -10.5      4.332      9.202
REMARK SMILES CC[C@](C)(NC(=O)NC[C@@H](C)[NH+](C)C)C(=O)NCCCNC(=O)c1ccc(-c2c3nc(c(-c4c(F)c(F)c(F)c(F)c4F)c4ccc([nH]4)c(-c4c(F)c(F)c(F)c(F)c4F)c4nc(c(-c5c(F)c(F)c(F)c(F)c5F)c5ccc2[nH]5)C=C4)C=C3)cc1
REMARK SMILES IDX 18 1 17 2 15 3 16 4 3 6 4 7 2 8 1 9 5 10 6 11 7 13 8 14 9 16
REMARK SMILES IDX 10 17 11 18 12 19 13 20 14 21 19 23 20 24 21 25 22 26 23 28
REMARK SMILES IDX 24 29 25 30 86 31 26 32 85 33 27 34 28 35 29 36 79 37 30 38
REMARK SMILES IDX 84 39 78 40 80 41 31 42 83 43 77 44 76 45 32 47 64 48 44 49
REMARK SMILES IDX 63 50 45 51 48 52 62 53 81 54 46 55 47 56 61 58 82 59 49 60
REMARK SMILES IDX 33 61 34 62 42 63 35 64 36 65 40 66 43 67 37 68 38 69 41 70
REMARK SMILES IDX 39 71 65 72 66 73 74 74 67 75 68 76 72 77 75 78 69 79 70 80
REMARK SMILES IDX 73 81 71 82 50 83 51 84 59 85 52 86 53 87 57 88 60 89 54 90
REMARK SMILES IDX 55 91 58 92 56 93
REMARK H PARENT 17 5 5 12 8 15 12 22 21 27 80 46 48 57
REMARK Flexibility Score: inf
ROOT
ATOM      1  C   UNL A   1      35.059  22.529  23.933  1.00  0.00     0.117 C 
ENDROOT
BRANCH   1   2
ATOM      2  N   UNL A   1      33.673  22.679  23.506  1.00  0.00    -0.354 N 
ATOM      3  C   UNL A   1      32.458  22.449  24.103  1.00  0.00     0.245 C 
ATOM      4  O   UNL A   1      31.477  23.064  23.667  1.00  0.00    -0.272 OA
ATOM      5  H   UNL A   1      33.589  23.021  22.585  1.00  0.00     0.163 HD
BRANCH   3   6
ATOM      6  C   UNL A   1      32.310  21.585  25.364  1.00  0.00     0.117 C 
ATOM      7  C   UNL A   1      33.519  21.620  26.320  1.00  0.00     0.045 C 
BRANCH   6   8
ATOM      8  C   UNL A   1      32.151  20.109  24.858  1.00  0.00     0.035 C 
ATOM      9  C   UNL A   1      33.433  19.262  24.901  1.00  0.00     0.007 C 
ENDBRANCH   6   8
BRANCH   6  10
ATOM     10  N   UNL A   1      31.128  22.037  26.118  1.00  0.00    -0.324 N 
ATOM     11  C   UNL A   1      30.827  23.114  26.854  1.00  0.00     0.315 C 
ATOM     12  H   UNL A   1      30.383  21.395  26.067  1.00  0.00     0.166 HD
ATOM     13  O   UNL A   1      29.814  23.024  27.559  1.00  0.00    -0.249 OA
ATOM     14  N   UNL A   1      31.442  24.301  26.853  1.00  0.00    -0.332 N 
ATOM     15  H   UNL A   1      30.919  24.959  27.366  1.00  0.00     0.165 HD
BRANCH  14  16
ATOM     16  C   UNL A   1      32.665  24.926  26.316  1.00  0.00     0.182 C 
BRANCH  16  17
ATOM     17  C   UNL A   1      32.448  26.256  25.506  1.00  0.00     0.200 C 
ATOM     18  C   UNL A   1      33.569  27.275  25.745  1.00  0.00     0.077 C 
BRANCH  17  19
ATOM     19  N   UNL A   1      32.155  26.040  24.075  1.00  0.00    -0.336 N 
ATOM     20  C   UNL A   1      30.928  26.660  23.584  1.00  0.00     0.332 C 
ATOM     21  C   UNL A   1      33.268  26.274  23.166  1.00  0.00     0.332 C 
ATOM     22  H   UNL A   1      31.988  25.034  24.064  1.00  0.00     0.347 HD
ENDBRANCH  17  19
ENDBRANCH  16  17
ENDBRANCH  14  16
ENDBRANCH   6  10
ENDBRANCH   3   6
ENDBRANCH   1   2
BRANCH   1  23
ATOM     23  C   UNL A   1      35.875  23.720  24.460  1.00  0.00     0.042 C 
BRANCH  23  24
ATOM     24  C   UNL A   1      36.590  23.679  25.808  1.00  0.00     0.118 C 
BRANCH  24  25
ATOM     25  N   UNL A   1      37.616  22.667  25.935  1.00  0.00    -0.352 N 
ATOM     26  C   UNL A   1      38.903  22.808  26.402  1.00  0.00     0.251 C 
ATOM     27  H   UNL A   1      37.361  21.760  25.650  1.00  0.00     0.163 HD
ATOM     28  O   UNL A   1      39.678  21.861  26.364  1.00  0.00    -0.269 OA
BRANCH  26  29
ATOM     29  C   UNL A   1      39.368  24.113  26.931  1.00  0.00     0.039 A 
ATOM     30  C   UNL A   1      39.112  24.417  28.271  1.00  0.00     0.014 A 
ATOM     31  C   UNL A   1      40.002  25.052  26.112  1.00  0.00     0.014 A 
ATOM     32  C   UNL A   1      39.519  25.646  28.799  1.00  0.00     0.010 A 
ATOM     33  C   UNL A   1      40.448  26.263  26.654  1.00  0.00     0.010 A 
ATOM     34  C   UNL A   1      40.204  26.578  28.000  1.00  0.00    -0.014 A 
BRANCH  34  35
ATOM     35  C   UNL A   1      40.648  27.880  28.573  1.00  0.00     0.031 A 
ATOM     36  C   UNL A   1      42.099  28.126  28.889  1.00  0.00     0.074 A 
ATOM     37  C   UNL A   1      39.743  28.848  28.819  1.00  0.00     0.049 A 
ATOM     38  N   UNL A   1      42.673  29.201  29.372  1.00  0.00    -0.248 NA
ATOM     39  C   UNL A   1      43.026  27.012  28.647  1.00  0.00     0.031 C 
ATOM     40  C   UNL A   1      38.302  28.732  28.592  1.00  0.00     0.029 A 
ATOM     41  N   UNL A   1      39.899  30.122  29.312  1.00  0.00    -0.354 N 
ATOM     42  C   UNL A   1      44.023  28.893  29.489  1.00  0.00     0.074 A 
ATOM     43  C   UNL A   1      44.173  27.511  29.084  1.00  0.00     0.031 C 
ATOM     44  C   UNL A   1      37.711  29.891  28.921  1.00  0.00     0.029 A 
ATOM     45  C   UNL A   1      38.722  30.824  29.413  1.00  0.00     0.049 A 
ATOM     46  H   UNL A   1      40.773  30.495  29.570  1.00  0.00     0.167 HD
ATOM     47  C   UNL A   1      45.047  29.692  29.877  1.00  0.00     0.037 A 
ATOM     48  C   UNL A   1      38.483  32.075  29.852  1.00  0.00     0.037 A 
ATOM     49  C   UNL A   1      44.900  31.069  30.276  1.00  0.00     0.049 A 
ATOM     50  C   UNL A   1      39.636  32.933  30.305  1.00  0.00     0.074 A 
ATOM     51  C   UNL A   1      45.885  31.971  30.643  1.00  0.00     0.029 A 
ATOM     52  N   UNL A   1      43.691  31.742  30.369  1.00  0.00    -0.354 N 
ATOM     53  N   UNL A   1      40.915  32.653  30.342  1.00  0.00    -0.248 NA
ATOM     54  C   UNL A   1      39.308  34.290  30.768  1.00  0.00     0.031 C 
ATOM     55  C   UNL A   1      45.267  33.169  31.015  1.00  0.00     0.029 A 
ATOM     56  C   UNL A   1      43.903  33.038  30.814  1.00  0.00     0.049 A 
ATOM     57  H   UNL A   1      42.811  31.355  30.152  1.00  0.00     0.167 HD
ATOM     58  C   UNL A   1      41.548  33.804  30.793  1.00  0.00     0.074 A 
ATOM     59  C   UNL A   1      40.511  34.793  31.004  1.00  0.00     0.031 C 
ATOM     60  C   UNL A   1      42.867  34.022  31.010  1.00  0.00     0.037 A 
BRANCH  47  61
ATOM     61  C   UNL A   1      46.428  29.095  29.896  1.00  0.00     0.064 A 
ATOM     62  C   UNL A   1      46.948  28.477  31.044  1.00  0.00     0.173 A 
ATOM     63  C   UNL A   1      47.225  29.105  28.742  1.00  0.00     0.173 A 
ATOM     64  F   UNL A   1      46.232  28.444  32.178  1.00  0.00    -0.203 F 
ATOM     65  C   UNL A   1      48.226  27.923  31.045  1.00  0.00     0.198 A 
ATOM     66  C   UNL A   1      48.489  28.518  28.735  1.00  0.00     0.198 A 
ATOM     67  F   UNL A   1      46.775  29.672  27.612  1.00  0.00    -0.203 F 
ATOM     68  F   UNL A   1      48.722  27.387  32.169  1.00  0.00    -0.200 F 
ATOM     69  C   UNL A   1      48.992  27.937  29.889  1.00  0.00     0.200 A 
ATOM     70  F   UNL A   1      49.220  28.519  27.613  1.00  0.00    -0.200 F 
ATOM     71  F   UNL A   1      50.218  27.397  29.889  1.00  0.00    -0.200 F 
ENDBRANCH  47  61
BRANCH  48  72
ATOM     72  C   UNL A   1      37.092  32.606  29.868  1.00  0.00     0.064 A 
ATOM     73  C   UNL A   1      36.580  33.323  28.777  1.00  0.00     0.173 A 
ATOM     74  C   UNL A   1      36.257  32.428  30.980  1.00  0.00     0.173 A 
ATOM     75  F   UNL A   1      37.347  33.541  27.699  1.00  0.00    -0.203 F 
ATOM     76  C   UNL A   1      35.296  33.864  28.809  1.00  0.00     0.198 A 
ATOM     77  C   UNL A   1      34.961  32.940  30.997  1.00  0.00     0.198 A 
ATOM     78  F   UNL A   1      36.696  31.748  32.049  1.00  0.00    -0.203 F 
ATOM     79  F   UNL A   1      34.853  34.593  27.776  1.00  0.00    -0.200 F 
ATOM     80  C   UNL A   1      34.485  33.667  29.917  1.00  0.00     0.200 A 
ATOM     81  F   UNL A   1      34.176  32.735  32.064  1.00  0.00    -0.200 F 
ATOM     82  F   UNL A   1      33.251  34.186  29.947  1.00  0.00    -0.200 F 
ENDBRANCH  48  72
BRANCH  60  83
ATOM     83  C   UNL A   1      43.281  35.399  31.453  1.00  0.00     0.064 A 
ATOM     84  C   UNL A   1      43.663  36.391  30.538  1.00  0.00     0.173 A 
ATOM     85  C   UNL A   1      43.261  35.739  32.816  1.00  0.00     0.173 A 
ATOM     86  F   UNL A   1      43.712  36.117  29.226  1.00  0.00    -0.203 F 
ATOM     87  C   UNL A   1      44.041  37.659  30.973  1.00  0.00     0.198 A 
ATOM     88  C   UNL A   1      43.604  37.018  33.243  1.00  0.00     0.198 A 
ATOM     89  F   UNL A   1      42.896  34.831  33.734  1.00  0.00    -0.203 F 
ATOM     90  F   UNL A   1      44.457  38.574  30.085  1.00  0.00    -0.200 F 
ATOM     91  C   UNL A   1      44.004  37.975  32.324  1.00  0.00     0.200 A 
ATOM     92  F   UNL A   1      43.550  37.325  34.547  1.00  0.00    -0.200 F 
ATOM     93  F   UNL A   1      44.361  39.198  32.738  1.00  0.00    -0.200 F 
ENDBRANCH  60  83
ENDBRANCH  34  35
ENDBRANCH  26  29
ENDBRANCH  24  25
ENDBRANCH  23  24
ENDBRANCH   1  23
TORSDOF 15
ENDMDL
MODEL 3
REMARK VINA RESULT:     -10.4      5.752     11.164
REMARK SMILES CC[C@](C)(NC(=O)NC[C@@H](C)[NH+](C)C)C(=O)NCCCNC(=O)c1ccc(-c2c3nc(c(-c4c(F)c(F)c(F)c(F)c4F)c4ccc([nH]4)c(-c4c(F)c(F)c(F)c(F)c4F)c4nc(c(-c5c(F)c(F)c(F)c(F)c5F)c5ccc2[nH]5)C=C4)C=C3)cc1
REMARK SMILES IDX 18 1 17 2 15 3 16 4 3 6 4 7 2 8 1 9 5 10 6 11 7 13 8 14 9 16
REMARK SMILES IDX 10 17 11 18 12 19 13 20 14 21 19 23 20 24 21 25 22 26 23 28
REMARK SMILES IDX 24 29 25 30 86 31 26 32 85 33 27 34 28 35 29 36 79 37 30 38
REMARK SMILES IDX 84 39 78 40 80 41 31 42 83 43 77 44 76 45 32 47 64 48 44 49
REMARK SMILES IDX 63 50 45 51 48 52 62 53 81 54 46 55 47 56 61 58 82 59 49 60
REMARK SMILES IDX 33 61 34 62 42 63 35 64 36 65 40 66 43 67 37 68 38 69 41 70
REMARK SMILES IDX 39 71 65 72 66 73 74 74 67 75 68 76 72 77 75 78 69 79 70 80
REMARK SMILES IDX 73 81 71 82 50 83 51 84 59 85 52 86 53 87 57 88 60 89 54 90
REMARK SMILES IDX 55 91 58 92 56 93
REMARK H PARENT 17 5 5 12 8 15 12 22 21 27 80 46 48 57
REMARK Flexibility Score: inf
ROOT
ATOM      1  C   UNL A   1      36.932  20.878  24.925  1.00  0.00     0.117 C 
ENDROOT
BRANCH   1   2
ATOM      2  N   UNL A   1      36.242  21.290  26.142  1.00  0.00    -0.354 N 
ATOM      3  C   UNL A   1      35.052  21.924  26.398  1.00  0.00     0.245 C 
ATOM      4  O   UNL A   1      34.537  21.754  27.510  1.00  0.00    -0.272 OA
ATOM      5  H   UNL A   1      36.740  21.063  26.962  1.00  0.00     0.163 HD
BRANCH   3   6
ATOM      6  C   UNL A   1      34.282  22.699  25.319  1.00  0.00     0.117 C 
ATOM      7  C   UNL A   1      34.510  22.203  23.877  1.00  0.00     0.045 C 
BRANCH   6   8
ATOM      8  C   UNL A   1      34.802  24.177  25.397  1.00  0.00     0.035 C 
ATOM      9  C   UNL A   1      33.706  25.250  25.499  1.00  0.00     0.007 C 
ENDBRANCH   6   8
BRANCH   6  10
ATOM     10  N   UNL A   1      32.840  22.610  25.602  1.00  0.00    -0.324 N 
ATOM     11  C   UNL A   1      31.907  21.655  25.487  1.00  0.00     0.315 C 
ATOM     12  H   UNL A   1      32.474  23.451  25.962  1.00  0.00     0.166 HD
ATOM     13  O   UNL A   1      30.732  22.030  25.577  1.00  0.00    -0.249 OA
ATOM     14  N   UNL A   1      32.099  20.337  25.371  1.00  0.00    -0.332 N 
ATOM     15  H   UNL A   1      31.245  19.857  25.466  1.00  0.00     0.165 HD
BRANCH  14  16
ATOM     16  C   UNL A   1      33.200  19.383  25.144  1.00  0.00     0.182 C 
BRANCH  16  17
ATOM     17  C   UNL A   1      32.768  17.944  24.683  1.00  0.00     0.200 C 
ATOM     18  C   UNL A   1      32.903  17.752  23.167  1.00  0.00     0.077 C 
BRANCH  17  19
ATOM     19  N   UNL A   1      33.391  16.857  25.463  1.00  0.00    -0.336 N 
ATOM     20  C   UNL A   1      32.528  15.715  25.751  1.00  0.00     0.332 C 
ATOM     21  C   UNL A   1      34.703  16.427  25.002  1.00  0.00     0.332 C 
ATOM     22  H   UNL A   1      33.545  17.326  26.356  1.00  0.00     0.347 HD
ENDBRANCH  17  19
ENDBRANCH  16  17
ENDBRANCH  14  16
ENDBRANCH   6  10
ENDBRANCH   3   6
ENDBRANCH   1   2
BRANCH   1  23
ATOM     23  C   UNL A   1      38.153  19.945  24.965  1.00  0.00     0.042 C 
BRANCH  23  24
ATOM     24  C   UNL A   1      39.168  19.989  26.103  1.00  0.00     0.118 C 
BRANCH  24  25
ATOM     25  N   UNL A   1      40.325  19.135  25.936  1.00  0.00    -0.352 N 
ATOM     26  C   UNL A   1      41.656  19.473  26.020  1.00  0.00     0.251 C 
ATOM     27  H   UNL A   1      40.134  18.190  25.735  1.00  0.00     0.163 HD
ATOM     28  O   UNL A   1      42.518  18.642  25.765  1.00  0.00    -0.269 OA
BRANCH  26  29
ATOM     29  C   UNL A   1      42.056  20.851  26.396  1.00  0.00     0.039 A 
ATOM     30  C   UNL A   1      42.256  21.787  25.377  1.00  0.00     0.014 A 
ATOM     31  C   UNL A   1      42.283  21.211  27.727  1.00  0.00     0.014 A 
ATOM     32  C   UNL A   1      42.651  23.090  25.692  1.00  0.00     0.010 A 
ATOM     33  C   UNL A   1      42.636  22.527  28.044  1.00  0.00     0.010 A 
ATOM     34  C   UNL A   1      42.833  23.480  27.030  1.00  0.00    -0.014 A 
BRANCH  34  35
ATOM     35  C   UNL A   1      43.241  24.875  27.361  1.00  0.00     0.031 A 
ATOM     36  C   UNL A   1      44.646  25.348  27.097  1.00  0.00     0.074 A 
ATOM     37  C   UNL A   1      42.347  25.723  27.908  1.00  0.00     0.049 A 
ATOM     38  N   UNL A   1      45.175  26.529  27.300  1.00  0.00    -0.248 NA
ATOM     39  C   UNL A   1      45.584  24.358  26.549  1.00  0.00     0.031 C 
ATOM     40  C   UNL A   1      40.964  25.386  28.247  1.00  0.00     0.029 A 
ATOM     41  N   UNL A   1      42.467  27.042  28.274  1.00  0.00    -0.354 N 
ATOM     42  C   UNL A   1      46.503  26.424  26.905  1.00  0.00     0.074 A 
ATOM     43  C   UNL A   1      46.714  25.049  26.507  1.00  0.00     0.031 C 
ATOM     44  C   UNL A   1      40.357  26.474  28.746  1.00  0.00     0.029 A 
ATOM     45  C   UNL A   1      41.314  27.577  28.796  1.00  0.00     0.049 A 
ATOM     46  H   UNL A   1      43.301  27.555  28.173  1.00  0.00     0.167 HD
ATOM     47  C   UNL A   1      47.455  27.389  26.857  1.00  0.00     0.037 A 
ATOM     48  C   UNL A   1      41.056  28.815  29.263  1.00  0.00     0.037 A 
ATOM     49  C   UNL A   1      47.245  28.760  27.248  1.00  0.00     0.049 A 
ATOM     50  C   UNL A   1      42.139  29.861  29.225  1.00  0.00     0.074 A 
ATOM     51  C   UNL A   1      48.136  29.819  27.193  1.00  0.00     0.029 A 
ATOM     52  N   UNL A   1      46.065  29.262  27.776  1.00  0.00    -0.354 N 
ATOM     53  N   UNL A   1      43.368  29.768  28.781  1.00  0.00    -0.248 NA
ATOM     54  C   UNL A   1      41.792  31.192  29.744  1.00  0.00     0.031 C 
ATOM     55  C   UNL A   1      47.515  30.946  27.743  1.00  0.00     0.029 A 
ATOM     56  C   UNL A   1      46.214  30.608  28.076  1.00  0.00     0.049 A 
ATOM     57  H   UNL A   1      45.242  28.739  27.918  1.00  0.00     0.167 HD
ATOM     58  C   UNL A   1      43.928  31.030  28.931  1.00  0.00     0.074 A 
ATOM     59  C   UNL A   1      42.898  31.878  29.495  1.00  0.00     0.031 C 
ATOM     60  C   UNL A   1      45.180  31.449  28.627  1.00  0.00     0.037 A 
BRANCH  47  61
ATOM     61  C   UNL A   1      48.821  26.996  26.366  1.00  0.00     0.064 A 
ATOM     62  C   UNL A   1      49.165  27.068  25.008  1.00  0.00     0.173 A 
ATOM     63  C   UNL A   1      49.811  26.579  27.269  1.00  0.00     0.173 A 
ATOM     64  F   UNL A   1      48.256  27.454  24.099  1.00  0.00    -0.203 F 
ATOM     65  C   UNL A   1      50.437  26.706  24.568  1.00  0.00     0.198 A 
ATOM     66  C   UNL A   1      51.093  26.252  26.832  1.00  0.00     0.198 A 
ATOM     67  F   UNL A   1      49.542  26.501  28.581  1.00  0.00    -0.203 F 
ATOM     68  F   UNL A   1      50.725  26.732  23.259  1.00  0.00    -0.200 F 
ATOM     69  C   UNL A   1      51.401  26.306  25.481  1.00  0.00     0.200 A 
ATOM     70  F   UNL A   1      52.027  25.882  27.716  1.00  0.00    -0.200 F 
ATOM     71  F   UNL A   1      52.626  25.966  25.058  1.00  0.00    -0.200 F 
ENDBRANCH  47  61
BRANCH  48  72
ATOM     72  C   UNL A   1      39.704  29.145  29.792  1.00  0.00     0.064 A 
ATOM     73  C   UNL A   1      39.411  29.018  31.157  1.00  0.00     0.173 A 
ATOM     74  C   UNL A   1      38.673  29.571  28.941  1.00  0.00     0.173 A 
ATOM     75  F   UNL A   1      40.354  28.592  32.009  1.00  0.00    -0.203 F 
ATOM     76  C   UNL A   1      38.132  29.280  31.647  1.00  0.00     0.198 A 
ATOM     77  C   UNL A   1      37.405  29.865  29.437  1.00  0.00     0.198 A 
ATOM     78  F   UNL A   1      38.901  29.712  27.627  1.00  0.00    -0.203 F 
ATOM     79  F   UNL A   1      37.865  29.096  32.947  1.00  0.00    -0.200 F 
ATOM     80  C   UNL A   1      37.131  29.709  30.788  1.00  0.00     0.200 A 
ATOM     81  F   UNL A   1      36.446  30.293  28.606  1.00  0.00    -0.200 F 
ATOM     82  F   UNL A   1      35.903  29.960  31.258  1.00  0.00    -0.200 F 
ENDBRANCH  48  72
BRANCH  60  83
ATOM     83  C   UNL A   1      45.500  32.902  28.847  1.00  0.00     0.064 A 
ATOM     84  C   UNL A   1      45.234  33.878  27.875  1.00  0.00     0.173 A 
ATOM     85  C   UNL A   1      46.052  33.328  30.066  1.00  0.00     0.173 A 
ATOM     86  F   UNL A   1      44.719  33.525  26.688  1.00  0.00    -0.203 F 
ATOM     87  C   UNL A   1      45.538  35.218  28.103  1.00  0.00     0.198 A 
ATOM     88  C   UNL A   1      46.321  34.672  30.304  1.00  0.00     0.198 A 
ATOM     89  F   UNL A   1      46.320  32.438  31.034  1.00  0.00    -0.203 F 
ATOM     90  F   UNL A   1      45.327  36.124  27.137  1.00  0.00    -0.200 F 
ATOM     91  C   UNL A   1      46.074  35.616  29.319  1.00  0.00     0.200 A 
ATOM     92  F   UNL A   1      46.821  35.056  31.487  1.00  0.00    -0.200 F 
ATOM     93  F   UNL A   1      46.358  36.906  29.538  1.00  0.00    -0.200 F 
ENDBRANCH  60  83
ENDBRANCH  34  35
ENDBRANCH  26  29
ENDBRANCH  24  25
ENDBRANCH  23  24
ENDBRANCH   1  23
TORSDOF 15
ENDMDL
