MODEL 1
REMARK VINA RESULT:     -13.8      0.000      0.000
REMARK SMILES Cc1ccc(C(=O)Nc2cccc(C(=O)NCCCNC(=O)c3ccc(-c4c5nc(c(-c6c(F)c(F)c(F)c(F)c6F)c6ccc([nH]6)c(-c6c(F)c(F)c(F)c(F)c6F)c6nc(c(-c7c(F)c(F)c(F)c(F)c7F)c7ccc4[nH]7)C=C6)C=C5)cc3)c2)cc1C
REMARK SMILES IDX 18 1 17 2 16 3 14 4 15 5 13 7 9 8 10 9 86 10 11 11 12 12
REMARK SMILES IDX 8 13 6 14 7 15 5 17 1 18 2 19 3 20 88 21 4 22 87 23 89 24
REMARK SMILES IDX 19 25 20 26 21 27 22 29 23 30 24 31 85 32 25 33 84 34 26 35
REMARK SMILES IDX 27 36 28 37 78 38 29 39 83 40 77 41 79 42 30 43 82 44 76 45
REMARK SMILES IDX 75 46 31 48 63 49 43 50 62 51 44 52 47 53 61 54 80 55 45 56
REMARK SMILES IDX 46 57 60 59 81 60 48 61 32 62 33 63 41 64 34 65 35 66 39 67
REMARK SMILES IDX 42 68 36 69 37 70 40 71 38 72 64 73 65 74 73 75 66 76 67 77
REMARK SMILES IDX 71 78 74 79 68 80 69 81 72 82 70 83 49 84 50 85 58 86 51 87
REMARK SMILES IDX 52 88 56 89 59 90 53 91 54 92 57 93 55 94
REMARK H PARENT 16 6 8 16 20 28 79 47 47 58
REMARK Flexibility Score: inf
ROOT
ATOM      1  C   UNL A   1      31.407  32.082  26.741  1.00  0.00     0.042 C 
ENDROOT
BRANCH   1   2
ATOM      2  C   UNL A   1      31.601  30.586  26.540  1.00  0.00     0.118 C 
BRANCH   2   3
ATOM      3  N   UNL A   1      32.404  30.309  25.365  1.00  0.00    -0.352 N 
ATOM      4  C   UNL A   1      32.492  29.231  24.523  1.00  0.00     0.251 C 
ATOM      5  O   UNL A   1      33.277  29.327  23.579  1.00  0.00    -0.269 OA
ATOM      6  H   UNL A   1      33.010  31.046  25.123  1.00  0.00     0.163 HD
BRANCH   4   7
ATOM      7  C   UNL A   1      31.656  27.999  24.644  1.00  0.00     0.041 A 
ATOM      8  C   UNL A   1      31.051  25.872  25.637  1.00  0.00     0.042 A 
ATOM      9  C   UNL A   1      29.859  25.846  24.917  1.00  0.00     0.026 A 
ATOM     10  C   UNL A   1      31.992  26.877  25.401  1.00  0.00     0.040 A 
ATOM     11  C   UNL A   1      29.539  26.920  24.090  1.00  0.00     0.003 A 
ATOM     12  C   UNL A   1      30.416  28.004  23.983  1.00  0.00     0.014 A 
BRANCH   8  13
ATOM     13  N   UNL A   1      31.232  24.928  26.656  1.00  0.00    -0.322 N 
ATOM     14  C   UNL A   1      32.015  23.783  26.672  1.00  0.00     0.255 C 
ATOM     15  O   UNL A   1      31.824  22.958  27.566  1.00  0.00    -0.269 OA
ATOM     16  H   UNL A   1      30.729  25.103  27.485  1.00  0.00     0.170 HD
BRANCH  14  17
ATOM     17  C   UNL A   1      33.147  23.553  25.709  1.00  0.00     0.040 A 
ATOM     18  C   UNL A   1      36.528  22.580  23.173  1.00  0.00     0.044 C 
ATOM     19  C   UNL A   1      35.382  23.006  24.049  1.00  0.00    -0.048 A 
ATOM     20  C   UNL A   1      34.074  22.836  23.578  1.00  0.00     0.004 A 
ATOM     21  C   UNL A   1      35.572  23.601  25.309  1.00  0.00    -0.047 A 
ATOM     22  C   UNL A   1      32.973  23.155  24.381  1.00  0.00     0.014 A 
ATOM     23  C   UNL A   1      34.454  23.829  26.139  1.00  0.00     0.017 A 
ATOM     24  C   UNL A   1      36.918  24.078  25.787  1.00  0.00     0.044 C 
ENDBRANCH  14  17
ENDBRANCH   8  13
ENDBRANCH   4   7
ENDBRANCH   2   3
ENDBRANCH   1   2
BRANCH   1  25
ATOM     25  C   UNL A   1      32.664  32.744  27.281  1.00  0.00     0.118 C 
BRANCH  25  26
ATOM     26  N   UNL A   1      32.440  34.153  27.590  1.00  0.00    -0.352 N 
ATOM     27  C   UNL A   1      33.004  34.941  28.562  1.00  0.00     0.251 C 
ATOM     28  H   UNL A   1      31.784  34.607  27.013  1.00  0.00     0.163 HD
ATOM     29  O   UNL A   1      32.528  36.038  28.820  1.00  0.00    -0.269 OA
BRANCH  27  30
ATOM     30  C   UNL A   1      34.182  34.448  29.304  1.00  0.00     0.039 A 
ATOM     31  C   UNL A   1      33.994  33.828  30.543  1.00  0.00     0.014 A 
ATOM     32  C   UNL A   1      35.466  34.593  28.774  1.00  0.00     0.014 A 
ATOM     33  C   UNL A   1      35.092  33.292  31.217  1.00  0.00     0.010 A 
ATOM     34  C   UNL A   1      36.542  33.978  29.399  1.00  0.00     0.010 A 
ATOM     35  C   UNL A   1      36.367  33.326  30.630  1.00  0.00    -0.014 A 
BRANCH  35  36
ATOM     36  C   UNL A   1      37.544  32.697  31.280  1.00  0.00     0.031 A 
ATOM     37  C   UNL A   1      38.225  31.532  30.619  1.00  0.00     0.074 A 
ATOM     38  C   UNL A   1      37.931  33.112  32.503  1.00  0.00     0.049 A 
ATOM     39  N   UNL A   1      39.173  30.757  31.080  1.00  0.00    -0.248 NA
ATOM     40  C   UNL A   1      37.754  31.166  29.273  1.00  0.00     0.031 C 
ATOM     41  C   UNL A   1      37.313  34.199  33.263  1.00  0.00     0.029 A 
ATOM     42  N   UNL A   1      38.921  32.648  33.333  1.00  0.00    -0.354 N 
ATOM     43  C   UNL A   1      39.387  29.799  30.097  1.00  0.00     0.074 A 
ATOM     44  C   UNL A   1      38.443  30.060  29.034  1.00  0.00     0.031 C 
ATOM     45  C   UNL A   1      37.942  34.324  34.443  1.00  0.00     0.029 A 
ATOM     46  C   UNL A   1      38.972  33.296  34.544  1.00  0.00     0.049 A 
ATOM     47  H   UNL A   1      39.535  31.920  33.084  1.00  0.00     0.167 HD
ATOM     48  C   UNL A   1      40.303  28.803  30.080  1.00  0.00     0.037 A 
ATOM     49  C   UNL A   1      39.746  33.068  35.622  1.00  0.00     0.037 A 
ATOM     50  C   UNL A   1      41.265  28.577  31.124  1.00  0.00     0.049 A 
ATOM     51  C   UNL A   1      40.761  31.955  35.570  1.00  0.00     0.074 A 
ATOM     52  C   UNL A   1      42.293  27.652  31.163  1.00  0.00     0.029 A 
ATOM     53  N   UNL A   1      41.315  29.282  32.318  1.00  0.00    -0.354 N 
ATOM     54  N   UNL A   1      41.012  31.108  34.600  1.00  0.00    -0.248 NA
ATOM     55  C   UNL A   1      41.605  31.769  36.760  1.00  0.00     0.031 C 
ATOM     56  C   UNL A   1      42.924  27.753  32.405  1.00  0.00     0.029 A 
ATOM     57  C   UNL A   1      42.336  28.788  33.113  1.00  0.00     0.049 A 
ATOM     58  H   UNL A   1      40.714  30.023  32.564  1.00  0.00     0.167 HD
ATOM     59  C   UNL A   1      42.060  30.315  35.047  1.00  0.00     0.074 A 
ATOM     60  C   UNL A   1      42.407  30.790  36.370  1.00  0.00     0.031 C 
ATOM     61  C   UNL A   1      42.678  29.286  34.421  1.00  0.00     0.037 A 
BRANCH  48  62
ATOM     62  C   UNL A   1      40.316  27.876  28.899  1.00  0.00     0.064 A 
ATOM     63  C   UNL A   1      41.055  28.162  27.741  1.00  0.00     0.173 A 
ATOM     64  C   UNL A   1      39.635  26.650  28.956  1.00  0.00     0.173 A 
ATOM     65  F   UNL A   1      41.714  29.325  27.630  1.00  0.00    -0.203 F 
ATOM     66  C   UNL A   1      41.096  27.264  26.678  1.00  0.00     0.198 A 
ATOM     67  C   UNL A   1      39.706  25.740  27.905  1.00  0.00     0.198 A 
ATOM     68  F   UNL A   1      38.918  26.325  30.043  1.00  0.00    -0.203 F 
ATOM     69  F   UNL A   1      41.775  27.575  25.566  1.00  0.00    -0.200 F 
ATOM     70  C   UNL A   1      40.431  26.050  26.765  1.00  0.00     0.200 A 
ATOM     71  F   UNL A   1      39.075  24.561  27.999  1.00  0.00    -0.200 F 
ATOM     72  F   UNL A   1      40.488  25.178  25.748  1.00  0.00    -0.200 F 
ENDBRANCH  48  62
BRANCH  49  73
ATOM     73  C   UNL A   1      39.592  33.899  36.846  1.00  0.00     0.064 A 
ATOM     74  C   UNL A   1      38.797  33.469  37.918  1.00  0.00     0.173 A 
ATOM     75  C   UNL A   1      40.210  35.154  36.958  1.00  0.00     0.173 A 
ATOM     76  F   UNL A   1      38.170  32.285  37.853  1.00  0.00    -0.203 F 
ATOM     77  C   UNL A   1      38.598  34.275  39.037  1.00  0.00     0.198 A 
ATOM     78  C   UNL A   1      40.037  35.945  38.093  1.00  0.00     0.198 A 
ATOM     79  F   UNL A   1      40.986  35.612  35.966  1.00  0.00    -0.203 F 
ATOM     80  F   UNL A   1      37.781  33.865  40.017  1.00  0.00    -0.200 F 
ATOM     81  C   UNL A   1      39.221  35.510  39.126  1.00  0.00     0.200 A 
ATOM     82  F   UNL A   1      40.656  37.130  38.181  1.00  0.00    -0.200 F 
ATOM     83  F   UNL A   1      39.025  36.288  40.200  1.00  0.00    -0.200 F 
ENDBRANCH  49  73
BRANCH  61  84
ATOM     84  C   UNL A   1      43.828  28.630  35.130  1.00  0.00     0.064 A 
ATOM     85  C   UNL A   1      45.133  29.140  35.051  1.00  0.00     0.173 A 
ATOM     86  C   UNL A   1      43.607  27.512  35.950  1.00  0.00     0.173 A 
ATOM     87  F   UNL A   1      45.398  30.198  34.270  1.00  0.00    -0.203 F 
ATOM     88  C   UNL A   1      46.177  28.541  35.750  1.00  0.00     0.198 A 
ATOM     89  C   UNL A   1      44.647  26.938  36.675  1.00  0.00     0.198 A 
ATOM     90  F   UNL A   1      42.376  26.992  36.067  1.00  0.00    -0.203 F 
ATOM     91  F   UNL A   1      47.423  29.016  35.624  1.00  0.00    -0.200 F 
ATOM     92  C   UNL A   1      45.932  27.448  36.569  1.00  0.00     0.200 A 
ATOM     93  F   UNL A   1      44.404  25.895  37.479  1.00  0.00    -0.200 F 
ATOM     94  F   UNL A   1      46.936  26.883  37.253  1.00  0.00    -0.200 F 
ENDBRANCH  61  84
ENDBRANCH  35  36
ENDBRANCH  27  30
ENDBRANCH  25  26
ENDBRANCH   1  25
TORSDOF 12
ENDMDL
MODEL 2
REMARK VINA RESULT:     -13.7      0.165      1.137
REMARK SMILES Cc1ccc(C(=O)Nc2cccc(C(=O)NCCCNC(=O)c3ccc(-c4c5nc(c(-c6c(F)c(F)c(F)c(F)c6F)c6ccc([nH]6)c(-c6c(F)c(F)c(F)c(F)c6F)c6nc(c(-c7c(F)c(F)c(F)c(F)c7F)c7ccc4[nH]7)C=C6)C=C5)cc3)c2)cc1C
REMARK SMILES IDX 18 1 17 2 16 3 14 4 15 5 13 7 9 8 10 9 86 10 11 11 12 12
REMARK SMILES IDX 8 13 6 14 7 15 5 17 1 18 2 19 3 20 88 21 4 22 87 23 89 24
REMARK SMILES IDX 19 25 20 26 21 27 22 29 23 30 24 31 85 32 25 33 84 34 26 35
REMARK SMILES IDX 27 36 28 37 78 38 29 39 83 40 77 41 79 42 30 43 82 44 76 45
REMARK SMILES IDX 75 46 31 48 63 49 43 50 62 51 44 52 47 53 61 54 80 55 45 56
REMARK SMILES IDX 46 57 60 59 81 60 48 61 32 62 33 63 41 64 34 65 35 66 39 67
REMARK SMILES IDX 42 68 36 69 37 70 40 71 38 72 64 73 65 74 73 75 66 76 67 77
REMARK SMILES IDX 71 78 74 79 68 80 69 81 72 82 70 83 49 84 50 85 58 86 51 87
REMARK SMILES IDX 52 88 56 89 59 90 53 91 54 92 57 93 55 94
REMARK H PARENT 16 6 8 16 20 28 79 47 47 58
REMARK Flexibility Score: inf
ROOT
ATOM      1  C   UNL A   1      31.475  32.070  26.685  1.00  0.00     0.042 C 
ENDROOT
BRANCH   1   2
ATOM      2  C   UNL A   1      31.672  30.571  26.512  1.00  0.00     0.118 C 
BRANCH   2   3
ATOM      3  N   UNL A   1      32.460  30.273  25.332  1.00  0.00    -0.352 N 
ATOM      4  C   UNL A   1      32.529  29.184  24.502  1.00  0.00     0.251 C 
ATOM      5  O   UNL A   1      33.305  29.262  23.548  1.00  0.00    -0.269 OA
ATOM      6  H   UNL A   1      33.069  31.002  25.073  1.00  0.00     0.163 HD
BRANCH   4   7
ATOM      7  C   UNL A   1      31.685  27.961  24.647  1.00  0.00     0.041 A 
ATOM      8  C   UNL A   1      31.079  25.846  25.667  1.00  0.00     0.042 A 
ATOM      9  C   UNL A   1      29.875  25.825  24.968  1.00  0.00     0.026 A 
ATOM     10  C   UNL A   1      32.024  26.841  25.406  1.00  0.00     0.040 A 
ATOM     11  C   UNL A   1      29.550  26.895  24.139  1.00  0.00     0.003 A 
ATOM     12  C   UNL A   1      30.433  27.971  24.008  1.00  0.00     0.014 A 
BRANCH   8  13
ATOM     13  N   UNL A   1      31.270  24.909  26.691  1.00  0.00    -0.322 N 
ATOM     14  C   UNL A   1      32.066  23.773  26.712  1.00  0.00     0.255 C 
ATOM     15  O   UNL A   1      31.883  22.949  27.610  1.00  0.00    -0.269 OA
ATOM     16  H   UNL A   1      30.764  25.082  27.518  1.00  0.00     0.170 HD
BRANCH  14  17
ATOM     17  C   UNL A   1      33.201  23.551  25.752  1.00  0.00     0.040 A 
ATOM     18  C   UNL A   1      36.587  22.596  23.214  1.00  0.00     0.044 C 
ATOM     19  C   UNL A   1      35.441  23.016  24.093  1.00  0.00    -0.048 A 
ATOM     20  C   UNL A   1      34.133  22.877  23.608  1.00  0.00     0.004 A 
ATOM     21  C   UNL A   1      35.630  23.575  25.369  1.00  0.00    -0.047 A 
ATOM     22  C   UNL A   1      33.031  23.191  24.412  1.00  0.00     0.014 A 
ATOM     23  C   UNL A   1      34.509  23.798  26.197  1.00  0.00     0.017 A 
ATOM     24  C   UNL A   1      36.979  24.020  25.869  1.00  0.00     0.044 C 
ENDBRANCH  14  17
ENDBRANCH   8  13
ENDBRANCH   4   7
ENDBRANCH   2   3
ENDBRANCH   1   2
BRANCH   1  25
ATOM     25  C   UNL A   1      32.698  32.730  27.301  1.00  0.00     0.118 C 
BRANCH  25  26
ATOM     26  N   UNL A   1      32.444  34.129  27.633  1.00  0.00    -0.352 N 
ATOM     27  C   UNL A   1      32.996  34.912  28.615  1.00  0.00     0.251 C 
ATOM     28  H   UNL A   1      31.775  34.577  27.066  1.00  0.00     0.163 HD
ATOM     29  O   UNL A   1      32.496  35.994  28.893  1.00  0.00    -0.269 OA
BRANCH  27  30
ATOM     30  C   UNL A   1      34.187  34.433  29.344  1.00  0.00     0.039 A 
ATOM     31  C   UNL A   1      34.020  33.798  30.577  1.00  0.00     0.014 A 
ATOM     32  C   UNL A   1      35.465  34.608  28.807  1.00  0.00     0.014 A 
ATOM     33  C   UNL A   1      35.132  33.275  31.238  1.00  0.00     0.010 A 
ATOM     34  C   UNL A   1      36.556  34.006  29.418  1.00  0.00     0.010 A 
ATOM     35  C   UNL A   1      36.402  33.339  30.643  1.00  0.00    -0.014 A 
BRANCH  35  36
ATOM     36  C   UNL A   1      37.595  32.725  31.278  1.00  0.00     0.031 A 
ATOM     37  C   UNL A   1      38.276  31.562  30.614  1.00  0.00     0.074 A 
ATOM     38  C   UNL A   1      37.997  33.151  32.492  1.00  0.00     0.049 A 
ATOM     39  N   UNL A   1      39.239  30.798  31.065  1.00  0.00    -0.248 NA
ATOM     40  C   UNL A   1      37.787  31.183  29.278  1.00  0.00     0.031 C 
ATOM     41  C   UNL A   1      37.382  34.237  33.255  1.00  0.00     0.029 A 
ATOM     42  N   UNL A   1      39.005  32.702  33.310  1.00  0.00    -0.354 N 
ATOM     43  C   UNL A   1      39.446  29.836  30.084  1.00  0.00     0.074 A 
ATOM     44  C   UNL A   1      38.483  30.082  29.034  1.00  0.00     0.031 C 
ATOM     45  C   UNL A   1      38.028  34.376  34.424  1.00  0.00     0.029 A 
ATOM     46  C   UNL A   1      39.069  33.358  34.516  1.00  0.00     0.049 A 
ATOM     47  H   UNL A   1      39.622  31.978  33.055  1.00  0.00     0.167 HD
ATOM     48  C   UNL A   1      40.372  28.849  30.059  1.00  0.00     0.037 A 
ATOM     49  C   UNL A   1      39.862  33.144  35.583  1.00  0.00     0.037 A 
ATOM     50  C   UNL A   1      41.352  28.639  31.089  1.00  0.00     0.049 A 
ATOM     51  C   UNL A   1      40.886  32.040  35.521  1.00  0.00     0.074 A 
ATOM     52  C   UNL A   1      42.389  27.723  31.117  1.00  0.00     0.029 A 
ATOM     53  N   UNL A   1      41.414  29.352  32.278  1.00  0.00    -0.354 N 
ATOM     54  N   UNL A   1      41.130  31.190  34.553  1.00  0.00    -0.248 NA
ATOM     55  C   UNL A   1      41.750  31.869  36.699  1.00  0.00     0.031 C 
ATOM     56  C   UNL A   1      43.039  27.838  32.348  1.00  0.00     0.029 A 
ATOM     57  C   UNL A   1      42.452  28.872  33.060  1.00  0.00     0.049 A 
ATOM     58  H   UNL A   1      40.810  30.088  32.529  1.00  0.00     0.167 HD
ATOM     59  C   UNL A   1      42.192  30.409  34.989  1.00  0.00     0.074 A 
ATOM     60  C   UNL A   1      42.556  30.895  36.303  1.00  0.00     0.031 C 
ATOM     61  C   UNL A   1      42.810  29.381  34.359  1.00  0.00     0.037 A 
BRANCH  48  62
ATOM     62  C   UNL A   1      40.375  27.915  28.884  1.00  0.00     0.064 A 
ATOM     63  C   UNL A   1      41.094  28.200  27.713  1.00  0.00     0.173 A 
ATOM     64  C   UNL A   1      39.705  26.684  28.958  1.00  0.00     0.173 A 
ATOM     65  F   UNL A   1      41.743  29.366  27.586  1.00  0.00    -0.203 F 
ATOM     66  C   UNL A   1      41.127  27.295  26.655  1.00  0.00     0.198 A 
ATOM     67  C   UNL A   1      39.767  25.768  27.912  1.00  0.00     0.198 A 
ATOM     68  F   UNL A   1      39.005  26.360  30.057  1.00  0.00    -0.203 F 
ATOM     69  F   UNL A   1      41.787  27.605  25.532  1.00  0.00    -0.200 F 
ATOM     70  C   UNL A   1      40.473  26.076  26.760  1.00  0.00     0.200 A 
ATOM     71  F   UNL A   1      39.147  24.585  28.022  1.00  0.00    -0.200 F 
ATOM     72  F   UNL A   1      40.522  25.198  25.747  1.00  0.00    -0.200 F 
ENDBRANCH  48  62
BRANCH  49  73
ATOM     73  C   UNL A   1      39.719  33.982  36.804  1.00  0.00     0.064 A 
ATOM     74  C   UNL A   1      38.910  33.571  37.873  1.00  0.00     0.173 A 
ATOM     75  C   UNL A   1      40.363  35.223  36.916  1.00  0.00     0.173 A 
ATOM     76  F   UNL A   1      38.258  32.400  37.807  1.00  0.00    -0.203 F 
ATOM     77  C   UNL A   1      38.722  34.384  38.988  1.00  0.00     0.198 A 
ATOM     78  C   UNL A   1      40.201  36.020  38.048  1.00  0.00     0.198 A 
ATOM     79  F   UNL A   1      41.153  35.662  35.926  1.00  0.00    -0.203 F 
ATOM     80  F   UNL A   1      37.892  33.994  39.965  1.00  0.00    -0.200 F 
ATOM     81  C   UNL A   1      39.371  35.606  39.078  1.00  0.00     0.200 A 
ATOM     82  F   UNL A   1      40.844  37.192  38.136  1.00  0.00    -0.200 F 
ATOM     83  F   UNL A   1      39.186  36.390  40.148  1.00  0.00    -0.200 F 
ENDBRANCH  49  73
BRANCH  61  84
ATOM     84  C   UNL A   1      43.977  28.742  35.054  1.00  0.00     0.064 A 
ATOM     85  C   UNL A   1      43.819  27.630  35.894  1.00  0.00     0.173 A 
ATOM     86  C   UNL A   1      45.280  29.212  34.824  1.00  0.00     0.173 A 
ATOM     87  F   UNL A   1      42.593  27.152  36.157  1.00  0.00    -0.203 F 
ATOM     88  C   UNL A   1      44.919  27.027  36.496  1.00  0.00     0.198 A 
ATOM     89  C   UNL A   1      46.381  28.584  35.398  1.00  0.00     0.198 A 
ATOM     90  F   UNL A   1      45.486  30.266  34.020  1.00  0.00    -0.203 F 
ATOM     91  F   UNL A   1      44.741  25.995  37.332  1.00  0.00    -0.200 F 
ATOM     92  C   UNL A   1      46.199  27.497  36.240  1.00  0.00     0.200 A 
ATOM     93  F   UNL A   1      47.617  29.029  35.134  1.00  0.00    -0.200 F 
ATOM     94  F   UNL A   1      47.259  26.905  36.807  1.00  0.00    -0.200 F 
ENDBRANCH  61  84
ENDBRANCH  35  36
ENDBRANCH  27  30
ENDBRANCH  25  26
ENDBRANCH   1  25
TORSDOF 12
ENDMDL
MODEL 3
REMARK VINA RESULT:     -13.7      0.578      1.513
REMARK SMILES Cc1ccc(C(=O)Nc2cccc(C(=O)NCCCNC(=O)c3ccc(-c4c5nc(c(-c6c(F)c(F)c(F)c(F)c6F)c6ccc([nH]6)c(-c6c(F)c(F)c(F)c(F)c6F)c6nc(c(-c7c(F)c(F)c(F)c(F)c7F)c7ccc4[nH]7)C=C6)C=C5)cc3)c2)cc1C
REMARK SMILES IDX 18 1 17 2 16 3 14 4 15 5 13 7 9 8 10 9 86 10 11 11 12 12
REMARK SMILES IDX 8 13 6 14 7 15 5 17 1 18 2 19 3 20 88 21 4 22 87 23 89 24
REMARK SMILES IDX 19 25 20 26 21 27 22 29 23 30 24 31 85 32 25 33 84 34 26 35
REMARK SMILES IDX 27 36 28 37 78 38 29 39 83 40 77 41 79 42 30 43 82 44 76 45
REMARK SMILES IDX 75 46 31 48 63 49 43 50 62 51 44 52 47 53 61 54 80 55 45 56
REMARK SMILES IDX 46 57 60 59 81 60 48 61 32 62 33 63 41 64 34 65 35 66 39 67
REMARK SMILES IDX 42 68 36 69 37 70 40 71 38 72 64 73 65 74 73 75 66 76 67 77
REMARK SMILES IDX 71 78 74 79 68 80 69 81 72 82 70 83 49 84 50 85 58 86 51 87
REMARK SMILES IDX 52 88 56 89 59 90 53 91 54 92 57 93 55 94
REMARK H PARENT 16 6 8 16 20 28 79 47 47 58
REMARK Flexibility Score: inf
ROOT
ATOM      1  C   UNL A   1      31.500  31.929  26.592  1.00  0.00     0.042 C 
ENDROOT
BRANCH   1   2
ATOM      2  C   UNL A   1      31.669  30.422  26.460  1.00  0.00     0.118 C 
BRANCH   2   3
ATOM      3  N   UNL A   1      32.441  30.077  25.282  1.00  0.00    -0.352 N 
ATOM      4  C   UNL A   1      32.320  29.091  24.338  1.00  0.00     0.251 C 
ATOM      5  O   UNL A   1      33.149  29.089  23.426  1.00  0.00    -0.269 OA
ATOM      6  H   UNL A   1      33.210  30.673  25.129  1.00  0.00     0.163 HD
BRANCH   4   7
ATOM      7  C   UNL A   1      31.220  28.080  24.314  1.00  0.00     0.041 A 
ATOM      8  C   UNL A   1      29.977  26.200  25.208  1.00  0.00     0.042 A 
ATOM      9  C   UNL A   1      28.967  26.389  24.268  1.00  0.00     0.026 A 
ATOM     10  C   UNL A   1      31.147  26.960  25.142  1.00  0.00     0.040 A 
ATOM     11  C   UNL A   1      29.057  27.454  23.375  1.00  0.00     0.003 A 
ATOM     12  C   UNL A   1      30.159  28.313  23.423  1.00  0.00     0.014 A 
BRANCH   8  13
ATOM     13  N   UNL A   1      29.747  25.304  26.260  1.00  0.00    -0.322 N 
ATOM     14  C   UNL A   1      30.312  24.060  26.501  1.00  0.00     0.255 C 
ATOM     15  O   UNL A   1      29.775  23.328  27.334  1.00  0.00    -0.269 OA
ATOM     16  H   UNL A   1      29.086  25.601  26.927  1.00  0.00     0.170 HD
BRANCH  14  17
ATOM     17  C   UNL A   1      31.597  23.608  25.866  1.00  0.00     0.040 A 
ATOM     18  C   UNL A   1      35.236  22.578  23.743  1.00  0.00     0.044 C 
ATOM     19  C   UNL A   1      33.956  22.845  24.484  1.00  0.00    -0.048 A 
ATOM     20  C   UNL A   1      34.021  23.433  25.754  1.00  0.00     0.004 A 
ATOM     21  C   UNL A   1      32.695  22.495  23.968  1.00  0.00    -0.047 A 
ATOM     22  C   UNL A   1      32.855  23.761  26.456  1.00  0.00     0.014 A 
ATOM     23  C   UNL A   1      31.532  22.917  24.647  1.00  0.00     0.017 A 
ATOM     24  C   UNL A   1      32.528  21.619  22.755  1.00  0.00     0.044 C 
ENDBRANCH  14  17
ENDBRANCH   8  13
ENDBRANCH   4   7
ENDBRANCH   2   3
ENDBRANCH   1   2
BRANCH   1  25
ATOM     25  C   UNL A   1      32.697  32.571  27.275  1.00  0.00     0.118 C 
BRANCH  25  26
ATOM     26  N   UNL A   1      32.462  33.984  27.555  1.00  0.00    -0.352 N 
ATOM     27  C   UNL A   1      33.012  34.793  28.518  1.00  0.00     0.251 C 
ATOM     28  H   UNL A   1      31.808  34.424  26.963  1.00  0.00     0.163 HD
ATOM     29  O   UNL A   1      32.527  35.892  28.751  1.00  0.00    -0.269 OA
BRANCH  27  30
ATOM     30  C   UNL A   1      34.185  34.320  29.280  1.00  0.00     0.039 A 
ATOM     31  C   UNL A   1      33.985  33.640  30.484  1.00  0.00     0.014 A 
ATOM     32  C   UNL A   1      35.478  34.545  28.803  1.00  0.00     0.014 A 
ATOM     33  C   UNL A   1      35.082  33.124  31.174  1.00  0.00     0.010 A 
ATOM     34  C   UNL A   1      36.559  33.951  29.439  1.00  0.00     0.010 A 
ATOM     35  C   UNL A   1      36.374  33.240  30.634  1.00  0.00    -0.014 A 
BRANCH  35  36
ATOM     36  C   UNL A   1      37.555  32.636  31.299  1.00  0.00     0.031 A 
ATOM     37  C   UNL A   1      38.261  31.477  30.653  1.00  0.00     0.074 A 
ATOM     38  C   UNL A   1      37.925  33.065  32.522  1.00  0.00     0.049 A 
ATOM     39  N   UNL A   1      39.218  30.721  31.128  1.00  0.00    -0.248 NA
ATOM     40  C   UNL A   1      37.808  31.093  29.305  1.00  0.00     0.031 C 
ATOM     41  C   UNL A   1      37.282  34.148  33.269  1.00  0.00     0.029 A 
ATOM     42  N   UNL A   1      38.915  32.624  33.364  1.00  0.00    -0.354 N 
ATOM     43  C   UNL A   1      39.456  29.760  30.153  1.00  0.00     0.074 A 
ATOM     44  C   UNL A   1      38.518  29.997  29.080  1.00  0.00     0.031 C 
ATOM     45  C   UNL A   1      37.899  34.292  34.453  1.00  0.00     0.029 A 
ATOM     46  C   UNL A   1      38.946  33.282  34.571  1.00  0.00     0.049 A 
ATOM     47  H   UNL A   1      39.544  31.905  33.125  1.00  0.00     0.167 HD
ATOM     48  C   UNL A   1      40.390  28.779  30.152  1.00  0.00     0.037 A 
ATOM     49  C   UNL A   1      39.714  33.075  35.657  1.00  0.00     0.037 A 
ATOM     50  C   UNL A   1      41.347  28.578  31.206  1.00  0.00     0.049 A 
ATOM     51  C   UNL A   1      40.748  31.979  35.621  1.00  0.00     0.074 A 
ATOM     52  C   UNL A   1      42.389  27.670  31.260  1.00  0.00     0.029 A 
ATOM     53  N   UNL A   1      41.375  29.292  32.395  1.00  0.00    -0.354 N 
ATOM     54  N   UNL A   1      41.021  31.130  34.660  1.00  0.00    -0.248 NA
ATOM     55  C   UNL A   1      41.584  31.816  36.819  1.00  0.00     0.031 C 
ATOM     56  C   UNL A   1      43.009  27.791  32.506  1.00  0.00     0.029 A 
ATOM     57  C   UNL A   1      42.397  28.821  33.202  1.00  0.00     0.049 A 
ATOM     58  H   UNL A   1      40.759  30.024  32.630  1.00  0.00     0.167 HD
ATOM     59  C   UNL A   1      42.079  30.358  35.122  1.00  0.00     0.074 A 
ATOM     60  C   UNL A   1      42.407  30.848  36.444  1.00  0.00     0.031 C 
ATOM     61  C   UNL A   1      42.720  29.334  34.509  1.00  0.00     0.037 A 
BRANCH  48  62
ATOM     62  C   UNL A   1      40.428  27.845  28.978  1.00  0.00     0.064 A 
ATOM     63  C   UNL A   1      39.652  26.677  28.934  1.00  0.00     0.173 A 
ATOM     64  C   UNL A   1      41.201  28.161  27.849  1.00  0.00     0.173 A 
ATOM     65  F   UNL A   1      38.906  26.323  29.990  1.00  0.00    -0.203 F 
ATOM     66  C   UNL A   1      39.663  25.852  27.813  1.00  0.00     0.198 A 
ATOM     67  C   UNL A   1      41.184  27.351  26.717  1.00  0.00     0.198 A 
ATOM     68  F   UNL A   1      41.958  29.269  27.836  1.00  0.00    -0.203 F 
ATOM     69  F   UNL A   1      38.945  24.720  27.809  1.00  0.00    -0.200 F 
ATOM     70  C   UNL A   1      40.419  26.195  26.701  1.00  0.00     0.200 A 
ATOM     71  F   UNL A   1      41.902  27.694  25.639  1.00  0.00    -0.200 F 
ATOM     72  F   UNL A   1      40.413  25.408  25.616  1.00  0.00    -0.200 F 
ENDBRANCH  48  62
BRANCH  49  73
ATOM     73  C   UNL A   1      39.535  33.913  36.873  1.00  0.00     0.064 A 
ATOM     74  C   UNL A   1      38.770  33.460  37.958  1.00  0.00     0.173 A 
ATOM     75  C   UNL A   1      40.099  35.194  36.965  1.00  0.00     0.173 A 
ATOM     76  F   UNL A   1      38.195  32.249  37.912  1.00  0.00    -0.203 F 
ATOM     77  C   UNL A   1      38.547  34.269  39.070  1.00  0.00     0.198 A 
ATOM     78  C   UNL A   1      39.903  35.990  38.093  1.00  0.00     0.198 A 
ATOM     79  F   UNL A   1      40.844  35.675  35.960  1.00  0.00    -0.203 F 
ATOM     80  F   UNL A   1      37.759  33.836  40.063  1.00  0.00    -0.200 F 
ATOM     81  C   UNL A   1      39.116  35.532  39.139  1.00  0.00     0.200 A 
ATOM     82  F   UNL A   1      40.470  37.202  38.161  1.00  0.00    -0.200 F 
ATOM     83  F   UNL A   1      38.897  36.312  40.206  1.00  0.00    -0.200 F 
ENDBRANCH  49  73
BRANCH  61  84
ATOM     84  C   UNL A   1      43.874  28.704  35.232  1.00  0.00     0.064 A 
ATOM     85  C   UNL A   1      45.188  29.171  35.077  1.00  0.00     0.173 A 
ATOM     86  C   UNL A   1      43.651  27.657  36.141  1.00  0.00     0.173 A 
ATOM     87  F   UNL A   1      45.455  30.160  34.210  1.00  0.00    -0.203 F 
ATOM     88  C   UNL A   1      46.238  28.599  35.789  1.00  0.00     0.198 A 
ATOM     89  C   UNL A   1      44.698  27.112  36.877  1.00  0.00     0.198 A 
ATOM     90  F   UNL A   1      42.412  27.181  36.332  1.00  0.00    -0.203 F 
ATOM     91  F   UNL A   1      47.491  29.029  35.592  1.00  0.00    -0.200 F 
ATOM     92  C   UNL A   1      45.992  27.578  36.696  1.00  0.00     0.200 A 
ATOM     93  F   UNL A   1      44.454  26.139  37.766  1.00  0.00    -0.200 F 
ATOM     94  F   UNL A   1      47.002  27.039  37.392  1.00  0.00    -0.200 F 
ENDBRANCH  61  84
ENDBRANCH  35  36
ENDBRANCH  27  30
ENDBRANCH  25  26
ENDBRANCH   1  25
TORSDOF 12
ENDMDL
