MODEL 1
REMARK VINA RESULT:     -14.5      0.000      0.000
REMARK SMILES Cc1ccc(S(=O)(=O)n2cc(C(=O)C(=O)N[C@@H](Cc3cnc[nH]3)C(=O)NCCCNC(=O)c3ccc(-c4c5nc(c(-c6c(F)c(F)c(F)c(F)c6F)c6ccc([nH]6)c(-c6c(F)c(F)c(F)c(F)c6F)c6nc(c(-c7c(F)c(F)c(F)c(F)c7F)c7ccc4[nH]7)C=C6)C=C5)cc3)c3ccccc32)cc1
REMARK SMILES IDX 24 1 25 2 26 3 17 5 16 6 14 7 15 8 12 10 13 11 11 12 9 13
REMARK SMILES IDX 10 14 101 15 96 16 100 17 97 18 99 19 98 20 6 21 7 22 8 23
REMARK SMILES IDX 5 24 1 25 2 26 3 27 103 28 4 29 102 30 18 31 19 32 20 33
REMARK SMILES IDX 23 34 21 35 22 36 27 38 28 39 29 40 30 41 31 42 32 44 33 45
REMARK SMILES IDX 34 46 95 47 35 48 94 49 36 50 37 51 38 52 88 53 39 54 93 55
REMARK SMILES IDX 87 56 89 57 40 58 92 59 86 60 85 61 41 63 73 64 53 65 72 66
REMARK SMILES IDX 54 67 57 68 71 69 90 70 55 71 56 72 70 74 91 75 58 76 42 77
REMARK SMILES IDX 43 78 51 79 44 80 45 81 49 82 52 83 46 84 47 85 50 86 48 87
REMARK SMILES IDX 74 88 75 89 83 90 76 91 77 92 81 93 84 94 78 95 79 96 82 97
REMARK SMILES IDX 80 98 59 99 60 100 68 101 61 102 62 103 66 104 69 105 63 106
REMARK SMILES IDX 64 107 67 108 65 109
REMARK H PARENT 26 4 16 9 23 37 30 43 89 62 57 73
REMARK Flexibility Score: inf
ROOT
ATOM      1  C   UNL A   1      34.375  22.631  25.843  1.00  0.00     0.242 C 
ATOM      2  O   UNL A   1      34.357  23.774  26.311  1.00  0.00    -0.273 OA
ATOM      3  N   UNL A   1      35.502  22.273  25.150  1.00  0.00    -0.354 N 
ATOM      4  H   UNL A   1      35.993  23.007  24.714  1.00  0.00     0.163 HD
ENDROOT
BRANCH   1   5
ATOM      5  C   UNL A   1      33.212  21.640  26.128  1.00  0.00     0.177 C 
BRANCH   5   6
ATOM      6  N   UNL A   1      32.201  22.236  27.017  1.00  0.00    -0.337 N 
ATOM      7  C   UNL A   1      31.124  23.058  26.726  1.00  0.00     0.293 C 
ATOM      8  O   UNL A   1      30.273  23.216  27.596  1.00  0.00    -0.265 OA
ATOM      9  H   UNL A   1      32.306  22.014  27.971  1.00  0.00     0.164 HD
BRANCH   7  10
ATOM     10  C   UNL A   1      30.987  23.789  25.360  1.00  0.00     0.252 C 
ATOM     11  O   UNL A   1      30.389  23.220  24.452  1.00  0.00    -0.283 OA
BRANCH  10  12
ATOM     12  C   UNL A   1      31.556  25.130  25.123  1.00  0.00     0.054 A 
ATOM     13  N   UNL A   1      32.153  27.278  25.331  1.00  0.00    -0.240 N 
ATOM     14  C   UNL A   1      31.517  26.234  25.959  1.00  0.00     0.117 A 
ATOM     15  C   UNL A   1      32.647  26.897  24.104  1.00  0.00     0.065 A 
ATOM     16  C   UNL A   1      32.257  25.561  23.933  1.00  0.00     0.012 A 
ATOM     17  C   UNL A   1      33.368  27.595  23.116  1.00  0.00     0.028 A 
ATOM     18  C   UNL A   1      32.598  24.918  22.721  1.00  0.00     0.011 A 
ATOM     19  C   UNL A   1      33.677  26.932  21.926  1.00  0.00     0.002 A 
ATOM     20  C   UNL A   1      33.297  25.611  21.728  1.00  0.00     0.001 A 
BRANCH  13  21
ATOM     21  S   UNL A   1      32.261  28.846  25.990  1.00  0.00     0.268 S 
ATOM     22  O   UNL A   1      33.605  29.304  25.639  1.00  0.00    -0.201 OA
ATOM     23  O   UNL A   1      31.826  28.738  27.357  1.00  0.00    -0.201 OA
BRANCH  21  24
ATOM     24  C   UNL A   1      31.107  29.893  25.143  1.00  0.00     0.088 A 
ATOM     25  C   UNL A   1      28.107  32.161  23.047  1.00  0.00     0.044 C 
ATOM     26  C   UNL A   1      29.165  31.381  23.772  1.00  0.00    -0.051 A 
ATOM     27  C   UNL A   1      29.449  30.066  23.384  1.00  0.00     0.005 A 
ATOM     28  C   UNL A   1      29.883  31.951  24.830  1.00  0.00     0.005 A 
ATOM     29  C   UNL A   1      30.410  29.322  24.069  1.00  0.00     0.022 A 
ATOM     30  C   UNL A   1      30.861  31.216  25.510  1.00  0.00     0.022 A 
ENDBRANCH  21  24
ENDBRANCH  13  21
ENDBRANCH  10  12
ENDBRANCH   7  10
ENDBRANCH   5   6
BRANCH   5  31
ATOM     31  C   UNL A   1      32.644  20.902  24.889  1.00  0.00     0.090 C 
BRANCH  31  32
ATOM     32  C   UNL A   1      32.620  19.410  24.917  1.00  0.00     0.037 A 
ATOM     33  C   UNL A   1      32.397  18.462  23.937  1.00  0.00     0.134 A 
ATOM     34  N   UNL A   1      32.872  18.672  26.055  1.00  0.00    -0.348 N 
ATOM     35  N   UNL A   1      32.657  17.203  24.413  1.00  0.00    -0.245 NA
ATOM     36  C   UNL A   1      32.930  17.356  25.688  1.00  0.00     0.196 A 
ATOM     37  H   UNL A   1      32.989  19.029  26.965  1.00  0.00     0.167 HD
ENDBRANCH  31  32
ENDBRANCH   5  31
ENDBRANCH   1   5
BRANCH   3  38
ATOM     38  C   UNL A   1      36.057  20.948  24.980  1.00  0.00     0.117 C 
BRANCH  38  39
ATOM     39  C   UNL A   1      37.563  20.854  24.976  1.00  0.00     0.042 C 
BRANCH  39  40
ATOM     40  C   UNL A   1      38.204  22.105  25.534  1.00  0.00     0.118 C 
BRANCH  40  41
ATOM     41  N   UNL A   1      39.528  21.936  26.139  1.00  0.00    -0.352 N 
ATOM     42  C   UNL A   1      40.384  22.895  26.668  1.00  0.00     0.251 C 
ATOM     43  H   UNL A   1      39.858  21.009  26.176  1.00  0.00     0.163 HD
ATOM     44  O   UNL A   1      41.478  22.566  27.114  1.00  0.00    -0.269 OA
BRANCH  42  45
ATOM     45  C   UNL A   1      39.910  24.293  26.843  1.00  0.00     0.039 A 
ATOM     46  C   UNL A   1      40.494  25.307  26.071  1.00  0.00     0.014 A 
ATOM     47  C   UNL A   1      39.161  24.626  27.956  1.00  0.00     0.014 A 
ATOM     48  C   UNL A   1      40.594  26.591  26.604  1.00  0.00     0.010 A 
ATOM     49  C   UNL A   1      39.460  25.805  28.586  1.00  0.00     0.010 A 
ATOM     50  C   UNL A   1      40.212  26.781  27.926  1.00  0.00    -0.014 A 
BRANCH  50  51
ATOM     51  C   UNL A   1      40.558  27.924  28.756  1.00  0.00     0.031 A 
ATOM     52  C   UNL A   1      39.606  29.056  28.830  1.00  0.00     0.074 A 
ATOM     53  C   UNL A   1      41.587  27.810  29.628  1.00  0.00     0.049 A 
ATOM     54  N   UNL A   1      39.845  30.170  29.425  1.00  0.00    -0.248 NA
ATOM     55  C   UNL A   1      38.278  29.020  28.220  1.00  0.00     0.031 C 
ATOM     56  C   UNL A   1      41.832  28.614  30.823  1.00  0.00     0.029 A 
ATOM     57  N   UNL A   1      42.742  27.017  29.507  1.00  0.00    -0.354 N 
ATOM     58  C   UNL A   1      38.668  30.881  29.501  1.00  0.00     0.074 A 
ATOM     59  C   UNL A   1      37.720  30.121  28.725  1.00  0.00     0.031 C 
ATOM     60  C   UNL A   1      43.131  28.528  31.148  1.00  0.00     0.029 A 
ATOM     61  C   UNL A   1      43.783  27.793  30.080  1.00  0.00     0.049 A 
ATOM     62  H   UNL A   1      42.815  26.119  29.111  1.00  0.00     0.167 HD
ATOM     63  C   UNL A   1      38.630  31.984  30.298  1.00  0.00     0.037 A 
ATOM     64  C   UNL A   1      44.801  28.284  29.313  1.00  0.00     0.037 A 
ATOM     65  C   UNL A   1      39.961  32.273  30.823  1.00  0.00     0.049 A 
ATOM     66  C   UNL A   1      44.876  29.795  29.301  1.00  0.00     0.074 A 
ATOM     67  C   UNL A   1      40.596  31.960  32.013  1.00  0.00     0.029 A 
ATOM     68  N   UNL A   1      40.956  32.659  29.933  1.00  0.00    -0.354 N 
ATOM     69  N   UNL A   1      43.877  30.572  29.620  1.00  0.00    -0.248 NA
ATOM     70  C   UNL A   1      46.070  30.549  28.933  1.00  0.00     0.031 C 
ATOM     71  C   UNL A   1      41.992  32.106  31.815  1.00  0.00     0.029 A 
ATOM     72  C   UNL A   1      42.200  32.534  30.514  1.00  0.00     0.049 A 
ATOM     73  H   UNL A   1      40.795  32.977  29.016  1.00  0.00     0.167 HD
ATOM     74  C   UNL A   1      44.260  31.885  29.511  1.00  0.00     0.074 A 
ATOM     75  C   UNL A   1      45.645  31.817  29.085  1.00  0.00     0.031 C 
ATOM     76  C   UNL A   1      43.397  32.910  29.777  1.00  0.00     0.037 A 
BRANCH  63  77
ATOM     77  C   UNL A   1      37.378  32.681  30.774  1.00  0.00     0.064 A 
ATOM     78  C   UNL A   1      36.892  32.458  32.083  1.00  0.00     0.173 A 
ATOM     79  C   UNL A   1      36.586  33.546  29.996  1.00  0.00     0.173 A 
ATOM     80  F   UNL A   1      37.573  31.713  32.964  1.00  0.00    -0.203 F 
ATOM     81  C   UNL A   1      35.681  32.986  32.539  1.00  0.00     0.198 A 
ATOM     82  C   UNL A   1      35.349  34.031  30.432  1.00  0.00     0.198 A 
ATOM     83  F   UNL A   1      37.006  34.005  28.812  1.00  0.00    -0.203 F 
ATOM     84  F   UNL A   1      35.279  32.740  33.793  1.00  0.00    -0.200 F 
ATOM     85  C   UNL A   1      34.894  33.748  31.703  1.00  0.00     0.200 A 
ATOM     86  F   UNL A   1      34.606  34.785  29.610  1.00  0.00    -0.200 F 
ATOM     87  F   UNL A   1      33.717  34.228  32.127  1.00  0.00    -0.200 F 
ENDBRANCH  63  77
BRANCH  64  88
ATOM     88  C   UNL A   1      45.145  27.373  28.188  1.00  0.00     0.064 A 
ATOM     89  C   UNL A   1      45.818  26.175  28.509  1.00  0.00     0.173 A 
ATOM     90  C   UNL A   1      44.453  27.419  26.971  1.00  0.00     0.173 A 
ATOM     91  F   UNL A   1      46.502  26.081  29.661  1.00  0.00    -0.203 F 
ATOM     92  C   UNL A   1      45.668  25.030  27.731  1.00  0.00     0.198 A 
ATOM     93  C   UNL A   1      44.330  26.272  26.181  1.00  0.00     0.198 A 
ATOM     94  F   UNL A   1      43.778  28.521  26.618  1.00  0.00    -0.203 F 
ATOM     95  F   UNL A   1      46.196  23.868  28.145  1.00  0.00    -0.200 F 
ATOM     96  C   UNL A   1      44.893  25.071  26.585  1.00  0.00     0.200 A 
ATOM     97  F   UNL A   1      43.562  26.301  25.082  1.00  0.00    -0.200 F 
ATOM     98  F   UNL A   1      44.649  23.945  25.900  1.00  0.00    -0.200 F 
ENDBRANCH  64  88
BRANCH  76  99
ATOM     99  C   UNL A   1      43.586  34.373  29.438  1.00  0.00     0.064 A 
ATOM    100  C   UNL A   1      43.421  34.911  28.154  1.00  0.00     0.173 A 
ATOM    101  C   UNL A   1      43.771  35.325  30.475  1.00  0.00     0.173 A 
ATOM    102  F   UNL A   1      43.137  34.134  27.101  1.00  0.00    -0.203 F 
ATOM    103  C   UNL A   1      43.472  36.288  27.917  1.00  0.00     0.198 A 
ATOM    104  C   UNL A   1      43.753  36.699  30.245  1.00  0.00     0.198 A 
ATOM    105  F   UNL A   1      43.936  34.955  31.752  1.00  0.00    -0.203 F 
ATOM    106  F   UNL A   1      43.341  36.750  26.665  1.00  0.00    -0.200 F 
ATOM    107  C   UNL A   1      43.616  37.182  28.962  1.00  0.00     0.200 A 
ATOM    108  F   UNL A   1      43.839  37.549  31.279  1.00  0.00    -0.200 F 
ATOM    109  F   UNL A   1      43.603  38.502  28.736  1.00  0.00    -0.200 F 
ENDBRANCH  76  99
ENDBRANCH  50  51
ENDBRANCH  42  45
ENDBRANCH  40  41
ENDBRANCH  39  40
ENDBRANCH  38  39
ENDBRANCH   3  38
TORSDOF 17
ENDMDL
MODEL 2
REMARK VINA RESULT:     -14.4      1.194      2.043
REMARK SMILES Cc1ccc(S(=O)(=O)n2cc(C(=O)C(=O)N[C@@H](Cc3cnc[nH]3)C(=O)NCCCNC(=O)c3ccc(-c4c5nc(c(-c6c(F)c(F)c(F)c(F)c6F)c6ccc([nH]6)c(-c6c(F)c(F)c(F)c(F)c6F)c6nc(c(-c7c(F)c(F)c(F)c(F)c7F)c7ccc4[nH]7)C=C6)C=C5)cc3)c3ccccc32)cc1
REMARK SMILES IDX 24 1 25 2 26 3 17 5 16 6 14 7 15 8 12 10 13 11 11 12 9 13
REMARK SMILES IDX 10 14 101 15 96 16 100 17 97 18 99 19 98 20 6 21 7 22 8 23
REMARK SMILES IDX 5 24 1 25 2 26 3 27 103 28 4 29 102 30 18 31 19 32 20 33
REMARK SMILES IDX 23 34 21 35 22 36 27 38 28 39 29 40 30 41 31 42 32 44 33 45
REMARK SMILES IDX 34 46 95 47 35 48 94 49 36 50 37 51 38 52 88 53 39 54 93 55
REMARK SMILES IDX 87 56 89 57 40 58 92 59 86 60 85 61 41 63 73 64 53 65 72 66
REMARK SMILES IDX 54 67 57 68 71 69 90 70 55 71 56 72 70 74 91 75 58 76 42 77
REMARK SMILES IDX 43 78 51 79 44 80 45 81 49 82 52 83 46 84 47 85 50 86 48 87
REMARK SMILES IDX 74 88 75 89 83 90 76 91 77 92 81 93 84 94 78 95 79 96 82 97
REMARK SMILES IDX 80 98 59 99 60 100 68 101 61 102 62 103 66 104 69 105 63 106
REMARK SMILES IDX 64 107 67 108 65 109
REMARK H PARENT 26 4 16 9 23 37 30 43 89 62 57 73
REMARK Flexibility Score: inf
ROOT
ATOM      1  C   UNL A   1      35.811  22.394  25.344  1.00  0.00     0.242 C 
ATOM      2  O   UNL A   1      35.573  23.586  25.562  1.00  0.00    -0.273 OA
ATOM      3  N   UNL A   1      36.988  22.113  24.700  1.00  0.00    -0.354 N 
ATOM      4  H   UNL A   1      37.331  22.817  24.102  1.00  0.00     0.163 HD
ENDROOT
BRANCH   1   5
ATOM      5  C   UNL A   1      34.857  21.287  25.875  1.00  0.00     0.177 C 
BRANCH   5   6
ATOM      6  N   UNL A   1      34.183  21.703  27.116  1.00  0.00    -0.337 N 
ATOM      7  C   UNL A   1      32.894  22.167  27.324  1.00  0.00     0.293 C 
ATOM      8  O   UNL A   1      32.479  22.205  28.479  1.00  0.00    -0.265 OA
ATOM      9  H   UNL A   1      34.737  21.641  27.928  1.00  0.00     0.164 HD
BRANCH   7  10
ATOM     10  C   UNL A   1      31.992  22.655  26.155  1.00  0.00     0.252 C 
ATOM     11  O   UNL A   1      31.110  21.905  25.749  1.00  0.00    -0.283 OA
BRANCH  10  12
ATOM     12  C   UNL A   1      32.169  23.976  25.521  1.00  0.00     0.054 A 
ATOM     13  N   UNL A   1      32.262  26.180  25.139  1.00  0.00    -0.240 N 
ATOM     14  C   UNL A   1      32.023  25.226  26.099  1.00  0.00     0.117 A 
ATOM     15  C   UNL A   1      32.594  25.603  23.934  1.00  0.00     0.065 A 
ATOM     16  C   UNL A   1      32.511  24.218  24.137  1.00  0.00     0.012 A 
ATOM     17  C   UNL A   1      32.930  26.155  22.681  1.00  0.00     0.028 A 
ATOM     18  C   UNL A   1      32.764  23.368  23.035  1.00  0.00     0.011 A 
ATOM     19  C   UNL A   1      33.161  25.285  21.614  1.00  0.00     0.002 A 
ATOM     20  C   UNL A   1      33.078  23.909  21.785  1.00  0.00     0.001 A 
BRANCH  13  21
ATOM     21  S   UNL A   1      32.112  27.855  25.419  1.00  0.00     0.268 S 
ATOM     22  O   UNL A   1      33.333  28.434  24.861  1.00  0.00    -0.201 OA
ATOM     23  O   UNL A   1      31.764  28.000  26.807  1.00  0.00    -0.201 OA
BRANCH  21  24
ATOM     24  C   UNL A   1      30.750  28.465  24.460  1.00  0.00     0.088 A 
ATOM     25  C   UNL A   1      27.653  30.181  22.011  1.00  0.00     0.044 C 
ATOM     26  C   UNL A   1      28.721  29.578  22.877  1.00  0.00    -0.051 A 
ATOM     27  C   UNL A   1      29.662  30.406  23.501  1.00  0.00     0.005 A 
ATOM     28  C   UNL A   1      28.788  28.194  23.078  1.00  0.00     0.005 A 
ATOM     29  C   UNL A   1      30.676  29.853  24.284  1.00  0.00     0.022 A 
ATOM     30  C   UNL A   1      29.793  27.635  23.877  1.00  0.00     0.022 A 
ENDBRANCH  21  24
ENDBRANCH  13  21
ENDBRANCH  10  12
ENDBRANCH   7  10
ENDBRANCH   5   6
BRANCH   5  31
ATOM     31  C   UNL A   1      33.934  20.636  24.813  1.00  0.00     0.090 C 
BRANCH  31  32
ATOM     32  C   UNL A   1      33.652  19.175  24.936  1.00  0.00     0.037 A 
ATOM     33  C   UNL A   1      34.125  18.072  24.250  1.00  0.00     0.134 A 
ATOM     34  N   UNL A   1      32.797  18.648  25.881  1.00  0.00    -0.348 N 
ATOM     35  N   UNL A   1      33.704  16.913  24.849  1.00  0.00    -0.245 NA
ATOM     36  C   UNL A   1      32.901  17.287  25.818  1.00  0.00     0.196 A 
ATOM     37  H   UNL A   1      32.217  19.160  26.490  1.00  0.00     0.167 HD
ENDBRANCH  31  32
ENDBRANCH   5  31
ENDBRANCH   1   5
BRANCH   3  38
ATOM     38  C   UNL A   1      37.785  20.911  24.790  1.00  0.00     0.117 C 
BRANCH  38  39
ATOM     39  C   UNL A   1      38.918  20.939  25.788  1.00  0.00     0.042 C 
BRANCH  39  40
ATOM     40  C   UNL A   1      39.330  22.353  26.128  1.00  0.00     0.118 C 
BRANCH  40  41
ATOM     41  N   UNL A   1      40.772  22.600  26.216  1.00  0.00    -0.352 N 
ATOM     42  C   UNL A   1      41.451  23.800  26.390  1.00  0.00     0.251 C 
ATOM     43  H   UNL A   1      41.341  21.800  26.142  1.00  0.00     0.163 HD
ATOM     44  O   UNL A   1      42.677  23.818  26.414  1.00  0.00    -0.269 OA
BRANCH  42  45
ATOM     45  C   UNL A   1      40.694  25.039  26.707  1.00  0.00     0.039 A 
ATOM     46  C   UNL A   1      40.899  26.180  25.918  1.00  0.00     0.014 A 
ATOM     47  C   UNL A   1      40.064  25.160  27.933  1.00  0.00     0.014 A 
ATOM     48  C   UNL A   1      40.773  27.438  26.502  1.00  0.00     0.010 A 
ATOM     49  C   UNL A   1      40.169  26.364  28.578  1.00  0.00     0.010 A 
ATOM     50  C   UNL A   1      40.562  27.504  27.873  1.00  0.00    -0.014 A 
BRANCH  50  51
ATOM     51  C   UNL A   1      40.750  28.681  28.708  1.00  0.00     0.031 A 
ATOM     52  C   UNL A   1      39.633  29.646  28.830  1.00  0.00     0.074 A 
ATOM     53  C   UNL A   1      41.813  28.724  29.543  1.00  0.00     0.049 A 
ATOM     54  N   UNL A   1      39.713  30.778  29.433  1.00  0.00    -0.248 NA
ATOM     55  C   UNL A   1      38.307  29.404  28.263  1.00  0.00     0.031 C 
ATOM     56  C   UNL A   1      41.970  29.546  30.741  1.00  0.00     0.029 A 
ATOM     57  N   UNL A   1      43.076  28.127  29.373  1.00  0.00    -0.354 N 
ATOM     58  C   UNL A   1      38.441  31.291  29.558  1.00  0.00     0.074 A 
ATOM     59  C   UNL A   1      37.599  30.397  28.803  1.00  0.00     0.031 C 
ATOM     60  C   UNL A   1      43.277  29.666  31.022  1.00  0.00     0.029 A 
ATOM     61  C   UNL A   1      43.999  29.054  29.922  1.00  0.00     0.049 A 
ATOM     62  H   UNL A   1      43.277  27.256  28.962  1.00  0.00     0.167 HD
ATOM     63  C   UNL A   1      38.256  32.367  30.372  1.00  0.00     0.037 A 
ATOM     64  C   UNL A   1      44.899  29.708  29.129  1.00  0.00     0.037 A 
ATOM     65  C   UNL A   1      39.541  32.859  30.857  1.00  0.00     0.049 A 
ATOM     66  C   UNL A   1      44.732  31.211  29.137  1.00  0.00     0.074 A 
ATOM     67  C   UNL A   1      40.259  32.641  32.021  1.00  0.00     0.029 A 
ATOM     68  N   UNL A   1      40.430  33.407  29.940  1.00  0.00    -0.354 N 
ATOM     69  N   UNL A   1      43.634  31.816  29.500  1.00  0.00    -0.248 NA
ATOM     70  C   UNL A   1      45.777  32.150  28.740  1.00  0.00     0.031 C 
ATOM     71  C   UNL A   1      41.606  33.010  31.778  1.00  0.00     0.029 A 
ATOM     72  C   UNL A   1      41.698  33.478  30.478  1.00  0.00     0.049 A 
ATOM     73  H   UNL A   1      40.188  33.704  29.034  1.00  0.00     0.167 HD
ATOM     74  C   UNL A   1      43.798  33.174  29.398  1.00  0.00     0.074 A 
ATOM     75  C   UNL A   1      45.160  33.333  28.925  1.00  0.00     0.031 C 
ATOM     76  C   UNL A   1      42.792  34.046  29.707  1.00  0.00     0.037 A 
BRANCH  63  77
ATOM     77  C   UNL A   1      36.926  32.850  30.899  1.00  0.00     0.064 A 
ATOM     78  C   UNL A   1      36.062  33.604  30.072  1.00  0.00     0.173 A 
ATOM     79  C   UNL A   1      36.450  32.646  32.208  1.00  0.00     0.173 A 
ATOM     80  F   UNL A   1      36.345  33.824  28.781  1.00  0.00    -0.203 F 
ATOM     81  C   UNL A   1      34.873  34.170  30.539  1.00  0.00     0.198 A 
ATOM     82  C   UNL A   1      35.288  33.256  32.691  1.00  0.00     0.198 A 
ATOM     83  F   UNL A   1      37.055  31.799  33.048  1.00  0.00    -0.203 F 
ATOM     84  F   UNL A   1      34.097  34.872  29.702  1.00  0.00    -0.200 F 
ATOM     85  C   UNL A   1      34.501  34.023  31.858  1.00  0.00     0.200 A 
ATOM     86  F   UNL A   1      34.934  33.085  33.973  1.00  0.00    -0.200 F 
ATOM     87  F   UNL A   1      33.379  34.592  32.316  1.00  0.00    -0.200 F 
ENDBRANCH  63  77
BRANCH  64  88
ATOM     88  C   UNL A   1      45.343  28.874  27.980  1.00  0.00     0.064 A 
ATOM     89  C   UNL A   1      46.276  27.850  28.247  1.00  0.00     0.173 A 
ATOM     90  C   UNL A   1      44.570  28.756  26.818  1.00  0.00     0.173 A 
ATOM     91  F   UNL A   1      47.047  27.918  29.345  1.00  0.00    -0.203 F 
ATOM     92  C   UNL A   1      46.314  26.687  27.481  1.00  0.00     0.198 A 
ATOM     93  C   UNL A   1      44.634  27.598  26.037  1.00  0.00     0.198 A 
ATOM     94  F   UNL A   1      43.653  29.686  26.518  1.00  0.00    -0.203 F 
ATOM     95  F   UNL A   1      47.104  25.668  27.853  1.00  0.00    -0.200 F 
ATOM     96  C   UNL A   1      45.466  26.547  26.397  1.00  0.00     0.200 A 
ATOM     97  F   UNL A   1      43.798  27.449  24.999  1.00  0.00    -0.200 F 
ATOM     98  F   UNL A   1      45.415  25.386  25.731  1.00  0.00    -0.200 F 
ENDBRANCH  64  88
BRANCH  76  99
ATOM     99  C   UNL A   1      42.735  35.523  29.383  1.00  0.00     0.064 A 
ATOM    100  C   UNL A   1      43.364  36.521  30.143  1.00  0.00     0.173 A 
ATOM    101  C   UNL A   1      42.174  35.962  28.155  1.00  0.00     0.173 A 
ATOM    102  F   UNL A   1      44.023  36.229  31.271  1.00  0.00    -0.203 F 
ATOM    103  C   UNL A   1      43.397  37.856  29.728  1.00  0.00     0.198 A 
ATOM    104  C   UNL A   1      42.269  37.279  27.713  1.00  0.00     0.198 A 
ATOM    105  F   UNL A   1      41.547  35.116  27.324  1.00  0.00    -0.203 F 
ATOM    106  F   UNL A   1      43.982  38.777  30.507  1.00  0.00    -0.200 F 
ATOM    107  C   UNL A   1      42.870  38.231  28.506  1.00  0.00     0.200 A 
ATOM    108  F   UNL A   1      41.800  37.611  26.500  1.00  0.00    -0.200 F 
ATOM    109  F   UNL A   1      42.960  39.500  28.087  1.00  0.00    -0.200 F 
ENDBRANCH  76  99
ENDBRANCH  50  51
ENDBRANCH  42  45
ENDBRANCH  40  41
ENDBRANCH  39  40
ENDBRANCH  38  39
ENDBRANCH   3  38
TORSDOF 17
ENDMDL
MODEL 3
REMARK VINA RESULT:     -14.4      3.130      9.903
REMARK SMILES Cc1ccc(S(=O)(=O)n2cc(C(=O)C(=O)N[C@@H](Cc3cnc[nH]3)C(=O)NCCCNC(=O)c3ccc(-c4c5nc(c(-c6c(F)c(F)c(F)c(F)c6F)c6ccc([nH]6)c(-c6c(F)c(F)c(F)c(F)c6F)c6nc(c(-c7c(F)c(F)c(F)c(F)c7F)c7ccc4[nH]7)C=C6)C=C5)cc3)c3ccccc32)cc1
REMARK SMILES IDX 24 1 25 2 26 3 17 5 16 6 14 7 15 8 12 10 13 11 11 12 9 13
REMARK SMILES IDX 10 14 101 15 96 16 100 17 97 18 99 19 98 20 6 21 7 22 8 23
REMARK SMILES IDX 5 24 1 25 2 26 3 27 103 28 4 29 102 30 18 31 19 32 20 33
REMARK SMILES IDX 23 34 21 35 22 36 27 38 28 39 29 40 30 41 31 42 32 44 33 45
REMARK SMILES IDX 34 46 95 47 35 48 94 49 36 50 37 51 38 52 88 53 39 54 93 55
REMARK SMILES IDX 87 56 89 57 40 58 92 59 86 60 85 61 41 63 73 64 53 65 72 66
REMARK SMILES IDX 54 67 57 68 71 69 90 70 55 71 56 72 70 74 91 75 58 76 42 77
REMARK SMILES IDX 43 78 51 79 44 80 45 81 49 82 52 83 46 84 47 85 50 86 48 87
REMARK SMILES IDX 74 88 75 89 83 90 76 91 77 92 81 93 84 94 78 95 79 96 82 97
REMARK SMILES IDX 80 98 59 99 60 100 68 101 61 102 62 103 66 104 69 105 63 106
REMARK SMILES IDX 64 107 67 108 65 109
REMARK H PARENT 26 4 16 9 23 37 30 43 89 62 57 73
REMARK Flexibility Score: inf
ROOT
ATOM      1  C   UNL A   1      32.689  28.320  25.544  1.00  0.00     0.242 C 
ATOM      2  O   UNL A   1      33.541  27.432  25.653  1.00  0.00    -0.273 OA
ATOM      3  N   UNL A   1      32.268  28.909  26.708  1.00  0.00    -0.354 N 
ATOM      4  H   UNL A   1      32.316  28.349  27.517  1.00  0.00     0.163 HD
ENDROOT
BRANCH   1   5
ATOM      5  C   UNL A   1      32.216  28.795  24.142  1.00  0.00     0.177 C 
BRANCH   5   6
ATOM      6  N   UNL A   1      33.190  28.442  23.095  1.00  0.00    -0.337 N 
ATOM      7  C   UNL A   1      33.239  27.344  22.250  1.00  0.00     0.293 C 
ATOM      8  O   UNL A   1      33.998  27.398  21.287  1.00  0.00    -0.265 OA
ATOM      9  H   UNL A   1      33.922  29.090  22.975  1.00  0.00     0.164 HD
BRANCH   7  10
ATOM     10  C   UNL A   1      32.392  26.065  22.506  1.00  0.00     0.252 C 
ATOM     11  O   UNL A   1      31.365  25.908  21.855  1.00  0.00    -0.283 OA
BRANCH  10  12
ATOM     12  C   UNL A   1      32.781  25.049  23.504  1.00  0.00     0.054 A 
ATOM     13  N   UNL A   1      33.887  23.473  24.646  1.00  0.00    -0.240 N 
ATOM     14  C   UNL A   1      33.956  24.320  23.566  1.00  0.00     0.117 A 
ATOM     15  C   UNL A   1      32.704  23.634  25.332  1.00  0.00     0.065 A 
ATOM     16  C   UNL A   1      31.975  24.596  24.616  1.00  0.00     0.012 A 
ATOM     17  C   UNL A   1      32.188  23.015  26.487  1.00  0.00     0.028 A 
ATOM     18  C   UNL A   1      30.682  24.930  25.079  1.00  0.00     0.011 A 
ATOM     19  C   UNL A   1      30.902  23.362  26.908  1.00  0.00     0.002 A 
ATOM     20  C   UNL A   1      30.156  24.305  26.213  1.00  0.00     0.001 A 
BRANCH  13  21
ATOM     21  S   UNL A   1      35.103  22.344  25.036  1.00  0.00     0.268 S 
ATOM     22  O   UNL A   1      35.228  22.423  26.491  1.00  0.00    -0.201 OA
ATOM     23  O   UNL A   1      36.208  22.625  24.160  1.00  0.00    -0.201 OA
BRANCH  21  24
ATOM     24  C   UNL A   1      34.508  20.719  24.643  1.00  0.00     0.088 A 
ATOM     25  C   UNL A   1      33.244  16.663  23.950  1.00  0.00     0.044 C 
ATOM     26  C   UNL A   1      33.684  18.080  24.175  1.00  0.00    -0.051 A 
ATOM     27  C   UNL A   1      34.992  18.346  24.596  1.00  0.00     0.005 A 
ATOM     28  C   UNL A   1      32.805  19.149  23.962  1.00  0.00     0.005 A 
ATOM     29  C   UNL A   1      35.402  19.658  24.835  1.00  0.00     0.022 A 
ATOM     30  C   UNL A   1      33.215  20.469  24.184  1.00  0.00     0.022 A 
ENDBRANCH  21  24
ENDBRANCH  13  21
ENDBRANCH  10  12
ENDBRANCH   7  10
ENDBRANCH   5   6
BRANCH   5  31
ATOM     31  C   UNL A   1      30.738  28.485  23.795  1.00  0.00     0.090 C 
BRANCH  31  32
ATOM     32  C   UNL A   1      29.906  29.590  23.234  1.00  0.00     0.037 A 
ATOM     33  C   UNL A   1      29.192  29.716  22.058  1.00  0.00     0.134 A 
ATOM     34  N   UNL A   1      29.684  30.779  23.897  1.00  0.00    -0.348 N 
ATOM     35  N   UNL A   1      28.437  30.860  22.070  1.00  0.00    -0.245 NA
ATOM     36  C   UNL A   1      28.758  31.484  23.180  1.00  0.00     0.196 A 
ATOM     37  H   UNL A   1      30.113  31.066  24.735  1.00  0.00     0.167 HD
ENDBRANCH  31  32
ENDBRANCH   5  31
ENDBRANCH   1   5
BRANCH   3  38
ATOM     38  C   UNL A   1      31.761  30.250  26.893  1.00  0.00     0.117 C 
BRANCH  38  39
ATOM     39  C   UNL A   1      32.797  31.334  27.065  1.00  0.00     0.042 C 
BRANCH  39  40
ATOM     40  C   UNL A   1      34.092  30.788  27.623  1.00  0.00     0.118 C 
BRANCH  40  41
ATOM     41  N   UNL A   1      35.078  31.783  28.051  1.00  0.00    -0.352 N 
ATOM     42  C   UNL A   1      36.366  31.593  28.540  1.00  0.00     0.251 C 
ATOM     43  H   UNL A   1      34.788  32.721  27.983  1.00  0.00     0.163 HD
ATOM     44  O   UNL A   1      37.047  32.556  28.877  1.00  0.00    -0.269 OA
BRANCH  42  45
ATOM     45  C   UNL A   1      36.979  30.239  28.503  1.00  0.00     0.039 A 
ATOM     46  C   UNL A   1      37.095  29.515  29.698  1.00  0.00     0.014 A 
ATOM     47  C   UNL A   1      37.706  29.848  27.393  1.00  0.00     0.014 A 
ATOM     48  C   UNL A   1      38.163  28.635  29.855  1.00  0.00     0.010 A 
ATOM     49  C   UNL A   1      38.881  29.180  27.615  1.00  0.00     0.010 A 
ATOM     50  C   UNL A   1      39.133  28.601  28.862  1.00  0.00    -0.014 A 
BRANCH  50  51
ATOM     51  C   UNL A   1      40.466  28.034  28.993  1.00  0.00     0.031 A 
ATOM     52  C   UNL A   1      40.655  26.598  28.682  1.00  0.00     0.074 A 
ATOM     53  C   UNL A   1      41.520  28.871  29.128  1.00  0.00     0.049 A 
ATOM     54  N   UNL A   1      41.749  25.951  28.874  1.00  0.00    -0.248 NA
ATOM     55  C   UNL A   1      39.598  25.759  28.122  1.00  0.00     0.031 C 
ATOM     56  C   UNL A   1      42.925  28.585  28.842  1.00  0.00     0.029 A 
ATOM     57  N   UNL A   1      41.547  30.142  29.730  1.00  0.00    -0.354 N 
ATOM     58  C   UNL A   1      41.639  24.725  28.257  1.00  0.00     0.074 A 
ATOM     59  C   UNL A   1      40.272  24.651  27.807  1.00  0.00     0.031 C 
ATOM     60  C   UNL A   1      43.694  29.453  29.517  1.00  0.00     0.029 A 
ATOM     61  C   UNL A   1      42.809  30.218  30.375  1.00  0.00     0.049 A 
ATOM     62  H   UNL A   1      40.845  30.831  29.709  1.00  0.00     0.167 HD
ATOM     63  C   UNL A   1      42.762  23.965  28.126  1.00  0.00     0.037 A 
ATOM     64  C   UNL A   1      42.902  30.264  31.737  1.00  0.00     0.037 A 
ATOM     65  C   UNL A   1      43.877  24.587  28.831  1.00  0.00     0.049 A 
ATOM     66  C   UNL A   1      43.654  29.094  32.332  1.00  0.00     0.074 A 
ATOM     67  C   UNL A   1      44.908  25.418  28.423  1.00  0.00     0.029 A 
ATOM     68  N   UNL A   1      43.817  24.682  30.216  1.00  0.00    -0.354 N 
ATOM     69  N   UNL A   1      43.839  27.961  31.712  1.00  0.00    -0.248 NA
ATOM     70  C   UNL A   1      44.254  29.102  33.662  1.00  0.00     0.031 C 
ATOM     71  C   UNL A   1      45.432  26.059  29.574  1.00  0.00     0.029 A 
ATOM     72  C   UNL A   1      44.739  25.597  30.680  1.00  0.00     0.049 A 
ATOM     73  H   UNL A   1      43.202  24.167  30.786  1.00  0.00     0.167 HD
ATOM     74  C   UNL A   1      44.554  27.106  32.512  1.00  0.00     0.074 A 
ATOM     75  C   UNL A   1      44.797  27.871  33.720  1.00  0.00     0.031 C 
ATOM     76  C   UNL A   1      44.877  25.842  32.107  1.00  0.00     0.037 A 
BRANCH  63  77
ATOM     77  C   UNL A   1      42.918  22.780  27.201  1.00  0.00     0.064 A 
ATOM     78  C   UNL A   1      42.183  21.595  27.433  1.00  0.00     0.173 A 
ATOM     79  C   UNL A   1      43.790  22.723  26.098  1.00  0.00     0.173 A 
ATOM     80  F   UNL A   1      41.263  21.520  28.403  1.00  0.00    -0.203 F 
ATOM     81  C   UNL A   1      42.369  20.433  26.678  1.00  0.00     0.198 A 
ATOM     82  C   UNL A   1      44.015  21.545  25.377  1.00  0.00     0.198 A 
ATOM     83  F   UNL A   1      44.407  23.815  25.636  1.00  0.00    -0.203 F 
ATOM     84  F   UNL A   1      41.637  19.342  26.947  1.00  0.00    -0.200 F 
ATOM     85  C   UNL A   1      43.307  20.398  25.670  1.00  0.00     0.200 A 
ATOM     86  F   UNL A   1      44.920  21.537  24.388  1.00  0.00    -0.200 F 
ATOM     87  F   UNL A   1      43.511  19.276  24.968  1.00  0.00    -0.200 F 
ENDBRANCH  63  77
BRANCH  64  88
ATOM     88  C   UNL A   1      41.755  30.983  32.355  1.00  0.00     0.064 A 
ATOM     89  C   UNL A   1      41.739  32.389  32.242  1.00  0.00     0.173 A 
ATOM     90  C   UNL A   1      40.536  30.341  32.602  1.00  0.00     0.173 A 
ATOM     91  F   UNL A   1      42.882  33.055  32.011  1.00  0.00    -0.203 F 
ATOM     92  C   UNL A   1      40.541  33.100  32.213  1.00  0.00     0.198 A 
ATOM     93  C   UNL A   1      39.339  31.064  32.600  1.00  0.00     0.198 A 
ATOM     94  F   UNL A   1      40.482  29.006  32.701  1.00  0.00    -0.203 F 
ATOM     95  F   UNL A   1      40.551  34.415  31.951  1.00  0.00    -0.200 F 
ATOM     96  C   UNL A   1      39.339  32.430  32.356  1.00  0.00     0.200 A 
ATOM     97  F   UNL A   1      38.171  30.416  32.716  1.00  0.00    -0.200 F 
ATOM     98  F   UNL A   1      38.182  33.090  32.210  1.00  0.00    -0.200 F 
ENDBRANCH  64  88
BRANCH  76  99
ATOM     99  C   UNL A   1      45.406  24.716  32.968  1.00  0.00     0.064 A 
ATOM    100  C   UNL A   1      46.734  24.619  33.410  1.00  0.00     0.173 A 
ATOM    101  C   UNL A   1      44.510  23.771  33.534  1.00  0.00     0.173 A 
ATOM    102  F   UNL A   1      47.661  25.510  33.036  1.00  0.00    -0.203 F 
ATOM    103  C   UNL A   1      47.142  23.636  34.316  1.00  0.00     0.198 A 
ATOM    104  C   UNL A   1      44.906  22.837  34.489  1.00  0.00     0.198 A 
ATOM    105  F   UNL A   1      43.209  23.749  33.209  1.00  0.00    -0.203 F 
ATOM    106  F   UNL A   1      48.430  23.566  34.681  1.00  0.00    -0.200 F 
ATOM    107  C   UNL A   1      46.228  22.760  34.871  1.00  0.00     0.200 A 
ATOM    108  F   UNL A   1      43.993  22.034  35.055  1.00  0.00    -0.200 F 
ATOM    109  F   UNL A   1      46.614  21.860  35.784  1.00  0.00    -0.200 F 
ENDBRANCH  76  99
ENDBRANCH  50  51
ENDBRANCH  42  45
ENDBRANCH  40  41
ENDBRANCH  39  40
ENDBRANCH  38  39
ENDBRANCH   3  38
TORSDOF 17
ENDMDL
