MODEL 1
REMARK VINA RESULT:     -11.4      0.000      0.000
REMARK SMILES COc1cc(/C=C/C(=O)NCCCNC(=O)c2ccc(-c3c4nc(c(-c5c(F)c(F)c(F)c(F)c5F)c5ccc([nH]5)c(-c5c(F)c(F)c(F)c(F)c5F)c5nc(c(-c6c(F)c(F)c(F)c(F)c6F)c6ccc3[nH]6)C=C5)C=C4)cc2)cc(OC)c1O
REMARK SMILES IDX 12 1 11 2 10 3 8 4 9 5 7 7 6 8 5 9 3 10 4 11 84 12 81 13
REMARK SMILES IDX 80 14 2 15 1 16 85 17 82 19 83 20 13 21 14 22 15 23 16 25
REMARK SMILES IDX 17 26 18 27 79 28 19 29 78 30 20 31 21 32 22 33 72 34 23 35
REMARK SMILES IDX 77 36 71 37 73 38 24 39 76 40 70 41 69 42 25 44 57 45 37 46
REMARK SMILES IDX 56 47 38 48 41 49 55 50 74 51 39 52 40 53 54 55 75 56 42 57
REMARK SMILES IDX 26 58 27 59 35 60 28 61 29 62 33 63 36 64 30 65 31 66 34 67
REMARK SMILES IDX 32 68 58 69 59 70 67 71 60 72 61 73 65 74 68 75 62 76 63 77
REMARK SMILES IDX 66 78 64 79 43 80 44 81 52 82 45 83 46 84 50 85 53 86 47 87
REMARK SMILES IDX 48 88 51 89 49 90
REMARK H PARENT 10 6 85 18 14 24 73 43 41 54
REMARK Flexibility Score: inf
ROOT
ATOM      1  C   UNL A   1      31.480  32.061  26.757  1.00  0.00     0.042 C 
ENDROOT
BRANCH   1   2
ATOM      2  C   UNL A   1      31.779  30.563  26.771  1.00  0.00     0.118 C 
BRANCH   2   3
ATOM      3  N   UNL A   1      33.005  30.270  27.493  1.00  0.00    -0.352 N 
ATOM      4  C   UNL A   1      33.975  29.345  27.264  1.00  0.00     0.244 C 
ATOM      5  O   UNL A   1      34.993  29.358  27.953  1.00  0.00    -0.270 OA
ATOM      6  H   UNL A   1      33.160  30.839  28.281  1.00  0.00     0.163 HD
BRANCH   4   7
ATOM      7  C   UNL A   1      33.869  28.375  26.153  1.00  0.00     0.072 C 
ATOM      8  C   UNL A   1      33.817  27.046  26.314  1.00  0.00     0.014 C 
BRANCH   8   9
ATOM      9  C   UNL A   1      33.761  26.091  25.200  1.00  0.00    -0.018 A 
ATOM     10  C   UNL A   1      33.689  25.563  22.832  1.00  0.00     0.165 A 
ATOM     11  C   UNL A   1      33.639  26.501  23.869  1.00  0.00     0.058 A 
ATOM     12  C   UNL A   1      33.905  24.205  23.119  1.00  0.00     0.200 A 
ATOM     13  C   UNL A   1      34.002  23.774  24.447  1.00  0.00     0.165 A 
ATOM     14  C   UNL A   1      33.929  24.727  25.474  1.00  0.00     0.058 A 
BRANCH  10  15
ATOM     15  O   UNL A   1      33.640  26.081  21.561  1.00  0.00    -0.493 OA
ATOM     16  C   UNL A   1      32.403  25.883  20.875  1.00  0.00     0.278 C 
ENDBRANCH  10  15
BRANCH  12  17
ATOM     17  O   UNL A   1      34.101  23.332  22.085  1.00  0.00    -0.502 OA
ATOM     18  H   UNL A   1      33.389  23.111  21.517  1.00  0.00     0.293 HD
ENDBRANCH  12  17
BRANCH  13  19
ATOM     19  O   UNL A   1      34.213  22.507  24.920  1.00  0.00    -0.493 OA
ATOM     20  C   UNL A   1      35.372  22.261  25.702  1.00  0.00     0.278 C 
ENDBRANCH  13  19
ENDBRANCH   8   9
ENDBRANCH   4   7
ENDBRANCH   2   3
ENDBRANCH   1   2
BRANCH   1  21
ATOM     21  C   UNL A   1      32.724  32.939  26.887  1.00  0.00     0.118 C 
BRANCH  21  22
ATOM     22  N   UNL A   1      32.432  34.221  27.515  1.00  0.00    -0.352 N 
ATOM     23  C   UNL A   1      32.964  34.798  28.637  1.00  0.00     0.251 C 
ATOM     24  H   UNL A   1      31.743  34.757  27.059  1.00  0.00     0.163 HD
ATOM     25  O   UNL A   1      32.428  35.801  29.112  1.00  0.00    -0.269 OA
BRANCH  23  26
ATOM     26  C   UNL A   1      34.164  34.238  29.294  1.00  0.00     0.039 A 
ATOM     27  C   UNL A   1      33.994  33.410  30.410  1.00  0.00     0.014 A 
ATOM     28  C   UNL A   1      35.452  34.567  28.863  1.00  0.00     0.014 A 
ATOM     29  C   UNL A   1      35.109  32.875  31.059  1.00  0.00     0.010 A 
ATOM     30  C   UNL A   1      36.562  33.983  29.472  1.00  0.00     0.010 A 
ATOM     31  C   UNL A   1      36.402  33.135  30.579  1.00  0.00    -0.014 A 
BRANCH  31  32
ATOM     32  C   UNL A   1      37.597  32.537  31.225  1.00  0.00     0.031 A 
ATOM     33  C   UNL A   1      38.344  31.419  30.550  1.00  0.00     0.074 A 
ATOM     34  C   UNL A   1      37.975  32.958  32.448  1.00  0.00     0.049 A 
ATOM     35  N   UNL A   1      39.350  30.707  30.993  1.00  0.00    -0.248 NA
ATOM     36  C   UNL A   1      37.882  31.034  29.208  1.00  0.00     0.031 C 
ATOM     37  C   UNL A   1      37.308  34.005  33.223  1.00  0.00     0.029 A 
ATOM     38  N   UNL A   1      39.000  32.543  33.260  1.00  0.00    -0.354 N 
ATOM     39  C   UNL A   1      39.631  29.786  29.993  1.00  0.00     0.074 A 
ATOM     40  C   UNL A   1      38.660  29.997  28.940  1.00  0.00     0.031 C 
ATOM     41  C   UNL A   1      37.944  34.156  34.396  1.00  0.00     0.029 A 
ATOM     42  C   UNL A   1      39.041  33.195  34.470  1.00  0.00     0.049 A 
ATOM     43  H   UNL A   1      39.645  31.846  33.003  1.00  0.00     0.167 HD
ATOM     44  C   UNL A   1      40.622  28.864  29.948  1.00  0.00     0.037 A 
ATOM     45  C   UNL A   1      39.862  33.027  35.523  1.00  0.00     0.037 A 
ATOM     46  C   UNL A   1      41.599  28.670  30.986  1.00  0.00     0.049 A 
ATOM     47  C   UNL A   1      40.958  31.999  35.445  1.00  0.00     0.074 A 
ATOM     48  C   UNL A   1      42.664  27.787  31.018  1.00  0.00     0.029 A 
ATOM     49  N   UNL A   1      41.631  29.377  32.180  1.00  0.00    -0.354 N 
ATOM     50  N   UNL A   1      41.243  31.167  34.473  1.00  0.00    -0.248 NA
ATOM     51  C   UNL A   1      41.852  31.893  36.606  1.00  0.00     0.031 C 
ATOM     52  C   UNL A   1      43.321  27.936  32.244  1.00  0.00     0.029 A 
ATOM     53  C   UNL A   1      42.692  28.942  32.959  1.00  0.00     0.049 A 
ATOM     54  H   UNL A   1      40.993  30.083  32.436  1.00  0.00     0.167 HD
ATOM     55  C   UNL A   1      42.359  30.458  34.894  1.00  0.00     0.074 A 
ATOM     56  C   UNL A   1      42.711  30.969  36.202  1.00  0.00     0.031 C 
ATOM     57  C   UNL A   1      43.032  29.469  34.254  1.00  0.00     0.037 A 
BRANCH  44  58
ATOM     58  C   UNL A   1      40.707  27.998  28.725  1.00  0.00     0.064 A 
ATOM     59  C   UNL A   1      39.993  26.794  28.630  1.00  0.00     0.173 A 
ATOM     60  C   UNL A   1      41.476  28.393  27.619  1.00  0.00     0.173 A 
ATOM     61  F   UNL A   1      39.252  26.366  29.663  1.00  0.00    -0.203 F 
ATOM     62  C   UNL A   1      40.065  26.005  27.484  1.00  0.00     0.198 A 
ATOM     63  C   UNL A   1      41.523  27.617  26.464  1.00  0.00     0.198 A 
ATOM     64  F   UNL A   1      42.173  29.539  27.655  1.00  0.00    -0.203 F 
ATOM     65  F   UNL A   1      39.409  24.838  27.434  1.00  0.00    -0.200 F 
ATOM     66  C   UNL A   1      40.824  26.420  26.400  1.00  0.00     0.200 A 
ATOM     67  F   UNL A   1      42.247  28.024  25.412  1.00  0.00    -0.200 F 
ATOM     68  F   UNL A   1      40.887  25.664  25.296  1.00  0.00    -0.200 F 
ENDBRANCH  44  58
BRANCH  45  69
ATOM     69  C   UNL A   1      39.686  33.861  36.740  1.00  0.00     0.064 A 
ATOM     70  C   UNL A   1      38.909  33.412  37.816  1.00  0.00     0.173 A 
ATOM     71  C   UNL A   1      40.287  35.124  36.850  1.00  0.00     0.173 A 
ATOM     72  F   UNL A   1      38.298  32.220  37.748  1.00  0.00    -0.203 F 
ATOM     73  C   UNL A   1      38.720  34.202  38.948  1.00  0.00     0.198 A 
ATOM     74  C   UNL A   1      40.120  35.902  37.993  1.00  0.00     0.198 A 
ATOM     75  F   UNL A   1      41.044  35.597  35.851  1.00  0.00    -0.203 F 
ATOM     76  F   UNL A   1      37.935  33.768  39.942  1.00  0.00    -0.200 F 
ATOM     77  C   UNL A   1      39.330  35.444  39.038  1.00  0.00     0.200 A 
ATOM     78  F   UNL A   1      40.723  37.095  38.084  1.00  0.00    -0.200 F 
ATOM     79  F   UNL A   1      39.151  36.203  40.128  1.00  0.00    -0.200 F 
ENDBRANCH  45  69
BRANCH  57  80
ATOM     80  C   UNL A   1      44.234  28.898  34.948  1.00  0.00     0.064 A 
ATOM     81  C   UNL A   1      44.133  27.788  35.798  1.00  0.00     0.173 A 
ATOM     82  C   UNL A   1      45.507  29.447  34.727  1.00  0.00     0.173 A 
ATOM     83  F   UNL A   1      42.937  27.239  36.052  1.00  0.00    -0.203 F 
ATOM     84  C   UNL A   1      45.262  27.262  36.421  1.00  0.00     0.198 A 
ATOM     85  C   UNL A   1      46.635  28.900  35.330  1.00  0.00     0.198 A 
ATOM     86  F   UNL A   1      45.655  30.507  33.917  1.00  0.00    -0.203 F 
ATOM     87  F   UNL A   1      45.136  26.227  37.264  1.00  0.00    -0.200 F 
ATOM     88  C   UNL A   1      46.511  27.812  36.181  1.00  0.00     0.200 A 
ATOM     89  F   UNL A   1      47.844  29.428  35.089  1.00  0.00    -0.200 F 
ATOM     90  F   UNL A   1      47.597  27.300  36.777  1.00  0.00    -0.200 F 
ENDBRANCH  57  80
ENDBRANCH  31  32
ENDBRANCH  23  26
ENDBRANCH  21  22
ENDBRANCH   1  21
TORSDOF 14
ENDMDL
MODEL 2
REMARK VINA RESULT:     -11.3      1.911      3.390
REMARK SMILES COc1cc(/C=C/C(=O)NCCCNC(=O)c2ccc(-c3c4nc(c(-c5c(F)c(F)c(F)c(F)c5F)c5ccc([nH]5)c(-c5c(F)c(F)c(F)c(F)c5F)c5nc(c(-c6c(F)c(F)c(F)c(F)c6F)c6ccc3[nH]6)C=C5)C=C4)cc2)cc(OC)c1O
REMARK SMILES IDX 12 1 11 2 10 3 8 4 9 5 7 7 6 8 5 9 3 10 4 11 84 12 81 13
REMARK SMILES IDX 80 14 2 15 1 16 85 17 82 19 83 20 13 21 14 22 15 23 16 25
REMARK SMILES IDX 17 26 18 27 79 28 19 29 78 30 20 31 21 32 22 33 72 34 23 35
REMARK SMILES IDX 77 36 71 37 73 38 24 39 76 40 70 41 69 42 25 44 57 45 37 46
REMARK SMILES IDX 56 47 38 48 41 49 55 50 74 51 39 52 40 53 54 55 75 56 42 57
REMARK SMILES IDX 26 58 27 59 35 60 28 61 29 62 33 63 36 64 30 65 31 66 34 67
REMARK SMILES IDX 32 68 58 69 59 70 67 71 60 72 61 73 65 74 68 75 62 76 63 77
REMARK SMILES IDX 66 78 64 79 43 80 44 81 52 82 45 83 46 84 50 85 53 86 47 87
REMARK SMILES IDX 48 88 51 89 49 90
REMARK H PARENT 10 6 85 18 14 24 73 43 41 54
REMARK Flexibility Score: inf
ROOT
ATOM      1  C   UNL A   1      33.362  29.086  23.759  1.00  0.00     0.042 C 
ENDROOT
BRANCH   1   2
ATOM      2  C   UNL A   1      32.174  28.388  23.098  1.00  0.00     0.118 C 
BRANCH   2   3
ATOM      3  N   UNL A   1      32.582  27.643  21.918  1.00  0.00    -0.352 N 
ATOM      4  C   UNL A   1      32.979  26.351  21.773  1.00  0.00     0.244 C 
ATOM      5  O   UNL A   1      33.169  25.902  20.644  1.00  0.00    -0.270 OA
ATOM      6  H   UNL A   1      32.567  28.162  21.082  1.00  0.00     0.163 HD
BRANCH   4   7
ATOM      7  C   UNL A   1      33.109  25.449  22.938  1.00  0.00     0.072 C 
ATOM      8  C   UNL A   1      34.193  25.383  23.725  1.00  0.00     0.014 C 
BRANCH   8   9
ATOM      9  C   UNL A   1      34.329  24.449  24.849  1.00  0.00    -0.018 A 
ATOM     10  C   UNL A   1      33.426  23.227  26.741  1.00  0.00     0.165 A 
ATOM     11  C   UNL A   1      33.285  24.198  25.744  1.00  0.00     0.058 A 
ATOM     12  C   UNL A   1      34.603  22.466  26.823  1.00  0.00     0.200 A 
ATOM     13  C   UNL A   1      35.668  22.723  25.953  1.00  0.00     0.165 A 
ATOM     14  C   UNL A   1      35.516  23.715  24.973  1.00  0.00     0.058 A 
BRANCH  10  15
ATOM     15  O   UNL A   1      32.312  23.004  27.514  1.00  0.00    -0.493 OA
ATOM     16  C   UNL A   1      31.080  23.441  26.938  1.00  0.00     0.278 C 
ENDBRANCH  10  15
BRANCH  12  17
ATOM     17  O   UNL A   1      34.659  21.423  27.706  1.00  0.00    -0.502 OA
ATOM     18  H   UNL A   1      34.857  20.560  27.400  1.00  0.00     0.293 HD
ENDBRANCH  12  17
BRANCH  13  19
ATOM     19  O   UNL A   1      36.881  22.092  25.878  1.00  0.00    -0.493 OA
ATOM     20  C   UNL A   1      38.060  22.878  25.963  1.00  0.00     0.278 C 
ENDBRANCH  13  19
ENDBRANCH   8   9
ENDBRANCH   4   7
ENDBRANCH   2   3
ENDBRANCH   1   2
BRANCH   1  21
ATOM     21  C   UNL A   1      33.277  29.132  25.284  1.00  0.00     0.118 C 
BRANCH  21  22
ATOM     22  N   UNL A   1      32.763  30.406  25.770  1.00  0.00    -0.352 N 
ATOM     23  C   UNL A   1      33.146  31.163  26.845  1.00  0.00     0.251 C 
ATOM     24  H   UNL A   1      32.023  30.782  25.240  1.00  0.00     0.163 HD
ATOM     25  O   UNL A   1      32.440  32.110  27.199  1.00  0.00    -0.269 OA
BRANCH  23  26
ATOM     26  C   UNL A   1      34.385  30.862  27.594  1.00  0.00     0.039 A 
ATOM     27  C   UNL A   1      35.371  31.850  27.687  1.00  0.00     0.014 A 
ATOM     28  C   UNL A   1      34.611  29.600  28.150  1.00  0.00     0.014 A 
ATOM     29  C   UNL A   1      36.557  31.591  28.377  1.00  0.00     0.010 A 
ATOM     30  C   UNL A   1      35.768  29.363  28.892  1.00  0.00     0.010 A 
ATOM     31  C   UNL A   1      36.754  30.354  29.009  1.00  0.00    -0.014 A 
BRANCH  31  32
ATOM     32  C   UNL A   1      37.987  30.076  29.789  1.00  0.00     0.031 A 
ATOM     33  C   UNL A   1      39.029  29.135  29.250  1.00  0.00     0.074 A 
ATOM     34  C   UNL A   1      38.139  30.623  31.011  1.00  0.00     0.049 A 
ATOM     35  N   UNL A   1      40.123  28.695  29.820  1.00  0.00    -0.248 NA
ATOM     36  C   UNL A   1      38.798  28.599  27.900  1.00  0.00     0.031 C 
ATOM     37  C   UNL A   1      37.180  31.517  31.661  1.00  0.00     0.029 A 
ATOM     38  N   UNL A   1      39.148  30.491  31.931  1.00  0.00    -0.354 N 
ATOM     39  C   UNL A   1      40.701  27.824  28.907  1.00  0.00     0.074 A 
ATOM     40  C   UNL A   1      39.814  27.760  27.764  1.00  0.00     0.031 C 
ATOM     41  C   UNL A   1      37.649  31.860  32.871  1.00  0.00     0.029 A 
ATOM     42  C   UNL A   1      38.923  31.183  33.097  1.00  0.00     0.049 A 
ATOM     43  H   UNL A   1      39.956  29.952  31.773  1.00  0.00     0.167 HD
ATOM     44  C   UNL A   1      41.875  27.156  29.002  1.00  0.00     0.037 A 
ATOM     45  C   UNL A   1      39.656  31.254  34.224  1.00  0.00     0.037 A 
ATOM     46  C   UNL A   1      42.766  27.236  30.129  1.00  0.00     0.049 A 
ATOM     47  C   UNL A   1      40.958  30.506  34.303  1.00  0.00     0.074 A 
ATOM     48  C   UNL A   1      43.995  26.626  30.306  1.00  0.00     0.029 A 
ATOM     49  N   UNL A   1      42.521  27.980  31.275  1.00  0.00    -0.354 N 
ATOM     50  N   UNL A   1      41.518  29.723  33.412  1.00  0.00    -0.248 NA
ATOM     51  C   UNL A   1      41.737  30.658  35.540  1.00  0.00     0.031 C 
ATOM     52  C   UNL A   1      44.480  26.973  31.572  1.00  0.00     0.029 A 
ATOM     53  C   UNL A   1      43.573  27.835  32.167  1.00  0.00     0.049 A 
ATOM     54  H   UNL A   1      41.718  28.528  31.432  1.00  0.00     0.167 HD
ATOM     55  C   UNL A   1      42.720  29.310  33.969  1.00  0.00     0.074 A 
ATOM     56  C   UNL A   1      42.819  29.942  35.268  1.00  0.00     0.031 C 
ATOM     57  C   UNL A   1      43.658  28.479  33.451  1.00  0.00     0.037 A 
BRANCH  44  58
ATOM     58  C   UNL A   1      42.273  26.283  27.847  1.00  0.00     0.064 A 
ATOM     59  C   UNL A   1      41.729  25.001  27.677  1.00  0.00     0.173 A 
ATOM     60  C   UNL A   1      43.173  26.748  26.875  1.00  0.00     0.173 A 
ATOM     61  F   UNL A   1      40.873  24.506  28.584  1.00  0.00    -0.203 F 
ATOM     62  C   UNL A   1      42.091  24.206  26.593  1.00  0.00     0.198 A 
ATOM     63  C   UNL A   1      43.511  25.961  25.777  1.00  0.00     0.198 A 
ATOM     64  F   UNL A   1      43.717  27.969  26.985  1.00  0.00    -0.203 F 
ATOM     65  F   UNL A   1      41.592  22.967  26.477  1.00  0.00    -0.200 F 
ATOM     66  C   UNL A   1      42.976  24.688  25.640  1.00  0.00     0.200 A 
ATOM     67  F   UNL A   1      44.356  26.433  24.850  1.00  0.00    -0.200 F 
ATOM     68  F   UNL A   1      43.317  23.925  24.594  1.00  0.00    -0.200 F 
ENDBRANCH  44  58
BRANCH  45  69
ATOM     69  C   UNL A   1      39.178  32.074  35.367  1.00  0.00     0.064 A 
ATOM     70  C   UNL A   1      39.490  33.438  35.457  1.00  0.00     0.173 A 
ATOM     71  C   UNL A   1      38.405  31.513  36.394  1.00  0.00     0.173 A 
ATOM     72  F   UNL A   1      40.244  34.014  34.509  1.00  0.00    -0.203 F 
ATOM     73  C   UNL A   1      39.066  34.204  36.540  1.00  0.00     0.198 A 
ATOM     74  C   UNL A   1      37.958  32.286  37.463  1.00  0.00     0.198 A 
ATOM     75  F   UNL A   1      38.075  30.214  36.353  1.00  0.00    -0.203 F 
ATOM     76  F   UNL A   1      39.417  35.494  36.623  1.00  0.00    -0.200 F 
ATOM     77  C   UNL A   1      38.296  33.630  37.539  1.00  0.00     0.200 A 
ATOM     78  F   UNL A   1      37.202  31.731  38.419  1.00  0.00    -0.200 F 
ATOM     79  F   UNL A   1      37.885  34.368  38.579  1.00  0.00    -0.200 F 
ENDBRANCH  45  69
BRANCH  57  80
ATOM     80  C   UNL A   1      44.885  28.231  34.277  1.00  0.00     0.064 A 
ATOM     81  C   UNL A   1      44.962  27.157  35.175  1.00  0.00     0.173 A 
ATOM     82  C   UNL A   1      46.011  29.058  34.140  1.00  0.00     0.173 A 
ATOM     83  F   UNL A   1      43.907  26.349  35.353  1.00  0.00    -0.203 F 
ATOM     84  C   UNL A   1      46.115  26.933  35.922  1.00  0.00     0.198 A 
ATOM     85  C   UNL A   1      47.171  28.813  34.868  1.00  0.00     0.198 A 
ATOM     86  F   UNL A   1      45.988  30.096  33.289  1.00  0.00    -0.203 F 
ATOM     87  F   UNL A   1      46.152  25.925  36.806  1.00  0.00    -0.200 F 
ATOM     88  C   UNL A   1      47.220  27.755  35.763  1.00  0.00     0.200 A 
ATOM     89  F   UNL A   1      48.242  29.603  34.706  1.00  0.00    -0.200 F 
ATOM     90  F   UNL A   1      48.331  27.534  36.480  1.00  0.00    -0.200 F 
ENDBRANCH  57  80
ENDBRANCH  31  32
ENDBRANCH  23  26
ENDBRANCH  21  22
ENDBRANCH   1  21
TORSDOF 14
ENDMDL
MODEL 3
REMARK VINA RESULT:     -11.3      0.516      2.054
REMARK SMILES COc1cc(/C=C/C(=O)NCCCNC(=O)c2ccc(-c3c4nc(c(-c5c(F)c(F)c(F)c(F)c5F)c5ccc([nH]5)c(-c5c(F)c(F)c(F)c(F)c5F)c5nc(c(-c6c(F)c(F)c(F)c(F)c6F)c6ccc3[nH]6)C=C5)C=C4)cc2)cc(OC)c1O
REMARK SMILES IDX 12 1 11 2 10 3 8 4 9 5 7 7 6 8 5 9 3 10 4 11 84 12 81 13
REMARK SMILES IDX 80 14 2 15 1 16 85 17 82 19 83 20 13 21 14 22 15 23 16 25
REMARK SMILES IDX 17 26 18 27 79 28 19 29 78 30 20 31 21 32 22 33 72 34 23 35
REMARK SMILES IDX 77 36 71 37 73 38 24 39 76 40 70 41 69 42 25 44 57 45 37 46
REMARK SMILES IDX 56 47 38 48 41 49 55 50 74 51 39 52 40 53 54 55 75 56 42 57
REMARK SMILES IDX 26 58 27 59 35 60 28 61 29 62 33 63 36 64 30 65 31 66 34 67
REMARK SMILES IDX 32 68 58 69 59 70 67 71 60 72 61 73 65 74 68 75 62 76 63 77
REMARK SMILES IDX 66 78 64 79 43 80 44 81 52 82 45 83 46 84 50 85 53 86 47 87
REMARK SMILES IDX 48 88 51 89 49 90
REMARK H PARENT 10 6 85 18 14 24 73 43 41 54
REMARK Flexibility Score: inf
ROOT
ATOM      1  C   UNL A   1      31.582  32.003  26.873  1.00  0.00     0.042 C 
ENDROOT
BRANCH   1   2
ATOM      2  C   UNL A   1      31.946  30.522  26.792  1.00  0.00     0.118 C 
BRANCH   2   3
ATOM      3  N   UNL A   1      33.167  30.231  27.525  1.00  0.00    -0.352 N 
ATOM      4  C   UNL A   1      34.145  29.314  27.299  1.00  0.00     0.244 C 
ATOM      5  O   UNL A   1      35.156  29.328  27.998  1.00  0.00    -0.270 OA
ATOM      6  H   UNL A   1      33.311  30.795  28.319  1.00  0.00     0.163 HD
BRANCH   4   7
ATOM      7  C   UNL A   1      34.057  28.352  26.179  1.00  0.00     0.072 C 
ATOM      8  C   UNL A   1      33.665  27.077  26.309  1.00  0.00     0.014 C 
BRANCH   8   9
ATOM      9  C   UNL A   1      33.629  26.118  25.197  1.00  0.00    -0.018 A 
ATOM     10  C   UNL A   1      33.633  25.580  22.831  1.00  0.00     0.165 A 
ATOM     11  C   UNL A   1      33.566  26.524  23.861  1.00  0.00     0.058 A 
ATOM     12  C   UNL A   1      33.806  24.220  23.131  1.00  0.00     0.200 A 
ATOM     13  C   UNL A   1      33.842  23.793  24.463  1.00  0.00     0.165 A 
ATOM     14  C   UNL A   1      33.753  24.752  25.483  1.00  0.00     0.058 A 
BRANCH  10  15
ATOM     15  O   UNL A   1      33.645  26.093  21.556  1.00  0.00    -0.493 OA
ATOM     16  C   UNL A   1      32.421  25.945  20.835  1.00  0.00     0.278 C 
ENDBRANCH  10  15
BRANCH  12  17
ATOM     17  O   UNL A   1      34.019  23.336  22.109  1.00  0.00    -0.502 OA
ATOM     18  H   UNL A   1      33.779  22.436  22.210  1.00  0.00     0.293 HD
ENDBRANCH  12  17
BRANCH  13  19
ATOM     19  O   UNL A   1      34.004  22.523  24.949  1.00  0.00    -0.493 OA
ATOM     20  C   UNL A   1      35.308  21.960  24.948  1.00  0.00     0.278 C 
ENDBRANCH  13  19
ENDBRANCH   8   9
ENDBRANCH   4   7
ENDBRANCH   2   3
ENDBRANCH   1   2
BRANCH   1  21
ATOM     21  C   UNL A   1      32.794  32.935  26.886  1.00  0.00     0.118 C 
BRANCH  21  22
ATOM     22  N   UNL A   1      32.519  34.189  27.575  1.00  0.00    -0.352 N 
ATOM     23  C   UNL A   1      33.049  34.699  28.730  1.00  0.00     0.251 C 
ATOM     24  H   UNL A   1      31.845  34.761  27.140  1.00  0.00     0.163 HD
ATOM     25  O   UNL A   1      32.526  35.687  29.250  1.00  0.00    -0.269 OA
BRANCH  23  26
ATOM     26  C   UNL A   1      34.232  34.083  29.370  1.00  0.00     0.039 A 
ATOM     27  C   UNL A   1      34.032  33.131  30.376  1.00  0.00     0.014 A 
ATOM     28  C   UNL A   1      35.530  34.477  29.034  1.00  0.00     0.014 A 
ATOM     29  C   UNL A   1      35.129  32.541  31.007  1.00  0.00     0.010 A 
ATOM     30  C   UNL A   1      36.624  33.842  29.619  1.00  0.00     0.010 A 
ATOM     31  C   UNL A   1      36.435  32.872  30.615  1.00  0.00    -0.014 A 
BRANCH  31  32
ATOM     32  C   UNL A   1      37.614  32.219  31.239  1.00  0.00     0.031 A 
ATOM     33  C   UNL A   1      38.363  31.144  30.502  1.00  0.00     0.074 A 
ATOM     34  C   UNL A   1      37.973  32.552  32.494  1.00  0.00     0.049 A 
ATOM     35  N   UNL A   1      39.356  30.394  30.913  1.00  0.00    -0.248 NA
ATOM     36  C   UNL A   1      37.922  30.855  29.129  1.00  0.00     0.031 C 
ATOM     37  C   UNL A   1      37.301  33.550  33.328  1.00  0.00     0.029 A 
ATOM     38  N   UNL A   1      38.980  32.074  33.294  1.00  0.00    -0.354 N 
ATOM     39  C   UNL A   1      39.647  29.541  29.857  1.00  0.00     0.074 A 
ATOM     40  C   UNL A   1      38.697  29.832  28.804  1.00  0.00     0.031 C 
ATOM     41  C   UNL A   1      37.917  33.615  34.519  1.00  0.00     0.029 A 
ATOM     42  C   UNL A   1      39.005  32.641  34.546  1.00  0.00     0.049 A 
ATOM     43  H   UNL A   1      39.624  31.390  33.000  1.00  0.00     0.167 HD
ATOM     44  C   UNL A   1      40.632  28.615  29.766  1.00  0.00     0.037 A 
ATOM     45  C   UNL A   1      39.806  32.394  35.599  1.00  0.00     0.037 A 
ATOM     46  C   UNL A   1      41.588  28.342  30.805  1.00  0.00     0.049 A 
ATOM     47  C   UNL A   1      40.895  31.364  35.470  1.00  0.00     0.074 A 
ATOM     48  C   UNL A   1      42.646  27.449  30.795  1.00  0.00     0.029 A 
ATOM     49  N   UNL A   1      41.605  28.965  32.045  1.00  0.00    -0.354 N 
ATOM     50  N   UNL A   1      41.190  30.598  34.448  1.00  0.00    -0.248 NA
ATOM     51  C   UNL A   1      41.767  31.171  36.636  1.00  0.00     0.031 C 
ATOM     52  C   UNL A   1      43.282  27.508  32.040  1.00  0.00     0.029 A 
ATOM     53  C   UNL A   1      42.648  28.468  32.811  1.00  0.00     0.049 A 
ATOM     54  H   UNL A   1      40.968  29.657  32.337  1.00  0.00     0.167 HD
ATOM     55  C   UNL A   1      42.293  29.851  34.839  1.00  0.00     0.074 A 
ATOM     56  C   UNL A   1      42.626  30.269  36.184  1.00  0.00     0.031 C 
ATOM     57  C   UNL A   1      42.969  28.903  34.144  1.00  0.00     0.037 A 
BRANCH  44  58
ATOM     58  C   UNL A   1      40.732  27.834  28.488  1.00  0.00     0.064 A 
ATOM     59  C   UNL A   1      41.516  28.283  27.415  1.00  0.00     0.173 A 
ATOM     60  C   UNL A   1      40.073  26.602  28.348  1.00  0.00     0.173 A 
ATOM     61  F   UNL A   1      42.159  29.458  27.494  1.00  0.00    -0.203 F 
ATOM     62  C   UNL A   1      41.616  27.542  26.240  1.00  0.00     0.198 A 
ATOM     63  C   UNL A   1      40.197  25.851  27.182  1.00  0.00     0.198 A 
ATOM     64  F   UNL A   1      39.315  26.124  29.346  1.00  0.00    -0.203 F 
ATOM     65  F   UNL A   1      42.336  28.014  25.212  1.00  0.00    -0.200 F 
ATOM     66  C   UNL A   1      40.963  26.324  26.126  1.00  0.00     0.200 A 
ATOM     67  F   UNL A   1      39.576  24.668  27.078  1.00  0.00    -0.200 F 
ATOM     68  F   UNL A   1      41.066  25.610  24.998  1.00  0.00    -0.200 F 
ENDBRANCH  44  58
BRANCH  45  69
ATOM     69  C   UNL A   1      39.615  33.145  36.866  1.00  0.00     0.064 A 
ATOM     70  C   UNL A   1      40.368  34.295  37.144  1.00  0.00     0.173 A 
ATOM     71  C   UNL A   1      38.681  32.729  37.826  1.00  0.00     0.173 A 
ATOM     72  F   UNL A   1      41.288  34.720  36.265  1.00  0.00    -0.203 F 
ATOM     73  C   UNL A   1      40.210  34.987  38.342  1.00  0.00     0.198 A 
ATOM     74  C   UNL A   1      38.504  33.438  39.012  1.00  0.00     0.198 A 
ATOM     75  F   UNL A   1      37.932  31.639  37.606  1.00  0.00    -0.203 F 
ATOM     76  F   UNL A   1      40.975  36.056  38.602  1.00  0.00    -0.200 F 
ATOM     77  C   UNL A   1      39.275  34.562  39.273  1.00  0.00     0.200 A 
ATOM     78  F   UNL A   1      37.589  33.032  39.903  1.00  0.00    -0.200 F 
ATOM     79  F   UNL A   1      39.121  35.229  40.425  1.00  0.00    -0.200 F 
ENDBRANCH  45  69
BRANCH  57  80
ATOM     80  C   UNL A   1      44.154  28.275  34.818  1.00  0.00     0.064 A 
ATOM     81  C   UNL A   1      45.434  28.841  34.731  1.00  0.00     0.173 A 
ATOM     82  C   UNL A   1      43.998  27.113  35.590  1.00  0.00     0.173 A 
ATOM     83  F   UNL A   1      45.637  29.941  33.992  1.00  0.00    -0.203 F 
ATOM     84  C   UNL A   1      46.519  28.253  35.375  1.00  0.00     0.198 A 
ATOM     85  C   UNL A   1      45.080  26.545  36.255  1.00  0.00     0.198 A 
ATOM     86  F   UNL A   1      42.791  26.537  35.708  1.00  0.00    -0.203 F 
ATOM     87  F   UNL A   1      47.742  28.787  35.243  1.00  0.00    -0.200 F 
ATOM     88  C   UNL A   1      46.341  27.112  36.142  1.00  0.00     0.200 A 
ATOM     89  F   UNL A   1      44.904  25.448  37.004  1.00  0.00    -0.200 F 
ATOM     90  F   UNL A   1      47.386  26.551  36.766  1.00  0.00    -0.200 F 
ENDBRANCH  57  80
ENDBRANCH  31  32
ENDBRANCH  23  26
ENDBRANCH  21  22
ENDBRANCH   1  21
TORSDOF 14
ENDMDL
