MODEL 1
REMARK VINA RESULT:     -14.4      0.000      0.000
REMARK SMILES C[C@H]1c2ccc(O)cc2OC(=O)[C@@H]1CC(=O)N[C@@H](CC1=c2ccccc2=NC1)C(=O)NCCCNC(=O)c1ccc(-c2c3nc(c(-c4c(F)c(F)c(F)c(F)c4F)c4ccc([nH]4)c(-c4c(F)c(F)c(F)c(F)c4F)c4nc(c(-c5c(F)c(F)c(F)c(F)c5F)c5ccc2[nH]5)C=C4)C=C3)cc1
REMARK SMILES IDX 32 1 31 2 29 3 30 4 18 6 17 7 15 8 16 9 14 11 13 12 1 13
REMARK SMILES IDX 2 14 3 15 4 16 9 17 11 18 5 19 8 20 10 21 12 22 6 23 7 24
REMARK SMILES IDX 19 26 20 27 21 28 28 29 22 30 26 31 27 32 23 33 25 34 24 35
REMARK SMILES IDX 33 36 34 37 35 38 36 39 37 41 38 42 39 43 100 44 40 45 99 46
REMARK SMILES IDX 41 47 42 48 43 49 93 50 44 51 98 52 92 53 94 54 45 55 97 56
REMARK SMILES IDX 91 57 90 58 46 60 78 61 58 62 77 63 59 64 62 65 76 66 95 67
REMARK SMILES IDX 60 68 61 69 75 71 96 72 63 73 47 74 48 75 56 76 49 77 50 78
REMARK SMILES IDX 54 79 57 80 51 81 52 82 55 83 53 84 79 85 80 86 88 87 81 88
REMARK SMILES IDX 82 89 86 90 89 91 83 92 84 93 87 94 85 95 64 96 65 97 73 98
REMARK SMILES IDX 66 99 67 100 71 101 74 102 68 103 69 104 72 105 70 106
REMARK H PARENT 31 5 17 10 7 25 35 40 94 59 62 70
REMARK Flexibility Score: inf
ROOT
ATOM      1  C   UNL A   1      31.786  27.253  26.488  1.00  0.00     0.117 C 
ENDROOT
BRANCH   1   2
ATOM      2  N   UNL A   1      30.588  26.755  25.880  1.00  0.00    -0.354 N 
ATOM      3  C   UNL A   1      30.589  26.192  24.626  1.00  0.00     0.242 C 
ATOM      4  O   UNL A   1      29.903  25.176  24.472  1.00  0.00    -0.273 OA
ATOM      5  H   UNL A   1      29.738  26.818  26.376  1.00  0.00     0.163 HD
BRANCH   3   6
ATOM      6  C   UNL A   1      31.455  26.744  23.445  1.00  0.00     0.175 C 
BRANCH   6   7
ATOM      7  N   UNL A   1      32.081  25.773  22.540  1.00  0.00    -0.344 N 
ATOM      8  C   UNL A   1      33.294  25.153  22.624  1.00  0.00     0.221 C 
ATOM      9  O   UNL A   1      33.662  24.456  21.676  1.00  0.00    -0.275 OA
ATOM     10  H   UNL A   1      31.544  25.533  21.750  1.00  0.00     0.164 HD
BRANCH   8  11
ATOM     11  C   UNL A   1      34.166  25.289  23.863  1.00  0.00     0.116 C 
BRANCH  11  12
ATOM     12  C   UNL A   1      34.956  24.009  24.221  1.00  0.00     0.116 C 
ATOM     13  C   UNL A   1      35.010  21.455  24.230  1.00  0.00     0.014 C 
ATOM     14  C   UNL A   1      34.141  22.707  24.046  1.00  0.00     0.034 C 
ATOM     15  C   UNL A   1      33.000  22.710  25.031  1.00  0.00    -0.001 A 
ATOM     16  C   UNL A   1      31.789  22.064  24.771  1.00  0.00     0.011 A 
ATOM     17  C   UNL A   1      33.134  23.426  26.225  1.00  0.00     0.138 A 
ATOM     18  C   UNL A   1      35.400  24.033  25.662  1.00  0.00     0.315 C 
ATOM     19  C   UNL A   1      30.716  22.202  25.657  1.00  0.00     0.047 A 
ATOM     20  C   UNL A   1      32.066  23.605  27.097  1.00  0.00     0.093 A 
ATOM     21  O   UNL A   1      34.376  23.968  26.598  1.00  0.00    -0.426 OA
ATOM     22  O   UNL A   1      36.572  24.174  25.995  1.00  0.00    -0.251 OA
ATOM     23  C   UNL A   1      30.855  22.998  26.794  1.00  0.00     0.119 A 
BRANCH  23  24
ATOM     24  O   UNL A   1      29.812  23.200  27.648  1.00  0.00    -0.508 OA
ATOM     25  H   UNL A   1      29.750  24.002  28.129  1.00  0.00     0.293 HD
ENDBRANCH  23  24
ENDBRANCH  11  12
ENDBRANCH   8  11
ENDBRANCH   6   7
BRANCH   6  26
ATOM     26  C   UNL A   1      30.998  28.057  22.720  1.00  0.00     0.068 C 
BRANCH  26  27
ATOM     27  C   UNL A   1      29.790  28.865  23.178  1.00  0.00    -0.037 C 
ATOM     28  C   UNL A   1      29.650  30.178  22.919  1.00  0.00     0.001 A 
ATOM     29  C   UNL A   1      28.458  28.192  23.126  1.00  0.00     0.174 C 
ATOM     30  C   UNL A   1      29.374  31.245  23.884  1.00  0.00     0.010 A 
ATOM     31  C   UNL A   1      28.427  30.073  22.066  1.00  0.00     0.065 A 
ATOM     32  N   UNL A   1      27.692  29.013  22.163  1.00  0.00    -0.280 NA
ATOM     33  C   UNL A   1      28.694  32.327  23.442  1.00  0.00     0.001 A 
ATOM     34  C   UNL A   1      28.148  31.303  21.303  1.00  0.00     0.028 A 
ATOM     35  C   UNL A   1      28.309  32.419  22.034  1.00  0.00     0.002 A 
ENDBRANCH  26  27
ENDBRANCH   6  26
ENDBRANCH   3   6
ENDBRANCH   1   2
BRANCH   1  36
ATOM     36  C   UNL A   1      31.787  28.626  27.126  1.00  0.00     0.042 C 
BRANCH  36  37
ATOM     37  C   UNL A   1      32.279  29.728  26.186  1.00  0.00     0.118 C 
BRANCH  37  38
ATOM     38  N   UNL A   1      32.207  31.100  26.711  1.00  0.00    -0.352 N 
ATOM     39  C   UNL A   1      33.084  31.969  27.333  1.00  0.00     0.251 C 
ATOM     40  H   UNL A   1      31.315  31.498  26.588  1.00  0.00     0.163 HD
ATOM     41  O   UNL A   1      32.701  33.087  27.639  1.00  0.00    -0.269 OA
BRANCH  39  42
ATOM     42  C   UNL A   1      34.462  31.563  27.698  1.00  0.00     0.039 A 
ATOM     43  C   UNL A   1      34.798  30.234  27.876  1.00  0.00     0.014 A 
ATOM     44  C   UNL A   1      35.446  32.541  27.900  1.00  0.00     0.014 A 
ATOM     45  C   UNL A   1      35.954  29.905  28.562  1.00  0.00     0.010 A 
ATOM     46  C   UNL A   1      36.698  32.186  28.422  1.00  0.00     0.010 A 
ATOM     47  C   UNL A   1      36.929  30.873  28.849  1.00  0.00    -0.014 A 
BRANCH  47  48
ATOM     48  C   UNL A   1      38.141  30.460  29.615  1.00  0.00     0.031 A 
ATOM     49  C   UNL A   1      38.302  30.814  31.072  1.00  0.00     0.074 A 
ATOM     50  C   UNL A   1      39.050  29.658  29.023  1.00  0.00     0.049 A 
ATOM     51  N   UNL A   1      39.273  30.499  31.894  1.00  0.00    -0.248 NA
ATOM     52  C   UNL A   1      37.252  31.639  31.690  1.00  0.00     0.031 C 
ATOM     53  C   UNL A   1      39.013  29.239  27.620  1.00  0.00     0.029 A 
ATOM     54  N   UNL A   1      40.143  29.001  29.531  1.00  0.00    -0.354 N 
ATOM     55  C   UNL A   1      38.980  31.130  33.097  1.00  0.00     0.074 A 
ATOM     56  C   UNL A   1      37.745  31.856  32.900  1.00  0.00     0.031 C 
ATOM     57  C   UNL A   1      39.953  28.311  27.410  1.00  0.00     0.029 A 
ATOM     58  C   UNL A   1      40.741  28.154  28.628  1.00  0.00     0.049 A 
ATOM     59  H   UNL A   1      40.467  29.122  30.453  1.00  0.00     0.167 HD
ATOM     60  C   UNL A   1      39.674  31.101  34.259  1.00  0.00     0.037 A 
ATOM     61  C   UNL A   1      41.817  27.355  28.746  1.00  0.00     0.037 A 
ATOM     62  C   UNL A   1      40.866  30.320  34.472  1.00  0.00     0.049 A 
ATOM     63  C   UNL A   1      42.563  27.331  30.046  1.00  0.00     0.074 A 
ATOM     64  C   UNL A   1      41.610  30.184  35.631  1.00  0.00     0.029 A 
ATOM     65  N   UNL A   1      41.480  29.535  33.507  1.00  0.00    -0.354 N 
ATOM     66  N   UNL A   1      42.283  27.952  31.165  1.00  0.00    -0.248 NA
ATOM     67  C   UNL A   1      43.788  26.523  30.091  1.00  0.00     0.031 C 
ATOM     68  C   UNL A   1      42.700  29.353  35.356  1.00  0.00     0.029 A 
ATOM     69  C   UNL A   1      42.610  28.931  34.039  1.00  0.00     0.049 A 
ATOM     70  H   UNL A   1      41.162  29.422  32.583  1.00  0.00     0.167 HD
ATOM     71  C   UNL A   1      43.303  27.625  32.045  1.00  0.00     0.074 A 
ATOM     72  C   UNL A   1      44.189  26.720  31.341  1.00  0.00     0.031 C 
ATOM     73  C   UNL A   1      43.492  28.049  33.318  1.00  0.00     0.037 A 
BRANCH  60  74
ATOM     74  C   UNL A   1      39.184  31.956  35.394  1.00  0.00     0.064 A 
ATOM     75  C   UNL A   1      38.391  31.439  36.429  1.00  0.00     0.173 A 
ATOM     76  C   UNL A   1      39.564  33.305  35.471  1.00  0.00     0.173 A 
ATOM     77  F   UNL A   1      37.989  30.160  36.398  1.00  0.00    -0.203 F 
ATOM     78  C   UNL A   1      37.979  32.246  37.487  1.00  0.00     0.198 A 
ATOM     79  C   UNL A   1      39.175  34.102  36.545  1.00  0.00     0.198 A 
ATOM     80  F   UNL A   1      40.329  33.849  34.512  1.00  0.00    -0.203 F 
ATOM     81  F   UNL A   1      37.187  31.742  38.444  1.00  0.00    -0.200 F 
ATOM     82  C   UNL A   1      38.378  33.574  37.548  1.00  0.00     0.200 A 
ATOM     83  F   UNL A   1      39.574  35.380  36.609  1.00  0.00    -0.200 F 
ATOM     84  F   UNL A   1      37.990  34.345  38.574  1.00  0.00    -0.200 F 
ENDBRANCH  60  74
BRANCH  61  85
ATOM     85  C   UNL A   1      42.247  26.545  27.578  1.00  0.00     0.064 A 
ATOM     86  C   UNL A   1      43.236  27.009  26.701  1.00  0.00     0.173 A 
ATOM     87  C   UNL A   1      41.740  25.253  27.368  1.00  0.00     0.173 A 
ATOM     88  F   UNL A   1      43.737  28.244  26.849  1.00  0.00    -0.203 F 
ATOM     89  C   UNL A   1      43.712  26.203  25.668  1.00  0.00     0.198 A 
ATOM     90  C   UNL A   1      42.240  24.438  26.356  1.00  0.00     0.198 A 
ATOM     91  F   UNL A   1      40.796  24.762  28.186  1.00  0.00    -0.203 F 
ATOM     92  F   UNL A   1      44.652  26.672  24.836  1.00  0.00    -0.200 F 
ATOM     93  C   UNL A   1      43.227  24.915  25.507  1.00  0.00     0.200 A 
ATOM     94  F   UNL A   1      41.784  23.185  26.222  1.00  0.00    -0.200 F 
ATOM     95  F   UNL A   1      43.712  24.128  24.536  1.00  0.00    -0.200 F 
ENDBRANCH  61  85
BRANCH  73  96
ATOM     96  C   UNL A   1      44.712  27.551  34.032  1.00  0.00     0.064 A 
ATOM     97  C   UNL A   1      44.700  26.332  34.727  1.00  0.00     0.173 A 
ATOM     98  C   UNL A   1      45.917  28.264  33.972  1.00  0.00     0.173 A 
ATOM     99  F   UNL A   1      43.565  25.622  34.825  1.00  0.00    -0.203 F 
ATOM    100  C   UNL A   1      45.849  25.854  35.348  1.00  0.00     0.198 A 
ATOM    101  C   UNL A   1      47.072  27.770  34.572  1.00  0.00     0.198 A 
ATOM    102  F   UNL A   1      45.979  29.432  33.313  1.00  0.00    -0.203 F 
ATOM    103  F   UNL A   1      45.808  24.704  36.035  1.00  0.00    -0.200 F 
ATOM    104  C   UNL A   1      47.035  26.567  35.263  1.00  0.00     0.200 A 
ATOM    105  F   UNL A   1      48.219  28.455  34.479  1.00  0.00    -0.200 F 
ATOM    106  F   UNL A   1      48.144  26.099  35.851  1.00  0.00    -0.200 F 
ENDBRANCH  73  96
ENDBRANCH  47  48
ENDBRANCH  39  42
ENDBRANCH  37  38
ENDBRANCH  36  37
ENDBRANCH   1  36
TORSDOF 16
ENDMDL
MODEL 2
REMARK VINA RESULT:     -14.3      1.924      7.508
REMARK SMILES C[C@H]1c2ccc(O)cc2OC(=O)[C@@H]1CC(=O)N[C@@H](CC1=c2ccccc2=NC1)C(=O)NCCCNC(=O)c1ccc(-c2c3nc(c(-c4c(F)c(F)c(F)c(F)c4F)c4ccc([nH]4)c(-c4c(F)c(F)c(F)c(F)c4F)c4nc(c(-c5c(F)c(F)c(F)c(F)c5F)c5ccc2[nH]5)C=C4)C=C3)cc1
REMARK SMILES IDX 32 1 31 2 29 3 30 4 18 6 17 7 15 8 16 9 14 11 13 12 1 13
REMARK SMILES IDX 2 14 3 15 4 16 9 17 11 18 5 19 8 20 10 21 12 22 6 23 7 24
REMARK SMILES IDX 19 26 20 27 21 28 28 29 22 30 26 31 27 32 23 33 25 34 24 35
REMARK SMILES IDX 33 36 34 37 35 38 36 39 37 41 38 42 39 43 100 44 40 45 99 46
REMARK SMILES IDX 41 47 42 48 43 49 93 50 44 51 98 52 92 53 94 54 45 55 97 56
REMARK SMILES IDX 91 57 90 58 46 60 78 61 58 62 77 63 59 64 62 65 76 66 95 67
REMARK SMILES IDX 60 68 61 69 75 71 96 72 63 73 47 74 48 75 56 76 49 77 50 78
REMARK SMILES IDX 54 79 57 80 51 81 52 82 55 83 53 84 79 85 80 86 88 87 81 88
REMARK SMILES IDX 82 89 86 90 89 91 83 92 84 93 87 94 85 95 64 96 65 97 73 98
REMARK SMILES IDX 66 99 67 100 71 101 74 102 68 103 69 104 72 105 70 106
REMARK H PARENT 31 5 17 10 7 25 35 40 94 59 62 70
REMARK Flexibility Score: inf
ROOT
ATOM      1  C   UNL A   1      31.606  30.381  26.826  1.00  0.00     0.117 C 
ENDROOT
BRANCH   1   2
ATOM      2  N   UNL A   1      32.812  29.630  26.629  1.00  0.00    -0.354 N 
ATOM      3  C   UNL A   1      33.021  28.877  25.499  1.00  0.00     0.242 C 
ATOM      4  O   UNL A   1      34.151  28.926  25.000  1.00  0.00    -0.273 OA
ATOM      5  H   UNL A   1      33.509  29.654  27.325  1.00  0.00     0.163 HD
BRANCH   3   6
ATOM      6  C   UNL A   1      31.893  28.039  24.811  1.00  0.00     0.175 C 
BRANCH   6   7
ATOM      7  N   UNL A   1      30.970  27.290  25.672  1.00  0.00    -0.344 N 
ATOM      8  C   UNL A   1      30.920  25.954  25.947  1.00  0.00     0.221 C 
ATOM      9  O   UNL A   1      29.974  25.530  26.615  1.00  0.00    -0.275 OA
ATOM     10  H   UNL A   1      30.282  27.834  26.119  1.00  0.00     0.164 HD
BRANCH   8  11
ATOM     11  C   UNL A   1      32.010  25.007  25.470  1.00  0.00     0.116 C 
BRANCH  11  12
ATOM     12  C   UNL A   1      32.151  23.725  26.324  1.00  0.00     0.116 C 
ATOM     13  C   UNL A   1      33.630  22.332  27.871  1.00  0.00     0.014 C 
ATOM     14  C   UNL A   1      33.575  23.505  26.883  1.00  0.00     0.034 C 
ATOM     15  C   UNL A   1      34.521  23.274  25.731  1.00  0.00    -0.001 A 
ATOM     16  C   UNL A   1      35.869  23.635  25.791  1.00  0.00     0.011 A 
ATOM     17  C   UNL A   1      34.025  22.727  24.544  1.00  0.00     0.138 A 
ATOM     18  C   UNL A   1      31.826  22.497  25.511  1.00  0.00     0.315 C 
ATOM     19  C   UNL A   1      36.676  23.519  24.655  1.00  0.00     0.047 A 
ATOM     20  C   UNL A   1      34.803  22.641  23.395  1.00  0.00     0.093 A 
ATOM     21  O   UNL A   1      32.717  22.216  24.483  1.00  0.00    -0.426 OA
ATOM     22  O   UNL A   1      30.813  21.830  25.689  1.00  0.00    -0.251 OA
ATOM     23  C   UNL A   1      36.127  23.054  23.460  1.00  0.00     0.119 A 
BRANCH  23  24
ATOM     24  O   UNL A   1      36.871  22.983  22.319  1.00  0.00    -0.508 OA
ATOM     25  H   UNL A   1      37.806  22.977  22.370  1.00  0.00     0.293 HD
ENDBRANCH  23  24
ENDBRANCH  11  12
ENDBRANCH   8  11
ENDBRANCH   6   7
BRANCH   6  26
ATOM     26  C   UNL A   1      31.207  28.609  23.521  1.00  0.00     0.068 C 
BRANCH  26  27
ATOM     27  C   UNL A   1      29.822  29.244  23.544  1.00  0.00    -0.037 C 
ATOM     28  C   UNL A   1      29.590  30.503  23.131  1.00  0.00     0.001 A 
ATOM     29  C   UNL A   1      28.664  28.371  23.188  1.00  0.00     0.174 C 
ATOM     30  C   UNL A   1      28.907  31.566  23.874  1.00  0.00     0.010 A 
ATOM     31  C   UNL A   1      28.691  30.164  21.986  1.00  0.00     0.065 A 
ATOM     32  N   UNL A   1      28.108  29.010  21.976  1.00  0.00    -0.280 NA
ATOM     33  C   UNL A   1      28.247  32.503  23.158  1.00  0.00     0.001 A 
ATOM     34  C   UNL A   1      28.485  31.293  21.060  1.00  0.00     0.028 A 
ATOM     35  C   UNL A   1      28.278  32.458  21.696  1.00  0.00     0.002 A 
ENDBRANCH  26  27
ENDBRANCH   6  26
ENDBRANCH   3   6
ENDBRANCH   1   2
BRANCH   1  36
ATOM     36  C   UNL A   1      31.593  31.865  26.529  1.00  0.00     0.042 C 
BRANCH  36  37
ATOM     37  C   UNL A   1      32.744  32.624  27.192  1.00  0.00     0.118 C 
BRANCH  37  38
ATOM     38  N   UNL A   1      32.444  33.996  27.629  1.00  0.00    -0.352 N 
ATOM     39  C   UNL A   1      32.979  34.883  28.544  1.00  0.00     0.251 C 
ATOM     40  H   UNL A   1      31.671  34.377  27.152  1.00  0.00     0.163 HD
ATOM     41  O   UNL A   1      32.487  35.994  28.658  1.00  0.00    -0.269 OA
BRANCH  39  42
ATOM     42  C   UNL A   1      34.097  34.503  29.441  1.00  0.00     0.039 A 
ATOM     43  C   UNL A   1      35.410  34.544  29.013  1.00  0.00     0.014 A 
ATOM     44  C   UNL A   1      33.824  34.062  30.744  1.00  0.00     0.014 A 
ATOM     45  C   UNL A   1      36.382  33.851  29.713  1.00  0.00     0.010 A 
ATOM     46  C   UNL A   1      34.851  33.528  31.537  1.00  0.00     0.010 A 
ATOM     47  C   UNL A   1      36.124  33.329  30.990  1.00  0.00    -0.014 A 
BRANCH  47  48
ATOM     48  C   UNL A   1      37.205  32.568  31.683  1.00  0.00     0.031 A 
ATOM     49  C   UNL A   1      37.980  31.489  30.970  1.00  0.00     0.074 A 
ATOM     50  C   UNL A   1      37.570  32.935  32.928  1.00  0.00     0.049 A 
ATOM     51  N   UNL A   1      38.977  30.762  31.413  1.00  0.00    -0.248 NA
ATOM     52  C   UNL A   1      37.585  31.169  29.589  1.00  0.00     0.031 C 
ATOM     53  C   UNL A   1      36.904  33.965  33.730  1.00  0.00     0.029 A 
ATOM     54  N   UNL A   1      38.621  32.536  33.717  1.00  0.00    -0.354 N 
ATOM     55  C   UNL A   1      39.283  29.868  30.394  1.00  0.00     0.074 A 
ATOM     56  C   UNL A   1      38.364  30.135  29.310  1.00  0.00     0.031 C 
ATOM     57  C   UNL A   1      37.624  34.201  34.833  1.00  0.00     0.029 A 
ATOM     58  C   UNL A   1      38.736  33.258  34.881  1.00  0.00     0.049 A 
ATOM     59  H   UNL A   1      39.233  31.805  33.473  1.00  0.00     0.167 HD
ATOM     60  C   UNL A   1      40.248  28.918  30.364  1.00  0.00     0.037 A 
ATOM     61  C   UNL A   1      39.618  33.166  35.893  1.00  0.00     0.037 A 
ATOM     62  C   UNL A   1      41.207  28.704  31.416  1.00  0.00     0.049 A 
ATOM     63  C   UNL A   1      40.683  32.114  35.832  1.00  0.00     0.074 A 
ATOM     64  C   UNL A   1      42.256  27.800  31.455  1.00  0.00     0.029 A 
ATOM     65  N   UNL A   1      41.242  29.408  32.611  1.00  0.00    -0.354 N 
ATOM     66  N   UNL A   1      40.944  31.263  34.870  1.00  0.00    -0.248 NA
ATOM     67  C   UNL A   1      41.556  31.986  37.007  1.00  0.00     0.031 C 
ATOM     68  C   UNL A   1      42.897  27.926  32.691  1.00  0.00     0.029 A 
ATOM     69  C   UNL A   1      42.279  28.941  33.405  1.00  0.00     0.049 A 
ATOM     70  H   UNL A   1      40.623  30.131  32.859  1.00  0.00     0.167 HD
ATOM     71  C   UNL A   1      41.999  30.488  35.325  1.00  0.00     0.074 A 
ATOM     72  C   UNL A   1      42.355  30.994  36.637  1.00  0.00     0.031 C 
ATOM     73  C   UNL A   1      42.608  29.442  34.715  1.00  0.00     0.037 A 
BRANCH  60  74
ATOM     74  C   UNL A   1      40.308  28.013  29.165  1.00  0.00     0.064 A 
ATOM     75  C   UNL A   1      39.573  26.821  29.093  1.00  0.00     0.173 A 
ATOM     76  C   UNL A   1      41.075  28.378  28.048  1.00  0.00     0.173 A 
ATOM     77  F   UNL A   1      38.833  26.419  30.137  1.00  0.00    -0.203 F 
ATOM     78  C   UNL A   1      39.621  26.018  27.956  1.00  0.00     0.198 A 
ATOM     79  C   UNL A   1      41.098  27.588  26.901  1.00  0.00     0.198 A 
ATOM     80  F   UNL A   1      41.792  29.513  28.060  1.00  0.00    -0.203 F 
ATOM     81  F   UNL A   1      38.942  24.862  27.924  1.00  0.00    -0.200 F 
ATOM     82  C   UNL A   1      40.376  26.406  26.858  1.00  0.00     0.200 A 
ATOM     83  F   UNL A   1      41.817  27.973  25.837  1.00  0.00    -0.200 F 
ATOM     84  F   UNL A   1      40.411  25.637  25.761  1.00  0.00    -0.200 F 
ENDBRANCH  60  74
BRANCH  61  85
ATOM     85  C   UNL A   1      39.491  34.090  37.049  1.00  0.00     0.064 A 
ATOM     86  C   UNL A   1      38.772  33.721  38.193  1.00  0.00     0.173 A 
ATOM     87  C   UNL A   1      40.160  35.323  37.066  1.00  0.00     0.173 A 
ATOM     88  F   UNL A   1      38.099  32.561  38.218  1.00  0.00    -0.203 F 
ATOM     89  C   UNL A   1      38.742  34.545  39.317  1.00  0.00     0.198 A 
ATOM     90  C   UNL A   1      40.156  36.130  38.200  1.00  0.00     0.198 A 
ATOM     91  F   UNL A   1      40.867  35.717  35.996  1.00  0.00    -0.203 F 
ATOM     92  F   UNL A   1      38.041  34.176  40.397  1.00  0.00    -0.200 F 
ATOM     93  C   UNL A   1      39.447  35.740  39.326  1.00  0.00     0.200 A 
ATOM     94  F   UNL A   1      40.860  37.270  38.210  1.00  0.00    -0.200 F 
ATOM     95  F   UNL A   1      39.447  36.514  40.419  1.00  0.00    -0.200 F 
ENDBRANCH  61  85
BRANCH  73  96
ATOM     96  C   UNL A   1      43.714  28.763  35.462  1.00  0.00     0.064 A 
ATOM     97  C   UNL A   1      43.449  27.722  36.365  1.00  0.00     0.173 A 
ATOM     98  C   UNL A   1      45.053  29.111  35.232  1.00  0.00     0.173 A 
ATOM     99  F   UNL A   1      42.183  27.364  36.629  1.00  0.00    -0.203 F 
ATOM    100  C   UNL A   1      44.486  27.065  37.020  1.00  0.00     0.198 A 
ATOM    101  C   UNL A   1      46.088  28.434  35.869  1.00  0.00     0.198 A 
ATOM    102  F   UNL A   1      45.356  30.097  34.372  1.00  0.00    -0.203 F 
ATOM    103  F   UNL A   1      44.209  26.095  37.904  1.00  0.00    -0.200 F 
ATOM    104  C   UNL A   1      45.803  27.414  36.765  1.00  0.00     0.200 A 
ATOM    105  F   UNL A   1      47.360  28.765  35.613  1.00  0.00    -0.200 F 
ATOM    106  F   UNL A   1      46.801  26.772  37.388  1.00  0.00    -0.200 F 
ENDBRANCH  73  96
ENDBRANCH  47  48
ENDBRANCH  39  42
ENDBRANCH  37  38
ENDBRANCH  36  37
ENDBRANCH   1  36
TORSDOF 16
ENDMDL
MODEL 3
REMARK VINA RESULT:     -14.3      4.065      9.879
REMARK SMILES C[C@H]1c2ccc(O)cc2OC(=O)[C@@H]1CC(=O)N[C@@H](CC1=c2ccccc2=NC1)C(=O)NCCCNC(=O)c1ccc(-c2c3nc(c(-c4c(F)c(F)c(F)c(F)c4F)c4ccc([nH]4)c(-c4c(F)c(F)c(F)c(F)c4F)c4nc(c(-c5c(F)c(F)c(F)c(F)c5F)c5ccc2[nH]5)C=C4)C=C3)cc1
REMARK SMILES IDX 32 1 31 2 29 3 30 4 18 6 17 7 15 8 16 9 14 11 13 12 1 13
REMARK SMILES IDX 2 14 3 15 4 16 9 17 11 18 5 19 8 20 10 21 12 22 6 23 7 24
REMARK SMILES IDX 19 26 20 27 21 28 28 29 22 30 26 31 27 32 23 33 25 34 24 35
REMARK SMILES IDX 33 36 34 37 35 38 36 39 37 41 38 42 39 43 100 44 40 45 99 46
REMARK SMILES IDX 41 47 42 48 43 49 93 50 44 51 98 52 92 53 94 54 45 55 97 56
REMARK SMILES IDX 91 57 90 58 46 60 78 61 58 62 77 63 59 64 62 65 76 66 95 67
REMARK SMILES IDX 60 68 61 69 75 71 96 72 63 73 47 74 48 75 56 76 49 77 50 78
REMARK SMILES IDX 54 79 57 80 51 81 52 82 55 83 53 84 79 85 80 86 88 87 81 88
REMARK SMILES IDX 82 89 86 90 89 91 83 92 84 93 87 94 85 95 64 96 65 97 73 98
REMARK SMILES IDX 66 99 67 100 71 101 74 102 68 103 69 104 72 105 70 106
REMARK H PARENT 31 5 17 10 7 25 35 40 94 59 62 70
REMARK Flexibility Score: inf
ROOT
ATOM      1  C   UNL A   1      34.947  23.379  23.805  1.00  0.00     0.117 C 
ENDROOT
BRANCH   1   2
ATOM      2  N   UNL A   1      33.853  22.959  22.978  1.00  0.00    -0.354 N 
ATOM      3  C   UNL A   1      32.583  22.805  23.479  1.00  0.00     0.242 C 
ATOM      4  O   UNL A   1      31.654  23.218  22.775  1.00  0.00    -0.273 OA
ATOM      5  H   UNL A   1      34.018  22.774  22.025  1.00  0.00     0.163 HD
BRANCH   3   6
ATOM      6  C   UNL A   1      32.290  22.203  24.893  1.00  0.00     0.175 C 
BRANCH   6   7
ATOM      7  N   UNL A   1      31.409  22.957  25.793  1.00  0.00    -0.344 N 
ATOM      8  C   UNL A   1      31.612  24.157  26.413  1.00  0.00     0.221 C 
ATOM      9  O   UNL A   1      30.769  24.545  27.224  1.00  0.00    -0.275 OA
ATOM     10  H   UNL A   1      30.540  22.534  25.978  1.00  0.00     0.164 HD
BRANCH   8  11
ATOM     11  C   UNL A   1      32.829  25.013  26.098  1.00  0.00     0.116 C 
BRANCH  11  12
ATOM     12  C   UNL A   1      32.569  26.535  26.189  1.00  0.00     0.116 C 
ATOM     13  C   UNL A   1      31.072  28.497  25.531  1.00  0.00     0.014 C 
ATOM     14  C   UNL A   1      31.421  27.025  25.276  1.00  0.00     0.034 C 
ATOM     15  C   UNL A   1      31.821  26.815  23.837  1.00  0.00    -0.001 A 
ATOM     16  C   UNL A   1      30.882  26.568  22.832  1.00  0.00     0.011 A 
ATOM     17  C   UNL A   1      33.178  26.815  23.501  1.00  0.00     0.138 A 
ATOM     18  C   UNL A   1      33.792  27.317  25.780  1.00  0.00     0.315 C 
ATOM     19  C   UNL A   1      31.308  26.253  21.538  1.00  0.00     0.047 A 
ATOM     20  C   UNL A   1      33.619  26.466  22.229  1.00  0.00     0.093 A 
ATOM     21  O   UNL A   1      34.148  27.200  24.442  1.00  0.00    -0.426 OA
ATOM     22  O   UNL A   1      34.472  27.954  26.577  1.00  0.00    -0.251 OA
ATOM     23  C   UNL A   1      32.671  26.173  21.258  1.00  0.00     0.119 A 
BRANCH  23  24
ATOM     24  O   UNL A   1      33.121  25.812  20.022  1.00  0.00    -0.508 OA
ATOM     25  H   UNL A   1      33.718  26.368  19.560  1.00  0.00     0.293 HD
ENDBRANCH  23  24
ENDBRANCH  11  12
ENDBRANCH   8  11
ENDBRANCH   6   7
BRANCH   6  26
ATOM     26  C   UNL A   1      32.133  20.650  25.037  1.00  0.00     0.068 C 
BRANCH  26  27
ATOM     27  C   UNL A   1      32.951  19.665  24.211  1.00  0.00    -0.037 C 
ATOM     28  C   UNL A   1      33.596  18.617  24.754  1.00  0.00     0.001 A 
ATOM     29  C   UNL A   1      32.420  19.293  22.866  1.00  0.00     0.174 C 
ATOM     30  C   UNL A   1      35.010  18.266  24.590  1.00  0.00     0.010 A 
ATOM     31  C   UNL A   1      32.826  17.540  24.059  1.00  0.00     0.065 A 
ATOM     32  N   UNL A   1      32.183  17.837  22.977  1.00  0.00    -0.280 NA
ATOM     33  C   UNL A   1      35.342  16.958  24.670  1.00  0.00     0.001 A 
ATOM     34  C   UNL A   1      33.027  16.208  24.658  1.00  0.00     0.028 A 
ATOM     35  C   UNL A   1      34.312  15.962  24.964  1.00  0.00     0.002 A 
ENDBRANCH  26  27
ENDBRANCH   6  26
ENDBRANCH   3   6
ENDBRANCH   1   2
BRANCH   1  36
ATOM     36  C   UNL A   1      36.223  22.566  23.829  1.00  0.00     0.042 C 
BRANCH  36  37
ATOM     37  C   UNL A   1      36.480  21.887  25.176  1.00  0.00     0.118 C 
BRANCH  37  38
ATOM     38  N   UNL A   1      37.670  21.025  25.245  1.00  0.00    -0.352 N 
ATOM     39  C   UNL A   1      38.921  21.110  25.826  1.00  0.00     0.251 C 
ATOM     40  H   UNL A   1      37.543  20.178  24.759  1.00  0.00     0.163 HD
ATOM     41  O   UNL A   1      39.701  20.178  25.704  1.00  0.00    -0.269 OA
BRANCH  39  42
ATOM     42  C   UNL A   1      39.372  22.329  26.540  1.00  0.00     0.039 A 
ATOM     43  C   UNL A   1      38.818  23.566  26.273  1.00  0.00     0.014 A 
ATOM     44  C   UNL A   1      40.402  22.239  27.487  1.00  0.00     0.014 A 
ATOM     45  C   UNL A   1      39.486  24.715  26.661  1.00  0.00     0.010 A 
ATOM     46  C   UNL A   1      40.961  23.404  28.034  1.00  0.00     0.010 A 
ATOM     47  C   UNL A   1      40.570  24.659  27.550  1.00  0.00    -0.014 A 
BRANCH  47  48
ATOM     48  C   UNL A   1      41.265  25.929  27.911  1.00  0.00     0.031 A 
ATOM     49  C   UNL A   1      42.630  26.256  27.358  1.00  0.00     0.074 A 
ATOM     50  C   UNL A   1      40.610  26.850  28.647  1.00  0.00     0.049 A 
ATOM     51  N   UNL A   1      43.355  27.333  27.538  1.00  0.00    -0.248 NA
ATOM     52  C   UNL A   1      43.278  25.246  26.507  1.00  0.00     0.031 C 
ATOM     53  C   UNL A   1      39.284  26.660  29.242  1.00  0.00     0.029 A 
ATOM     54  N   UNL A   1      40.932  28.143  28.973  1.00  0.00    -0.354 N 
ATOM     55  C   UNL A   1      44.555  27.105  26.876  1.00  0.00     0.074 A 
ATOM     56  C   UNL A   1      44.470  25.784  26.295  1.00  0.00     0.031 C 
ATOM     57  C   UNL A   1      38.858  27.822  29.750  1.00  0.00     0.029 A 
ATOM     58  C   UNL A   1      39.924  28.810  29.628  1.00  0.00     0.049 A 
ATOM     59  H   UNL A   1      41.800  28.555  28.757  1.00  0.00     0.167 HD
ATOM     60  C   UNL A   1      45.625  27.926  26.758  1.00  0.00     0.037 A 
ATOM     61  C   UNL A   1      39.861  30.066  30.105  1.00  0.00     0.037 A 
ATOM     62  C   UNL A   1      45.678  29.268  27.277  1.00  0.00     0.049 A 
ATOM     63  C   UNL A   1      41.055  30.960  29.954  1.00  0.00     0.074 A 
ATOM     64  C   UNL A   1      46.700  30.196  27.161  1.00  0.00     0.029 A 
ATOM     65  N   UNL A   1      44.664  29.878  28.000  1.00  0.00    -0.354 N 
ATOM     66  N   UNL A   1      42.190  30.719  29.344  1.00  0.00    -0.248 NA
ATOM     67  C   UNL A   1      40.974  32.285  30.581  1.00  0.00     0.031 C 
ATOM     68  C   UNL A   1      46.322  31.351  27.853  1.00  0.00     0.029 A 
ATOM     69  C   UNL A   1      45.046  31.162  28.359  1.00  0.00     0.049 A 
ATOM     70  H   UNL A   1      43.801  29.462  28.225  1.00  0.00     0.167 HD
ATOM     71  C   UNL A   1      42.965  31.853  29.524  1.00  0.00     0.074 A 
ATOM     72  C   UNL A   1      42.158  32.798  30.271  1.00  0.00     0.031 C 
ATOM     73  C   UNL A   1      44.238  32.082  29.119  1.00  0.00     0.037 A 
BRANCH  60  74
ATOM     74  C   UNL A   1      46.846  27.395  26.060  1.00  0.00     0.064 A 
ATOM     75  C   UNL A   1      47.060  27.578  24.686  1.00  0.00     0.173 A 
ATOM     76  C   UNL A   1      47.845  26.738  26.796  1.00  0.00     0.173 A 
ATOM     77  F   UNL A   1      46.132  28.188  23.934  1.00  0.00    -0.203 F 
ATOM     78  C   UNL A   1      48.217  27.105  24.072  1.00  0.00     0.198 A 
ATOM     79  C   UNL A   1      49.014  26.292  26.184  1.00  0.00     0.198 A 
ATOM     80  F   UNL A   1      47.695  26.543  28.116  1.00  0.00    -0.203 F 
ATOM     81  F   UNL A   1      48.382  27.255  22.750  1.00  0.00    -0.200 F 
ATOM     82  C   UNL A   1      49.197  26.470  24.823  1.00  0.00     0.200 A 
ATOM     83  F   UNL A   1      49.965  25.692  26.915  1.00  0.00    -0.200 F 
ATOM     84  F   UNL A   1      50.314  26.027  24.231  1.00  0.00    -0.200 F 
ENDBRANCH  60  74
BRANCH  61  85
ATOM     85  C   UNL A   1      38.624  30.518  30.791  1.00  0.00     0.064 A 
ATOM     86  C   UNL A   1      38.525  30.506  32.188  1.00  0.00     0.173 A 
ATOM     87  C   UNL A   1      37.549  31.054  30.064  1.00  0.00     0.173 A 
ATOM     88  F   UNL A   1      39.517  29.985  32.925  1.00  0.00    -0.203 F 
ATOM     89  C   UNL A   1      37.405  31.028  32.832  1.00  0.00     0.198 A 
ATOM     90  C   UNL A   1      36.446  31.605  30.710  1.00  0.00     0.198 A 
ATOM     91  F   UNL A   1      37.600  31.094  28.724  1.00  0.00    -0.203 F 
ATOM     92  F   UNL A   1      37.329  30.997  34.169  1.00  0.00    -0.200 F 
ATOM     93  C   UNL A   1      36.375  31.591  32.094  1.00  0.00     0.200 A 
ATOM     94  F   UNL A   1      35.466  32.170  29.991  1.00  0.00    -0.200 F 
ATOM     95  F   UNL A   1      35.315  32.126  32.716  1.00  0.00    -0.200 F 
ENDBRANCH  61  85
BRANCH  73  96
ATOM     96  C   UNL A   1      44.845  33.402  29.484  1.00  0.00     0.064 A 
ATOM     97  C   UNL A   1      45.569  33.564  30.675  1.00  0.00     0.173 A 
ATOM     98  C   UNL A   1      44.756  34.497  28.612  1.00  0.00     0.173 A 
ATOM     99  F   UNL A   1      45.668  32.550  31.548  1.00  0.00    -0.203 F 
ATOM    100  C   UNL A   1      46.169  34.781  30.985  1.00  0.00     0.198 A 
ATOM    101  C   UNL A   1      45.380  35.704  28.913  1.00  0.00     0.198 A 
ATOM    102  F   UNL A   1      44.079  34.388  27.458  1.00  0.00    -0.203 F 
ATOM    103  F   UNL A   1      46.828  34.925  32.143  1.00  0.00    -0.200 F 
ATOM    104  C   UNL A   1      46.082  35.846  30.101  1.00  0.00     0.200 A 
ATOM    105  F   UNL A   1      45.305  36.728  28.053  1.00  0.00    -0.200 F 
ATOM    106  F   UNL A   1      46.671  37.013  30.396  1.00  0.00    -0.200 F 
ENDBRANCH  73  96
ENDBRANCH  47  48
ENDBRANCH  39  42
ENDBRANCH  37  38
ENDBRANCH  36  37
ENDBRANCH   1  36
TORSDOF 16
ENDMDL
