MODEL 1
REMARK VINA RESULT:     -12.1      0.000      0.000
REMARK SMILES C[NH+]1CCC(C[N@H+](C)[C@H]2CC[C@]([NH3+])(C(=O)NCCCNC(=O)c3ccc(-c4c5nc(c(-c6c(F)c(F)c(F)c(F)c6F)c6ccc([nH]6)c(-c6c(F)c(F)c(F)c(F)c6F)c6nc(c(-c7c(F)c(F)c(F)c(F)c7F)c7ccc4[nH]7)C=C6)C=C5)cc3)C2)CC1
REMARK SMILES IDX 17 1 16 2 14 3 15 4 12 6 9 7 10 8 86 9 11 10 7 11 8 12 6 14
REMARK SMILES IDX 5 15 1 16 2 17 3 18 88 19 4 21 87 22 13 23 18 27 19 28 20 29
REMARK SMILES IDX 21 30 22 32 23 33 24 34 85 35 25 36 84 37 26 38 27 39 28 40
REMARK SMILES IDX 78 41 29 42 83 43 77 44 79 45 30 46 82 47 76 48 75 49 31 51
REMARK SMILES IDX 63 52 43 53 62 54 44 55 47 56 61 57 80 58 45 59 46 60 60 62
REMARK SMILES IDX 81 63 48 64 32 65 33 66 41 67 34 68 35 69 39 70 42 71 36 72
REMARK SMILES IDX 37 73 40 74 38 75 64 76 65 77 73 78 66 79 67 80 71 81 74 82
REMARK SMILES IDX 68 83 69 84 72 85 70 86 49 87 50 88 58 89 51 90 52 91 56 92
REMARK SMILES IDX 59 93 53 94 54 95 57 96 55 97
REMARK H PARENT 16 5 7 13 2 20 13 24 13 25 13 26 20 31 79 50 47 61
REMARK Flexibility Score: inf
ROOT
ATOM      1  C   UNL A   1      31.310  30.919  26.351  1.00  0.00     0.118 C 
ENDROOT
BRANCH   1   2
ATOM      2  N   UNL A   1      31.388  30.422  24.994  1.00  0.00    -0.351 N 
ATOM      3  C   UNL A   1      31.718  29.213  24.467  1.00  0.00     0.281 C 
ATOM      4  O   UNL A   1      31.410  29.070  23.275  1.00  0.00    -0.268 OA
ATOM      5  H   UNL A   1      31.157  31.096  24.315  1.00  0.00     0.163 HD
BRANCH   3   6
ATOM      6  C   UNL A   1      32.626  28.154  25.190  1.00  0.00     0.179 C 
ATOM      7  C   UNL A   1      32.024  25.700  25.064  1.00  0.00     0.190 C 
ATOM      8  C   UNL A   1      31.314  26.407  26.229  1.00  0.00     0.072 C 
ATOM      9  C   UNL A   1      32.710  26.866  24.301  1.00  0.00     0.144 C 
ATOM     10  C   UNL A   1      32.193  27.603  26.551  1.00  0.00     0.085 C 
BRANCH   7  11
ATOM     11  N   UNL A   1      32.806  24.551  25.599  1.00  0.00    -0.334 N 
ATOM     12  C   UNL A   1      32.052  23.915  26.692  1.00  0.00     0.332 C 
ATOM     13  H   UNL A   1      33.677  24.985  25.904  1.00  0.00     0.348 HD
BRANCH  11  14
ATOM     14  C   UNL A   1      33.255  23.511  24.655  1.00  0.00     0.266 C 
BRANCH  14  15
ATOM     15  C   UNL A   1      34.710  23.104  24.910  1.00  0.00     0.055 C 
ATOM     16  C   UNL A   1      38.637  21.943  25.823  1.00  0.00     0.332 C 
ATOM     17  N   UNL A   1      37.255  22.349  26.110  1.00  0.00    -0.337 N 
ATOM     18  C   UNL A   1      36.325  21.335  25.588  1.00  0.00     0.262 C 
ATOM     19  C   UNL A   1      37.025  23.708  25.591  1.00  0.00     0.262 C 
ATOM     20  H   UNL A   1      37.084  22.396  27.115  1.00  0.00     0.347 HD
ATOM     21  C   UNL A   1      34.856  21.769  25.637  1.00  0.00     0.071 C 
ATOM     22  C   UNL A   1      35.556  24.144  25.643  1.00  0.00     0.071 C 
ENDBRANCH  14  15
ENDBRANCH  11  14
ENDBRANCH   7  11
BRANCH   6  23
ATOM     23  N   UNL A   1      33.937  28.843  25.311  1.00  0.00    -0.345 N 
ATOM     24  H   UNL A   1      33.828  29.827  25.062  1.00  0.00     0.345 HD
ATOM     25  H   UNL A   1      34.611  28.406  24.681  1.00  0.00     0.345 HD
ATOM     26  H   UNL A   1      34.273  28.771  26.271  1.00  0.00     0.345 HD
ENDBRANCH   6  23
ENDBRANCH   3   6
ENDBRANCH   1   2
BRANCH   1  27
ATOM     27  C   UNL A   1      31.400  32.433  26.530  1.00  0.00     0.042 C 
BRANCH  27  28
ATOM     28  C   UNL A   1      32.679  32.940  27.196  1.00  0.00     0.118 C 
BRANCH  28  29
ATOM     29  N   UNL A   1      32.575  34.325  27.630  1.00  0.00    -0.352 N 
ATOM     30  C   UNL A   1      33.052  34.985  28.729  1.00  0.00     0.251 C 
ATOM     31  H   UNL A   1      32.062  34.896  27.014  1.00  0.00     0.163 HD
ATOM     32  O   UNL A   1      32.541  36.061  29.034  1.00  0.00    -0.269 OA
BRANCH  30  33
ATOM     33  C   UNL A   1      34.175  34.469  29.546  1.00  0.00     0.039 A 
ATOM     34  C   UNL A   1      35.472  34.565  29.020  1.00  0.00     0.014 A 
ATOM     35  C   UNL A   1      33.967  33.759  30.730  1.00  0.00     0.014 A 
ATOM     36  C   UNL A   1      36.548  33.965  29.681  1.00  0.00     0.010 A 
ATOM     37  C   UNL A   1      35.051  33.210  31.421  1.00  0.00     0.010 A 
ATOM     38  C   UNL A   1      36.347  33.285  30.891  1.00  0.00    -0.014 A 
BRANCH  38  39
ATOM     39  C   UNL A   1      37.478  32.619  31.587  1.00  0.00     0.031 A 
ATOM     40  C   UNL A   1      38.184  31.454  30.947  1.00  0.00     0.074 A 
ATOM     41  C   UNL A   1      37.845  33.038  32.813  1.00  0.00     0.049 A 
ATOM     42  N   UNL A   1      39.159  30.716  31.415  1.00  0.00    -0.248 NA
ATOM     43  C   UNL A   1      37.715  31.050  29.612  1.00  0.00     0.031 C 
ATOM     44  C   UNL A   1      37.214  34.129  33.555  1.00  0.00     0.029 A 
ATOM     45  N   UNL A   1      38.833  32.589  33.652  1.00  0.00    -0.354 N 
ATOM     46  C   UNL A   1      39.405  29.752  30.445  1.00  0.00     0.074 A 
ATOM     47  C   UNL A   1      38.452  29.973  29.379  1.00  0.00     0.031 C 
ATOM     48  C   UNL A   1      37.841  34.278  34.732  1.00  0.00     0.029 A 
ATOM     49  C   UNL A   1      38.900  33.278  34.838  1.00  0.00     0.049 A 
ATOM     50  H   UNL A   1      39.438  31.846  33.426  1.00  0.00     0.167 HD
ATOM     51  C   UNL A   1      40.350  28.780  30.438  1.00  0.00     0.037 A 
ATOM     52  C   UNL A   1      39.722  33.120  35.892  1.00  0.00     0.037 A 
ATOM     53  C   UNL A   1      41.321  28.584  31.483  1.00  0.00     0.049 A 
ATOM     54  C   UNL A   1      40.786  32.058  35.843  1.00  0.00     0.074 A 
ATOM     55  C   UNL A   1      42.356  27.666  31.541  1.00  0.00     0.029 A 
ATOM     56  N   UNL A   1      41.379  29.326  32.654  1.00  0.00    -0.354 N 
ATOM     57  N   UNL A   1      41.043  31.188  34.897  1.00  0.00    -0.248 NA
ATOM     58  C   UNL A   1      41.682  31.964  37.005  1.00  0.00     0.031 C 
ATOM     59  C   UNL A   1      43.022  27.833  32.762  1.00  0.00     0.029 A 
ATOM     60  C   UNL A   1      42.424  28.879  33.446  1.00  0.00     0.049 A 
ATOM     61  H   UNL A   1      40.767  30.061  32.887  1.00  0.00     0.167 HD
ATOM     62  C   UNL A   1      42.139  30.460  35.337  1.00  0.00     0.074 A 
ATOM     63  C   UNL A   1      42.510  31.000  36.629  1.00  0.00     0.031 C 
ATOM     64  C   UNL A   1      42.780  29.433  34.727  1.00  0.00     0.037 A 
BRANCH  51  65
ATOM     65  C   UNL A   1      40.383  27.854  29.257  1.00  0.00     0.064 A 
ATOM     66  C   UNL A   1      39.589  26.699  29.205  1.00  0.00     0.173 A 
ATOM     67  C   UNL A   1      41.192  28.144  28.147  1.00  0.00     0.173 A 
ATOM     68  F   UNL A   1      38.806  26.373  30.245  1.00  0.00    -0.203 F 
ATOM     69  C   UNL A   1      39.625  25.853  28.100  1.00  0.00     0.198 A 
ATOM     70  C   UNL A   1      41.206  27.310  27.032  1.00  0.00     0.198 A 
ATOM     71  F   UNL A   1      41.965  29.240  28.142  1.00  0.00    -0.203 F 
ATOM     72  F   UNL A   1      38.891  24.731  28.093  1.00  0.00    -0.200 F 
ATOM     73  C   UNL A   1      40.428  26.161  27.012  1.00  0.00     0.200 A 
ATOM     74  F   UNL A   1      41.975  27.614  25.978  1.00  0.00    -0.200 F 
ATOM     75  F   UNL A   1      40.458  25.348  25.948  1.00  0.00    -0.200 F 
ENDBRANCH  51  65
BRANCH  52  76
ATOM     76  C   UNL A   1      39.596  34.020  37.065  1.00  0.00     0.064 A 
ATOM     77  C   UNL A   1      38.838  33.642  38.181  1.00  0.00     0.173 A 
ATOM     78  C   UNL A   1      40.239  35.266  37.101  1.00  0.00     0.173 A 
ATOM     79  F   UNL A   1      38.190  32.468  38.182  1.00  0.00    -0.203 F 
ATOM     80  C   UNL A   1      38.717  34.481  39.285  1.00  0.00     0.198 A 
ATOM     81  C   UNL A   1      40.136  36.094  38.216  1.00  0.00     0.198 A 
ATOM     82  F   UNL A   1      40.979  35.670  36.059  1.00  0.00    -0.203 F 
ATOM     83  F   UNL A   1      37.957  34.110  40.326  1.00  0.00    -0.200 F 
ATOM     84  C   UNL A   1      39.370  35.704  39.305  1.00  0.00     0.200 A 
ATOM     85  F   UNL A   1      40.778  37.270  38.238  1.00  0.00    -0.200 F 
ATOM     86  F   UNL A   1      39.259  36.509  40.371  1.00  0.00    -0.200 F 
ENDBRANCH  52  76
BRANCH  64  87
ATOM     87  C   UNL A   1      43.962  28.847  35.439  1.00  0.00     0.064 A 
ATOM     88  C   UNL A   1      45.261  29.328  35.220  1.00  0.00     0.173 A 
ATOM     89  C   UNL A   1      43.789  27.811  36.369  1.00  0.00     0.173 A 
ATOM     90  F   UNL A   1      45.477  30.307  34.328  1.00  0.00    -0.203 F 
ATOM     91  C   UNL A   1      46.349  28.776  35.890  1.00  0.00     0.198 A 
ATOM     92  C   UNL A   1      44.877  27.277  37.054  1.00  0.00     0.198 A 
ATOM     93  F   UNL A   1      42.566  27.320  36.615  1.00  0.00    -0.203 F 
ATOM     94  F   UNL A   1      47.587  29.221  35.634  1.00  0.00    -0.200 F 
ATOM     95  C   UNL A   1      46.156  27.756  36.809  1.00  0.00     0.200 A 
ATOM     96  F   UNL A   1      44.689  26.298  37.948  1.00  0.00    -0.200 F 
ATOM     97  F   UNL A   1      47.205  27.227  37.454  1.00  0.00    -0.200 F 
ENDBRANCH  64  87
ENDBRANCH  38  39
ENDBRANCH  30  33
ENDBRANCH  28  29
ENDBRANCH  27  28
ENDBRANCH   1  27
TORSDOF 14
ENDMDL
MODEL 2
REMARK VINA RESULT:     -12.0      5.766     11.411
REMARK SMILES C[NH+]1CCC(C[N@H+](C)[C@H]2CC[C@]([NH3+])(C(=O)NCCCNC(=O)c3ccc(-c4c5nc(c(-c6c(F)c(F)c(F)c(F)c6F)c6ccc([nH]6)c(-c6c(F)c(F)c(F)c(F)c6F)c6nc(c(-c7c(F)c(F)c(F)c(F)c7F)c7ccc4[nH]7)C=C6)C=C5)cc3)C2)CC1
REMARK SMILES IDX 17 1 16 2 14 3 15 4 12 6 9 7 10 8 86 9 11 10 7 11 8 12 6 14
REMARK SMILES IDX 5 15 1 16 2 17 3 18 88 19 4 21 87 22 13 23 18 27 19 28 20 29
REMARK SMILES IDX 21 30 22 32 23 33 24 34 85 35 25 36 84 37 26 38 27 39 28 40
REMARK SMILES IDX 78 41 29 42 83 43 77 44 79 45 30 46 82 47 76 48 75 49 31 51
REMARK SMILES IDX 63 52 43 53 62 54 44 55 47 56 61 57 80 58 45 59 46 60 60 62
REMARK SMILES IDX 81 63 48 64 32 65 33 66 41 67 34 68 35 69 39 70 42 71 36 72
REMARK SMILES IDX 37 73 40 74 38 75 64 76 65 77 73 78 66 79 67 80 71 81 74 82
REMARK SMILES IDX 68 83 69 84 72 85 70 86 49 87 50 88 58 89 51 90 52 91 56 92
REMARK SMILES IDX 59 93 53 94 54 95 57 96 55 97
REMARK H PARENT 16 5 7 13 2 20 13 24 13 25 13 26 20 31 79 50 47 61
REMARK Flexibility Score: inf
ROOT
ATOM      1  C   UNL A   1      37.042  20.287  24.626  1.00  0.00     0.118 C 
ENDROOT
BRANCH   1   2
ATOM      2  N   UNL A   1      35.749  20.096  25.248  1.00  0.00    -0.351 N 
ATOM      3  C   UNL A   1      34.660  20.897  25.386  1.00  0.00     0.281 C 
ATOM      4  O   UNL A   1      33.628  20.307  25.737  1.00  0.00    -0.268 OA
ATOM      5  H   UNL A   1      35.636  19.207  25.654  1.00  0.00     0.163 HD
BRANCH   3   6
ATOM      6  C   UNL A   1      34.710  22.468  25.356  1.00  0.00     0.179 C 
ATOM      7  C   UNL A   1      32.887  23.752  24.162  1.00  0.00     0.190 C 
ATOM      8  C   UNL A   1      34.023  23.346  23.209  1.00  0.00     0.072 C 
ATOM      9  C   UNL A   1      33.251  23.025  25.484  1.00  0.00     0.144 C 
ATOM     10  C   UNL A   1      35.238  23.174  24.104  1.00  0.00     0.085 C 
BRANCH   7  11
ATOM     11  N   UNL A   1      32.713  25.231  24.106  1.00  0.00    -0.334 N 
ATOM     12  C   UNL A   1      32.510  25.645  22.708  1.00  0.00     0.332 C 
ATOM     13  H   UNL A   1      33.581  25.581  24.512  1.00  0.00     0.348 HD
BRANCH  11  14
ATOM     14  C   UNL A   1      31.670  25.844  24.947  1.00  0.00     0.266 C 
BRANCH  14  15
ATOM     15  C   UNL A   1      32.160  27.137  25.606  1.00  0.00     0.055 C 
ATOM     16  C   UNL A   1      33.609  30.551  27.568  1.00  0.00     0.332 C 
ATOM     17  N   UNL A   1      33.282  29.127  27.413  1.00  0.00    -0.337 N 
ATOM     18  C   UNL A   1      34.079  28.555  26.316  1.00  0.00     0.262 C 
ATOM     19  C   UNL A   1      31.827  28.973  27.251  1.00  0.00     0.262 C 
ATOM     20  H   UNL A   1      33.533  28.597  28.248  1.00  0.00     0.347 HD
ATOM     21  C   UNL A   1      33.653  27.135  25.926  1.00  0.00     0.071 C 
ATOM     22  C   UNL A   1      31.400  27.552  26.865  1.00  0.00     0.071 C 
ENDBRANCH  14  15
ENDBRANCH  11  14
ENDBRANCH   7  11
BRANCH   6  23
ATOM     23  N   UNL A   1      35.552  22.812  26.531  1.00  0.00    -0.345 N 
ATOM     24  H   UNL A   1      35.643  21.995  27.135  1.00  0.00     0.345 HD
ATOM     25  H   UNL A   1      35.114  23.572  27.052  1.00  0.00     0.345 HD
ATOM     26  H   UNL A   1      36.475  23.106  26.214  1.00  0.00     0.345 HD
ENDBRANCH   6  23
ENDBRANCH   3   6
ENDBRANCH   1   2
BRANCH   1  27
ATOM     27  C   UNL A   1      38.153  19.330  25.054  1.00  0.00     0.042 C 
BRANCH  27  28
ATOM     28  C   UNL A   1      39.290  19.962  25.855  1.00  0.00     0.118 C 
BRANCH  28  29
ATOM     29  N   UNL A   1      40.399  19.046  26.076  1.00  0.00    -0.352 N 
ATOM     30  C   UNL A   1      41.753  19.232  26.125  1.00  0.00     0.251 C 
ATOM     31  H   UNL A   1      40.120  18.112  26.217  1.00  0.00     0.163 HD
ATOM     32  O   UNL A   1      42.484  18.253  25.983  1.00  0.00    -0.269 OA
BRANCH  30  33
ATOM     33  C   UNL A   1      42.369  20.556  26.371  1.00  0.00     0.039 A 
ATOM     34  C   UNL A   1      42.313  21.080  27.671  1.00  0.00     0.014 A 
ATOM     35  C   UNL A   1      42.853  21.355  25.332  1.00  0.00     0.014 A 
ATOM     36  C   UNL A   1      42.747  22.384  27.927  1.00  0.00     0.010 A 
ATOM     37  C   UNL A   1      43.342  22.637  25.598  1.00  0.00     0.010 A 
ATOM     38  C   UNL A   1      43.271  23.173  26.892  1.00  0.00    -0.014 A 
BRANCH  38  39
ATOM     39  C   UNL A   1      43.708  24.570  27.146  1.00  0.00     0.031 A 
ATOM     40  C   UNL A   1      42.723  25.597  27.638  1.00  0.00     0.074 A 
ATOM     41  C   UNL A   1      44.983  24.924  26.899  1.00  0.00     0.049 A 
ATOM     42  N   UNL A   1      42.903  26.872  27.874  1.00  0.00    -0.248 NA
ATOM     43  C   UNL A   1      41.347  25.133  27.873  1.00  0.00     0.031 C 
ATOM     44  C   UNL A   1      46.021  24.031  26.384  1.00  0.00     0.029 A 
ATOM     45  N   UNL A   1      45.619  26.131  27.041  1.00  0.00    -0.354 N 
ATOM     46  C   UNL A   1      41.664  27.366  28.262  1.00  0.00     0.074 A 
ATOM     47  C   UNL A   1      40.731  26.262  28.194  1.00  0.00     0.031 C 
ATOM     48  C   UNL A   1      47.169  24.716  26.269  1.00  0.00     0.029 A 
ATOM     49  C   UNL A   1      46.943  26.099  26.678  1.00  0.00     0.049 A 
ATOM     50  H   UNL A   1      45.171  26.942  27.372  1.00  0.00     0.167 HD
ATOM     51  C   UNL A   1      41.338  28.621  28.655  1.00  0.00     0.037 A 
ATOM     52  C   UNL A   1      47.869  27.076  26.674  1.00  0.00     0.037 A 
ATOM     53  C   UNL A   1      42.275  29.709  28.757  1.00  0.00     0.049 A 
ATOM     54  C   UNL A   1      47.490  28.451  27.149  1.00  0.00     0.074 A 
ATOM     55  C   UNL A   1      42.055  31.002  29.202  1.00  0.00     0.029 A 
ATOM     56  N   UNL A   1      43.617  29.628  28.414  1.00  0.00    -0.354 N 
ATOM     57  N   UNL A   1      46.328  28.891  27.566  1.00  0.00    -0.248 NA
ATOM     58  C   UNL A   1      48.556  29.463  27.165  1.00  0.00     0.031 C 
ATOM     59  C   UNL A   1      43.258  31.712  29.099  1.00  0.00     0.029 A 
ATOM     60  C   UNL A   1      44.234  30.851  28.626  1.00  0.00     0.049 A 
ATOM     61  H   UNL A   1      44.063  28.821  28.071  1.00  0.00     0.167 HD
ATOM     62  C   UNL A   1      46.526  30.220  27.912  1.00  0.00     0.074 A 
ATOM     63  C   UNL A   1      47.924  30.512  27.673  1.00  0.00     0.031 C 
ATOM     64  C   UNL A   1      45.628  31.119  28.385  1.00  0.00     0.037 A 
BRANCH  51  65
ATOM     65  C   UNL A   1      39.903  28.885  29.011  1.00  0.00     0.064 A 
ATOM     66  C   UNL A   1      38.974  29.312  28.050  1.00  0.00     0.173 A 
ATOM     67  C   UNL A   1      39.444  28.676  30.320  1.00  0.00     0.173 A 
ATOM     68  F   UNL A   1      39.366  29.537  26.787  1.00  0.00    -0.203 F 
ATOM     69  C   UNL A   1      37.646  29.547  28.393  1.00  0.00     0.198 A 
ATOM     70  C   UNL A   1      38.108  28.886  30.653  1.00  0.00     0.198 A 
ATOM     71  F   UNL A   1      40.289  28.260  31.275  1.00  0.00    -0.203 F 
ATOM     72  F   UNL A   1      36.786  29.998  27.468  1.00  0.00    -0.200 F 
ATOM     73  C   UNL A   1      37.211  29.328  29.691  1.00  0.00     0.200 A 
ATOM     74  F   UNL A   1      37.688  28.664  31.906  1.00  0.00    -0.200 F 
ATOM     75  F   UNL A   1      35.931  29.550  30.019  1.00  0.00    -0.200 F 
ENDBRANCH  51  65
BRANCH  52  76
ATOM     76  C   UNL A   1      49.257  26.772  26.243  1.00  0.00     0.064 A 
ATOM     77  C   UNL A   1      49.658  26.982  24.917  1.00  0.00     0.173 A 
ATOM     78  C   UNL A   1      50.210  26.282  27.146  1.00  0.00     0.173 A 
ATOM     79  F   UNL A   1      48.774  27.431  24.015  1.00  0.00    -0.203 F 
ATOM     80  C   UNL A   1      50.958  26.702  24.507  1.00  0.00     0.198 A 
ATOM     81  C   UNL A   1      51.517  26.024  26.740  1.00  0.00     0.198 A 
ATOM     82  F   UNL A   1      49.875  26.069  28.427  1.00  0.00    -0.203 F 
ATOM     83  F   UNL A   1      51.307  26.879  23.224  1.00  0.00    -0.200 F 
ATOM     84  C   UNL A   1      51.889  26.228  25.420  1.00  0.00     0.200 A 
ATOM     85  F   UNL A   1      52.418  25.578  27.626  1.00  0.00    -0.200 F 
ATOM     86  F   UNL A   1      53.142  25.964  25.026  1.00  0.00    -0.200 F 
ENDBRANCH  52  76
BRANCH  64  87
ATOM     87  C   UNL A   1      46.140  32.494  28.697  1.00  0.00     0.064 A 
ATOM     88  C   UNL A   1      46.649  32.815  29.964  1.00  0.00     0.173 A 
ATOM     89  C   UNL A   1      46.144  33.491  27.711  1.00  0.00     0.173 A 
ATOM     90  F   UNL A   1      46.652  31.898  30.943  1.00  0.00    -0.203 F 
ATOM     91  C   UNL A   1      47.123  34.095  30.238  1.00  0.00     0.198 A 
ATOM     92  C   UNL A   1      46.640  34.763  27.983  1.00  0.00     0.198 A 
ATOM     93  F   UNL A   1      45.670  33.231  26.483  1.00  0.00    -0.203 F 
ATOM     94  F   UNL A   1      47.566  34.393  31.467  1.00  0.00    -0.200 F 
ATOM     95  C   UNL A   1      47.123  35.065  29.247  1.00  0.00     0.200 A 
ATOM     96  F   UNL A   1      46.648  35.698  27.023  1.00  0.00    -0.200 F 
ATOM     97  F   UNL A   1      47.581  36.297  29.514  1.00  0.00    -0.200 F 
ENDBRANCH  64  87
ENDBRANCH  38  39
ENDBRANCH  30  33
ENDBRANCH  28  29
ENDBRANCH  27  28
ENDBRANCH   1  27
TORSDOF 14
ENDMDL
MODEL 3
REMARK VINA RESULT:     -11.9      0.780      7.465
REMARK SMILES C[NH+]1CCC(C[N@H+](C)[C@H]2CC[C@]([NH3+])(C(=O)NCCCNC(=O)c3ccc(-c4c5nc(c(-c6c(F)c(F)c(F)c(F)c6F)c6ccc([nH]6)c(-c6c(F)c(F)c(F)c(F)c6F)c6nc(c(-c7c(F)c(F)c(F)c(F)c7F)c7ccc4[nH]7)C=C6)C=C5)cc3)C2)CC1
REMARK SMILES IDX 17 1 16 2 14 3 15 4 12 6 9 7 10 8 86 9 11 10 7 11 8 12 6 14
REMARK SMILES IDX 5 15 1 16 2 17 3 18 88 19 4 21 87 22 13 23 18 27 19 28 20 29
REMARK SMILES IDX 21 30 22 32 23 33 24 34 85 35 25 36 84 37 26 38 27 39 28 40
REMARK SMILES IDX 78 41 29 42 83 43 77 44 79 45 30 46 82 47 76 48 75 49 31 51
REMARK SMILES IDX 63 52 43 53 62 54 44 55 47 56 61 57 80 58 45 59 46 60 60 62
REMARK SMILES IDX 81 63 48 64 32 65 33 66 41 67 34 68 35 69 39 70 42 71 36 72
REMARK SMILES IDX 37 73 40 74 38 75 64 76 65 77 73 78 66 79 67 80 71 81 74 82
REMARK SMILES IDX 68 83 69 84 72 85 70 86 49 87 50 88 58 89 51 90 52 91 56 92
REMARK SMILES IDX 59 93 53 94 54 95 57 96 55 97
REMARK H PARENT 16 5 7 13 2 20 13 24 13 25 13 26 20 31 79 50 47 61
REMARK Flexibility Score: inf
ROOT
ATOM      1  C   UNL A   1      31.391  30.889  26.359  1.00  0.00     0.118 C 
ENDROOT
BRANCH   1   2
ATOM      2  N   UNL A   1      31.223  30.404  25.006  1.00  0.00    -0.351 N 
ATOM      3  C   UNL A   1      31.461  29.204  24.414  1.00  0.00     0.281 C 
ATOM      4  O   UNL A   1      30.940  29.068  23.298  1.00  0.00    -0.268 OA
ATOM      5  H   UNL A   1      30.864  31.082  24.388  1.00  0.00     0.163 HD
BRANCH   3   6
ATOM      6  C   UNL A   1      32.497  28.149  24.946  1.00  0.00     0.179 C 
ATOM      7  C   UNL A   1      31.799  25.731  25.194  1.00  0.00     0.190 C 
ATOM      8  C   UNL A   1      31.466  26.556  26.447  1.00  0.00     0.072 C 
ATOM      9  C   UNL A   1      32.285  26.799  24.179  1.00  0.00     0.144 C 
ATOM     10  C   UNL A   1      32.440  27.721  26.415  1.00  0.00     0.085 C 
BRANCH   7  11
ATOM     11  N   UNL A   1      32.658  24.579  25.589  1.00  0.00    -0.334 N 
ATOM     12  C   UNL A   1      31.965  23.782  26.614  1.00  0.00     0.332 C 
ATOM     13  H   UNL A   1      33.508  25.031  25.929  1.00  0.00     0.348 HD
BRANCH  11  14
ATOM     14  C   UNL A   1      33.150  23.680  24.530  1.00  0.00     0.266 C 
BRANCH  14  15
ATOM     15  C   UNL A   1      34.585  23.215  24.801  1.00  0.00     0.055 C 
ATOM     16  C   UNL A   1      38.443  21.866  25.749  1.00  0.00     0.332 C 
ATOM     17  N   UNL A   1      37.051  22.250  26.016  1.00  0.00    -0.337 N 
ATOM     18  C   UNL A   1      36.143  21.339  25.302  1.00  0.00     0.262 C 
ATOM     19  C   UNL A   1      36.863  23.673  25.688  1.00  0.00     0.262 C 
ATOM     20  H   UNL A   1      36.824  22.154  27.006  1.00  0.00     0.347 HD
ATOM     21  C   UNL A   1      34.676  21.786  25.333  1.00  0.00     0.071 C 
ATOM     22  C   UNL A   1      35.398  24.122  25.723  1.00  0.00     0.071 C 
ENDBRANCH  14  15
ENDBRANCH  11  14
ENDBRANCH   7  11
BRANCH   6  23
ATOM     23  N   UNL A   1      33.813  28.770  24.644  1.00  0.00    -0.345 N 
ATOM     24  H   UNL A   1      33.778  29.765  24.869  1.00  0.00     0.345 HD
ATOM     25  H   UNL A   1      34.026  28.652  23.653  1.00  0.00     0.345 HD
ATOM     26  H   UNL A   1      34.537  28.321  25.203  1.00  0.00     0.345 HD
ENDBRANCH   6  23
ENDBRANCH   3   6
ENDBRANCH   1   2
BRANCH   1  27
ATOM     27  C   UNL A   1      31.425  32.405  26.542  1.00  0.00     0.042 C 
BRANCH  27  28
ATOM     28  C   UNL A   1      32.771  32.983  26.978  1.00  0.00     0.118 C 
BRANCH  28  29
ATOM     29  N   UNL A   1      32.645  34.293  27.599  1.00  0.00    -0.352 N 
ATOM     30  C   UNL A   1      33.113  34.804  28.778  1.00  0.00     0.251 C 
ATOM     31  H   UNL A   1      32.121  34.936  27.067  1.00  0.00     0.163 HD
ATOM     32  O   UNL A   1      32.585  35.819  29.228  1.00  0.00    -0.269 OA
BRANCH  30  33
ATOM     33  C   UNL A   1      34.246  34.199  29.516  1.00  0.00     0.039 A 
ATOM     34  C   UNL A   1      35.547  34.474  29.069  1.00  0.00     0.014 A 
ATOM     35  C   UNL A   1      34.056  33.253  30.525  1.00  0.00     0.014 A 
ATOM     36  C   UNL A   1      36.643  33.816  29.636  1.00  0.00     0.010 A 
ATOM     37  C   UNL A   1      35.154  32.639  31.132  1.00  0.00     0.010 A 
ATOM     38  C   UNL A   1      36.456  32.896  30.677  1.00  0.00    -0.014 A 
BRANCH  38  39
ATOM     39  C   UNL A   1      37.609  32.169  31.267  1.00  0.00     0.031 A 
ATOM     40  C   UNL A   1      38.093  32.505  32.652  1.00  0.00     0.074 A 
ATOM     41  C   UNL A   1      38.246  31.230  30.542  1.00  0.00     0.049 A 
ATOM     42  N   UNL A   1      39.108  32.015  33.318  1.00  0.00    -0.248 NA
ATOM     43  C   UNL A   1      37.351  33.551  33.374  1.00  0.00     0.031 C 
ATOM     44  C   UNL A   1      37.898  30.841  29.175  1.00  0.00     0.029 A 
ATOM     45  N   UNL A   1      39.323  30.439  30.851  1.00  0.00    -0.354 N 
ATOM     46  C   UNL A   1      39.139  32.704  34.524  1.00  0.00     0.074 A 
ATOM     47  C   UNL A   1      38.066  33.673  34.484  1.00  0.00     0.031 C 
ATOM     48  C   UNL A   1      38.734  29.873  28.769  1.00  0.00     0.029 A 
ATOM     49  C   UNL A   1      39.691  29.591  29.835  1.00  0.00     0.049 A 
ATOM     50  H   UNL A   1      39.788  30.473  31.718  1.00  0.00     0.167 HD
ATOM     51  C   UNL A   1      39.977  32.532  35.576  1.00  0.00     0.037 A 
ATOM     52  C   UNL A   1      40.688  28.689  29.771  1.00  0.00     0.037 A 
ATOM     53  C   UNL A   1      41.021  31.542  35.630  1.00  0.00     0.049 A 
ATOM     54  C   UNL A   1      41.581  28.493  30.966  1.00  0.00     0.074 A 
ATOM     55  C   UNL A   1      41.884  31.249  36.672  1.00  0.00     0.029 A 
ATOM     56  N   UNL A   1      41.339  30.677  34.593  1.00  0.00    -0.354 N 
ATOM     57  N   UNL A   1      41.565  29.112  32.121  1.00  0.00    -0.248 NA
ATOM     58  C   UNL A   1      42.622  27.462  30.851  1.00  0.00     0.031 C 
ATOM     59  C   UNL A   1      42.744  30.227  36.255  1.00  0.00     0.029 A 
ATOM     60  C   UNL A   1      42.393  29.859  34.967  1.00  0.00     0.049 A 
ATOM     61  H   UNL A   1      40.884  30.650  33.721  1.00  0.00     0.167 HD
ATOM     62  C   UNL A   1      42.576  28.535  32.876  1.00  0.00     0.074 A 
ATOM     63  C   UNL A   1      43.175  27.503  32.055  1.00  0.00     0.031 C 
ATOM     64  C   UNL A   1      42.973  28.834  34.137  1.00  0.00     0.037 A 
BRANCH  51  65
ATOM     65  C   UNL A   1      39.794  33.434  36.762  1.00  0.00     0.064 A 
ATOM     66  C   UNL A   1      40.480  34.653  36.872  1.00  0.00     0.173 A 
ATOM     67  C   UNL A   1      38.895  33.093  37.785  1.00  0.00     0.173 A 
ATOM     68  F   UNL A   1      41.358  35.019  35.926  1.00  0.00    -0.203 F 
ATOM     69  C   UNL A   1      40.296  35.482  37.974  1.00  0.00     0.198 A 
ATOM     70  C   UNL A   1      38.693  33.938  38.873  1.00  0.00     0.198 A 
ATOM     71  F   UNL A   1      38.208  31.943  37.725  1.00  0.00    -0.203 F 
ATOM     72  F   UNL A   1      40.997  36.621  38.080  1.00  0.00    -0.200 F 
ATOM     73  C   UNL A   1      39.399  35.129  38.971  1.00  0.00     0.200 A 
ATOM     74  F   UNL A   1      37.818  33.599  39.830  1.00  0.00    -0.200 F 
ATOM     75  F   UNL A   1      39.219  35.930  40.030  1.00  0.00    -0.200 F 
ENDBRANCH  51  65
BRANCH  52  76
ATOM     76  C   UNL A   1      40.866  27.875  28.543  1.00  0.00     0.064 A 
ATOM     77  C   UNL A   1      40.218  26.640  28.403  1.00  0.00     0.173 A 
ATOM     78  C   UNL A   1      41.671  28.316  27.484  1.00  0.00     0.173 A 
ATOM     79  F   UNL A   1      39.454  26.169  29.398  1.00  0.00    -0.203 F 
ATOM     80  C   UNL A   1      40.378  25.871  27.253  1.00  0.00     0.198 A 
ATOM     81  C   UNL A   1      41.812  27.558  26.325  1.00  0.00     0.198 A 
ATOM     82  F   UNL A   1      42.308  29.493  27.571  1.00  0.00    -0.203 F 
ATOM     83  F   UNL A   1      39.775  24.678  27.157  1.00  0.00    -0.200 F 
ATOM     84  C   UNL A   1      41.171  26.333  26.212  1.00  0.00     0.200 A 
ATOM     85  F   UNL A   1      42.568  28.011  25.316  1.00  0.00    -0.200 F 
ATOM     86  F   UNL A   1      41.320  25.596  25.103  1.00  0.00    -0.200 F 
ENDBRANCH  52  76
BRANCH  64  87
ATOM     87  C   UNL A   1      44.092  28.018  34.711  1.00  0.00     0.064 A 
ATOM     88  C   UNL A   1      43.848  26.805  35.371  1.00  0.00     0.173 A 
ATOM     89  C   UNL A   1      45.422  28.441  34.577  1.00  0.00     0.173 A 
ATOM     90  F   UNL A   1      42.591  26.367  35.538  1.00  0.00    -0.203 F 
ATOM     91  C   UNL A   1      44.897  26.056  35.898  1.00  0.00     0.198 A 
ATOM     92  C   UNL A   1      46.470  27.678  35.084  1.00  0.00     0.198 A 
ATOM     93  F   UNL A   1      45.705  29.593  33.950  1.00  0.00    -0.203 F 
ATOM     94  F   UNL A   1      44.639  24.921  36.563  1.00  0.00    -0.200 F 
ATOM     95  C   UNL A   1      46.205  26.490  35.749  1.00  0.00     0.200 A 
ATOM     96  F   UNL A   1      47.734  28.093  34.933  1.00  0.00    -0.200 F 
ATOM     97  F   UNL A   1      47.214  25.766  36.256  1.00  0.00    -0.200 F 
ENDBRANCH  64  87
ENDBRANCH  38  39
ENDBRANCH  30  33
ENDBRANCH  28  29
ENDBRANCH  27  28
ENDBRANCH   1  27
TORSDOF 14
ENDMDL
