MODEL 1
REMARK VINA RESULT:     -11.3      0.000      0.000
REMARK SMILES C=CC[N@@H+](CC(=O)NCCCNC(=O)c1ccc(-c2c3nc(c(-c4c(F)c(F)c(F)c(F)c4F)c4ccc([nH]4)c(-c4c(F)c(F)c(F)c(F)c4F)c4nc(c(-c5c(F)c(F)c(F)c(F)c5F)c5ccc2[nH]5)C=C4)C=C3)cc1)CC(=O)Nc1ccccc1
REMARK SMILES IDX 9 1 8 2 6 3 7 4 5 6 4 7 3 9 2 10 1 11 78 12 79 13 80 14
REMARK SMILES IDX 81 15 82 17 83 18 87 19 84 20 86 21 85 22 10 23 11 24 12 25
REMARK SMILES IDX 13 26 14 28 15 29 16 30 77 31 17 32 76 33 18 34 19 35 20 36
REMARK SMILES IDX 70 37 21 38 75 39 69 40 71 41 22 42 74 43 68 44 67 45 23 47
REMARK SMILES IDX 55 48 35 49 54 50 36 51 39 52 53 53 72 54 37 55 38 56 52 58
REMARK SMILES IDX 73 59 40 60 24 61 25 62 33 63 26 64 27 65 31 66 34 67 28 68
REMARK SMILES IDX 29 69 32 70 30 71 56 72 57 73 65 74 58 75 59 76 63 77 66 78
REMARK SMILES IDX 60 79 61 80 64 81 62 82 41 83 42 84 50 85 43 86 44 87 48 88
REMARK SMILES IDX 51 89 45 90 46 91 49 92 47 93
REMARK H PARENT 8 5 4 8 81 16 12 27 71 46 39 57
REMARK Flexibility Score: inf
ROOT
ATOM      1  C   UNL A   1      36.934  20.568  24.937  1.00  0.00     0.118 C 
ENDROOT
BRANCH   1   2
ATOM      2  N   UNL A   1      37.120  21.704  24.061  1.00  0.00    -0.351 N 
ATOM      3  C   UNL A   1      36.236  22.666  23.693  1.00  0.00     0.275 C 
ATOM      4  O   UNL A   1      36.445  23.184  22.598  1.00  0.00    -0.269 OA
ATOM      5  H   UNL A   1      38.020  21.792  23.674  1.00  0.00     0.163 HD
BRANCH   3   6
ATOM      6  C   UNL A   1      35.113  23.108  24.640  1.00  0.00     0.364 C 
BRANCH   6   7
ATOM      7  N   UNL A   1      33.766  22.630  24.294  1.00  0.00    -0.316 N 
ATOM      8  H   UNL A   1      33.906  21.733  23.829  1.00  0.00     0.349 HD
BRANCH   7   9
ATOM      9  C   UNL A   1      33.134  23.471  23.293  1.00  0.00     0.291 C 
BRANCH   9  10
ATOM     10  C   UNL A   1      33.313  24.947  23.469  1.00  0.00     0.025 C 
ATOM     11  C   UNL A   1      33.595  25.756  22.436  1.00  0.00     0.010 C 
ENDBRANCH   9  10
ENDBRANCH   7   9
BRANCH   7  12
ATOM     12  C   UNL A   1      32.924  22.140  25.407  1.00  0.00     0.364 C 
BRANCH  12  13
ATOM     13  C   UNL A   1      33.521  21.101  26.368  1.00  0.00     0.279 C 
ATOM     14  O   UNL A   1      33.882  21.430  27.506  1.00  0.00    -0.268 OA
ATOM     15  N   UNL A   1      33.498  19.755  26.080  1.00  0.00    -0.321 N 
ATOM     16  H   UNL A   1      33.498  19.189  26.886  1.00  0.00     0.170 HD
BRANCH  15  17
ATOM     17  C   UNL A   1      33.474  19.011  24.881  1.00  0.00     0.041 A 
ATOM     18  C   UNL A   1      32.416  19.234  23.993  1.00  0.00     0.026 A 
ATOM     19  C   UNL A   1      34.355  17.977  24.584  1.00  0.00     0.026 A 
ATOM     20  C   UNL A   1      32.266  18.449  22.840  1.00  0.00     0.002 A 
ATOM     21  C   UNL A   1      34.188  17.159  23.463  1.00  0.00     0.002 A 
ATOM     22  C   UNL A   1      33.146  17.402  22.582  1.00  0.00     0.000 A 
ENDBRANCH  15  17
ENDBRANCH  12  13
ENDBRANCH   7  12
ENDBRANCH   6   7
ENDBRANCH   3   6
ENDBRANCH   1   2
BRANCH   1  23
ATOM     23  C   UNL A   1      38.169  19.667  24.955  1.00  0.00     0.042 C 
BRANCH  23  24
ATOM     24  C   UNL A   1      39.243  20.099  25.948  1.00  0.00     0.118 C 
BRANCH  24  25
ATOM     25  N   UNL A   1      40.323  19.135  26.003  1.00  0.00    -0.352 N 
ATOM     26  C   UNL A   1      41.674  19.376  25.997  1.00  0.00     0.251 C 
ATOM     27  H   UNL A   1      40.055  18.189  26.053  1.00  0.00     0.163 HD
ATOM     28  O   UNL A   1      42.458  18.481  25.699  1.00  0.00    -0.269 OA
BRANCH  26  29
ATOM     29  C   UNL A   1      42.180  20.726  26.329  1.00  0.00     0.039 A 
ATOM     30  C   UNL A   1      42.374  21.069  27.669  1.00  0.00     0.014 A 
ATOM     31  C   UNL A   1      42.413  21.670  25.325  1.00  0.00     0.014 A 
ATOM     32  C   UNL A   1      42.826  22.348  27.997  1.00  0.00     0.010 A 
ATOM     33  C   UNL A   1      42.950  22.913  25.647  1.00  0.00     0.010 A 
ATOM     34  C   UNL A   1      43.131  23.277  26.989  1.00  0.00    -0.014 A 
BRANCH  34  35
ATOM     35  C   UNL A   1      43.586  24.652  27.320  1.00  0.00     0.031 A 
ATOM     36  C   UNL A   1      42.605  25.657  27.861  1.00  0.00     0.074 A 
ATOM     37  C   UNL A   1      44.866  25.008  27.098  1.00  0.00     0.049 A 
ATOM     38  N   UNL A   1      42.792  26.917  28.166  1.00  0.00    -0.248 NA
ATOM     39  C   UNL A   1      41.222  25.195  28.056  1.00  0.00     0.031 C 
ATOM     40  C   UNL A   1      45.900  24.138  26.537  1.00  0.00     0.029 A 
ATOM     41  N   UNL A   1      45.513  26.199  27.314  1.00  0.00    -0.354 N 
ATOM     42  C   UNL A   1      41.551  27.395  28.570  1.00  0.00     0.074 A 
ATOM     43  C   UNL A   1      40.608  26.311  28.416  1.00  0.00     0.031 C 
ATOM     44  C   UNL A   1      47.059  24.817  26.477  1.00  0.00     0.029 A 
ATOM     45  C   UNL A   1      46.840  26.177  26.960  1.00  0.00     0.049 A 
ATOM     46  H   UNL A   1      45.067  26.994  27.688  1.00  0.00     0.167 HD
ATOM     47  C   UNL A   1      41.232  28.620  29.053  1.00  0.00     0.037 A 
ATOM     48  C   UNL A   1      47.772  27.147  27.015  1.00  0.00     0.037 A 
ATOM     49  C   UNL A   1      42.180  29.687  29.236  1.00  0.00     0.049 A 
ATOM     50  C   UNL A   1      47.392  28.500  27.556  1.00  0.00     0.074 A 
ATOM     51  C   UNL A   1      41.972  30.944  29.777  1.00  0.00     0.029 A 
ATOM     52  N   UNL A   1      43.520  29.621  28.881  1.00  0.00    -0.354 N 
ATOM     53  N   UNL A   1      46.233  28.918  28.002  1.00  0.00    -0.248 NA
ATOM     54  C   UNL A   1      48.455  29.513  27.608  1.00  0.00     0.031 C 
ATOM     55  C   UNL A   1      43.174  31.655  29.705  1.00  0.00     0.029 A 
ATOM     56  C   UNL A   1      44.145  30.823  29.169  1.00  0.00     0.049 A 
ATOM     57  H   UNL A   1      43.960  28.836  28.482  1.00  0.00     0.167 HD
ATOM     58  C   UNL A   1      46.432  30.229  28.414  1.00  0.00     0.074 A 
ATOM     59  C   UNL A   1      47.828  30.532  28.179  1.00  0.00     0.031 C 
ATOM     60  C   UNL A   1      45.539  31.104  28.938  1.00  0.00     0.037 A 
BRANCH  47  61
ATOM     61  C   UNL A   1      39.798  28.870  29.424  1.00  0.00     0.064 A 
ATOM     62  C   UNL A   1      38.869  29.353  28.488  1.00  0.00     0.173 A 
ATOM     63  C   UNL A   1      39.338  28.594  30.720  1.00  0.00     0.173 A 
ATOM     64  F   UNL A   1      39.258  29.643  27.238  1.00  0.00    -0.203 F 
ATOM     65  C   UNL A   1      37.542  29.580  28.846  1.00  0.00     0.198 A 
ATOM     66  C   UNL A   1      38.004  28.791  31.066  1.00  0.00     0.198 A 
ATOM     67  F   UNL A   1      40.182  28.125  31.651  1.00  0.00    -0.203 F 
ATOM     68  F   UNL A   1      36.687  30.090  27.950  1.00  0.00    -0.200 F 
ATOM     69  C   UNL A   1      37.109  29.292  30.131  1.00  0.00     0.200 A 
ATOM     70  F   UNL A   1      37.583  28.499  32.304  1.00  0.00    -0.200 F 
ATOM     71  F   UNL A   1      35.830  29.503  30.473  1.00  0.00    -0.200 F 
ENDBRANCH  47  61
BRANCH  48  72
ATOM     72  C   UNL A   1      49.163  26.866  26.571  1.00  0.00     0.064 A 
ATOM     73  C   UNL A   1      49.531  27.011  25.226  1.00  0.00     0.173 A 
ATOM     74  C   UNL A   1      50.148  26.444  27.475  1.00  0.00     0.173 A 
ATOM     75  F   UNL A   1      48.620  27.394  24.319  1.00  0.00    -0.203 F 
ATOM     76  C   UNL A   1      50.826  26.725  24.800  1.00  0.00     0.198 A 
ATOM     77  C   UNL A   1      51.450  26.186  27.052  1.00  0.00     0.198 A 
ATOM     78  F   UNL A   1      49.848  26.294  28.774  1.00  0.00    -0.203 F 
ATOM     79  F   UNL A   1      51.139  26.827  23.500  1.00  0.00    -0.200 F 
ATOM     80  C   UNL A   1      51.786  26.318  25.713  1.00  0.00     0.200 A 
ATOM     81  F   UNL A   1      52.379  25.808  27.941  1.00  0.00    -0.200 F 
ATOM     82  F   UNL A   1      53.033  26.047  25.304  1.00  0.00    -0.200 F 
ENDBRANCH  48  72
BRANCH  60  83
ATOM     83  C   UNL A   1      46.051  32.460  29.328  1.00  0.00     0.064 A 
ATOM     84  C   UNL A   1      46.586  32.707  30.600  1.00  0.00     0.173 A 
ATOM     85  C   UNL A   1      46.044  33.514  28.401  1.00  0.00     0.173 A 
ATOM     86  F   UNL A   1      46.603  31.736  31.526  1.00  0.00    -0.203 F 
ATOM     87  C   UNL A   1      47.072  33.967  30.939  1.00  0.00     0.198 A 
ATOM     88  C   UNL A   1      46.560  34.763  28.732  1.00  0.00     0.198 A 
ATOM     89  F   UNL A   1      45.549  33.328  27.168  1.00  0.00    -0.203 F 
ATOM     90  F   UNL A   1      47.535  34.195  32.176  1.00  0.00    -0.200 F 
ATOM     91  C   UNL A   1      47.066  34.991  30.003  1.00  0.00     0.200 A 
ATOM     92  F   UNL A   1      46.566  35.747  27.822  1.00  0.00    -0.200 F 
ATOM     93  F   UNL A   1      47.542  36.201  30.328  1.00  0.00    -0.200 F 
ENDBRANCH  60  83
ENDBRANCH  34  35
ENDBRANCH  26  29
ENDBRANCH  24  25
ENDBRANCH  23  24
ENDBRANCH   1  23
TORSDOF 16
ENDMDL
MODEL 2
REMARK VINA RESULT:     -11.3      6.131     11.472
REMARK SMILES C=CC[N@@H+](CC(=O)NCCCNC(=O)c1ccc(-c2c3nc(c(-c4c(F)c(F)c(F)c(F)c4F)c4ccc([nH]4)c(-c4c(F)c(F)c(F)c(F)c4F)c4nc(c(-c5c(F)c(F)c(F)c(F)c5F)c5ccc2[nH]5)C=C4)C=C3)cc1)CC(=O)Nc1ccccc1
REMARK SMILES IDX 9 1 8 2 6 3 7 4 5 6 4 7 3 9 2 10 1 11 78 12 79 13 80 14
REMARK SMILES IDX 81 15 82 17 83 18 87 19 84 20 86 21 85 22 10 23 11 24 12 25
REMARK SMILES IDX 13 26 14 28 15 29 16 30 77 31 17 32 76 33 18 34 19 35 20 36
REMARK SMILES IDX 70 37 21 38 75 39 69 40 71 41 22 42 74 43 68 44 67 45 23 47
REMARK SMILES IDX 55 48 35 49 54 50 36 51 39 52 53 53 72 54 37 55 38 56 52 58
REMARK SMILES IDX 73 59 40 60 24 61 25 62 33 63 26 64 27 65 31 66 34 67 28 68
REMARK SMILES IDX 29 69 32 70 30 71 56 72 57 73 65 74 58 75 59 76 63 77 66 78
REMARK SMILES IDX 60 79 61 80 64 81 62 82 41 83 42 84 50 85 43 86 44 87 48 88
REMARK SMILES IDX 51 89 45 90 46 91 49 92 47 93
REMARK H PARENT 8 5 4 8 81 16 12 27 71 46 39 57
REMARK Flexibility Score: inf
ROOT
ATOM      1  C   UNL A   1      31.535  30.746  25.994  1.00  0.00     0.118 C 
ENDROOT
BRANCH   1   2
ATOM      2  N   UNL A   1      31.690  29.779  27.058  1.00  0.00    -0.351 N 
ATOM      3  C   UNL A   1      31.769  28.425  26.992  1.00  0.00     0.275 C 
ATOM      4  O   UNL A   1      31.383  27.824  27.993  1.00  0.00    -0.269 OA
ATOM      5  H   UNL A   1      31.746  30.158  27.964  1.00  0.00     0.163 HD
BRANCH   3   6
ATOM      6  C   UNL A   1      32.378  27.730  25.768  1.00  0.00     0.364 C 
BRANCH   6   7
ATOM      7  N   UNL A   1      31.673  26.526  25.304  1.00  0.00    -0.316 N 
ATOM      8  H   UNL A   1      30.945  26.353  25.996  1.00  0.00     0.349 HD
BRANCH   7   9
ATOM      9  C   UNL A   1      32.521  25.348  25.358  1.00  0.00     0.291 C 
BRANCH   9  10
ATOM     10  C   UNL A   1      33.986  25.602  25.532  1.00  0.00     0.025 C 
ATOM     11  C   UNL A   1      34.904  24.647  25.315  1.00  0.00     0.010 C 
ENDBRANCH   9  10
ENDBRANCH   7   9
BRANCH   7  12
ATOM     12  C   UNL A   1      30.789  26.680  24.129  1.00  0.00     0.364 C 
BRANCH  12  13
ATOM     13  C   UNL A   1      31.343  27.404  22.893  1.00  0.00     0.279 C 
ATOM     14  O   UNL A   1      32.423  27.061  22.393  1.00  0.00    -0.268 OA
ATOM     15  N   UNL A   1      30.585  28.314  22.190  1.00  0.00    -0.321 N 
ATOM     16  H   UNL A   1      30.844  28.380  21.242  1.00  0.00     0.170 HD
BRANCH  15  17
ATOM     17  C   UNL A   1      29.518  29.172  22.533  1.00  0.00     0.041 A 
ATOM     18  C   UNL A   1      29.822  30.503  22.840  1.00  0.00     0.026 A 
ATOM     19  C   UNL A   1      28.205  28.753  22.719  1.00  0.00     0.026 A 
ATOM     20  C   UNL A   1      28.828  31.380  23.302  1.00  0.00     0.002 A 
ATOM     21  C   UNL A   1      27.218  29.605  23.222  1.00  0.00     0.002 A 
ATOM     22  C   UNL A   1      27.528  30.927  23.506  1.00  0.00     0.000 A 
ENDBRANCH  15  17
ENDBRANCH  12  13
ENDBRANCH   7  12
ENDBRANCH   6   7
ENDBRANCH   3   6
ENDBRANCH   1   2
BRANCH   1  23
ATOM     23  C   UNL A   1      31.407  32.167  26.543  1.00  0.00     0.042 C 
BRANCH  23  24
ATOM     24  C   UNL A   1      32.665  32.687  27.231  1.00  0.00     0.118 C 
BRANCH  24  25
ATOM     25  N   UNL A   1      32.542  34.095  27.551  1.00  0.00    -0.352 N 
ATOM     26  C   UNL A   1      33.099  34.775  28.604  1.00  0.00     0.251 C 
ATOM     27  H   UNL A   1      31.990  34.631  26.936  1.00  0.00     0.163 HD
ATOM     28  O   UNL A   1      32.642  35.859  28.948  1.00  0.00    -0.269 OA
BRANCH  26  29
ATOM     29  C   UNL A   1      34.241  34.185  29.337  1.00  0.00     0.039 A 
ATOM     30  C   UNL A   1      35.539  34.574  29.000  1.00  0.00     0.014 A 
ATOM     31  C   UNL A   1      34.035  33.211  30.318  1.00  0.00     0.014 A 
ATOM     32  C   UNL A   1      36.627  34.004  29.666  1.00  0.00     0.010 A 
ATOM     33  C   UNL A   1      35.113  32.712  31.043  1.00  0.00     0.010 A 
ATOM     34  C   UNL A   1      36.423  33.079  30.703  1.00  0.00    -0.014 A 
BRANCH  34  35
ATOM     35  C   UNL A   1      37.567  32.443  31.403  1.00  0.00     0.031 A 
ATOM     36  C   UNL A   1      38.308  31.305  30.751  1.00  0.00     0.074 A 
ATOM     37  C   UNL A   1      37.916  32.857  32.636  1.00  0.00     0.049 A 
ATOM     38  N   UNL A   1      39.301  30.587  31.214  1.00  0.00    -0.248 NA
ATOM     39  C   UNL A   1      37.854  30.900  29.411  1.00  0.00     0.031 C 
ATOM     40  C   UNL A   1      37.249  33.918  33.391  1.00  0.00     0.029 A 
ATOM     41  N   UNL A   1      38.915  32.429  33.474  1.00  0.00    -0.354 N 
ATOM     42  C   UNL A   1      39.572  29.642  30.233  1.00  0.00     0.074 A 
ATOM     43  C   UNL A   1      38.606  29.837  29.177  1.00  0.00     0.031 C 
ATOM     44  C   UNL A   1      37.873  34.077  34.570  1.00  0.00     0.029 A 
ATOM     45  C   UNL A   1      38.960  33.106  34.668  1.00  0.00     0.049 A 
ATOM     46  H   UNL A   1      39.542  31.706  33.240  1.00  0.00     0.167 HD
ATOM     47  C   UNL A   1      40.557  28.712  30.203  1.00  0.00     0.037 A 
ATOM     48  C   UNL A   1      39.781  32.956  35.724  1.00  0.00     0.037 A 
ATOM     49  C   UNL A   1      41.538  28.542  31.242  1.00  0.00     0.049 A 
ATOM     50  C   UNL A   1      40.869  31.916  35.666  1.00  0.00     0.074 A 
ATOM     51  C   UNL A   1      42.615  27.674  31.280  1.00  0.00     0.029 A 
ATOM     52  N   UNL A   1      41.560  29.259  32.431  1.00  0.00    -0.354 N 
ATOM     53  N   UNL A   1      41.161  31.076  34.704  1.00  0.00    -0.248 NA
ATOM     54  C   UNL A   1      41.744  31.809  36.841  1.00  0.00     0.031 C 
ATOM     55  C   UNL A   1      43.260  27.830  32.511  1.00  0.00     0.029 A 
ATOM     56  C   UNL A   1      42.618  28.835  33.219  1.00  0.00     0.049 A 
ATOM     57  H   UNL A   1      40.918  29.963  32.677  1.00  0.00     0.167 HD
ATOM     58  C   UNL A   1      42.269  30.363  35.141  1.00  0.00     0.074 A 
ATOM     59  C   UNL A   1      42.606  30.880  36.451  1.00  0.00     0.031 C 
ATOM     60  C   UNL A   1      42.945  29.368  34.516  1.00  0.00     0.037 A 
BRANCH  47  61
ATOM     61  C   UNL A   1      40.626  27.809  29.004  1.00  0.00     0.064 A 
ATOM     62  C   UNL A   1      41.488  28.078  27.929  1.00  0.00     0.173 A 
ATOM     63  C   UNL A   1      39.847  26.645  28.944  1.00  0.00     0.173 A 
ATOM     64  F   UNL A   1      42.247  29.184  27.931  1.00  0.00    -0.203 F 
ATOM     65  C   UNL A   1      41.542  27.232  26.824  1.00  0.00     0.198 A 
ATOM     66  C   UNL A   1      39.928  25.783  27.852  1.00  0.00     0.198 A 
ATOM     67  F   UNL A   1      39.013  26.335  29.947  1.00  0.00    -0.203 F 
ATOM     68  F   UNL A   1      42.332  27.538  25.787  1.00  0.00    -0.200 F 
ATOM     69  C   UNL A   1      40.768  26.082  26.790  1.00  0.00     0.200 A 
ATOM     70  F   UNL A   1      39.190  24.665  27.827  1.00  0.00    -0.200 F 
ATOM     71  F   UNL A   1      40.826  25.264  25.730  1.00  0.00    -0.200 F 
ENDBRANCH  47  61
BRANCH  48  72
ATOM     72  C   UNL A   1      39.626  33.831  36.916  1.00  0.00     0.064 A 
ATOM     73  C   UNL A   1      38.873  33.412  38.023  1.00  0.00     0.173 A 
ATOM     74  C   UNL A   1      40.219  35.100  36.974  1.00  0.00     0.173 A 
ATOM     75  F   UNL A   1      38.269  32.215  38.007  1.00  0.00    -0.203 F 
ATOM     76  C   UNL A   1      38.702  34.238  39.131  1.00  0.00     0.198 A 
ATOM     77  C   UNL A   1      40.072  35.913  38.096  1.00  0.00     0.198 A 
ATOM     78  F   UNL A   1      40.954  35.545  35.944  1.00  0.00    -0.203 F 
ATOM     79  F   UNL A   1      37.939  33.832  40.156  1.00  0.00    -0.200 F 
ATOM     80  C   UNL A   1      39.307  35.485  39.170  1.00  0.00     0.200 A 
ATOM     81  F   UNL A   1      40.671  37.111  38.136  1.00  0.00    -0.200 F 
ATOM     82  F   UNL A   1      39.146  36.278  40.239  1.00  0.00    -0.200 F 
ENDBRANCH  48  72
BRANCH  60  83
ATOM     83  C   UNL A   1      44.141  28.798  35.223  1.00  0.00     0.064 A 
ATOM     84  C   UNL A   1      45.420  29.350  35.067  1.00  0.00     0.173 A 
ATOM     85  C   UNL A   1      43.994  27.712  36.099  1.00  0.00     0.173 A 
ATOM     86  F   UNL A   1      45.615  30.380  34.229  1.00  0.00    -0.203 F 
ATOM     87  C   UNL A   1      46.514  28.819  35.744  1.00  0.00     0.198 A 
ATOM     88  C   UNL A   1      45.085  27.204  36.799  1.00  0.00     0.198 A 
ATOM     89  F   UNL A   1      42.790  27.152  36.289  1.00  0.00    -0.203 F 
ATOM     90  F   UNL A   1      47.737  29.331  35.544  1.00  0.00    -0.200 F 
ATOM     91  C   UNL A   1      46.345  27.752  36.615  1.00  0.00     0.200 A 
ATOM     92  F   UNL A   1      44.916  26.183  37.651  1.00  0.00    -0.200 F 
ATOM     93  F   UNL A   1      47.398  27.248  37.272  1.00  0.00    -0.200 F 
ENDBRANCH  60  83
ENDBRANCH  34  35
ENDBRANCH  26  29
ENDBRANCH  24  25
ENDBRANCH  23  24
ENDBRANCH   1  23
TORSDOF 16
ENDMDL
MODEL 3
REMARK VINA RESULT:     -11.2      1.479      3.108
REMARK SMILES C=CC[N@@H+](CC(=O)NCCCNC(=O)c1ccc(-c2c3nc(c(-c4c(F)c(F)c(F)c(F)c4F)c4ccc([nH]4)c(-c4c(F)c(F)c(F)c(F)c4F)c4nc(c(-c5c(F)c(F)c(F)c(F)c5F)c5ccc2[nH]5)C=C4)C=C3)cc1)CC(=O)Nc1ccccc1
REMARK SMILES IDX 9 1 8 2 6 3 7 4 5 6 4 7 3 9 2 10 1 11 78 12 79 13 80 14
REMARK SMILES IDX 81 15 82 17 83 18 87 19 84 20 86 21 85 22 10 23 11 24 12 25
REMARK SMILES IDX 13 26 14 28 15 29 16 30 77 31 17 32 76 33 18 34 19 35 20 36
REMARK SMILES IDX 70 37 21 38 75 39 69 40 71 41 22 42 74 43 68 44 67 45 23 47
REMARK SMILES IDX 55 48 35 49 54 50 36 51 39 52 53 53 72 54 37 55 38 56 52 58
REMARK SMILES IDX 73 59 40 60 24 61 25 62 33 63 26 64 27 65 31 66 34 67 28 68
REMARK SMILES IDX 29 69 32 70 30 71 56 72 57 73 65 74 58 75 59 76 63 77 66 78
REMARK SMILES IDX 60 79 61 80 64 81 62 82 41 83 42 84 50 85 43 86 44 87 48 88
REMARK SMILES IDX 51 89 45 90 46 91 49 92 47 93
REMARK H PARENT 8 5 4 8 81 16 12 27 71 46 39 57
REMARK Flexibility Score: inf
ROOT
ATOM      1  C   UNL A   1      36.702  20.515  24.987  1.00  0.00     0.118 C 
ENDROOT
BRANCH   1   2
ATOM      2  N   UNL A   1      36.923  21.821  25.565  1.00  0.00    -0.351 N 
ATOM      3  C   UNL A   1      36.710  23.051  25.030  1.00  0.00     0.275 C 
ATOM      4  O   UNL A   1      37.426  23.949  25.469  1.00  0.00    -0.269 OA
ATOM      5  H   UNL A   1      37.282  21.820  26.481  1.00  0.00     0.163 HD
BRANCH   3   6
ATOM      6  C   UNL A   1      35.591  23.282  24.007  1.00  0.00     0.364 C 
BRANCH   6   7
ATOM      7  N   UNL A   1      34.540  24.224  24.419  1.00  0.00    -0.316 N 
ATOM      8  H   UNL A   1      34.973  25.147  24.392  1.00  0.00     0.349 HD
BRANCH   7   9
ATOM      9  C   UNL A   1      34.158  24.037  25.808  1.00  0.00     0.291 C 
BRANCH   9  10
ATOM     10  C   UNL A   1      32.838  23.369  26.041  1.00  0.00     0.025 C 
ATOM     11  C   UNL A   1      31.919  23.884  26.872  1.00  0.00     0.010 C 
ENDBRANCH   9  10
ENDBRANCH   7   9
BRANCH   7  12
ATOM     12  C   UNL A   1      33.460  24.490  23.444  1.00  0.00     0.364 C 
BRANCH  12  13
ATOM     13  C   UNL A   1      33.449  25.847  22.724  1.00  0.00     0.279 C 
ATOM     14  O   UNL A   1      33.789  25.932  21.536  1.00  0.00    -0.268 OA
ATOM     15  N   UNL A   1      32.887  26.964  23.299  1.00  0.00    -0.321 N 
ATOM     16  H   UNL A   1      32.559  27.614  22.636  1.00  0.00     0.170 HD
BRANCH  15  17
ATOM     17  C   UNL A   1      32.681  27.380  24.631  1.00  0.00     0.041 A 
ATOM     18  C   UNL A   1      33.789  27.837  25.354  1.00  0.00     0.026 A 
ATOM     19  C   UNL A   1      31.480  27.241  25.318  1.00  0.00     0.026 A 
ATOM     20  C   UNL A   1      33.679  28.155  26.716  1.00  0.00     0.002 A 
ATOM     21  C   UNL A   1      31.370  27.511  26.685  1.00  0.00     0.002 A 
ATOM     22  C   UNL A   1      32.472  27.979  27.385  1.00  0.00     0.000 A 
ENDBRANCH  15  17
ENDBRANCH  12  13
ENDBRANCH   7  12
ENDBRANCH   6   7
ENDBRANCH   3   6
ENDBRANCH   1   2
BRANCH   1  23
ATOM     23  C   UNL A   1      37.999  19.709  24.911  1.00  0.00     0.042 C 
BRANCH  23  24
ATOM     24  C   UNL A   1      39.082  20.176  25.878  1.00  0.00     0.118 C 
BRANCH  24  25
ATOM     25  N   UNL A   1      40.135  19.187  26.001  1.00  0.00    -0.352 N 
ATOM     26  C   UNL A   1      41.491  19.395  26.037  1.00  0.00     0.251 C 
ATOM     27  H   UNL A   1      39.842  18.250  26.068  1.00  0.00     0.163 HD
ATOM     28  O   UNL A   1      42.262  18.474  25.794  1.00  0.00    -0.269 OA
BRANCH  26  29
ATOM     29  C   UNL A   1      42.019  20.742  26.347  1.00  0.00     0.039 A 
ATOM     30  C   UNL A   1      42.285  21.078  27.676  1.00  0.00     0.014 A 
ATOM     31  C   UNL A   1      42.200  21.690  25.337  1.00  0.00     0.014 A 
ATOM     32  C   UNL A   1      42.758  22.355  27.986  1.00  0.00     0.010 A 
ATOM     33  C   UNL A   1      42.758  22.930  25.635  1.00  0.00     0.010 A 
ATOM     34  C   UNL A   1      43.013  23.287  26.967  1.00  0.00    -0.014 A 
BRANCH  34  35
ATOM     35  C   UNL A   1      43.489  24.659  27.279  1.00  0.00     0.031 A 
ATOM     36  C   UNL A   1      42.534  25.674  27.848  1.00  0.00     0.074 A 
ATOM     37  C   UNL A   1      44.764  25.003  27.016  1.00  0.00     0.049 A 
ATOM     38  N   UNL A   1      42.741  26.933  28.144  1.00  0.00    -0.248 NA
ATOM     39  C   UNL A   1      41.154  25.224  28.089  1.00  0.00     0.031 C 
ATOM     40  C   UNL A   1      45.773  24.124  26.424  1.00  0.00     0.029 A 
ATOM     41  N   UNL A   1      45.427  26.190  27.207  1.00  0.00    -0.354 N 
ATOM     42  C   UNL A   1      41.518  27.422  28.586  1.00  0.00     0.074 A 
ATOM     43  C   UNL A   1      40.561  26.346  28.465  1.00  0.00     0.031 C 
ATOM     44  C   UNL A   1      46.934  24.792  26.325  1.00  0.00     0.029 A 
ATOM     45  C   UNL A   1      46.742  26.156  26.811  1.00  0.00     0.049 A 
ATOM     46  H   UNL A   1      45.001  26.989  27.593  1.00  0.00     0.167 HD
ATOM     47  C   UNL A   1      41.225  28.651  29.075  1.00  0.00     0.037 A 
ATOM     48  C   UNL A   1      47.684  27.117  26.834  1.00  0.00     0.037 A 
ATOM     49  C   UNL A   1      42.187  29.711  29.225  1.00  0.00     0.049 A 
ATOM     50  C   UNL A   1      47.333  28.475  27.383  1.00  0.00     0.074 A 
ATOM     51  C   UNL A   1      42.007  30.970  29.768  1.00  0.00     0.029 A 
ATOM     52  N   UNL A   1      43.514  29.632  28.827  1.00  0.00    -0.354 N 
ATOM     53  N   UNL A   1      46.192  28.904  27.865  1.00  0.00    -0.248 NA
ATOM     54  C   UNL A   1      48.405  29.480  27.398  1.00  0.00     0.031 C 
ATOM     55  C   UNL A   1      43.212  31.671  29.656  1.00  0.00     0.029 A 
ATOM     56  C   UNL A   1      44.159  30.830  29.092  1.00  0.00     0.049 A 
ATOM     57  H   UNL A   1      43.935  28.842  28.417  1.00  0.00     0.167 HD
ATOM     58  C   UNL A   1      46.415  30.215  28.266  1.00  0.00     0.074 A 
ATOM     59  C   UNL A   1      47.806  30.505  27.985  1.00  0.00     0.031 C 
ATOM     60  C   UNL A   1      45.546  31.099  28.815  1.00  0.00     0.037 A 
BRANCH  47  61
ATOM     61  C   UNL A   1      39.805  28.915  29.491  1.00  0.00     0.064 A 
ATOM     62  C   UNL A   1      38.845  29.380  28.579  1.00  0.00     0.173 A 
ATOM     63  C   UNL A   1      39.391  28.668  30.808  1.00  0.00     0.173 A 
ATOM     64  F   UNL A   1      39.190  29.642  27.309  1.00  0.00    -0.203 F 
ATOM     65  C   UNL A   1      37.533  29.619  28.978  1.00  0.00     0.198 A 
ATOM     66  C   UNL A   1      38.070  28.877  31.196  1.00  0.00     0.198 A 
ATOM     67  F   UNL A   1      40.265  28.215  31.719  1.00  0.00    -0.203 F 
ATOM     68  F   UNL A   1      36.648  30.114  28.102  1.00  0.00    -0.200 F 
ATOM     69  C   UNL A   1      37.144  29.361  30.283  1.00  0.00     0.200 A 
ATOM     70  F   UNL A   1      37.692  28.613  32.454  1.00  0.00    -0.200 F 
ATOM     71  F   UNL A   1      35.879  29.584  30.665  1.00  0.00    -0.200 F 
ENDBRANCH  47  61
BRANCH  48  72
ATOM     72  C   UNL A   1      49.057  26.824  26.347  1.00  0.00     0.064 A 
ATOM     73  C   UNL A   1      49.414  27.065  25.012  1.00  0.00     0.173 A 
ATOM     74  C   UNL A   1      50.037  26.294  27.198  1.00  0.00     0.173 A 
ATOM     75  F   UNL A   1      48.506  27.553  24.154  1.00  0.00    -0.203 F 
ATOM     76  C   UNL A   1      50.691  26.768  24.543  1.00  0.00     0.198 A 
ATOM     77  C   UNL A   1      51.323  26.024  26.734  1.00  0.00     0.198 A 
ATOM     78  F   UNL A   1      49.749  26.050  28.485  1.00  0.00    -0.203 F 
ATOM     79  F   UNL A   1      50.991  26.965  23.251  1.00  0.00    -0.200 F 
ATOM     80  C   UNL A   1      51.647  26.254  25.406  1.00  0.00     0.200 A 
ATOM     81  F   UNL A   1      52.249  25.542  27.575  1.00  0.00    -0.200 F 
ATOM     82  F   UNL A   1      52.877  25.972  24.955  1.00  0.00    -0.200 F 
ENDBRANCH  48  72
BRANCH  60  83
ATOM     83  C   UNL A   1      46.082  32.451  29.185  1.00  0.00     0.064 A 
ATOM     84  C   UNL A   1      46.659  32.697  30.439  1.00  0.00     0.173 A 
ATOM     85  C   UNL A   1      46.054  33.502  28.256  1.00  0.00     0.173 A 
ATOM     86  F   UNL A   1      46.697  31.729  31.367  1.00  0.00    -0.203 F 
ATOM     87  C   UNL A   1      47.166  33.954  30.758  1.00  0.00     0.198 A 
ATOM     88  C   UNL A   1      46.591  34.748  28.567  1.00  0.00     0.198 A 
ATOM     89  F   UNL A   1      45.519  33.317  27.040  1.00  0.00    -0.203 F 
ATOM     90  F   UNL A   1      47.670  34.181  31.979  1.00  0.00    -0.200 F 
ATOM     91  C   UNL A   1      47.139  34.975  29.820  1.00  0.00     0.200 A 
ATOM     92  F   UNL A   1      46.577  35.730  27.654  1.00  0.00    -0.200 F 
ATOM     93  F   UNL A   1      47.635  36.182  30.127  1.00  0.00    -0.200 F 
ENDBRANCH  60  83
ENDBRANCH  34  35
ENDBRANCH  26  29
ENDBRANCH  24  25
ENDBRANCH  23  24
ENDBRANCH   1  23
TORSDOF 16
ENDMDL
