MODEL 1
REMARK VINA RESULT:     -11.7      0.000      0.000
REMARK SMILES O=C(CCNC(=O)N[C@@H]1CCOC1)NCCCNC(=O)c1ccc(-c2c3nc(c(-c4c(F)c(F)c(F)c(F)c4F)c4ccc([nH]4)c(-c4c(F)c(F)c(F)c(F)c4F)c4nc(c(-c5c(F)c(F)c(F)c(F)c5F)c5ccc2[nH]5)C=C4)C=C3)cc1
REMARK SMILES IDX 15 1 14 2 1 3 2 4 3 6 4 7 5 8 6 9 7 11 8 12 9 14 10 15 13 16
REMARK SMILES IDX 11 17 12 18 16 19 17 20 18 21 19 22 20 24 21 25 22 26 83 27
REMARK SMILES IDX 23 28 82 29 24 30 25 31 26 32 76 33 27 34 81 35 75 36 77 37
REMARK SMILES IDX 28 38 80 39 74 40 73 41 29 43 61 44 41 45 60 46 42 47 45 48
REMARK SMILES IDX 59 49 78 50 43 51 44 52 58 54 79 55 46 56 30 57 31 58 39 59
REMARK SMILES IDX 32 60 33 61 37 62 40 63 34 64 35 65 38 66 36 67 62 68 63 69
REMARK SMILES IDX 71 70 64 71 65 72 69 73 72 74 66 75 67 76 70 77 68 78 47 79
REMARK SMILES IDX 48 80 56 81 49 82 50 83 54 84 57 85 51 86 52 87 55 88 53 89
REMARK H PARENT 14 5 5 10 8 13 18 23 77 42 45 53
REMARK Flexibility Score: inf
ROOT
ATOM      1  C   UNL A   1      37.143  20.903  24.819  1.00  0.00     0.117 C 
ENDROOT
BRANCH   1   2
ATOM      2  N   UNL A   1      35.871  20.422  25.312  1.00  0.00    -0.356 N 
ATOM      3  O   UNL A   1      34.566  21.805  24.025  1.00  0.00    -0.275 OA
ATOM      4  C   UNL A   1      34.673  20.905  24.849  1.00  0.00     0.221 C 
ATOM      5  H   UNL A   1      35.864  19.724  26.007  1.00  0.00     0.163 HD
BRANCH   4   6
ATOM      6  C   UNL A   1      33.474  20.265  25.497  1.00  0.00     0.121 C 
BRANCH   6   7
ATOM      7  C   UNL A   1      32.229  20.242  24.608  1.00  0.00     0.127 C 
BRANCH   7   8
ATOM      8  N   UNL A   1      32.411  19.479  23.387  1.00  0.00    -0.338 N 
ATOM      9  C   UNL A   1      32.432  18.188  23.072  1.00  0.00     0.315 C 
ATOM     10  H   UNL A   1      32.553  20.057  22.602  1.00  0.00     0.165 HD
ATOM     11  O   UNL A   1      32.396  17.923  21.864  1.00  0.00    -0.249 OA
ATOM     12  N   UNL A   1      32.501  17.156  23.900  1.00  0.00    -0.333 N 
ATOM     13  H   UNL A   1      32.465  16.327  23.370  1.00  0.00     0.165 HD
BRANCH  12  14
ATOM     14  C   UNL A   1      32.613  16.796  25.328  1.00  0.00     0.112 C 
ATOM     15  C   UNL A   1      33.979  16.851  25.961  1.00  0.00     0.056 C 
ATOM     16  C   UNL A   1      32.415  15.270  25.454  1.00  0.00     0.185 C 
ATOM     17  C   UNL A   1      34.686  15.716  25.264  1.00  0.00     0.162 C 
ATOM     18  O   UNL A   1      33.704  14.671  25.176  1.00  0.00    -0.379 OA
ENDBRANCH  12  14
ENDBRANCH   7   8
ENDBRANCH   6   7
ENDBRANCH   4   6
ENDBRANCH   1   2
BRANCH   1  19
ATOM     19  C   UNL A   1      38.231  19.842  24.903  1.00  0.00     0.042 C 
BRANCH  19  20
ATOM     20  C   UNL A   1      39.276  20.094  25.985  1.00  0.00     0.118 C 
BRANCH  20  21
ATOM     21  N   UNL A   1      40.343  19.104  25.987  1.00  0.00    -0.352 N 
ATOM     22  C   UNL A   1      41.703  19.266  26.093  1.00  0.00     0.251 C 
ATOM     23  H   UNL A   1      40.043  18.172  25.898  1.00  0.00     0.163 HD
ATOM     24  O   UNL A   1      42.446  18.313  25.893  1.00  0.00    -0.269 OA
BRANCH  22  25
ATOM     25  C   UNL A   1      42.273  20.591  26.416  1.00  0.00     0.039 A 
ATOM     26  C   UNL A   1      42.654  21.429  25.365  1.00  0.00     0.014 A 
ATOM     27  C   UNL A   1      42.445  21.006  27.738  1.00  0.00     0.014 A 
ATOM     28  C   UNL A   1      43.142  22.707  25.641  1.00  0.00     0.010 A 
ATOM     29  C   UNL A   1      42.844  22.312  28.009  1.00  0.00     0.010 A 
ATOM     30  C   UNL A   1      43.203  23.175  26.963  1.00  0.00    -0.014 A 
BRANCH  30  31
ATOM     31  C   UNL A   1      43.642  24.562  27.266  1.00  0.00     0.031 A 
ATOM     32  C   UNL A   1      42.662  25.572  27.795  1.00  0.00     0.074 A 
ATOM     33  C   UNL A   1      44.915  24.927  27.016  1.00  0.00     0.049 A 
ATOM     34  N   UNL A   1      42.846  26.836  28.079  1.00  0.00    -0.248 NA
ATOM     35  C   UNL A   1      41.282  25.106  28.010  1.00  0.00     0.031 C 
ATOM     36  C   UNL A   1      45.950  24.056  26.455  1.00  0.00     0.029 A 
ATOM     37  N   UNL A   1      45.556  26.128  27.195  1.00  0.00    -0.354 N 
ATOM     38  C   UNL A   1      41.610  27.316  28.493  1.00  0.00     0.074 A 
ATOM     39  C   UNL A   1      40.669  26.225  28.365  1.00  0.00     0.031 C 
ATOM     40  C   UNL A   1      47.100  24.740  26.366  1.00  0.00     0.029 A 
ATOM     41  C   UNL A   1      46.877  26.110  26.821  1.00  0.00     0.049 A 
ATOM     42  H   UNL A   1      45.109  26.927  27.558  1.00  0.00     0.167 HD
ATOM     43  C   UNL A   1      41.294  28.546  28.963  1.00  0.00     0.037 A 
ATOM     44  C   UNL A   1      47.802  27.087  26.835  1.00  0.00     0.037 A 
ATOM     45  C   UNL A   1      42.237  29.626  29.104  1.00  0.00     0.049 A 
ATOM     46  C   UNL A   1      47.420  28.450  27.348  1.00  0.00     0.074 A 
ATOM     47  C   UNL A   1      42.026  30.894  29.619  1.00  0.00     0.029 A 
ATOM     48  N   UNL A   1      43.569  29.566  28.722  1.00  0.00    -0.354 N 
ATOM     49  N   UNL A   1      46.266  28.871  27.805  1.00  0.00    -0.248 NA
ATOM     50  C   UNL A   1      48.475  29.472  27.356  1.00  0.00     0.031 C 
ATOM     51  C   UNL A   1      43.215  31.618  29.496  1.00  0.00     0.029 A 
ATOM     52  C   UNL A   1      44.186  30.784  28.967  1.00  0.00     0.049 A 
ATOM     53  H   UNL A   1      44.011  28.776  28.336  1.00  0.00     0.167 HD
ATOM     54  C   UNL A   1      46.464  30.192  28.186  1.00  0.00     0.074 A 
ATOM     55  C   UNL A   1      47.854  30.497  27.922  1.00  0.00     0.031 C 
ATOM     56  C   UNL A   1      45.574  31.072  28.706  1.00  0.00     0.037 A 
BRANCH  43  57
ATOM     57  C   UNL A   1      39.864  28.793  29.359  1.00  0.00     0.064 A 
ATOM     58  C   UNL A   1      39.418  28.589  30.674  1.00  0.00     0.173 A 
ATOM     59  C   UNL A   1      38.938  29.273  28.421  1.00  0.00     0.173 A 
ATOM     60  F   UNL A   1      40.259  28.121  31.609  1.00  0.00    -0.203 F 
ATOM     61  C   UNL A   1      38.092  28.826  31.027  1.00  0.00     0.198 A 
ATOM     62  C   UNL A   1      37.621  29.542  28.786  1.00  0.00     0.198 A 
ATOM     63  F   UNL A   1      39.311  29.492  27.152  1.00  0.00    -0.203 F 
ATOM     64  F   UNL A   1      37.677  28.572  32.276  1.00  0.00    -0.200 F 
ATOM     65  C   UNL A   1      37.197  29.310  30.086  1.00  0.00     0.200 A 
ATOM     66  F   UNL A   1      36.762  30.026  27.879  1.00  0.00    -0.200 F 
ATOM     67  F   UNL A   1      35.923  29.547  30.429  1.00  0.00    -0.200 F 
ENDBRANCH  43  57
BRANCH  44  68
ATOM     68  C   UNL A   1      49.188  26.810  26.371  1.00  0.00     0.064 A 
ATOM     69  C   UNL A   1      49.552  27.004  25.030  1.00  0.00     0.173 A 
ATOM     70  C   UNL A   1      50.172  26.335  27.250  1.00  0.00     0.173 A 
ATOM     71  F   UNL A   1      48.641  27.438  24.146  1.00  0.00    -0.203 F 
ATOM     72  C   UNL A   1      50.836  26.707  24.583  1.00  0.00     0.198 A 
ATOM     73  C   UNL A   1      51.466  26.069  26.807  1.00  0.00     0.198 A 
ATOM     74  F   UNL A   1      49.879  26.138  28.543  1.00  0.00    -0.203 F 
ATOM     75  F   UNL A   1      51.140  26.848  23.285  1.00  0.00    -0.200 F 
ATOM     76  C   UNL A   1      51.794  26.244  25.472  1.00  0.00     0.200 A 
ATOM     77  F   UNL A   1      52.393  25.640  27.674  1.00  0.00    -0.200 F 
ATOM     78  F   UNL A   1      53.031  25.961  25.041  1.00  0.00    -0.200 F 
ENDBRANCH  44  68
BRANCH  56  79
ATOM     79  C   UNL A   1      46.089  32.437  29.069  1.00  0.00     0.064 A 
ATOM     80  C   UNL A   1      46.629  32.716  30.333  1.00  0.00     0.173 A 
ATOM     81  C   UNL A   1      46.063  33.477  28.126  1.00  0.00     0.173 A 
ATOM     82  F   UNL A   1      46.666  31.762  31.276  1.00  0.00    -0.203 F 
ATOM     83  C   UNL A   1      47.086  33.992  30.652  1.00  0.00     0.198 A 
ATOM     84  C   UNL A   1      46.555  34.741  28.435  1.00  0.00     0.198 A 
ATOM     85  F   UNL A   1      45.565  33.265  26.898  1.00  0.00    -0.203 F 
ATOM     86  F   UNL A   1      47.540  34.248  31.887  1.00  0.00    -0.200 F 
ATOM     87  C   UNL A   1      47.056  35.001  29.702  1.00  0.00     0.200 A 
ATOM     88  F   UNL A   1      46.541  35.710  27.509  1.00  0.00    -0.200 F 
ATOM     89  F   UNL A   1      47.501  36.227  30.009  1.00  0.00    -0.200 F 
ENDBRANCH  56  79
ENDBRANCH  30  31
ENDBRANCH  22  25
ENDBRANCH  20  21
ENDBRANCH  19  20
ENDBRANCH   1  19
TORSDOF 13
ENDMDL
MODEL 2
REMARK VINA RESULT:     -11.6      6.412     11.629
REMARK SMILES O=C(CCNC(=O)N[C@@H]1CCOC1)NCCCNC(=O)c1ccc(-c2c3nc(c(-c4c(F)c(F)c(F)c(F)c4F)c4ccc([nH]4)c(-c4c(F)c(F)c(F)c(F)c4F)c4nc(c(-c5c(F)c(F)c(F)c(F)c5F)c5ccc2[nH]5)C=C4)C=C3)cc1
REMARK SMILES IDX 15 1 14 2 1 3 2 4 3 6 4 7 5 8 6 9 7 11 8 12 9 14 10 15 13 16
REMARK SMILES IDX 11 17 12 18 16 19 17 20 18 21 19 22 20 24 21 25 22 26 83 27
REMARK SMILES IDX 23 28 82 29 24 30 25 31 26 32 76 33 27 34 81 35 75 36 77 37
REMARK SMILES IDX 28 38 80 39 74 40 73 41 29 43 61 44 41 45 60 46 42 47 45 48
REMARK SMILES IDX 59 49 78 50 43 51 44 52 58 54 79 55 46 56 30 57 31 58 39 59
REMARK SMILES IDX 32 60 33 61 37 62 40 63 34 64 35 65 38 66 36 67 62 68 63 69
REMARK SMILES IDX 71 70 64 71 65 72 69 73 72 74 66 75 67 76 70 77 68 78 47 79
REMARK SMILES IDX 48 80 56 81 49 82 50 83 54 84 57 85 51 86 52 87 55 88 53 89
REMARK H PARENT 14 5 5 10 8 13 18 23 77 42 45 53
REMARK Flexibility Score: inf
ROOT
ATOM      1  C   UNL A   1      31.572  30.726  26.151  1.00  0.00     0.117 C 
ENDROOT
BRANCH   1   2
ATOM      2  N   UNL A   1      30.975  30.424  24.868  1.00  0.00    -0.356 N 
ATOM      3  O   UNL A   1      32.207  28.531  24.458  1.00  0.00    -0.275 OA
ATOM      4  C   UNL A   1      31.332  29.323  24.132  1.00  0.00     0.221 C 
ATOM      5  H   UNL A   1      30.287  31.031  24.509  1.00  0.00     0.163 HD
BRANCH   4   6
ATOM      6  C   UNL A   1      30.585  29.200  22.830  1.00  0.00     0.121 C 
BRANCH   6   7
ATOM      7  C   UNL A   1      30.443  27.760  22.333  1.00  0.00     0.127 C 
BRANCH   7   8
ATOM      8  N   UNL A   1      31.670  27.222  21.775  1.00  0.00    -0.338 N 
ATOM      9  C   UNL A   1      32.210  26.012  21.667  1.00  0.00     0.315 C 
ATOM     10  H   UNL A   1      32.240  27.922  21.382  1.00  0.00     0.165 HD
ATOM     11  O   UNL A   1      33.190  25.921  20.919  1.00  0.00    -0.249 OA
ATOM     12  N   UNL A   1      31.828  24.901  22.277  1.00  0.00    -0.333 N 
ATOM     13  H   UNL A   1      32.401  24.162  21.969  1.00  0.00     0.165 HD
BRANCH  12  14
ATOM     14  C   UNL A   1      30.855  24.364  23.251  1.00  0.00     0.112 C 
ATOM     15  C   UNL A   1      30.827  24.979  24.626  1.00  0.00     0.056 C 
ATOM     16  C   UNL A   1      31.335  22.963  23.686  1.00  0.00     0.185 C 
ATOM     17  C   UNL A   1      32.155  24.534  25.187  1.00  0.00     0.162 C 
ATOM     18  O   UNL A   1      32.308  23.178  24.738  1.00  0.00    -0.379 OA
ENDBRANCH  12  14
ENDBRANCH   7   8
ENDBRANCH   6   7
ENDBRANCH   4   6
ENDBRANCH   1   2
BRANCH   1  19
ATOM     19  C   UNL A   1      31.390  32.186  26.541  1.00  0.00     0.042 C 
BRANCH  19  20
ATOM     20  C   UNL A   1      32.598  32.809  27.234  1.00  0.00     0.118 C 
BRANCH  20  21
ATOM     21  N   UNL A   1      32.384  34.198  27.611  1.00  0.00    -0.352 N 
ATOM     22  C   UNL A   1      32.990  34.958  28.581  1.00  0.00     0.251 C 
ATOM     23  H   UNL A   1      31.697  34.668  27.086  1.00  0.00     0.163 HD
ATOM     24  O   UNL A   1      32.539  36.062  28.859  1.00  0.00    -0.269 OA
BRANCH  22  25
ATOM     25  C   UNL A   1      34.162  34.434  29.314  1.00  0.00     0.039 A 
ATOM     26  C   UNL A   1      33.957  33.820  30.552  1.00  0.00     0.014 A 
ATOM     27  C   UNL A   1      35.455  34.554  28.799  1.00  0.00     0.014 A 
ATOM     28  C   UNL A   1      35.040  33.267  31.238  1.00  0.00     0.010 A 
ATOM     29  C   UNL A   1      36.518  33.922  29.438  1.00  0.00     0.010 A 
ATOM     30  C   UNL A   1      36.323  33.277  30.668  1.00  0.00    -0.014 A 
BRANCH  30  31
ATOM     31  C   UNL A   1      37.468  32.620  31.349  1.00  0.00     0.031 A 
ATOM     32  C   UNL A   1      38.204  31.492  30.680  1.00  0.00     0.074 A 
ATOM     33  C   UNL A   1      37.815  33.006  32.592  1.00  0.00     0.049 A 
ATOM     34  N   UNL A   1      39.199  30.769  31.130  1.00  0.00    -0.248 NA
ATOM     35  C   UNL A   1      37.745  31.105  29.337  1.00  0.00     0.031 C 
ATOM     36  C   UNL A   1      37.148  34.054  33.369  1.00  0.00     0.029 A 
ATOM     37  N   UNL A   1      38.810  32.560  33.426  1.00  0.00    -0.354 N 
ATOM     38  C   UNL A   1      39.475  29.841  30.134  1.00  0.00     0.074 A 
ATOM     39  C   UNL A   1      38.504  30.050  29.083  1.00  0.00     0.031 C 
ATOM     40  C   UNL A   1      37.771  34.189  34.550  1.00  0.00     0.029 A 
ATOM     41  C   UNL A   1      38.853  33.212  34.634  1.00  0.00     0.049 A 
ATOM     42  H   UNL A   1      39.435  31.839  33.180  1.00  0.00     0.167 HD
ATOM     43  C   UNL A   1      40.464  28.917  30.088  1.00  0.00     0.037 A 
ATOM     44  C   UNL A   1      39.666  33.038  35.692  1.00  0.00     0.037 A 
ATOM     45  C   UNL A   1      41.439  28.723  31.130  1.00  0.00     0.049 A 
ATOM     46  C   UNL A   1      40.747  31.993  35.621  1.00  0.00     0.074 A 
ATOM     47  C   UNL A   1      42.512  27.848  31.156  1.00  0.00     0.029 A 
ATOM     48  N   UNL A   1      41.454  29.409  32.336  1.00  0.00    -0.354 N 
ATOM     49  N   UNL A   1      41.044  31.171  34.644  1.00  0.00    -0.248 NA
ATOM     50  C   UNL A   1      41.615  31.860  36.799  1.00  0.00     0.031 C 
ATOM     51  C   UNL A   1      43.141  27.966  32.399  1.00  0.00     0.029 A 
ATOM     52  C   UNL A   1      42.504  28.960  33.123  1.00  0.00     0.049 A 
ATOM     53  H   UNL A   1      40.816  30.113  32.594  1.00  0.00     0.167 HD
ATOM     54  C   UNL A   1      42.149  30.449  35.074  1.00  0.00     0.074 A 
ATOM     55  C   UNL A   1      42.481  30.943  36.394  1.00  0.00     0.031 C 
ATOM     56  C   UNL A   1      42.828  29.465  34.433  1.00  0.00     0.037 A 
BRANCH  43  57
ATOM     57  C   UNL A   1      40.542  28.042  28.868  1.00  0.00     0.064 A 
ATOM     58  C   UNL A   1      39.836  26.831  28.783  1.00  0.00     0.173 A 
ATOM     59  C   UNL A   1      41.303  28.435  27.758  1.00  0.00     0.173 A 
ATOM     60  F   UNL A   1      39.102  26.402  29.820  1.00  0.00    -0.203 F 
ATOM     61  C   UNL A   1      39.916  26.033  27.645  1.00  0.00     0.198 A 
ATOM     62  C   UNL A   1      41.352  27.650  26.607  1.00  0.00     0.198 A 
ATOM     63  F   UNL A   1      41.992  29.585  27.781  1.00  0.00    -0.203 F 
ATOM     64  F   UNL A   1      39.277  24.855  27.608  1.00  0.00    -0.200 F 
ATOM     65  C   UNL A   1      40.667  26.446  26.555  1.00  0.00     0.200 A 
ATOM     66  F   UNL A   1      42.065  28.060  25.549  1.00  0.00    -0.200 F 
ATOM     67  F   UNL A   1      40.735  25.682  25.457  1.00  0.00    -0.200 F 
ENDBRANCH  43  57
BRANCH  44  68
ATOM     68  C   UNL A   1      39.506  33.886  36.903  1.00  0.00     0.064 A 
ATOM     69  C   UNL A   1      38.769  33.435  38.008  1.00  0.00     0.173 A 
ATOM     70  C   UNL A   1      40.074  35.167  36.978  1.00  0.00     0.173 A 
ATOM     71  F   UNL A   1      38.189  32.226  37.977  1.00  0.00    -0.203 F 
ATOM     72  C   UNL A   1      38.582  34.243  39.127  1.00  0.00     0.198 A 
ATOM     73  C   UNL A   1      39.914  35.960  38.112  1.00  0.00     0.198 A 
ATOM     74  F   UNL A   1      40.794  35.644  35.953  1.00  0.00    -0.203 F 
ATOM     75  F   UNL A   1      37.826  33.809  40.145  1.00  0.00    -0.200 F 
ATOM     76  C   UNL A   1      39.159  35.503  39.181  1.00  0.00     0.200 A 
ATOM     77  F   UNL A   1      40.488  37.170  38.167  1.00  0.00    -0.200 F 
ATOM     78  F   UNL A   1      38.982  36.278  40.259  1.00  0.00    -0.200 F 
ENDBRANCH  44  68
BRANCH  56  79
ATOM     79  C   UNL A   1      44.027  28.889  35.132  1.00  0.00     0.064 A 
ATOM     80  C   UNL A   1      45.315  29.417  34.956  1.00  0.00     0.173 A 
ATOM     81  C   UNL A   1      43.880  27.805  36.012  1.00  0.00     0.173 A 
ATOM     82  F   UNL A   1      45.514  30.445  34.117  1.00  0.00    -0.203 F 
ATOM     83  C   UNL A   1      46.414  28.858  35.604  1.00  0.00     0.198 A 
ATOM     84  C   UNL A   1      44.975  27.272  36.686  1.00  0.00     0.198 A 
ATOM     85  F   UNL A   1      42.671  27.265  36.225  1.00  0.00    -0.203 F 
ATOM     86  F   UNL A   1      47.642  29.341  35.370  1.00  0.00    -0.200 F 
ATOM     87  C   UNL A   1      46.242  27.791  36.473  1.00  0.00     0.200 A 
ATOM     88  F   UNL A   1      44.804  26.252  37.539  1.00  0.00    -0.200 F 
ATOM     89  F   UNL A   1      47.301  27.257  37.098  1.00  0.00    -0.200 F 
ENDBRANCH  56  79
ENDBRANCH  30  31
ENDBRANCH  22  25
ENDBRANCH  20  21
ENDBRANCH  19  20
ENDBRANCH   1  19
TORSDOF 13
ENDMDL
MODEL 3
REMARK VINA RESULT:     -11.4      1.572      3.225
REMARK SMILES O=C(CCNC(=O)N[C@@H]1CCOC1)NCCCNC(=O)c1ccc(-c2c3nc(c(-c4c(F)c(F)c(F)c(F)c4F)c4ccc([nH]4)c(-c4c(F)c(F)c(F)c(F)c4F)c4nc(c(-c5c(F)c(F)c(F)c(F)c5F)c5ccc2[nH]5)C=C4)C=C3)cc1
REMARK SMILES IDX 15 1 14 2 1 3 2 4 3 6 4 7 5 8 6 9 7 11 8 12 9 14 10 15 13 16
REMARK SMILES IDX 11 17 12 18 16 19 17 20 18 21 19 22 20 24 21 25 22 26 83 27
REMARK SMILES IDX 23 28 82 29 24 30 25 31 26 32 76 33 27 34 81 35 75 36 77 37
REMARK SMILES IDX 28 38 80 39 74 40 73 41 29 43 61 44 41 45 60 46 42 47 45 48
REMARK SMILES IDX 59 49 78 50 43 51 44 52 58 54 79 55 46 56 30 57 31 58 39 59
REMARK SMILES IDX 32 60 33 61 37 62 40 63 34 64 35 65 38 66 36 67 62 68 63 69
REMARK SMILES IDX 71 70 64 71 65 72 69 73 72 74 66 75 67 76 70 77 68 78 47 79
REMARK SMILES IDX 48 80 56 81 49 82 50 83 54 84 57 85 51 86 52 87 55 88 53 89
REMARK H PARENT 14 5 5 10 8 13 18 23 77 42 45 53
REMARK Flexibility Score: inf
ROOT
ATOM      1  C   UNL A   1      37.003  20.658  24.813  1.00  0.00     0.117 C 
ENDROOT
BRANCH   1   2
ATOM      2  N   UNL A   1      35.687  20.115  25.067  1.00  0.00    -0.356 N 
ATOM      3  O   UNL A   1      34.526  22.035  24.579  1.00  0.00    -0.275 OA
ATOM      4  C   UNL A   1      34.542  20.854  24.903  1.00  0.00     0.221 C 
ATOM      5  H   UNL A   1      35.608  19.181  25.371  1.00  0.00     0.163 HD
BRANCH   4   6
ATOM      6  C   UNL A   1      33.282  20.093  25.222  1.00  0.00     0.121 C 
BRANCH   6   7
ATOM      7  C   UNL A   1      32.001  20.901  25.007  1.00  0.00     0.127 C 
BRANCH   7   8
ATOM      8  N   UNL A   1      31.698  21.800  26.105  1.00  0.00    -0.338 N 
ATOM      9  C   UNL A   1      31.052  22.954  26.234  1.00  0.00     0.315 C 
ATOM     10  H   UNL A   1      32.059  21.476  26.963  1.00  0.00     0.165 HD
ATOM     11  O   UNL A   1      30.811  23.315  27.392  1.00  0.00    -0.249 OA
ATOM     12  N   UNL A   1      30.652  23.766  25.267  1.00  0.00    -0.333 N 
ATOM     13  H   UNL A   1      30.172  24.524  25.675  1.00  0.00     0.165 HD
BRANCH  12  14
ATOM     14  C   UNL A   1      30.661  23.950  23.802  1.00  0.00     0.112 C 
ATOM     15  C   UNL A   1      31.997  23.967  23.105  1.00  0.00     0.056 C 
ATOM     16  C   UNL A   1      30.278  25.415  23.500  1.00  0.00     0.185 C 
ATOM     17  C   UNL A   1      32.592  25.255  23.617  1.00  0.00     0.162 C 
ATOM     18  O   UNL A   1      31.498  26.186  23.630  1.00  0.00    -0.379 OA
ENDBRANCH  12  14
ENDBRANCH   7   8
ENDBRANCH   6   7
ENDBRANCH   4   6
ENDBRANCH   1   2
BRANCH   1  19
ATOM     19  C   UNL A   1      38.100  19.619  24.996  1.00  0.00     0.042 C 
BRANCH  19  20
ATOM     20  C   UNL A   1      39.273  20.085  25.852  1.00  0.00     0.118 C 
BRANCH  20  21
ATOM     21  N   UNL A   1      40.328  19.089  25.963  1.00  0.00    -0.352 N 
ATOM     22  C   UNL A   1      41.682  19.245  26.128  1.00  0.00     0.251 C 
ATOM     23  H   UNL A   1      40.021  18.155  25.914  1.00  0.00     0.163 HD
ATOM     24  O   UNL A   1      42.424  18.275  26.019  1.00  0.00    -0.269 OA
BRANCH  22  25
ATOM     25  C   UNL A   1      42.251  20.581  26.401  1.00  0.00     0.039 A 
ATOM     26  C   UNL A   1      42.681  21.358  25.323  1.00  0.00     0.014 A 
ATOM     27  C   UNL A   1      42.374  21.066  27.705  1.00  0.00     0.014 A 
ATOM     28  C   UNL A   1      43.170  22.646  25.548  1.00  0.00     0.010 A 
ATOM     29  C   UNL A   1      42.774  22.382  27.921  1.00  0.00     0.010 A 
ATOM     30  C   UNL A   1      43.182  23.185  26.845  1.00  0.00    -0.014 A 
BRANCH  30  31
ATOM     31  C   UNL A   1      43.621  24.583  27.090  1.00  0.00     0.031 A 
ATOM     32  C   UNL A   1      42.645  25.610  27.592  1.00  0.00     0.074 A 
ATOM     33  C   UNL A   1      44.890  24.941  26.810  1.00  0.00     0.049 A 
ATOM     34  N   UNL A   1      42.829  26.885  27.826  1.00  0.00    -0.248 NA
ATOM     35  C   UNL A   1      41.269  25.150  27.841  1.00  0.00     0.031 C 
ATOM     36  C   UNL A   1      45.921  24.051  26.271  1.00  0.00     0.029 A 
ATOM     37  N   UNL A   1      45.530  26.149  26.937  1.00  0.00    -0.354 N 
ATOM     38  C   UNL A   1      41.597  27.377  28.237  1.00  0.00     0.074 A 
ATOM     39  C   UNL A   1      40.658  26.280  28.162  1.00  0.00     0.031 C 
ATOM     40  C   UNL A   1      47.068  24.734  26.142  1.00  0.00     0.029 A 
ATOM     41  C   UNL A   1      46.847  26.119  26.547  1.00  0.00     0.049 A 
ATOM     42  H   UNL A   1      45.086  26.960  27.274  1.00  0.00     0.167 HD
ATOM     43  C   UNL A   1      41.284  28.623  28.664  1.00  0.00     0.037 A 
ATOM     44  C   UNL A   1      47.770  27.099  26.514  1.00  0.00     0.037 A 
ATOM     45  C   UNL A   1      42.225  29.709  28.753  1.00  0.00     0.049 A 
ATOM     46  C   UNL A   1      47.390  28.479  26.979  1.00  0.00     0.074 A 
ATOM     47  C   UNL A   1      42.018  30.995  29.222  1.00  0.00     0.029 A 
ATOM     48  N   UNL A   1      43.553  29.638  28.358  1.00  0.00    -0.354 N 
ATOM     49  N   UNL A   1      46.241  28.914  27.435  1.00  0.00    -0.248 NA
ATOM     50  C   UNL A   1      48.443  29.502  26.936  1.00  0.00     0.031 C 
ATOM     51  C   UNL A   1      43.204  31.717  29.057  1.00  0.00     0.029 A 
ATOM     52  C   UNL A   1      44.170  30.865  28.549  1.00  0.00     0.049 A 
ATOM     53  H   UNL A   1      43.993  28.835  27.996  1.00  0.00     0.167 HD
ATOM     54  C   UNL A   1      46.440  30.249  27.763  1.00  0.00     0.074 A 
ATOM     55  C   UNL A   1      47.826  30.546  27.470  1.00  0.00     0.031 C 
ATOM     56  C   UNL A   1      45.554  31.147  28.261  1.00  0.00     0.037 A 
BRANCH  43  57
ATOM     57  C   UNL A   1      39.859  28.882  29.068  1.00  0.00     0.064 A 
ATOM     58  C   UNL A   1      38.901  29.333  28.147  1.00  0.00     0.173 A 
ATOM     59  C   UNL A   1      39.438  28.643  30.385  1.00  0.00     0.173 A 
ATOM     60  F   UNL A   1      39.252  29.588  26.877  1.00  0.00    -0.203 F 
ATOM     61  C   UNL A   1      37.584  29.565  28.536  1.00  0.00     0.198 A 
ATOM     62  C   UNL A   1      38.112  28.842  30.762  1.00  0.00     0.198 A 
ATOM     63  F   UNL A   1      40.309  28.205  31.306  1.00  0.00    -0.203 F 
ATOM     64  F   UNL A   1      36.701  30.048  27.651  1.00  0.00    -0.200 F 
ATOM     65  C   UNL A   1      37.188  29.312  29.840  1.00  0.00     0.200 A 
ATOM     66  F   UNL A   1      37.728  28.581  32.019  1.00  0.00    -0.200 F 
ATOM     67  F   UNL A   1      35.918  29.526  30.211  1.00  0.00    -0.200 F 
ENDBRANCH  43  57
BRANCH  44  68
ATOM     68  C   UNL A   1      49.150  26.807  26.043  1.00  0.00     0.064 A 
ATOM     69  C   UNL A   1      49.515  27.014  24.704  1.00  0.00     0.173 A 
ATOM     70  C   UNL A   1      50.128  26.305  26.914  1.00  0.00     0.173 A 
ATOM     71  F   UNL A   1      48.609  27.473  23.828  1.00  0.00    -0.203 F 
ATOM     72  C   UNL A   1      50.794  26.703  24.251  1.00  0.00     0.198 A 
ATOM     73  C   UNL A   1      51.418  26.026  26.465  1.00  0.00     0.198 A 
ATOM     74  F   UNL A   1      49.835  26.095  28.205  1.00  0.00    -0.203 F 
ATOM     75  F   UNL A   1      51.098  26.857  22.954  1.00  0.00    -0.200 F 
ATOM     76  C   UNL A   1      51.746  26.214  25.132  1.00  0.00     0.200 A 
ATOM     77  F   UNL A   1      52.339  25.571  27.325  1.00  0.00    -0.200 F 
ATOM     78  F   UNL A   1      52.978  25.918  24.695  1.00  0.00    -0.200 F 
ENDBRANCH  44  68
BRANCH  56  79
ATOM     79  C   UNL A   1      46.070  32.525  28.565  1.00  0.00     0.064 A 
ATOM     80  C   UNL A   1      46.025  33.561  27.621  1.00  0.00     0.173 A 
ATOM     81  C   UNL A   1      46.597  32.819  29.833  1.00  0.00     0.173 A 
ATOM     82  F   UNL A   1      45.543  33.331  26.390  1.00  0.00    -0.203 F 
ATOM     83  C   UNL A   1      46.522  34.827  27.921  1.00  0.00     0.198 A 
ATOM     84  C   UNL A   1      47.059  34.095  30.142  1.00  0.00     0.198 A 
ATOM     85  F   UNL A   1      46.657  31.869  30.778  1.00  0.00    -0.203 F 
ATOM     86  F   UNL A   1      46.524  35.782  26.981  1.00  0.00    -0.200 F 
ATOM     87  C   UNL A   1      47.031  35.095  29.182  1.00  0.00     0.200 A 
ATOM     88  F   UNL A   1      47.534  34.357  31.368  1.00  0.00    -0.200 F 
ATOM     89  F   UNL A   1      47.505  36.315  29.470  1.00  0.00    -0.200 F 
ENDBRANCH  56  79
ENDBRANCH  30  31
ENDBRANCH  22  25
ENDBRANCH  20  21
ENDBRANCH  19  20
ENDBRANCH   1  19
TORSDOF 13
ENDMDL
