MODEL 1
REMARK VINA RESULT:      -9.1      0.000      0.000
REMARK SMILES CCCc1n[nH]c(C(=O)N[C@H](C)CC(=O)NCCCNC(=O)c2ccc(-c3c4nc(c(-c5c(F)c(F)c(F)c(F)c5F)c5ccc([nH]5)c(-c5c(F)c(F)c(F)c(F)c5F)c5nc(c(-c6c(F)c(F)c(F)c(F)c6F)c6ccc3[nH]6)C=C5)C=C4)cc2)n1
REMARK SMILES IDX 14 1 15 2 16 3 13 5 11 6 12 7 10 8 8 9 9 10 7 12 4 13 5 14
REMARK SMILES IDX 86 15 6 16 3 18 2 19 1 20 17 21 18 22 19 23 20 24 21 25
REMARK SMILES IDX 22 27 23 28 24 29 85 30 25 31 84 32 26 33 27 34 28 35 78 36
REMARK SMILES IDX 29 37 83 38 77 39 79 40 30 41 82 42 76 43 75 44 31 46 63 47
REMARK SMILES IDX 43 48 62 49 44 50 47 51 61 52 80 53 45 54 46 55 60 57 81 58
REMARK SMILES IDX 48 59 32 60 33 61 41 62 34 63 35 64 39 65 42 66 36 67 37 68
REMARK SMILES IDX 40 69 38 70 64 71 65 72 73 73 66 74 67 75 71 76 74 77 68 78
REMARK SMILES IDX 69 79 72 80 70 81 49 82 50 83 58 84 51 85 52 86 56 87 59 88
REMARK SMILES IDX 53 89 54 90 57 91 55 92
REMARK H PARENT 16 4 10 11 6 17 20 26 79 45 47 56
REMARK Flexibility Score: inf
ROOT
ATOM      1  C   UNL A   1      45.718  24.049  24.657  1.00  0.00     0.222 C 
ATOM      2  O   UNL A   1      45.020  25.064  24.626  1.00  0.00    -0.275 OA
ATOM      3  N   UNL A   1      45.095  22.840  24.757  1.00  0.00    -0.356 N 
ATOM      4  H   UNL A   1      44.110  22.874  24.745  1.00  0.00     0.163 HD
ENDROOT
BRANCH   1   5
ATOM      5  C   UNL A   1      47.229  24.143  24.600  1.00  0.00     0.124 C 
BRANCH   5   6
ATOM      6  C   UNL A   1      47.750  25.531  24.987  1.00  0.00     0.088 C 
ATOM      7  C   UNL A   1      49.092  25.585  25.707  1.00  0.00     0.031 C 
BRANCH   6   8
ATOM      8  N   UNL A   1      47.706  26.516  23.898  1.00  0.00    -0.346 N 
ATOM      9  C   UNL A   1      47.105  27.744  23.751  1.00  0.00     0.288 C 
ATOM     10  O   UNL A   1      47.156  28.245  22.624  1.00  0.00    -0.266 OA
ATOM     11  H   UNL A   1      48.218  26.238  23.104  1.00  0.00     0.164 HD
BRANCH   9  12
ATOM     12  C   UNL A   1      46.459  28.441  24.837  1.00  0.00     0.214 A 
ATOM     13  C   UNL A   1      45.721  29.832  26.265  1.00  0.00     0.151 A 
ATOM     14  N   UNL A   1      44.846  28.827  26.352  1.00  0.00    -0.158 NA
ATOM     15  N   UNL A   1      46.747  29.608  25.375  1.00  0.00    -0.207 NA
ATOM     16  N   UNL A   1      45.340  27.956  25.456  1.00  0.00    -0.255 N 
ATOM     17  H   UNL A   1      44.944  27.074  25.267  1.00  0.00     0.192 HD
BRANCH  13  18
ATOM     18  C   UNL A   1      45.617  31.126  26.998  1.00  0.00     0.079 C 
BRANCH  18  19
ATOM     19  C   UNL A   1      44.259  31.825  26.987  1.00  0.00     0.005 C 
ATOM     20  C   UNL A   1      44.153  32.918  25.934  1.00  0.00     0.004 C 
ENDBRANCH  18  19
ENDBRANCH  13  18
ENDBRANCH   9  12
ENDBRANCH   6   8
ENDBRANCH   5   6
ENDBRANCH   1   5
BRANCH   3  21
ATOM     21  C   UNL A   1      45.665  21.509  24.880  1.00  0.00     0.117 C 
BRANCH  21  22
ATOM     22  C   UNL A   1      44.746  20.426  24.328  1.00  0.00     0.042 C 
BRANCH  22  23
ATOM     23  C   UNL A   1      44.290  19.423  25.377  1.00  0.00     0.118 C 
BRANCH  23  24
ATOM     24  N   UNL A   1      42.846  19.254  25.378  1.00  0.00    -0.352 N 
ATOM     25  C   UNL A   1      41.867  20.007  25.978  1.00  0.00     0.251 C 
ATOM     26  H   UNL A   1      42.519  18.478  24.868  1.00  0.00     0.163 HD
ATOM     27  O   UNL A   1      40.723  19.562  26.035  1.00  0.00    -0.269 OA
BRANCH  25  28
ATOM     28  C   UNL A   1      42.164  21.337  26.564  1.00  0.00     0.039 A 
ATOM     29  C   UNL A   1      42.009  22.473  25.760  1.00  0.00     0.014 A 
ATOM     30  C   UNL A   1      42.655  21.479  27.865  1.00  0.00     0.014 A 
ATOM     31  C   UNL A   1      42.311  23.739  26.269  1.00  0.00     0.010 A 
ATOM     32  C   UNL A   1      42.870  22.748  28.401  1.00  0.00     0.010 A 
ATOM     33  C   UNL A   1      42.727  23.891  27.601  1.00  0.00    -0.014 A 
BRANCH  33  34
ATOM     34  C   UNL A   1      43.065  25.230  28.152  1.00  0.00     0.031 A 
ATOM     35  C   UNL A   1      41.974  26.231  28.428  1.00  0.00     0.074 A 
ATOM     36  C   UNL A   1      44.352  25.563  28.371  1.00  0.00     0.049 A 
ATOM     37  N   UNL A   1      42.068  27.459  28.872  1.00  0.00    -0.248 NA
ATOM     38  C   UNL A   1      40.596  25.806  28.137  1.00  0.00     0.031 C 
ATOM     39  C   UNL A   1      45.506  24.705  28.098  1.00  0.00     0.029 A 
ATOM     40  N   UNL A   1      44.905  26.715  28.870  1.00  0.00    -0.354 N 
ATOM     41  C   UNL A   1      40.771  27.955  28.894  1.00  0.00     0.074 A 
ATOM     42  C   UNL A   1      39.913  26.916  28.368  1.00  0.00     0.031 C 
ATOM     43  C   UNL A   1      46.628  25.350  28.461  1.00  0.00     0.029 A 
ATOM     44  C   UNL A   1      46.275  26.674  28.964  1.00  0.00     0.049 A 
ATOM     45  H   UNL A   1      44.370  27.499  29.137  1.00  0.00     0.167 HD
ATOM     46  C   UNL A   1      40.329  29.156  29.338  1.00  0.00     0.037 A 
ATOM     47  C   UNL A   1      47.147  27.601  29.407  1.00  0.00     0.037 A 
ATOM     48  C   UNL A   1      41.175  30.173  29.903  1.00  0.00     0.049 A 
ATOM     49  C   UNL A   1      46.628  28.917  29.917  1.00  0.00     0.074 A 
ATOM     50  C   UNL A   1      40.814  31.393  30.447  1.00  0.00     0.029 A 
ATOM     51  N   UNL A   1      42.555  30.083  30.001  1.00  0.00    -0.354 N 
ATOM     52  N   UNL A   1      45.393  29.345  29.995  1.00  0.00    -0.248 NA
ATOM     53  C   UNL A   1      47.629  29.877  30.408  1.00  0.00     0.031 C 
ATOM     54  C   UNL A   1      41.979  32.058  30.844  1.00  0.00     0.029 A 
ATOM     55  C   UNL A   1      43.063  31.234  30.582  1.00  0.00     0.049 A 
ATOM     56  H   UNL A   1      43.095  29.316  29.702  1.00  0.00     0.167 HD
ATOM     57  C   UNL A   1      45.463  30.610  30.564  1.00  0.00     0.074 A 
ATOM     58  C   UNL A   1      46.862  30.874  30.826  1.00  0.00     0.031 C 
ATOM     59  C   UNL A   1      44.459  31.478  30.840  1.00  0.00     0.037 A 
BRANCH  46  60
ATOM     60  C   UNL A   1      38.856  29.431  29.242  1.00  0.00     0.064 A 
ATOM     61  C   UNL A   1      38.038  29.457  30.381  1.00  0.00     0.173 A 
ATOM     62  C   UNL A   1      38.261  29.704  28.002  1.00  0.00     0.173 A 
ATOM     63  F   UNL A   1      38.556  29.189  31.590  1.00  0.00    -0.203 F 
ATOM     64  C   UNL A   1      36.674  29.715  30.280  1.00  0.00     0.198 A 
ATOM     65  C   UNL A   1      36.902  29.991  27.906  1.00  0.00     0.198 A 
ATOM     66  F   UNL A   1      38.999  29.698  26.881  1.00  0.00    -0.203 F 
ATOM     67  F   UNL A   1      35.903  29.685  31.375  1.00  0.00    -0.200 F 
ATOM     68  C   UNL A   1      36.108  29.989  29.043  1.00  0.00     0.200 A 
ATOM     69  F   UNL A   1      36.359  30.266  26.712  1.00  0.00    -0.200 F 
ATOM     70  F   UNL A   1      34.796  30.242  28.946  1.00  0.00    -0.200 F 
ENDBRANCH  46  60
BRANCH  47  71
ATOM     71  C   UNL A   1      48.601  27.299  29.422  1.00  0.00     0.064 A 
ATOM     72  C   UNL A   1      49.445  27.786  28.413  1.00  0.00     0.173 A 
ATOM     73  C   UNL A   1      49.176  26.521  30.437  1.00  0.00     0.173 A 
ATOM     74  F   UNL A   1      48.936  28.516  27.410  1.00  0.00    -0.203 F 
ATOM     75  C   UNL A   1      50.806  27.489  28.409  1.00  0.00     0.198 A 
ATOM     76  C   UNL A   1      50.542  26.247  30.445  1.00  0.00     0.198 A 
ATOM     77  F   UNL A   1      48.412  26.035  31.426  1.00  0.00    -0.203 F 
ATOM     78  F   UNL A   1      51.582  27.932  27.410  1.00  0.00    -0.200 F 
ATOM     79  C   UNL A   1      51.356  26.726  29.428  1.00  0.00     0.200 A 
ATOM     80  F   UNL A   1      51.072  25.518  31.437  1.00  0.00    -0.200 F 
ATOM     81  F   UNL A   1      52.665  26.444  29.426  1.00  0.00    -0.200 F 
ENDBRANCH  47  71
BRANCH  59  82
ATOM     82  C   UNL A   1      44.834  32.782  31.478  1.00  0.00     0.064 A 
ATOM     83  C   UNL A   1      45.122  33.918  30.707  1.00  0.00     0.173 A 
ATOM     84  C   UNL A   1      44.872  32.905  32.875  1.00  0.00     0.173 A 
ATOM     85  F   UNL A   1      45.113  33.845  29.369  1.00  0.00    -0.203 F 
ATOM     86  C   UNL A   1      45.456  35.126  31.314  1.00  0.00     0.198 A 
ATOM     87  C   UNL A   1      45.181  34.122  33.477  1.00  0.00     0.198 A 
ATOM     88  F   UNL A   1      44.599  31.848  33.655  1.00  0.00    -0.203 F 
ATOM     89  F   UNL A   1      45.769  36.187  30.558  1.00  0.00    -0.200 F 
ATOM     90  C   UNL A   1      45.478  35.228  32.697  1.00  0.00     0.200 A 
ATOM     91  F   UNL A   1      45.192  34.222  34.814  1.00  0.00    -0.200 F 
ATOM     92  F   UNL A   1      45.796  36.393  33.277  1.00  0.00    -0.200 F 
ENDBRANCH  59  82
ENDBRANCH  33  34
ENDBRANCH  25  28
ENDBRANCH  23  24
ENDBRANCH  22  23
ENDBRANCH  21  22
ENDBRANCH   3  21
TORSDOF 15
ENDMDL
MODEL 2
REMARK VINA RESULT:      -9.1      0.447      7.456
REMARK SMILES CCCc1n[nH]c(C(=O)N[C@H](C)CC(=O)NCCCNC(=O)c2ccc(-c3c4nc(c(-c5c(F)c(F)c(F)c(F)c5F)c5ccc([nH]5)c(-c5c(F)c(F)c(F)c(F)c5F)c5nc(c(-c6c(F)c(F)c(F)c(F)c6F)c6ccc3[nH]6)C=C5)C=C4)cc2)n1
REMARK SMILES IDX 14 1 15 2 16 3 13 5 11 6 12 7 10 8 8 9 9 10 7 12 4 13 5 14
REMARK SMILES IDX 86 15 6 16 3 18 2 19 1 20 17 21 18 22 19 23 20 24 21 25
REMARK SMILES IDX 22 27 23 28 24 29 85 30 25 31 84 32 26 33 27 34 28 35 78 36
REMARK SMILES IDX 29 37 83 38 77 39 79 40 30 41 82 42 76 43 75 44 31 46 63 47
REMARK SMILES IDX 43 48 62 49 44 50 47 51 61 52 80 53 45 54 46 55 60 57 81 58
REMARK SMILES IDX 48 59 32 60 33 61 41 62 34 63 35 64 39 65 42 66 36 67 37 68
REMARK SMILES IDX 40 69 38 70 64 71 65 72 73 73 66 74 67 75 71 76 74 77 68 78
REMARK SMILES IDX 69 79 72 80 70 81 49 82 50 83 58 84 51 85 52 86 56 87 59 88
REMARK SMILES IDX 53 89 54 90 57 91 55 92
REMARK H PARENT 16 4 10 11 6 17 20 26 79 45 47 56
REMARK Flexibility Score: inf
ROOT
ATOM      1  C   UNL A   1      45.898  23.889  24.640  1.00  0.00     0.222 C 
ATOM      2  O   UNL A   1      45.166  24.881  24.622  1.00  0.00    -0.275 OA
ATOM      3  N   UNL A   1      45.321  22.660  24.514  1.00  0.00    -0.356 N 
ATOM      4  H   UNL A   1      44.348  22.666  24.363  1.00  0.00     0.163 HD
ENDROOT
BRANCH   1   5
ATOM      5  C   UNL A   1      47.396  24.032  24.814  1.00  0.00     0.124 C 
BRANCH   5   6
ATOM      6  C   UNL A   1      47.810  25.448  25.229  1.00  0.00     0.088 C 
ATOM      7  C   UNL A   1      49.073  25.575  26.072  1.00  0.00     0.031 C 
BRANCH   6   8
ATOM      8  N   UNL A   1      47.823  26.420  24.127  1.00  0.00    -0.346 N 
ATOM      9  C   UNL A   1      47.185  27.617  23.908  1.00  0.00     0.288 C 
ATOM     10  O   UNL A   1      47.318  28.110  22.784  1.00  0.00    -0.266 OA
ATOM     11  H   UNL A   1      48.418  26.157  23.386  1.00  0.00     0.164 HD
BRANCH   9  12
ATOM     12  C   UNL A   1      46.412  28.296  24.921  1.00  0.00     0.214 A 
ATOM     13  C   UNL A   1      45.543  29.648  26.310  1.00  0.00     0.151 A 
ATOM     14  N   UNL A   1      44.589  28.725  26.162  1.00  0.00    -0.158 NA
ATOM     15  N   UNL A   1      46.690  29.392  25.596  1.00  0.00    -0.207 NA
ATOM     16  N   UNL A   1      45.166  27.875  25.295  1.00  0.00    -0.255 N 
ATOM     17  H   UNL A   1      44.742  27.048  24.967  1.00  0.00     0.192 HD
BRANCH  13  18
ATOM     18  C   UNL A   1      45.411  30.893  27.120  1.00  0.00     0.079 C 
BRANCH  18  19
ATOM     19  C   UNL A   1      44.105  31.674  26.988  1.00  0.00     0.005 C 
ATOM     20  C   UNL A   1      44.183  32.811  25.979  1.00  0.00     0.004 C 
ENDBRANCH  18  19
ENDBRANCH  13  18
ENDBRANCH   9  12
ENDBRANCH   6   8
ENDBRANCH   5   6
ENDBRANCH   1   5
BRANCH   3  21
ATOM     21  C   UNL A   1      45.928  21.340  24.569  1.00  0.00     0.117 C 
BRANCH  21  22
ATOM     22  C   UNL A   1      44.968  20.237  24.141  1.00  0.00     0.042 C 
BRANCH  22  23
ATOM     23  C   UNL A   1      44.499  19.359  25.291  1.00  0.00     0.118 C 
BRANCH  23  24
ATOM     24  N   UNL A   1      43.057  19.170  25.279  1.00  0.00    -0.352 N 
ATOM     25  C   UNL A   1      42.062  19.920  25.855  1.00  0.00     0.251 C 
ATOM     26  H   UNL A   1      42.747  18.381  24.780  1.00  0.00     0.163 HD
ATOM     27  O   UNL A   1      40.924  19.461  25.909  1.00  0.00    -0.269 OA
BRANCH  25  28
ATOM     28  C   UNL A   1      42.335  21.264  26.421  1.00  0.00     0.039 A 
ATOM     29  C   UNL A   1      42.594  21.373  27.793  1.00  0.00     0.014 A 
ATOM     30  C   UNL A   1      42.274  22.422  25.641  1.00  0.00     0.014 A 
ATOM     31  C   UNL A   1      42.823  22.627  28.367  1.00  0.00     0.010 A 
ATOM     32  C   UNL A   1      42.591  23.662  26.195  1.00  0.00     0.010 A 
ATOM     33  C   UNL A   1      42.843  23.782  27.570  1.00  0.00    -0.014 A 
BRANCH  33  34
ATOM     34  C   UNL A   1      43.071  25.124  28.167  1.00  0.00     0.031 A 
ATOM     35  C   UNL A   1      44.458  25.538  28.585  1.00  0.00     0.074 A 
ATOM     36  C   UNL A   1      42.033  25.957  28.370  1.00  0.00     0.049 A 
ATOM     37  N   UNL A   1      44.856  26.647  29.157  1.00  0.00    -0.248 NA
ATOM     38  C   UNL A   1      45.537  24.564  28.359  1.00  0.00     0.031 C 
ATOM     39  C   UNL A   1      40.635  25.658  28.058  1.00  0.00     0.029 A 
ATOM     40  N   UNL A   1      41.993  27.226  28.892  1.00  0.00    -0.354 N 
ATOM     41  C   UNL A   1      46.219  26.495  29.374  1.00  0.00     0.074 A 
ATOM     42  C   UNL A   1      46.573  25.167  28.923  1.00  0.00     0.031 C 
ATOM     43  C   UNL A   1      39.878  26.724  28.366  1.00  0.00     0.029 A 
ATOM     44  C   UNL A   1      40.732  27.769  28.924  1.00  0.00     0.049 A 
ATOM     45  H   UNL A   1      42.793  27.703  29.212  1.00  0.00     0.167 HD
ATOM     46  C   UNL A   1      47.104  27.389  29.877  1.00  0.00     0.037 A 
ATOM     47  C   UNL A   1      40.313  28.975  29.353  1.00  0.00     0.037 A 
ATOM     48  C   UNL A   1      46.763  28.726  30.282  1.00  0.00     0.049 A 
ATOM     49  C   UNL A   1      41.319  29.959  29.885  1.00  0.00     0.074 A 
ATOM     50  C   UNL A   1      47.598  29.731  30.737  1.00  0.00     0.029 A 
ATOM     51  N   UNL A   1      45.477  29.246  30.278  1.00  0.00    -0.354 N 
ATOM     52  N   UNL A   1      42.614  29.826  30.020  1.00  0.00    -0.248 NA
ATOM     53  C   UNL A   1      40.801  31.266  30.317  1.00  0.00     0.031 C 
ATOM     54  C   UNL A   1      46.815  30.849  31.040  1.00  0.00     0.029 A 
ATOM     55  C   UNL A   1      45.495  30.553  30.737  1.00  0.00     0.049 A 
ATOM     56  H   UNL A   1      44.671  28.759  29.991  1.00  0.00     0.167 HD
ATOM     57  C   UNL A   1      43.071  31.034  30.529  1.00  0.00     0.074 A 
ATOM     58  C   UNL A   1      41.915  31.895  30.663  1.00  0.00     0.031 C 
ATOM     59  C   UNL A   1      44.335  31.397  30.860  1.00  0.00     0.037 A 
BRANCH  46  60
ATOM     60  C   UNL A   1      48.535  26.953  30.003  1.00  0.00     0.064 A 
ATOM     61  C   UNL A   1      49.514  27.373  29.090  1.00  0.00     0.173 A 
ATOM     62  C   UNL A   1      48.938  26.132  31.065  1.00  0.00     0.173 A 
ATOM     63  F   UNL A   1      49.177  28.148  28.048  1.00  0.00    -0.203 F 
ATOM     64  C   UNL A   1      50.838  26.962  29.219  1.00  0.00     0.198 A 
ATOM     65  C   UNL A   1      50.269  25.747  31.209  1.00  0.00     0.198 A 
ATOM     66  F   UNL A   1      48.043  25.706  31.970  1.00  0.00    -0.203 F 
ATOM     67  F   UNL A   1      51.746  27.336  28.307  1.00  0.00    -0.200 F 
ATOM     68  C   UNL A   1      51.216  26.156  30.282  1.00  0.00     0.200 A 
ATOM     69  F   UNL A   1      50.634  24.976  32.243  1.00  0.00    -0.200 F 
ATOM     70  F   UNL A   1      52.492  25.765  30.408  1.00  0.00    -0.200 F 
ENDBRANCH  46  60
BRANCH  47  71
ATOM     71  C   UNL A   1      38.874  29.333  29.263  1.00  0.00     0.064 A 
ATOM     72  C   UNL A   1      38.280  29.610  28.023  1.00  0.00     0.173 A 
ATOM     73  C   UNL A   1      38.066  29.409  30.406  1.00  0.00     0.173 A 
ATOM     74  F   UNL A   1      39.019  29.572  26.905  1.00  0.00    -0.203 F 
ATOM     75  C   UNL A   1      36.937  29.967  27.933  1.00  0.00     0.198 A 
ATOM     76  C   UNL A   1      36.716  29.741  30.311  1.00  0.00     0.198 A 
ATOM     77  F   UNL A   1      38.586  29.150  31.614  1.00  0.00    -0.203 F 
ATOM     78  F   UNL A   1      36.405  30.267  26.739  1.00  0.00    -0.200 F 
ATOM     79  C   UNL A   1      36.154  30.026  29.075  1.00  0.00     0.200 A 
ATOM     80  F   UNL A   1      35.960  29.786  31.417  1.00  0.00    -0.200 F 
ATOM     81  F   UNL A   1      34.861  30.365  28.988  1.00  0.00    -0.200 F 
ENDBRANCH  47  71
BRANCH  59  82
ATOM     82  C   UNL A   1      44.535  32.791  31.376  1.00  0.00     0.064 A 
ATOM     83  C   UNL A   1      44.849  33.852  30.514  1.00  0.00     0.173 A 
ATOM     84  C   UNL A   1      44.377  33.074  32.741  1.00  0.00     0.173 A 
ATOM     85  F   UNL A   1      45.026  33.628  29.204  1.00  0.00    -0.203 F 
ATOM     86  C   UNL A   1      45.020  35.144  31.005  1.00  0.00     0.198 A 
ATOM     87  C   UNL A   1      44.522  34.372  33.223  1.00  0.00     0.198 A 
ATOM     88  F   UNL A   1      44.070  32.093  33.603  1.00  0.00    -0.203 F 
ATOM     89  F   UNL A   1      45.362  36.135  30.171  1.00  0.00    -0.200 F 
ATOM     90  C   UNL A   1      44.849  35.403  32.357  1.00  0.00     0.200 A 
ATOM     91  F   UNL A   1      44.346  34.622  34.528  1.00  0.00    -0.200 F 
ATOM     92  F   UNL A   1      45.009  36.648  32.826  1.00  0.00    -0.200 F 
ENDBRANCH  59  82
ENDBRANCH  33  34
ENDBRANCH  25  28
ENDBRANCH  23  24
ENDBRANCH  22  23
ENDBRANCH  21  22
ENDBRANCH   3  21
TORSDOF 15
ENDMDL
MODEL 3
REMARK VINA RESULT:      -9.1      6.245     11.023
REMARK SMILES CCCc1n[nH]c(C(=O)N[C@H](C)CC(=O)NCCCNC(=O)c2ccc(-c3c4nc(c(-c5c(F)c(F)c(F)c(F)c5F)c5ccc([nH]5)c(-c5c(F)c(F)c(F)c(F)c5F)c5nc(c(-c6c(F)c(F)c(F)c(F)c6F)c6ccc3[nH]6)C=C5)C=C4)cc2)n1
REMARK SMILES IDX 14 1 15 2 16 3 13 5 11 6 12 7 10 8 8 9 9 10 7 12 4 13 5 14
REMARK SMILES IDX 86 15 6 16 3 18 2 19 1 20 17 21 18 22 19 23 20 24 21 25
REMARK SMILES IDX 22 27 23 28 24 29 85 30 25 31 84 32 26 33 27 34 28 35 78 36
REMARK SMILES IDX 29 37 83 38 77 39 79 40 30 41 82 42 76 43 75 44 31 46 63 47
REMARK SMILES IDX 43 48 62 49 44 50 47 51 61 52 80 53 45 54 46 55 60 57 81 58
REMARK SMILES IDX 48 59 32 60 33 61 41 62 34 63 35 64 39 65 42 66 36 67 37 68
REMARK SMILES IDX 40 69 38 70 64 71 65 72 73 73 66 74 67 75 71 76 74 77 68 78
REMARK SMILES IDX 69 79 72 80 70 81 49 82 50 83 58 84 51 85 52 86 56 87 59 88
REMARK SMILES IDX 53 89 54 90 57 91 55 92
REMARK H PARENT 16 4 10 11 6 17 20 26 79 45 47 56
REMARK Flexibility Score: inf
ROOT
ATOM      1  C   UNL A   1      32.722  29.164  24.542  1.00  0.00     0.222 C 
ATOM      2  O   UNL A   1      33.748  28.542  24.823  1.00  0.00    -0.275 OA
ATOM      3  N   UNL A   1      32.255  30.078  25.440  1.00  0.00    -0.356 N 
ATOM      4  H   UNL A   1      32.818  30.207  26.238  1.00  0.00     0.163 HD
ENDROOT
BRANCH   1   5
ATOM      5  C   UNL A   1      31.990  28.908  23.241  1.00  0.00     0.124 C 
BRANCH   5   6
ATOM      6  C   UNL A   1      31.652  27.427  23.034  1.00  0.00     0.088 C 
ATOM      7  C   UNL A   1      30.256  26.978  23.446  1.00  0.00     0.031 C 
BRANCH   6   8
ATOM      8  N   UNL A   1      31.991  26.912  21.700  1.00  0.00    -0.346 N 
ATOM      9  C   UNL A   1      32.671  25.804  21.254  1.00  0.00     0.288 C 
ATOM     10  O   UNL A   1      32.900  25.755  20.042  1.00  0.00    -0.266 OA
ATOM     11  H   UNL A   1      31.658  27.483  20.969  1.00  0.00     0.164 HD
BRANCH   9  12
ATOM     12  C   UNL A   1      33.088  24.731  22.125  1.00  0.00     0.214 A 
ATOM     13  C   UNL A   1      34.018  23.450  23.543  1.00  0.00     0.151 A 
ATOM     14  N   UNL A   1      32.812  22.895  23.391  1.00  0.00    -0.158 NA
ATOM     15  N   UNL A   1      34.234  24.553  22.749  1.00  0.00    -0.207 NA
ATOM     16  N   UNL A   1      32.251  23.710  22.481  1.00  0.00    -0.255 N 
ATOM     17  H   UNL A   1      31.345  23.587  22.114  1.00  0.00     0.192 HD
BRANCH  13  18
ATOM     18  C   UNL A   1      35.056  22.993  24.511  1.00  0.00     0.079 C 
BRANCH  18  19
ATOM     19  C   UNL A   1      35.879  24.072  25.210  1.00  0.00     0.005 C 
ATOM     20  C   UNL A   1      36.971  23.509  26.108  1.00  0.00     0.004 C 
ENDBRANCH  18  19
ENDBRANCH  13  18
ENDBRANCH   9  12
ENDBRANCH   6   8
ENDBRANCH   5   6
ENDBRANCH   1   5
BRANCH   3  21
ATOM     21  C   UNL A   1      31.049  30.889  25.397  1.00  0.00     0.117 C 
BRANCH  21  22
ATOM     22  C   UNL A   1      31.028  31.962  26.479  1.00  0.00     0.042 C 
BRANCH  22  23
ATOM     23  C   UNL A   1      32.411  32.451  26.878  1.00  0.00     0.118 C 
BRANCH  23  24
ATOM     24  N   UNL A   1      32.386  33.821  27.364  1.00  0.00    -0.352 N 
ATOM     25  C   UNL A   1      33.127  34.424  28.351  1.00  0.00     0.251 C 
ATOM     26  H   UNL A   1      31.737  34.409  26.915  1.00  0.00     0.163 HD
ATOM     27  O   UNL A   1      32.794  35.536  28.752  1.00  0.00    -0.269 OA
BRANCH  25  28
ATOM     28  C   UNL A   1      34.312  33.757  28.945  1.00  0.00     0.039 A 
ATOM     29  C   UNL A   1      34.106  32.695  29.833  1.00  0.00     0.014 A 
ATOM     30  C   UNL A   1      35.614  34.201  28.697  1.00  0.00     0.014 A 
ATOM     31  C   UNL A   1      35.197  32.065  30.438  1.00  0.00     0.010 A 
ATOM     32  C   UNL A   1      36.704  33.515  29.228  1.00  0.00     0.010 A 
ATOM     33  C   UNL A   1      36.509  32.456  30.127  1.00  0.00    -0.014 A 
BRANCH  33  34
ATOM     34  C   UNL A   1      37.678  31.804  30.772  1.00  0.00     0.031 A 
ATOM     35  C   UNL A   1      38.097  32.207  32.161  1.00  0.00     0.074 A 
ATOM     36  C   UNL A   1      38.388  30.878  30.101  1.00  0.00     0.049 A 
ATOM     37  N   UNL A   1      39.107  31.786  32.880  1.00  0.00    -0.248 NA
ATOM     38  C   UNL A   1      37.290  33.246  32.821  1.00  0.00     0.031 C 
ATOM     39  C   UNL A   1      38.121  30.435  28.732  1.00  0.00     0.029 A 
ATOM     40  N   UNL A   1      39.486  30.144  30.478  1.00  0.00    -0.354 N 
ATOM     41  C   UNL A   1      39.067  32.517  34.059  1.00  0.00     0.074 A 
ATOM     42  C   UNL A   1      37.967  33.449  33.941  1.00  0.00     0.031 C 
ATOM     43  C   UNL A   1      39.010  29.485  28.395  1.00  0.00     0.029 A 
ATOM     44  C   UNL A   1      39.927  29.274  29.512  1.00  0.00     0.049 A 
ATOM     45  H   UNL A   1      39.916  30.233  31.360  1.00  0.00     0.167 HD
ATOM     46  C   UNL A   1      39.857  32.406  35.154  1.00  0.00     0.037 A 
ATOM     47  C   UNL A   1      40.954  28.402  29.526  1.00  0.00     0.037 A 
ATOM     48  C   UNL A   1      40.923  31.450  35.292  1.00  0.00     0.049 A 
ATOM     49  C   UNL A   1      41.801  28.281  30.763  1.00  0.00     0.074 A 
ATOM     50  C   UNL A   1      41.732  31.210  36.387  1.00  0.00     0.029 A 
ATOM     51  N   UNL A   1      41.323  30.570  34.298  1.00  0.00    -0.354 N 
ATOM     52  N   UNL A   1      41.708  28.932  31.896  1.00  0.00    -0.248 NA
ATOM     53  C   UNL A   1      42.892  27.296  30.724  1.00  0.00     0.031 C 
ATOM     54  C   UNL A   1      42.647  30.208  36.046  1.00  0.00     0.029 A 
ATOM     55  C   UNL A   1      42.380  29.796  34.749  1.00  0.00     0.049 A 
ATOM     56  H   UNL A   1      40.917  30.504  33.403  1.00  0.00     0.167 HD
ATOM     57  C   UNL A   1      42.709  28.423  32.712  1.00  0.00     0.074 A 
ATOM     58  C   UNL A   1      43.388  27.396  31.949  1.00  0.00     0.031 C 
ATOM     59  C   UNL A   1      43.041  28.776  33.978  1.00  0.00     0.037 A 
BRANCH  46  60
ATOM     60  C   UNL A   1      39.588  33.338  36.300  1.00  0.00     0.064 A 
ATOM     61  C   UNL A   1      40.159  34.618  36.356  1.00  0.00     0.173 A 
ATOM     62  C   UNL A   1      38.724  32.959  37.338  1.00  0.00     0.173 A 
ATOM     63  F   UNL A   1      41.002  35.024  35.394  1.00  0.00    -0.203 F 
ATOM     64  C   UNL A   1      39.899  35.473  37.424  1.00  0.00     0.198 A 
ATOM     65  C   UNL A   1      38.444  33.828  38.390  1.00  0.00     0.198 A 
ATOM     66  F   UNL A   1      38.147  31.748  37.331  1.00  0.00    -0.203 F 
ATOM     67  F   UNL A   1      40.495  36.672  37.481  1.00  0.00    -0.200 F 
ATOM     68  C   UNL A   1      39.037  35.080  38.436  1.00  0.00     0.200 A 
ATOM     69  F   UNL A   1      37.601  33.450  39.362  1.00  0.00    -0.200 F 
ATOM     70  F   UNL A   1      38.784  35.906  39.461  1.00  0.00    -0.200 F 
ENDBRANCH  46  60
BRANCH  47  71
ATOM     71  C   UNL A   1      41.215  27.548  28.340  1.00  0.00     0.064 A 
ATOM     72  C   UNL A   1      42.119  27.955  27.348  1.00  0.00     0.173 A 
ATOM     73  C   UNL A   1      40.569  26.315  28.170  1.00  0.00     0.173 A 
ATOM     74  F   UNL A   1      42.744  29.136  27.456  1.00  0.00    -0.203 F 
ATOM     75  C   UNL A   1      42.353  27.168  26.222  1.00  0.00     0.198 A 
ATOM     76  C   UNL A   1      40.824  25.518  27.056  1.00  0.00     0.198 A 
ATOM     77  F   UNL A   1      39.698  25.880  29.092  1.00  0.00    -0.203 F 
ATOM     78  F   UNL A   1      43.190  27.600  25.269  1.00  0.00    -0.200 F 
ATOM     79  C   UNL A   1      41.710  25.948  26.079  1.00  0.00     0.200 A 
ATOM     80  F   UNL A   1      40.209  24.334  26.927  1.00  0.00    -0.200 F 
ATOM     81  F   UNL A   1      41.938  25.191  24.998  1.00  0.00    -0.200 F 
ENDBRANCH  47  71
BRANCH  59  82
ATOM     82  C   UNL A   1      44.171  28.031  34.625  1.00  0.00     0.064 A 
ATOM     83  C   UNL A   1      43.952  26.841  35.334  1.00  0.00     0.173 A 
ATOM     84  C   UNL A   1      45.489  28.495  34.503  1.00  0.00     0.173 A 
ATOM     85  F   UNL A   1      42.707  26.368  35.491  1.00  0.00    -0.203 F 
ATOM     86  C   UNL A   1      45.012  26.154  35.919  1.00  0.00     0.198 A 
ATOM     87  C   UNL A   1      46.549  27.789  35.067  1.00  0.00     0.198 A 
ATOM     88  F   UNL A   1      45.750  29.625  33.829  1.00  0.00    -0.203 F 
ATOM     89  F   UNL A   1      44.776  25.042  36.629  1.00  0.00    -0.200 F 
ATOM     90  C   UNL A   1      46.309  26.624  35.778  1.00  0.00     0.200 A 
ATOM     91  F   UNL A   1      47.803  28.240  34.921  1.00  0.00    -0.200 F 
ATOM     92  F   UNL A   1      47.328  25.958  36.338  1.00  0.00    -0.200 F 
ENDBRANCH  59  82
ENDBRANCH  33  34
ENDBRANCH  25  28
ENDBRANCH  23  24
ENDBRANCH  22  23
ENDBRANCH  21  22
ENDBRANCH   3  21
TORSDOF 15
ENDMDL
