MODEL 1
REMARK VINA RESULT:     -13.8      0.000      0.000
REMARK SMILES CC(C)Oc1ccc([C@@H]2CC(=O)Nc3c(C(=O)NCCCNC(=O)c4ccc(-c5c6nc(c(-c7c(F)c(F)c(F)c(F)c7F)c7ccc([nH]7)c(-c7c(F)c(F)c(F)c(F)c7F)c7nc(c(-c8c(F)c(F)c(F)c(F)c8F)c8ccc5[nH]8)C=C7)C=C6)cc4)nsc32)cc1
REMARK SMILES IDX 19 1 18 2 16 3 17 4 15 6 9 7 10 8 90 9 11 10 14 11 89 12
REMARK SMILES IDX 12 13 13 14 88 15 8 17 5 18 6 19 92 20 7 21 91 22 4 23 2 24
REMARK SMILES IDX 1 25 3 26 20 27 21 28 22 29 23 30 24 32 25 33 26 34 87 35
REMARK SMILES IDX 27 36 86 37 28 38 29 39 30 40 80 41 31 42 85 43 79 44 81 45
REMARK SMILES IDX 32 46 84 47 78 48 77 49 33 51 65 52 45 53 64 54 46 55 49 56
REMARK SMILES IDX 63 57 82 58 47 59 48 60 62 62 83 63 50 64 34 65 35 66 43 67
REMARK SMILES IDX 36 68 37 69 41 70 44 71 38 72 39 73 42 74 40 75 66 76 67 77
REMARK SMILES IDX 75 78 68 79 69 80 73 81 76 82 70 83 71 84 74 85 72 86 51 87
REMARK SMILES IDX 52 88 60 89 53 90 54 91 58 92 61 93 55 94 56 95 59 96 57 97
REMARK H PARENT 18 5 13 16 22 31 81 50 49 61
REMARK Flexibility Score: inf
ROOT
ATOM      1  C   UNL A   1      36.880  21.733  25.689  1.00  0.00     0.118 C 
ENDROOT
BRANCH   1   2
ATOM      2  N   UNL A   1      35.852  20.713  25.548  1.00  0.00    -0.351 N 
ATOM      3  C   UNL A   1      34.629  20.813  24.889  1.00  0.00     0.273 C 
ATOM      4  O   UNL A   1      33.952  19.789  24.784  1.00  0.00    -0.267 OA
ATOM      5  H   UNL A   1      36.045  19.846  25.970  1.00  0.00     0.163 HD
BRANCH   3   6
ATOM      6  C   UNL A   1      34.165  22.133  24.408  1.00  0.00     0.165 A 
ATOM      7  C   UNL A   1      31.561  24.826  24.367  1.00  0.00     0.073 C 
ATOM      8  C   UNL A   1      30.660  24.233  25.470  1.00  0.00     0.114 C 
ATOM      9  C   UNL A   1      32.715  23.917  24.122  1.00  0.00     0.058 A 
ATOM     10  C   UNL A   1      31.385  23.444  26.554  1.00  0.00     0.225 C 
ATOM     11  C   UNL A   1      33.198  23.007  25.026  1.00  0.00     0.089 A 
ATOM     12  S   UNL A   1      33.659  23.852  22.719  1.00  0.00    -0.038 S 
ATOM     13  O   UNL A   1      30.827  23.130  27.606  1.00  0.00    -0.275 OA
ATOM     14  N   UNL A   1      32.632  22.942  26.284  1.00  0.00    -0.323 N 
ATOM     15  N   UNL A   1      34.570  22.550  23.197  1.00  0.00    -0.185 NA
ATOM     16  H   UNL A   1      33.142  22.520  27.014  1.00  0.00     0.170 HD
BRANCH   7  17
ATOM     17  C   UNL A   1      32.001  26.232  24.720  1.00  0.00    -0.039 A 
ATOM     18  C   UNL A   1      32.814  28.837  25.332  1.00  0.00     0.119 A 
ATOM     19  C   UNL A   1      31.597  28.623  24.687  1.00  0.00     0.047 A 
ATOM     20  C   UNL A   1      33.587  27.757  25.737  1.00  0.00     0.047 A 
ATOM     21  C   UNL A   1      31.192  27.326  24.376  1.00  0.00     0.008 A 
ATOM     22  C   UNL A   1      33.197  26.464  25.412  1.00  0.00     0.008 A 
BRANCH  18  23
ATOM     23  O   UNL A   1      33.165  30.126  25.609  1.00  0.00    -0.491 OA
BRANCH  23  24
ATOM     24  C   UNL A   1      32.685  30.668  26.855  1.00  0.00     0.167 C 
ATOM     25  C   UNL A   1      33.799  31.236  27.732  1.00  0.00     0.052 C 
ATOM     26  C   UNL A   1      31.510  31.637  26.705  1.00  0.00     0.052 C 
ENDBRANCH  23  24
ENDBRANCH  18  23
ENDBRANCH   7  17
ENDBRANCH   3   6
ENDBRANCH   1   2
BRANCH   1  27
ATOM     27  C   UNL A   1      38.314  21.377  25.353  1.00  0.00     0.042 C 
BRANCH  27  28
ATOM     28  C   UNL A   1      39.304  21.841  26.392  1.00  0.00     0.118 C 
BRANCH  28  29
ATOM     29  N   UNL A   1      40.695  21.986  25.945  1.00  0.00    -0.352 N 
ATOM     30  C   UNL A   1      41.521  23.076  26.206  1.00  0.00     0.251 C 
ATOM     31  H   UNL A   1      41.075  21.250  25.415  1.00  0.00     0.163 HD
ATOM     32  O   UNL A   1      42.608  23.226  25.668  1.00  0.00    -0.269 OA
BRANCH  30  33
ATOM     33  C   UNL A   1      41.001  24.073  27.162  1.00  0.00     0.039 A 
ATOM     34  C   UNL A   1      41.728  24.400  28.308  1.00  0.00     0.014 A 
ATOM     35  C   UNL A   1      40.022  24.919  26.666  1.00  0.00     0.014 A 
ATOM     36  C   UNL A   1      41.582  25.678  28.853  1.00  0.00     0.010 A 
ATOM     37  C   UNL A   1      40.063  26.234  27.069  1.00  0.00     0.010 A 
ATOM     38  C   UNL A   1      40.803  26.638  28.184  1.00  0.00    -0.014 A 
BRANCH  38  39
ATOM     39  C   UNL A   1      40.817  28.054  28.587  1.00  0.00     0.031 A 
ATOM     40  C   UNL A   1      41.914  28.938  28.069  1.00  0.00     0.074 A 
ATOM     41  C   UNL A   1      39.830  28.657  29.289  1.00  0.00     0.049 A 
ATOM     42  N   UNL A   1      42.868  29.486  28.757  1.00  0.00    -0.248 NA
ATOM     43  C   UNL A   1      41.975  29.248  26.634  1.00  0.00     0.031 C 
ATOM     44  C   UNL A   1      38.532  28.130  29.733  1.00  0.00     0.029 A 
ATOM     45  N   UNL A   1      39.777  29.954  29.708  1.00  0.00    -0.354 N 
ATOM     46  C   UNL A   1      43.575  30.314  27.887  1.00  0.00     0.074 A 
ATOM     47  C   UNL A   1      43.032  30.066  26.572  1.00  0.00     0.031 C 
ATOM     48  C   UNL A   1      37.736  29.140  30.133  1.00  0.00     0.029 A 
ATOM     49  C   UNL A   1      38.543  30.337  30.200  1.00  0.00     0.049 A 
ATOM     50  H   UNL A   1      40.550  30.565  29.664  1.00  0.00     0.167 HD
ATOM     51  C   UNL A   1      44.455  31.257  28.336  1.00  0.00     0.037 A 
ATOM     52  C   UNL A   1      38.189  31.536  30.705  1.00  0.00     0.037 A 
ATOM     53  C   UNL A   1      44.785  31.060  29.723  1.00  0.00     0.049 A 
ATOM     54  C   UNL A   1      39.422  32.189  31.193  1.00  0.00     0.074 A 
ATOM     55  C   UNL A   1      45.392  30.057  30.452  1.00  0.00     0.029 A 
ATOM     56  N   UNL A   1      44.181  31.868  30.654  1.00  0.00    -0.354 N 
ATOM     57  N   UNL A   1      40.123  31.750  32.202  1.00  0.00    -0.248 NA
ATOM     58  C   UNL A   1      40.112  33.109  30.306  1.00  0.00     0.031 C 
ATOM     59  C   UNL A   1      44.689  30.030  31.694  1.00  0.00     0.029 A 
ATOM     60  C   UNL A   1      43.729  31.043  31.651  1.00  0.00     0.049 A 
ATOM     61  H   UNL A   1      44.092  32.847  30.615  1.00  0.00     0.167 HD
ATOM     62  C   UNL A   1      41.441  31.995  31.850  1.00  0.00     0.074 A 
ATOM     63  C   UNL A   1      41.364  32.937  30.738  1.00  0.00     0.031 C 
ATOM     64  C   UNL A   1      42.457  31.210  32.315  1.00  0.00     0.037 A 
BRANCH  51  65
ATOM     65  C   UNL A   1      44.824  32.535  27.627  1.00  0.00     0.064 A 
ATOM     66  C   UNL A   1      46.079  32.652  26.991  1.00  0.00     0.173 A 
ATOM     67  C   UNL A   1      44.115  33.740  27.802  1.00  0.00     0.173 A 
ATOM     68  F   UNL A   1      46.850  31.571  26.798  1.00  0.00    -0.203 F 
ATOM     69  C   UNL A   1      46.608  33.892  26.616  1.00  0.00     0.198 A 
ATOM     70  C   UNL A   1      44.624  34.970  27.383  1.00  0.00     0.198 A 
ATOM     71  F   UNL A   1      42.961  33.779  28.481  1.00  0.00    -0.203 F 
ATOM     72  F   UNL A   1      47.850  33.965  26.121  1.00  0.00    -0.200 F 
ATOM     73  C   UNL A   1      45.881  35.050  26.817  1.00  0.00     0.200 A 
ATOM     74  F   UNL A   1      43.917  36.087  27.604  1.00  0.00    -0.200 F 
ATOM     75  F   UNL A   1      46.407  36.244  26.512  1.00  0.00    -0.200 F 
ENDBRANCH  51  65
BRANCH  52  76
ATOM     76  C   UNL A   1      36.876  32.191  30.575  1.00  0.00     0.064 A 
ATOM     77  C   UNL A   1      35.924  32.140  31.600  1.00  0.00     0.173 A 
ATOM     78  C   UNL A   1      36.627  33.093  29.520  1.00  0.00     0.173 A 
ATOM     79  F   UNL A   1      36.112  31.332  32.653  1.00  0.00    -0.203 F 
ATOM     80  C   UNL A   1      34.795  32.965  31.582  1.00  0.00     0.198 A 
ATOM     81  C   UNL A   1      35.500  33.910  29.500  1.00  0.00     0.198 A 
ATOM     82  F   UNL A   1      37.521  33.258  28.532  1.00  0.00    -0.203 F 
ATOM     83  F   UNL A   1      33.931  32.933  32.607  1.00  0.00    -0.200 F 
ATOM     84  C   UNL A   1      34.590  33.855  30.540  1.00  0.00     0.200 A 
ATOM     85  F   UNL A   1      35.331  34.789  28.503  1.00  0.00    -0.200 F 
ATOM     86  F   UNL A   1      33.541  34.687  30.557  1.00  0.00    -0.200 F 
ENDBRANCH  52  76
BRANCH  64  87
ATOM     87  C   UNL A   1      42.147  30.252  33.432  1.00  0.00     0.064 A 
ATOM     88  C   UNL A   1      41.721  28.928  33.226  1.00  0.00     0.173 A 
ATOM     89  C   UNL A   1      42.430  30.635  34.748  1.00  0.00     0.173 A 
ATOM     90  F   UNL A   1      41.532  28.451  31.991  1.00  0.00    -0.203 F 
ATOM     91  C   UNL A   1      41.539  28.049  34.291  1.00  0.00     0.198 A 
ATOM     92  C   UNL A   1      42.280  29.746  35.810  1.00  0.00     0.198 A 
ATOM     93  F   UNL A   1      42.902  31.867  35.001  1.00  0.00    -0.203 F 
ATOM     94  F   UNL A   1      41.119  26.795  34.065  1.00  0.00    -0.200 F 
ATOM     95  C   UNL A   1      41.823  28.457  35.582  1.00  0.00     0.200 A 
ATOM     96  F   UNL A   1      42.604  30.129  37.052  1.00  0.00    -0.200 F 
ATOM     97  F   UNL A   1      41.685  27.602  36.605  1.00  0.00    -0.200 F 
ENDBRANCH  64  87
ENDBRANCH  38  39
ENDBRANCH  30  33
ENDBRANCH  28  29
ENDBRANCH  27  28
ENDBRANCH   1  27
TORSDOF 13
ENDMDL
MODEL 2
REMARK VINA RESULT:     -13.3      3.292      9.002
REMARK SMILES CC(C)Oc1ccc([C@@H]2CC(=O)Nc3c(C(=O)NCCCNC(=O)c4ccc(-c5c6nc(c(-c7c(F)c(F)c(F)c(F)c7F)c7ccc([nH]7)c(-c7c(F)c(F)c(F)c(F)c7F)c7nc(c(-c8c(F)c(F)c(F)c(F)c8F)c8ccc5[nH]8)C=C7)C=C6)cc4)nsc32)cc1
REMARK SMILES IDX 19 1 18 2 16 3 17 4 15 6 9 7 10 8 90 9 11 10 14 11 89 12
REMARK SMILES IDX 12 13 13 14 88 15 8 17 5 18 6 19 92 20 7 21 91 22 4 23 2 24
REMARK SMILES IDX 1 25 3 26 20 27 21 28 22 29 23 30 24 32 25 33 26 34 87 35
REMARK SMILES IDX 27 36 86 37 28 38 29 39 30 40 80 41 31 42 85 43 79 44 81 45
REMARK SMILES IDX 32 46 84 47 78 48 77 49 33 51 65 52 45 53 64 54 46 55 49 56
REMARK SMILES IDX 63 57 82 58 47 59 48 60 62 62 83 63 50 64 34 65 35 66 43 67
REMARK SMILES IDX 36 68 37 69 41 70 44 71 38 72 39 73 42 74 40 75 66 76 67 77
REMARK SMILES IDX 75 78 68 79 69 80 73 81 76 82 70 83 71 84 74 85 72 86 51 87
REMARK SMILES IDX 52 88 60 89 53 90 54 91 58 92 61 93 55 94 56 95 59 96 57 97
REMARK H PARENT 18 5 13 16 22 31 81 50 49 61
REMARK Flexibility Score: inf
ROOT
ATOM      1  C   UNL A   1      33.188  29.927  25.934  1.00  0.00     0.118 C 
ENDROOT
BRANCH   1   2
ATOM      2  N   UNL A   1      32.090  30.097  24.995  1.00  0.00    -0.351 N 
ATOM      3  C   UNL A   1      31.189  29.134  24.545  1.00  0.00     0.273 C 
ATOM      4  O   UNL A   1      30.256  29.512  23.838  1.00  0.00    -0.267 OA
ATOM      5  H   UNL A   1      31.970  31.003  24.632  1.00  0.00     0.163 HD
BRANCH   3   6
ATOM      6  C   UNL A   1      31.421  27.709  24.872  1.00  0.00     0.165 A 
ATOM      7  C   UNL A   1      32.142  24.209  23.746  1.00  0.00     0.073 C 
ATOM      8  C   UNL A   1      32.403  24.540  22.261  1.00  0.00     0.114 C 
ATOM      9  C   UNL A   1      31.778  25.454  24.478  1.00  0.00     0.058 A 
ATOM     10  C   UNL A   1      33.013  25.911  21.994  1.00  0.00     0.225 C 
ATOM     11  C   UNL A   1      32.109  26.722  24.077  1.00  0.00     0.089 A 
ATOM     12  S   UNL A   1      30.927  25.545  25.939  1.00  0.00    -0.038 S 
ATOM     13  O   UNL A   1      33.491  26.201  20.897  1.00  0.00    -0.275 OA
ATOM     14  N   UNL A   1      32.885  26.889  22.946  1.00  0.00    -0.323 N 
ATOM     15  N   UNL A   1      30.834  27.201  25.969  1.00  0.00    -0.185 NA
ATOM     16  H   UNL A   1      33.362  27.741  22.819  1.00  0.00     0.170 HD
BRANCH   7  17
ATOM     17  C   UNL A   1      33.331  23.505  24.365  1.00  0.00    -0.039 A 
ATOM     18  C   UNL A   1      35.503  22.193  25.540  1.00  0.00     0.119 A 
ATOM     19  C   UNL A   1      34.358  21.475  25.204  1.00  0.00     0.047 A 
ATOM     20  C   UNL A   1      35.597  23.543  25.227  1.00  0.00     0.047 A 
ATOM     21  C   UNL A   1      33.272  22.127  24.623  1.00  0.00     0.008 A 
ATOM     22  C   UNL A   1      34.509  24.200  24.665  1.00  0.00     0.008 A 
BRANCH  18  23
ATOM     23  O   UNL A   1      36.536  21.508  26.111  1.00  0.00    -0.491 OA
BRANCH  23  24
ATOM     24  C   UNL A   1      37.714  21.331  25.300  1.00  0.00     0.167 C 
ATOM     25  C   UNL A   1      38.986  21.850  25.967  1.00  0.00     0.052 C 
ATOM     26  C   UNL A   1      37.885  19.915  24.745  1.00  0.00     0.052 C 
ENDBRANCH  23  24
ENDBRANCH  18  23
ENDBRANCH   7  17
ENDBRANCH   3   6
ENDBRANCH   1   2
BRANCH   1  27
ATOM     27  C   UNL A   1      33.106  30.610  27.285  1.00  0.00     0.042 C 
BRANCH  27  28
ATOM     28  C   UNL A   1      34.344  31.400  27.632  1.00  0.00     0.118 C 
BRANCH  28  29
ATOM     29  N   UNL A   1      34.428  31.903  29.008  1.00  0.00    -0.352 N 
ATOM     30  C   UNL A   1      35.462  31.643  29.904  1.00  0.00     0.251 C 
ATOM     31  H   UNL A   1      33.691  32.472  29.324  1.00  0.00     0.163 HD
ATOM     32  O   UNL A   1      35.401  31.941  31.088  1.00  0.00    -0.269 OA
BRANCH  30  33
ATOM     33  C   UNL A   1      36.646  30.956  29.352  1.00  0.00     0.039 A 
ATOM     34  C   UNL A   1      37.881  31.606  29.302  1.00  0.00     0.014 A 
ATOM     35  C   UNL A   1      36.557  29.576  29.288  1.00  0.00     0.014 A 
ATOM     36  C   UNL A   1      39.046  30.836  29.367  1.00  0.00     0.010 A 
ATOM     37  C   UNL A   1      37.692  28.857  29.583  1.00  0.00     0.010 A 
ATOM     38  C   UNL A   1      38.957  29.452  29.591  1.00  0.00    -0.014 A 
BRANCH  38  39
ATOM     39  C   UNL A   1      40.149  28.648  29.907  1.00  0.00     0.031 A 
ATOM     40  C   UNL A   1      40.609  28.572  31.333  1.00  0.00     0.074 A 
ATOM     41  C   UNL A   1      40.792  27.855  29.018  1.00  0.00     0.049 A 
ATOM     42  N   UNL A   1      41.702  29.061  31.831  1.00  0.00    -0.248 NA
ATOM     43  C   UNL A   1      39.769  27.887  32.327  1.00  0.00     0.031 C 
ATOM     44  C   UNL A   1      40.452  27.535  27.624  1.00  0.00     0.029 A 
ATOM     45  N   UNL A   1      41.904  27.094  29.230  1.00  0.00    -0.354 N 
ATOM     46  C   UNL A   1      41.768  28.645  33.160  1.00  0.00     0.074 A 
ATOM     47  C   UNL A   1      40.510  27.994  33.436  1.00  0.00     0.031 C 
ATOM     48  C   UNL A   1      41.179  26.482  27.203  1.00  0.00     0.029 A 
ATOM     49  C   UNL A   1      42.190  26.216  28.201  1.00  0.00     0.049 A 
ATOM     50  H   UNL A   1      42.454  27.164  30.044  1.00  0.00     0.167 HD
ATOM     51  C   UNL A   1      42.917  28.737  33.892  1.00  0.00     0.037 A 
ATOM     52  C   UNL A   1      43.226  25.358  28.109  1.00  0.00     0.037 A 
ATOM     53  C   UNL A   1      43.893  29.578  33.252  1.00  0.00     0.049 A 
ATOM     54  C   UNL A   1      44.310  25.885  28.963  1.00  0.00     0.074 A 
ATOM     55  C   UNL A   1      43.949  30.908  32.885  1.00  0.00     0.029 A 
ATOM     56  N   UNL A   1      44.930  28.976  32.584  1.00  0.00    -0.354 N 
ATOM     57  N   UNL A   1      44.951  26.995  28.717  1.00  0.00    -0.248 NA
ATOM     58  C   UNL A   1      44.418  25.391  30.325  1.00  0.00     0.031 C 
ATOM     59  C   UNL A   1      44.662  30.917  31.649  1.00  0.00     0.029 A 
ATOM     60  C   UNL A   1      45.024  29.599  31.367  1.00  0.00     0.049 A 
ATOM     61  H   UNL A   1      45.496  28.242  32.915  1.00  0.00     0.167 HD
ATOM     62  C   UNL A   1      45.185  27.553  29.965  1.00  0.00     0.074 A 
ATOM     63  C   UNL A   1      44.945  26.468  30.912  1.00  0.00     0.031 C 
ATOM     64  C   UNL A   1      45.291  28.904  30.129  1.00  0.00     0.037 A 
BRANCH  51  65
ATOM     65  C   UNL A   1      43.298  27.855  35.055  1.00  0.00     0.064 A 
ATOM     66  C   UNL A   1      43.696  28.437  36.279  1.00  0.00     0.173 A 
ATOM     67  C   UNL A   1      43.569  26.480  34.917  1.00  0.00     0.173 A 
ATOM     68  F   UNL A   1      43.510  29.746  36.505  1.00  0.00    -0.203 F 
ATOM     69  C   UNL A   1      44.369  27.705  37.263  1.00  0.00     0.198 A 
ATOM     70  C   UNL A   1      44.197  25.741  35.922  1.00  0.00     0.198 A 
ATOM     71  F   UNL A   1      43.334  25.833  33.768  1.00  0.00    -0.203 F 
ATOM     72  F   UNL A   1      44.828  28.325  38.359  1.00  0.00    -0.200 F 
ATOM     73  C   UNL A   1      44.623  26.359  37.081  1.00  0.00     0.200 A 
ATOM     74  F   UNL A   1      44.456  24.441  35.721  1.00  0.00    -0.200 F 
ATOM     75  F   UNL A   1      45.317  25.668  37.995  1.00  0.00    -0.200 F 
ENDBRANCH  51  65
BRANCH  52  76
ATOM     76  C   UNL A   1      43.208  24.023  27.487  1.00  0.00     0.064 A 
ATOM     77  C   UNL A   1      42.626  22.922  28.124  1.00  0.00     0.173 A 
ATOM     78  C   UNL A   1      43.559  23.862  26.130  1.00  0.00     0.173 A 
ATOM     79  F   UNL A   1      42.235  23.013  29.403  1.00  0.00    -0.203 F 
ATOM     80  C   UNL A   1      42.384  21.730  27.435  1.00  0.00     0.198 A 
ATOM     81  C   UNL A   1      43.323  22.672  25.446  1.00  0.00     0.198 A 
ATOM     82  F   UNL A   1      44.057  24.888  25.422  1.00  0.00    -0.203 F 
ATOM     83  F   UNL A   1      41.774  20.712  28.058  1.00  0.00    -0.200 F 
ATOM     84  C   UNL A   1      42.723  21.610  26.096  1.00  0.00     0.200 A 
ATOM     85  F   UNL A   1      43.625  22.582  24.143  1.00  0.00    -0.200 F 
ATOM     86  F   UNL A   1      42.433  20.489  25.422  1.00  0.00    -0.200 F 
ENDBRANCH  52  76
BRANCH  64  87
ATOM     87  C   UNL A   1      45.424  29.752  28.894  1.00  0.00     0.064 A 
ATOM     88  C   UNL A   1      44.328  30.278  28.189  1.00  0.00     0.173 A 
ATOM     89  C   UNL A   1      46.701  30.168  28.496  1.00  0.00     0.173 A 
ATOM     90  F   UNL A   1      43.074  30.015  28.571  1.00  0.00    -0.203 F 
ATOM     91  C   UNL A   1      44.505  31.137  27.106  1.00  0.00     0.198 A 
ATOM     92  C   UNL A   1      46.876  31.053  27.435  1.00  0.00     0.198 A 
ATOM     93  F   UNL A   1      47.783  29.750  29.172  1.00  0.00    -0.203 F 
ATOM     94  F   UNL A   1      43.440  31.613  26.444  1.00  0.00    -0.200 F 
ATOM     95  C   UNL A   1      45.779  31.528  26.733  1.00  0.00     0.200 A 
ATOM     96  F   UNL A   1      48.107  31.469  27.110  1.00  0.00    -0.200 F 
ATOM     97  F   UNL A   1      45.950  32.384  25.716  1.00  0.00    -0.200 F 
ENDBRANCH  64  87
ENDBRANCH  38  39
ENDBRANCH  30  33
ENDBRANCH  28  29
ENDBRANCH  27  28
ENDBRANCH   1  27
TORSDOF 13
ENDMDL
MODEL 3
REMARK VINA RESULT:     -13.1      0.632      1.693
REMARK SMILES CC(C)Oc1ccc([C@@H]2CC(=O)Nc3c(C(=O)NCCCNC(=O)c4ccc(-c5c6nc(c(-c7c(F)c(F)c(F)c(F)c7F)c7ccc([nH]7)c(-c7c(F)c(F)c(F)c(F)c7F)c7nc(c(-c8c(F)c(F)c(F)c(F)c8F)c8ccc5[nH]8)C=C7)C=C6)cc4)nsc32)cc1
REMARK SMILES IDX 19 1 18 2 16 3 17 4 15 6 9 7 10 8 90 9 11 10 14 11 89 12
REMARK SMILES IDX 12 13 13 14 88 15 8 17 5 18 6 19 92 20 7 21 91 22 4 23 2 24
REMARK SMILES IDX 1 25 3 26 20 27 21 28 22 29 23 30 24 32 25 33 26 34 87 35
REMARK SMILES IDX 27 36 86 37 28 38 29 39 30 40 80 41 31 42 85 43 79 44 81 45
REMARK SMILES IDX 32 46 84 47 78 48 77 49 33 51 65 52 45 53 64 54 46 55 49 56
REMARK SMILES IDX 63 57 82 58 47 59 48 60 62 62 83 63 50 64 34 65 35 66 43 67
REMARK SMILES IDX 36 68 37 69 41 70 44 71 38 72 39 73 42 74 40 75 66 76 67 77
REMARK SMILES IDX 75 78 68 79 69 80 73 81 76 82 70 83 71 84 74 85 72 86 51 87
REMARK SMILES IDX 52 88 60 89 53 90 54 91 58 92 61 93 55 94 56 95 59 96 57 97
REMARK H PARENT 18 5 13 16 22 31 81 50 49 61
REMARK Flexibility Score: inf
ROOT
ATOM      1  C   UNL A   1      37.542  21.749  24.661  1.00  0.00     0.118 C 
ENDROOT
BRANCH   1   2
ATOM      2  N   UNL A   1      36.487  20.809  25.007  1.00  0.00    -0.351 N 
ATOM      3  C   UNL A   1      35.116  20.944  24.803  1.00  0.00     0.273 C 
ATOM      4  O   UNL A   1      34.402  19.975  25.063  1.00  0.00    -0.267 OA
ATOM      5  H   UNL A   1      36.779  19.975  25.440  1.00  0.00     0.163 HD
BRANCH   3   6
ATOM      6  C   UNL A   1      34.570  22.244  24.354  1.00  0.00     0.165 A 
ATOM      7  C   UNL A   1      31.820  24.787  24.406  1.00  0.00     0.073 C 
ATOM      8  C   UNL A   1      30.973  24.126  25.514  1.00  0.00     0.114 C 
ATOM      9  C   UNL A   1      33.018  23.949  24.125  1.00  0.00     0.058 A 
ATOM     10  C   UNL A   1      31.761  23.361  26.571  1.00  0.00     0.225 C 
ATOM     11  C   UNL A   1      33.567  23.052  25.004  1.00  0.00     0.089 A 
ATOM     12  S   UNL A   1      33.939  23.960  22.705  1.00  0.00    -0.038 S 
ATOM     13  O   UNL A   1      31.240  22.998  27.626  1.00  0.00    -0.275 OA
ATOM     14  N   UNL A   1      33.029  22.934  26.271  1.00  0.00    -0.323 N 
ATOM     15  N   UNL A   1      34.930  22.704  23.144  1.00  0.00    -0.185 NA
ATOM     16  H   UNL A   1      33.575  22.529  26.983  1.00  0.00     0.170 HD
BRANCH   7  17
ATOM     17  C   UNL A   1      32.187  26.209  24.777  1.00  0.00    -0.039 A 
ATOM     18  C   UNL A   1      32.828  28.848  25.447  1.00  0.00     0.119 A 
ATOM     19  C   UNL A   1      31.723  28.233  26.031  1.00  0.00     0.047 A 
ATOM     20  C   UNL A   1      33.653  28.131  24.590  1.00  0.00     0.047 A 
ATOM     21  C   UNL A   1      31.398  26.919  25.695  1.00  0.00     0.008 A 
ATOM     22  C   UNL A   1      33.322  26.829  24.238  1.00  0.00     0.008 A 
BRANCH  18  23
ATOM     23  O   UNL A   1      33.100  30.135  25.807  1.00  0.00    -0.491 OA
BRANCH  23  24
ATOM     24  C   UNL A   1      33.517  30.346  27.170  1.00  0.00     0.167 C 
ATOM     25  C   UNL A   1      34.860  29.696  27.494  1.00  0.00     0.052 C 
ATOM     26  C   UNL A   1      33.452  31.805  27.626  1.00  0.00     0.052 C 
ENDBRANCH  23  24
ENDBRANCH  18  23
ENDBRANCH   7  17
ENDBRANCH   3   6
ENDBRANCH   1   2
BRANCH   1  27
ATOM     27  C   UNL A   1      38.134  22.617  25.752  1.00  0.00     0.042 C 
BRANCH  27  28
ATOM     28  C   UNL A   1      39.255  21.946  26.507  1.00  0.00     0.118 C 
BRANCH  28  29
ATOM     29  N   UNL A   1      40.606  22.135  25.967  1.00  0.00    -0.352 N 
ATOM     30  C   UNL A   1      41.390  23.276  26.124  1.00  0.00     0.251 C 
ATOM     31  H   UNL A   1      40.992  21.393  25.450  1.00  0.00     0.163 HD
ATOM     32  O   UNL A   1      42.433  23.450  25.512  1.00  0.00    -0.269 OA
BRANCH  30  33
ATOM     33  C   UNL A   1      40.879  24.293  27.064  1.00  0.00     0.039 A 
ATOM     34  C   UNL A   1      41.495  24.486  28.302  1.00  0.00     0.014 A 
ATOM     35  C   UNL A   1      40.073  25.269  26.502  1.00  0.00     0.014 A 
ATOM     36  C   UNL A   1      41.435  25.751  28.890  1.00  0.00     0.010 A 
ATOM     37  C   UNL A   1      40.218  26.553  26.974  1.00  0.00     0.010 A 
ATOM     38  C   UNL A   1      40.860  26.823  28.186  1.00  0.00    -0.014 A 
BRANCH  38  39
ATOM     39  C   UNL A   1      40.991  28.211  28.659  1.00  0.00     0.031 A 
ATOM     40  C   UNL A   1      42.170  29.019  28.202  1.00  0.00     0.074 A 
ATOM     41  C   UNL A   1      40.048  28.864  29.377  1.00  0.00     0.049 A 
ATOM     42  N   UNL A   1      43.155  29.446  28.929  1.00  0.00    -0.248 NA
ATOM     43  C   UNL A   1      42.283  29.392  26.785  1.00  0.00     0.031 C 
ATOM     44  C   UNL A   1      38.701  28.432  29.776  1.00  0.00     0.029 A 
ATOM     45  N   UNL A   1      40.101  30.139  29.860  1.00  0.00    -0.354 N 
ATOM     46  C   UNL A   1      43.948  30.250  28.111  1.00  0.00     0.074 A 
ATOM     47  C   UNL A   1      43.409  30.115  26.779  1.00  0.00     0.031 C 
ATOM     48  C   UNL A   1      37.989  29.488  30.216  1.00  0.00     0.029 A 
ATOM     49  C   UNL A   1      38.897  30.604  30.354  1.00  0.00     0.049 A 
ATOM     50  H   UNL A   1      40.925  30.679  29.858  1.00  0.00     0.167 HD
ATOM     51  C   UNL A   1      44.899  31.088  28.620  1.00  0.00     0.037 A 
ATOM     52  C   UNL A   1      38.639  31.804  30.913  1.00  0.00     0.037 A 
ATOM     53  C   UNL A   1      45.185  30.796  29.999  1.00  0.00     0.049 A 
ATOM     54  C   UNL A   1      39.916  32.321  31.450  1.00  0.00     0.074 A 
ATOM     55  C   UNL A   1      45.689  29.708  30.685  1.00  0.00     0.029 A 
ATOM     56  N   UNL A   1      44.638  31.607  30.961  1.00  0.00    -0.354 N 
ATOM     57  N   UNL A   1      40.558  31.773  32.445  1.00  0.00    -0.248 NA
ATOM     58  C   UNL A   1      40.700  33.218  30.620  1.00  0.00     0.031 C 
ATOM     59  C   UNL A   1      44.964  29.683  31.914  1.00  0.00     0.029 A 
ATOM     60  C   UNL A   1      44.097  30.777  31.909  1.00  0.00     0.049 A 
ATOM     61  H   UNL A   1      44.635  32.591  30.970  1.00  0.00     0.167 HD
ATOM     62  C   UNL A   1      41.898  31.917  32.124  1.00  0.00     0.074 A 
ATOM     63  C   UNL A   1      41.924  32.915  31.060  1.00  0.00     0.031 C 
ATOM     64  C   UNL A   1      42.833  31.024  32.563  1.00  0.00     0.037 A 
BRANCH  51  65
ATOM     65  C   UNL A   1      45.391  32.362  27.980  1.00  0.00     0.064 A 
ATOM     66  C   UNL A   1      44.488  33.420  27.733  1.00  0.00     0.173 A 
ATOM     67  C   UNL A   1      46.640  32.465  27.339  1.00  0.00     0.173 A 
ATOM     68  F   UNL A   1      43.260  33.410  28.273  1.00  0.00    -0.203 F 
ATOM     69  C   UNL A   1      44.797  34.468  26.859  1.00  0.00     0.198 A 
ATOM     70  C   UNL A   1      46.963  33.537  26.506  1.00  0.00     0.198 A 
ATOM     71  F   UNL A   1      47.545  31.479  27.410  1.00  0.00    -0.203 F 
ATOM     72  F   UNL A   1      43.867  35.388  26.567  1.00  0.00    -0.200 F 
ATOM     73  C   UNL A   1      46.032  34.523  26.243  1.00  0.00     0.200 A 
ATOM     74  F   UNL A   1      48.158  33.565  25.898  1.00  0.00    -0.200 F 
ATOM     75  F   UNL A   1      46.311  35.494  25.362  1.00  0.00    -0.200 F 
ENDBRANCH  51  65
BRANCH  52  76
ATOM     76  C   UNL A   1      37.392  32.577  30.799  1.00  0.00     0.064 A 
ATOM     77  C   UNL A   1      37.084  33.311  29.648  1.00  0.00     0.173 A 
ATOM     78  C   UNL A   1      36.357  32.410  31.743  1.00  0.00     0.173 A 
ATOM     79  F   UNL A   1      38.007  33.481  28.691  1.00  0.00    -0.203 F 
ATOM     80  C   UNL A   1      35.802  33.829  29.440  1.00  0.00     0.198 A 
ATOM     81  C   UNL A   1      35.082  32.931  31.537  1.00  0.00     0.198 A 
ATOM     82  F   UNL A   1      36.543  31.662  32.841  1.00  0.00    -0.203 F 
ATOM     83  F   UNL A   1      35.523  34.479  28.301  1.00  0.00    -0.200 F 
ATOM     84  C   UNL A   1      34.802  33.630  30.378  1.00  0.00     0.200 A 
ATOM     85  F   UNL A   1      34.116  32.703  32.438  1.00  0.00    -0.200 F 
ATOM     86  F   UNL A   1      33.559  34.074  30.147  1.00  0.00    -0.200 F 
ENDBRANCH  52  76
BRANCH  64  87
ATOM     87  C   UNL A   1      42.421  30.043  33.626  1.00  0.00     0.064 A 
ATOM     88  C   UNL A   1      41.844  28.791  33.349  1.00  0.00     0.173 A 
ATOM     89  C   UNL A   1      42.752  30.314  34.960  1.00  0.00     0.173 A 
ATOM     90  F   UNL A   1      41.596  28.413  32.091  1.00  0.00    -0.203 F 
ATOM     91  C   UNL A   1      41.567  27.878  34.364  1.00  0.00     0.198 A 
ATOM     92  C   UNL A   1      42.506  29.386  35.969  1.00  0.00     0.198 A 
ATOM     93  F   UNL A   1      43.364  31.466  35.278  1.00  0.00    -0.203 F 
ATOM     94  F   UNL A   1      41.005  26.696  34.070  1.00  0.00    -0.200 F 
ATOM     95  C   UNL A   1      41.903  28.175  35.673  1.00  0.00     0.200 A 
ATOM     96  F   UNL A   1      42.878  29.657  37.228  1.00  0.00    -0.200 F 
ATOM     97  F   UNL A   1      41.672  27.282  36.646  1.00  0.00    -0.200 F 
ENDBRANCH  64  87
ENDBRANCH  38  39
ENDBRANCH  30  33
ENDBRANCH  28  29
ENDBRANCH  27  28
ENDBRANCH   1  27
TORSDOF 13
ENDMDL
