MODEL 1
REMARK VINA RESULT:     -13.4      0.000      0.000
REMARK SMILES CC1=NN(c2ccc(Cl)cc2)C(=O)/C1=C/c1ccccc1OCC(=O)NCCCNC(=O)c1ccc(-c2c3nc(c(-c4c(F)c(F)c(F)c(F)c4F)c4ccc([nH]4)c(-c4c(F)c(F)c(F)c(F)c4F)c4nc(c(-c5c(F)c(F)c(F)c(F)c5F)c5ccc2[nH]5)C=C4)C=C3)cc1
REMARK SMILES IDX 27 1 26 2 24 3 25 4 23 6 22 7 21 8 16 9 17 10 18 11 20 12
REMARK SMILES IDX 19 13 15 14 1 15 2 16 3 17 14 18 4 19 12 20 13 21 5 22 6 23
REMARK SMILES IDX 11 24 7 25 10 26 8 27 9 28 28 29 29 30 30 31 31 32 32 34
REMARK SMILES IDX 33 35 34 36 95 37 35 38 94 39 36 40 37 41 38 42 88 43 39 44
REMARK SMILES IDX 93 45 87 46 89 47 40 48 92 49 86 50 85 51 41 53 73 54 53 55
REMARK SMILES IDX 72 56 54 57 57 58 71 59 90 60 55 61 56 62 70 64 91 65 58 66
REMARK SMILES IDX 42 67 43 68 51 69 44 70 45 71 49 72 52 73 46 74 47 75 50 76
REMARK SMILES IDX 48 77 74 78 75 79 83 80 76 81 77 82 81 83 84 84 78 85 79 86
REMARK SMILES IDX 82 87 80 88 59 89 60 90 68 91 61 92 62 93 66 94 69 95 63 96
REMARK SMILES IDX 64 97 67 98 65 99
REMARK H PARENT 26 5 30 33 89 52 57 63
REMARK Flexibility Score: inf
ROOT
ATOM      1  C   UNL A   1      31.778  30.552  26.875  1.00  0.00     0.117 C 
ENDROOT
BRANCH   1   2
ATOM      2  N   UNL A   1      33.033  30.196  27.506  1.00  0.00    -0.353 N 
ATOM      3  C   UNL A   1      33.822  29.121  27.200  1.00  0.00     0.257 C 
ATOM      4  O   UNL A   1      35.039  29.231  27.357  1.00  0.00    -0.271 OA
ATOM      5  H   UNL A   1      33.349  30.785  28.228  1.00  0.00     0.163 HD
BRANCH   3   6
ATOM      6  C   UNL A   1      33.218  27.828  26.647  1.00  0.00     0.329 C 
BRANCH   6   7
ATOM      7  O   UNL A   1      32.985  27.803  25.254  1.00  0.00    -0.483 OA
BRANCH   7   8
ATOM      8  C   UNL A   1      31.778  27.493  24.696  1.00  0.00     0.127 A 
ATOM      9  C   UNL A   1      31.049  26.290  24.694  1.00  0.00     0.017 A 
ATOM     10  C   UNL A   1      29.774  26.264  24.095  1.00  0.00     0.012 A 
ATOM     11  C   UNL A   1      29.226  27.402  23.501  1.00  0.00     0.001 A 
ATOM     12  C   UNL A   1      31.211  28.625  24.084  1.00  0.00     0.047 A 
ATOM     13  C   UNL A   1      29.952  28.586  23.488  1.00  0.00     0.004 A 
BRANCH   9  14
ATOM     14  C   UNL A   1      31.499  25.019  25.260  1.00  0.00     0.027 C 
ATOM     15  C   UNL A   1      33.241  25.285  22.523  1.00  0.00     0.069 C 
ATOM     16  C   UNL A   1      33.085  24.115  23.432  1.00  0.00     0.071 C 
ATOM     17  N   UNL A   1      33.582  22.932  23.178  1.00  0.00    -0.169 NA
ATOM     18  C   UNL A   1      32.343  24.146  24.700  1.00  0.00     0.066 C 
ATOM     19  N   UNL A   1      33.198  22.117  24.249  1.00  0.00    -0.196 N 
ATOM     20  C   UNL A   1      32.530  22.796  25.281  1.00  0.00     0.280 C 
ATOM     21  O   UNL A   1      32.144  22.441  26.377  1.00  0.00    -0.267 OA
BRANCH  19  22
ATOM     22  C   UNL A   1      33.334  20.715  24.121  1.00  0.00     0.069 A 
ATOM     23  C   UNL A   1      34.427  20.043  24.690  1.00  0.00     0.030 A 
ATOM     24  C   UNL A   1      32.343  19.956  23.483  1.00  0.00     0.030 A 
ATOM     25  C   UNL A   1      34.529  18.649  24.626  1.00  0.00     0.023 A 
ATOM     26  C   UNL A   1      32.456  18.563  23.393  1.00  0.00     0.023 A 
ATOM     27  C   UNL A   1      33.548  17.916  23.969  1.00  0.00     0.041 A 
ATOM     28  Cl  UNL A   1      33.677  16.203  23.879  1.00  0.00    -0.084 Cl
ENDBRANCH  19  22
ENDBRANCH   9  14
ENDBRANCH   7   8
ENDBRANCH   6   7
ENDBRANCH   3   6
ENDBRANCH   1   2
BRANCH   1  29
ATOM     29  C   UNL A   1      31.444  32.039  26.876  1.00  0.00     0.042 C 
BRANCH  29  30
ATOM     30  C   UNL A   1      32.626  33.002  26.920  1.00  0.00     0.118 C 
BRANCH  30  31
ATOM     31  N   UNL A   1      32.371  34.245  27.626  1.00  0.00    -0.352 N 
ATOM     32  C   UNL A   1      33.023  34.840  28.677  1.00  0.00     0.251 C 
ATOM     33  H   UNL A   1      31.594  34.750  27.293  1.00  0.00     0.163 HD
ATOM     34  O   UNL A   1      32.590  35.897  29.130  1.00  0.00    -0.269 OA
BRANCH  32  35
ATOM     35  C   UNL A   1      34.209  34.218  29.310  1.00  0.00     0.039 A 
ATOM     36  C   UNL A   1      33.998  33.340  30.378  1.00  0.00     0.014 A 
ATOM     37  C   UNL A   1      35.514  34.513  28.908  1.00  0.00     0.014 A 
ATOM     38  C   UNL A   1      35.080  32.710  30.996  1.00  0.00     0.010 A 
ATOM     39  C   UNL A   1      36.591  33.828  29.477  1.00  0.00     0.010 A 
ATOM     40  C   UNL A   1      36.387  32.921  30.528  1.00  0.00    -0.014 A 
BRANCH  40  41
ATOM     41  C   UNL A   1      37.536  32.200  31.139  1.00  0.00     0.031 A 
ATOM     42  C   UNL A   1      38.023  32.557  32.516  1.00  0.00     0.074 A 
ATOM     43  C   UNL A   1      38.176  31.246  30.434  1.00  0.00     0.049 A 
ATOM     44  N   UNL A   1      39.018  32.052  33.202  1.00  0.00    -0.248 NA
ATOM     45  C   UNL A   1      37.312  33.646  33.202  1.00  0.00     0.031 C 
ATOM     46  C   UNL A   1      37.842  30.839  29.070  1.00  0.00     0.029 A 
ATOM     47  N   UNL A   1      39.246  30.451  30.767  1.00  0.00    -0.354 N 
ATOM     48  C   UNL A   1      39.059  32.765  34.393  1.00  0.00     0.074 A 
ATOM     49  C   UNL A   1      38.029  33.779  34.308  1.00  0.00     0.031 C 
ATOM     50  C   UNL A   1      38.674  29.858  28.688  1.00  0.00     0.029 A 
ATOM     51  C   UNL A   1      39.622  29.589  29.766  1.00  0.00     0.049 A 
ATOM     52  H   UNL A   1      39.700  30.496  31.638  1.00  0.00     0.167 HD
ATOM     53  C   UNL A   1      39.862  32.578  35.468  1.00  0.00     0.037 A 
ATOM     54  C   UNL A   1      40.620  28.685  29.719  1.00  0.00     0.037 A 
ATOM     55  C   UNL A   1      40.880  31.562  35.556  1.00  0.00     0.049 A 
ATOM     56  C   UNL A   1      41.501  28.490  30.922  1.00  0.00     0.074 A 
ATOM     57  C   UNL A   1      41.706  31.255  36.623  1.00  0.00     0.029 A 
ATOM     58  N   UNL A   1      41.219  30.693  34.527  1.00  0.00    -0.354 N 
ATOM     59  N   UNL A   1      41.479  29.118  32.073  1.00  0.00    -0.248 NA
ATOM     60  C   UNL A   1      42.534  27.452  30.826  1.00  0.00     0.031 C 
ATOM     61  C   UNL A   1      42.581  30.239  36.222  1.00  0.00     0.029 A 
ATOM     62  C   UNL A   1      42.259  29.868  34.926  1.00  0.00     0.049 A 
ATOM     63  H   UNL A   1      40.783  30.665  33.645  1.00  0.00     0.167 HD
ATOM     64  C   UNL A   1      42.474  28.535  32.846  1.00  0.00     0.074 A 
ATOM     65  C   UNL A   1      43.073  27.493  32.036  1.00  0.00     0.031 C 
ATOM     66  C   UNL A   1      42.853  28.835  34.114  1.00  0.00     0.037 A 
BRANCH  53  67
ATOM     67  C   UNL A   1      39.675  33.510  36.635  1.00  0.00     0.064 A 
ATOM     68  C   UNL A   1      38.841  33.182  37.717  1.00  0.00     0.173 A 
ATOM     69  C   UNL A   1      40.335  34.747  36.672  1.00  0.00     0.173 A 
ATOM     70  F   UNL A   1      38.179  32.015  37.730  1.00  0.00    -0.203 F 
ATOM     71  C   UNL A   1      38.636  34.078  38.763  1.00  0.00     0.198 A 
ATOM     72  C   UNL A   1      40.157  35.625  37.738  1.00  0.00     0.198 A 
ATOM     73  F   UNL A   1      41.153  35.109  35.671  1.00  0.00    -0.203 F 
ATOM     74  F   UNL A   1      37.777  33.773  39.745  1.00  0.00    -0.200 F 
ATOM     75  C   UNL A   1      39.296  35.297  38.775  1.00  0.00     0.200 A 
ATOM     76  F   UNL A   1      40.809  36.796  37.756  1.00  0.00    -0.200 F 
ATOM     77  F   UNL A   1      39.094  36.161  39.778  1.00  0.00    -0.200 F 
ENDBRANCH  53  67
BRANCH  54  78
ATOM     78  C   UNL A   1      40.812  27.875  28.487  1.00  0.00     0.064 A 
ATOM     79  C   UNL A   1      40.165  26.642  28.325  1.00  0.00     0.173 A 
ATOM     80  C   UNL A   1      41.618  28.332  27.435  1.00  0.00     0.173 A 
ATOM     81  F   UNL A   1      39.399  26.153  29.312  1.00  0.00    -0.203 F 
ATOM     82  C   UNL A   1      40.326  25.893  27.161  1.00  0.00     0.198 A 
ATOM     83  C   UNL A   1      41.756  27.596  26.260  1.00  0.00     0.198 A 
ATOM     84  F   UNL A   1      42.253  29.510  27.538  1.00  0.00    -0.203 F 
ATOM     85  F   UNL A   1      39.723  24.702  27.045  1.00  0.00    -0.200 F 
ATOM     86  C   UNL A   1      41.114  26.374  26.126  1.00  0.00     0.200 A 
ATOM     87  F   UNL A   1      42.503  28.074  25.256  1.00  0.00    -0.200 F 
ATOM     88  F   UNL A   1      41.255  25.661  25.001  1.00  0.00    -0.200 F 
ENDBRANCH  54  78
BRANCH  66  89
ATOM     89  C   UNL A   1      43.947  28.004  34.722  1.00  0.00     0.064 A 
ATOM     90  C   UNL A   1      43.679  26.804  35.397  1.00  0.00     0.173 A 
ATOM     91  C   UNL A   1      45.289  28.398  34.597  1.00  0.00     0.173 A 
ATOM     92  F   UNL A   1      42.413  26.388  35.558  1.00  0.00    -0.203 F 
ATOM     93  C   UNL A   1      44.709  26.044  35.948  1.00  0.00     0.198 A 
ATOM     94  C   UNL A   1      46.319  27.620  35.121  1.00  0.00     0.198 A 
ATOM     95  F   UNL A   1      45.603  29.533  33.956  1.00  0.00    -0.203 F 
ATOM     96  F   UNL A   1      44.424  24.929  36.633  1.00  0.00    -0.200 F 
ATOM     97  C   UNL A   1      46.028  26.449  35.803  1.00  0.00     0.200 A 
ATOM     98  F   UNL A   1      47.592  28.005  34.965  1.00  0.00    -0.200 F 
ATOM     99  F   UNL A   1      47.017  25.714  36.328  1.00  0.00    -0.200 F 
ENDBRANCH  66  89
ENDBRANCH  40  41
ENDBRANCH  32  35
ENDBRANCH  30  31
ENDBRANCH  29  30
ENDBRANCH   1  29
TORSDOF 14
ENDMDL
MODEL 2
REMARK VINA RESULT:     -13.4      5.540     10.039
REMARK SMILES CC1=NN(c2ccc(Cl)cc2)C(=O)/C1=C/c1ccccc1OCC(=O)NCCCNC(=O)c1ccc(-c2c3nc(c(-c4c(F)c(F)c(F)c(F)c4F)c4ccc([nH]4)c(-c4c(F)c(F)c(F)c(F)c4F)c4nc(c(-c5c(F)c(F)c(F)c(F)c5F)c5ccc2[nH]5)C=C4)C=C3)cc1
REMARK SMILES IDX 27 1 26 2 24 3 25 4 23 6 22 7 21 8 16 9 17 10 18 11 20 12
REMARK SMILES IDX 19 13 15 14 1 15 2 16 3 17 14 18 4 19 12 20 13 21 5 22 6 23
REMARK SMILES IDX 11 24 7 25 10 26 8 27 9 28 28 29 29 30 30 31 31 32 32 34
REMARK SMILES IDX 33 35 34 36 95 37 35 38 94 39 36 40 37 41 38 42 88 43 39 44
REMARK SMILES IDX 93 45 87 46 89 47 40 48 92 49 86 50 85 51 41 53 73 54 53 55
REMARK SMILES IDX 72 56 54 57 57 58 71 59 90 60 55 61 56 62 70 64 91 65 58 66
REMARK SMILES IDX 42 67 43 68 51 69 44 70 45 71 49 72 52 73 46 74 47 75 50 76
REMARK SMILES IDX 48 77 74 78 75 79 83 80 76 81 77 82 81 83 84 84 78 85 79 86
REMARK SMILES IDX 82 87 80 88 59 89 60 90 68 91 61 92 62 93 66 94 69 95 63 96
REMARK SMILES IDX 64 97 67 98 65 99
REMARK H PARENT 26 5 30 33 89 52 57 63
REMARK Flexibility Score: inf
ROOT
ATOM      1  C   UNL A   1      39.002  22.225  26.277  1.00  0.00     0.117 C 
ENDROOT
BRANCH   1   2
ATOM      2  N   UNL A   1      38.207  23.205  25.564  1.00  0.00    -0.353 N 
ATOM      3  C   UNL A   1      36.945  23.025  25.069  1.00  0.00     0.257 C 
ATOM      4  O   UNL A   1      36.196  24.001  25.020  1.00  0.00    -0.271 OA
ATOM      5  H   UNL A   1      38.616  24.089  25.422  1.00  0.00     0.163 HD
BRANCH   3   6
ATOM      6  C   UNL A   1      36.463  21.645  24.616  1.00  0.00     0.329 C 
BRANCH   6   7
ATOM      7  O   UNL A   1      35.690  20.924  25.554  1.00  0.00    -0.483 OA
BRANCH   7   8
ATOM      8  C   UNL A   1      34.600  20.174  25.216  1.00  0.00     0.127 A 
ATOM      9  C   UNL A   1      33.225  20.441  25.351  1.00  0.00     0.017 A 
ATOM     10  C   UNL A   1      32.296  19.510  24.845  1.00  0.00     0.012 A 
ATOM     11  C   UNL A   1      32.712  18.332  24.222  1.00  0.00     0.001 A 
ATOM     12  C   UNL A   1      34.996  18.978  24.593  1.00  0.00     0.047 A 
ATOM     13  C   UNL A   1      34.068  18.062  24.103  1.00  0.00     0.004 A 
BRANCH   9  14
ATOM     14  C   UNL A   1      32.643  21.619  25.992  1.00  0.00     0.027 C 
ATOM     15  C   UNL A   1      33.352  22.667  22.993  1.00  0.00     0.069 C 
ATOM     16  C   UNL A   1      32.936  23.448  24.191  1.00  0.00     0.071 C 
ATOM     17  N   UNL A   1      32.895  24.755  24.222  1.00  0.00    -0.169 NA
ATOM     18  C   UNL A   1      32.546  22.848  25.475  1.00  0.00     0.066 C 
ATOM     19  N   UNL A   1      32.486  25.095  25.517  1.00  0.00    -0.196 N 
ATOM     20  C   UNL A   1      32.144  23.996  26.322  1.00  0.00     0.280 C 
ATOM     21  O   UNL A   1      31.670  23.916  27.438  1.00  0.00    -0.267 OA
BRANCH  19  22
ATOM     22  C   UNL A   1      32.628  26.434  25.947  1.00  0.00     0.069 A 
ATOM     23  C   UNL A   1      31.549  27.127  26.518  1.00  0.00     0.030 A 
ATOM     24  C   UNL A   1      33.871  27.079  25.877  1.00  0.00     0.030 A 
ATOM     25  C   UNL A   1      31.705  28.427  27.009  1.00  0.00     0.023 A 
ATOM     26  C   UNL A   1      34.024  28.391  26.342  1.00  0.00     0.023 A 
ATOM     27  C   UNL A   1      32.939  29.057  26.909  1.00  0.00     0.041 A 
ATOM     28  Cl  UNL A   1      33.130  30.661  27.501  1.00  0.00    -0.084 Cl
ENDBRANCH  19  22
ENDBRANCH   9  14
ENDBRANCH   7   8
ENDBRANCH   6   7
ENDBRANCH   3   6
ENDBRANCH   1   2
BRANCH   1  29
ATOM     29  C   UNL A   1      39.467  21.033  25.450  1.00  0.00     0.042 C 
BRANCH  29  30
ATOM     30  C   UNL A   1      39.410  19.668  26.130  1.00  0.00     0.118 C 
BRANCH  30  31
ATOM     31  N   UNL A   1      40.584  18.839  25.926  1.00  0.00    -0.352 N 
ATOM     32  C   UNL A   1      41.923  19.126  26.015  1.00  0.00     0.251 C 
ATOM     33  H   UNL A   1      40.385  17.906  25.680  1.00  0.00     0.163 HD
ATOM     34  O   UNL A   1      42.744  18.247  25.760  1.00  0.00    -0.269 OA
BRANCH  32  35
ATOM     35  C   UNL A   1      42.406  20.481  26.368  1.00  0.00     0.039 A 
ATOM     36  C   UNL A   1      42.969  21.262  25.352  1.00  0.00     0.014 A 
ATOM     37  C   UNL A   1      42.361  20.978  27.673  1.00  0.00     0.014 A 
ATOM     38  C   UNL A   1      43.420  22.555  25.626  1.00  0.00     0.010 A 
ATOM     39  C   UNL A   1      42.744  22.296  27.931  1.00  0.00     0.010 A 
ATOM     40  C   UNL A   1      43.281  23.099  26.912  1.00  0.00    -0.014 A 
BRANCH  40  41
ATOM     41  C   UNL A   1      43.698  24.499  27.193  1.00  0.00     0.031 A 
ATOM     42  C   UNL A   1      42.694  25.525  27.640  1.00  0.00     0.074 A 
ATOM     43  C   UNL A   1      44.982  24.863  27.004  1.00  0.00     0.049 A 
ATOM     44  N   UNL A   1      42.870  26.794  27.914  1.00  0.00    -0.248 NA
ATOM     45  C   UNL A   1      41.303  25.069  27.770  1.00  0.00     0.031 C 
ATOM     46  C   UNL A   1      46.046  23.981  26.524  1.00  0.00     0.029 A 
ATOM     47  N   UNL A   1      45.608  26.072  27.187  1.00  0.00    -0.354 N 
ATOM     48  C   UNL A   1      41.614  27.289  28.238  1.00  0.00     0.074 A 
ATOM     49  C   UNL A   1      40.678  26.199  28.065  1.00  0.00     0.031 C 
ATOM     50  C   UNL A   1      47.196  24.671  26.468  1.00  0.00     0.029 A 
ATOM     51  C   UNL A   1      46.945  26.051  26.876  1.00  0.00     0.049 A 
ATOM     52  H   UNL A   1      45.142  26.876  27.508  1.00  0.00     0.167 HD
ATOM     53  C   UNL A   1      41.274  28.530  28.664  1.00  0.00     0.037 A 
ATOM     54  C   UNL A   1      47.868  27.032  26.913  1.00  0.00     0.037 A 
ATOM     55  C   UNL A   1      42.208  29.612  28.846  1.00  0.00     0.049 A 
ATOM     56  C   UNL A   1      47.473  28.403  27.390  1.00  0.00     0.074 A 
ATOM     57  C   UNL A   1      41.972  30.887  29.328  1.00  0.00     0.029 A 
ATOM     58  N   UNL A   1      43.561  29.546  28.539  1.00  0.00    -0.354 N 
ATOM     59  N   UNL A   1      46.295  28.839  27.769  1.00  0.00    -0.248 NA
ATOM     60  C   UNL A   1      48.536  29.413  27.457  1.00  0.00     0.031 C 
ATOM     61  C   UNL A   1      43.168  31.611  29.260  1.00  0.00     0.029 A 
ATOM     62  C   UNL A   1      44.166  30.767  28.796  1.00  0.00     0.049 A 
ATOM     63  H   UNL A   1      44.024  28.750  28.191  1.00  0.00     0.167 HD
ATOM     64  C   UNL A   1      46.481  30.162  28.145  1.00  0.00     0.074 A 
ATOM     65  C   UNL A   1      47.888  30.454  27.960  1.00  0.00     0.031 C 
ATOM     66  C   UNL A   1      45.567  31.052  28.607  1.00  0.00     0.037 A 
BRANCH  53  67
ATOM     67  C   UNL A   1      39.819  28.783  28.951  1.00  0.00     0.064 A 
ATOM     68  C   UNL A   1      38.941  29.253  27.961  1.00  0.00     0.173 A 
ATOM     69  C   UNL A   1      39.295  28.555  30.232  1.00  0.00     0.173 A 
ATOM     70  F   UNL A   1      39.389  29.497  26.720  1.00  0.00    -0.203 F 
ATOM     71  C   UNL A   1      37.609  29.534  28.255  1.00  0.00     0.198 A 
ATOM     72  C   UNL A   1      37.953  28.801  30.514  1.00  0.00     0.198 A 
ATOM     73  F   UNL A   1      40.084  28.095  31.215  1.00  0.00    -0.203 F 
ATOM     74  F   UNL A   1      36.811  30.053  27.312  1.00  0.00    -0.200 F 
ATOM     75  C   UNL A   1      37.115  29.304  29.530  1.00  0.00     0.200 A 
ATOM     76  F   UNL A   1      37.474  28.562  31.743  1.00  0.00    -0.200 F 
ATOM     77  F   UNL A   1      35.835  29.580  29.815  1.00  0.00    -0.200 F 
ENDBRANCH  53  67
BRANCH  54  78
ATOM     78  C   UNL A   1      49.267  26.733  26.509  1.00  0.00     0.064 A 
ATOM     79  C   UNL A   1      49.689  26.906  25.184  1.00  0.00     0.173 A 
ATOM     80  C   UNL A   1      50.216  26.299  27.445  1.00  0.00     0.173 A 
ATOM     81  F   UNL A   1      48.813  27.300  24.247  1.00  0.00    -0.203 F 
ATOM     82  C   UNL A   1      51.006  26.647  24.809  1.00  0.00     0.198 A 
ATOM     83  C   UNL A   1      51.540  26.068  27.075  1.00  0.00     0.198 A 
ATOM     84  F   UNL A   1      49.864  26.125  28.728  1.00  0.00    -0.203 F 
ATOM     85  F   UNL A   1      51.376  26.790  23.529  1.00  0.00    -0.200 F 
ATOM     86  C   UNL A   1      51.932  26.237  25.756  1.00  0.00     0.200 A 
ATOM     87  F   UNL A   1      52.434  25.689  27.997  1.00  0.00    -0.200 F 
ATOM     88  F   UNL A   1      53.202  26.005  25.399  1.00  0.00    -0.200 F 
ENDBRANCH  54  78
BRANCH  66  89
ATOM     89  C   UNL A   1      46.062  32.421  28.978  1.00  0.00     0.064 A 
ATOM     90  C   UNL A   1      46.543  32.713  30.263  1.00  0.00     0.173 A 
ATOM     91  C   UNL A   1      46.088  33.449  28.022  1.00  0.00     0.173 A 
ATOM     92  F   UNL A   1      46.528  31.772  31.219  1.00  0.00    -0.203 F 
ATOM     93  C   UNL A   1      47.005  33.988  30.585  1.00  0.00     0.198 A 
ATOM     94  C   UNL A   1      46.580  34.713  28.336  1.00  0.00     0.198 A 
ATOM     95  F   UNL A   1      45.646  33.224  26.775  1.00  0.00    -0.203 F 
ATOM     96  F   UNL A   1      47.411  34.256  31.833  1.00  0.00    -0.200 F 
ATOM     97  C   UNL A   1      47.030  34.984  29.620  1.00  0.00     0.200 A 
ATOM     98  F   UNL A   1      46.618  35.669  27.399  1.00  0.00    -0.200 F 
ATOM     99  F   UNL A   1      47.481  36.207  29.929  1.00  0.00    -0.200 F 
ENDBRANCH  66  89
ENDBRANCH  40  41
ENDBRANCH  32  35
ENDBRANCH  30  31
ENDBRANCH  29  30
ENDBRANCH   1  29
TORSDOF 14
ENDMDL
MODEL 3
REMARK VINA RESULT:     -13.4      0.595      7.104
REMARK SMILES CC1=NN(c2ccc(Cl)cc2)C(=O)/C1=C/c1ccccc1OCC(=O)NCCCNC(=O)c1ccc(-c2c3nc(c(-c4c(F)c(F)c(F)c(F)c4F)c4ccc([nH]4)c(-c4c(F)c(F)c(F)c(F)c4F)c4nc(c(-c5c(F)c(F)c(F)c(F)c5F)c5ccc2[nH]5)C=C4)C=C3)cc1
REMARK SMILES IDX 27 1 26 2 24 3 25 4 23 6 22 7 21 8 16 9 17 10 18 11 20 12
REMARK SMILES IDX 19 13 15 14 1 15 2 16 3 17 14 18 4 19 12 20 13 21 5 22 6 23
REMARK SMILES IDX 11 24 7 25 10 26 8 27 9 28 28 29 29 30 30 31 31 32 32 34
REMARK SMILES IDX 33 35 34 36 95 37 35 38 94 39 36 40 37 41 38 42 88 43 39 44
REMARK SMILES IDX 93 45 87 46 89 47 40 48 92 49 86 50 85 51 41 53 73 54 53 55
REMARK SMILES IDX 72 56 54 57 57 58 71 59 90 60 55 61 56 62 70 64 91 65 58 66
REMARK SMILES IDX 42 67 43 68 51 69 44 70 45 71 49 72 52 73 46 74 47 75 50 76
REMARK SMILES IDX 48 77 74 78 75 79 83 80 76 81 77 82 81 83 84 84 78 85 79 86
REMARK SMILES IDX 82 87 80 88 59 89 60 90 68 91 61 92 62 93 66 94 69 95 63 96
REMARK SMILES IDX 64 97 67 98 65 99
REMARK H PARENT 26 5 30 33 89 52 57 63
REMARK Flexibility Score: inf
ROOT
ATOM      1  C   UNL A   1      31.824  30.649  26.955  1.00  0.00     0.117 C 
ENDROOT
BRANCH   1   2
ATOM      2  N   UNL A   1      33.083  30.290  27.577  1.00  0.00    -0.353 N 
ATOM      3  C   UNL A   1      33.874  29.221  27.255  1.00  0.00     0.257 C 
ATOM      4  O   UNL A   1      35.091  29.333  27.411  1.00  0.00    -0.271 OA
ATOM      5  H   UNL A   1      33.399  30.871  28.305  1.00  0.00     0.163 HD
BRANCH   3   6
ATOM      6  C   UNL A   1      33.272  27.933  26.689  1.00  0.00     0.329 C 
BRANCH   6   7
ATOM      7  O   UNL A   1      33.138  27.882  25.284  1.00  0.00    -0.483 OA
BRANCH   7   8
ATOM      8  C   UNL A   1      31.960  27.613  24.647  1.00  0.00     0.127 A 
ATOM      9  C   UNL A   1      31.179  26.443  24.618  1.00  0.00     0.017 A 
ATOM     10  C   UNL A   1      29.949  26.460  23.930  1.00  0.00     0.012 A 
ATOM     11  C   UNL A   1      29.498  27.607  23.276  1.00  0.00     0.001 A 
ATOM     12  C   UNL A   1      31.490  28.754  23.975  1.00  0.00     0.047 A 
ATOM     13  C   UNL A   1      30.276  28.756  23.292  1.00  0.00     0.004 A 
BRANCH   9  14
ATOM     14  C   UNL A   1      31.530  25.167  25.240  1.00  0.00     0.027 C 
ATOM     15  C   UNL A   1      33.587  25.371  22.724  1.00  0.00     0.069 C 
ATOM     16  C   UNL A   1      33.298  24.212  23.615  1.00  0.00     0.071 C 
ATOM     17  N   UNL A   1      33.794  23.016  23.428  1.00  0.00    -0.169 NA
ATOM     18  C   UNL A   1      32.414  24.270  24.788  1.00  0.00     0.066 C 
ATOM     19  N   UNL A   1      33.268  22.219  24.450  1.00  0.00    -0.196 N 
ATOM     20  C   UNL A   1      32.499  22.921  25.393  1.00  0.00     0.280 C 
ATOM     21  O   UNL A   1      31.979  22.584  26.438  1.00  0.00    -0.267 OA
BRANCH  19  22
ATOM     22  C   UNL A   1      33.385  20.814  24.347  1.00  0.00     0.069 A 
ATOM     23  C   UNL A   1      32.361  20.045  23.773  1.00  0.00     0.030 A 
ATOM     24  C   UNL A   1      34.559  20.162  24.752  1.00  0.00     0.030 A 
ATOM     25  C   UNL A   1      32.503  18.663  23.604  1.00  0.00     0.023 A 
ATOM     26  C   UNL A   1      34.694  18.776  24.610  1.00  0.00     0.023 A 
ATOM     27  C   UNL A   1      33.665  18.034  24.033  1.00  0.00     0.041 A 
ATOM     28  Cl  UNL A   1      33.837  16.333  23.839  1.00  0.00    -0.084 Cl
ENDBRANCH  19  22
ENDBRANCH   9  14
ENDBRANCH   7   8
ENDBRANCH   6   7
ENDBRANCH   3   6
ENDBRANCH   1   2
BRANCH   1  29
ATOM     29  C   UNL A   1      31.537  32.144  26.876  1.00  0.00     0.042 C 
BRANCH  29  30
ATOM     30  C   UNL A   1      32.731  33.077  27.048  1.00  0.00     0.118 C 
BRANCH  30  31
ATOM     31  N   UNL A   1      32.430  34.334  27.710  1.00  0.00    -0.352 N 
ATOM     32  C   UNL A   1      33.040  34.973  28.760  1.00  0.00     0.251 C 
ATOM     33  H   UNL A   1      31.651  34.811  27.342  1.00  0.00     0.163 HD
ATOM     34  O   UNL A   1      32.573  36.033  29.171  1.00  0.00    -0.269 OA
BRANCH  32  35
ATOM     35  C   UNL A   1      34.223  34.396  29.441  1.00  0.00     0.039 A 
ATOM     36  C   UNL A   1      34.008  33.638  30.597  1.00  0.00     0.014 A 
ATOM     37  C   UNL A   1      35.528  34.623  28.998  1.00  0.00     0.014 A 
ATOM     38  C   UNL A   1      35.087  33.053  31.265  1.00  0.00     0.010 A 
ATOM     39  C   UNL A   1      36.599  33.979  29.623  1.00  0.00     0.010 A 
ATOM     40  C   UNL A   1      36.391  33.190  30.765  1.00  0.00    -0.014 A 
BRANCH  40  41
ATOM     41  C   UNL A   1      37.535  32.514  31.435  1.00  0.00     0.031 A 
ATOM     42  C   UNL A   1      38.236  31.358  30.778  1.00  0.00     0.074 A 
ATOM     43  C   UNL A   1      37.920  32.914  32.663  1.00  0.00     0.049 A 
ATOM     44  N   UNL A   1      39.238  30.636  31.217  1.00  0.00    -0.248 NA
ATOM     45  C   UNL A   1      37.725  30.940  29.465  1.00  0.00     0.031 C 
ATOM     46  C   UNL A   1      37.293  33.987  33.434  1.00  0.00     0.029 A 
ATOM     47  N   UNL A   1      38.927  32.460  33.480  1.00  0.00    -0.354 N 
ATOM     48  C   UNL A   1      39.469  29.676  30.241  1.00  0.00     0.074 A 
ATOM     49  C   UNL A   1      38.464  29.869  29.218  1.00  0.00     0.031 C 
ATOM     50  C   UNL A   1      37.940  34.123  34.603  1.00  0.00     0.029 A 
ATOM     51  C   UNL A   1      39.005  33.127  34.678  1.00  0.00     0.049 A 
ATOM     52  H   UNL A   1      39.533  31.727  33.230  1.00  0.00     0.167 HD
ATOM     53  C   UNL A   1      40.445  28.736  30.188  1.00  0.00     0.037 A 
ATOM     54  C   UNL A   1      39.838  32.954  35.723  1.00  0.00     0.037 A 
ATOM     55  C   UNL A   1      41.452  28.552  31.202  1.00  0.00     0.049 A 
ATOM     56  C   UNL A   1      40.915  31.907  35.646  1.00  0.00     0.074 A 
ATOM     57  C   UNL A   1      42.515  27.667  31.214  1.00  0.00     0.029 A 
ATOM     58  N   UNL A   1      41.510  29.261  32.395  1.00  0.00    -0.354 N 
ATOM     59  N   UNL A   1      41.174  31.056  34.682  1.00  0.00    -0.248 NA
ATOM     60  C   UNL A   1      41.824  31.806  36.795  1.00  0.00     0.031 C 
ATOM     61  C   UNL A   1      43.185  27.801  32.436  1.00  0.00     0.029 A 
ATOM     62  C   UNL A   1      42.576  28.814  33.161  1.00  0.00     0.049 A 
ATOM     63  H   UNL A   1      40.887  29.976  32.658  1.00  0.00     0.167 HD
ATOM     64  C   UNL A   1      42.289  30.339  35.095  1.00  0.00     0.074 A 
ATOM     65  C   UNL A   1      42.665  30.864  36.392  1.00  0.00     0.031 C 
ATOM     66  C   UNL A   1      42.943  29.339  34.453  1.00  0.00     0.037 A 
BRANCH  53  67
ATOM     67  C   UNL A   1      40.456  27.825  28.991  1.00  0.00     0.064 A 
ATOM     68  C   UNL A   1      39.738  26.618  28.974  1.00  0.00     0.173 A 
ATOM     69  C   UNL A   1      41.195  28.160  27.847  1.00  0.00     0.173 A 
ATOM     70  F   UNL A   1      39.020  26.243  30.044  1.00  0.00    -0.203 F 
ATOM     71  C   UNL A   1      39.802  25.759  27.880  1.00  0.00     0.198 A 
ATOM     72  C   UNL A   1      41.227  27.316  26.739  1.00  0.00     0.198 A 
ATOM     73  F   UNL A   1      41.892  29.305  27.802  1.00  0.00    -0.203 F 
ATOM     74  F   UNL A   1      39.168  24.579  27.918  1.00  0.00    -0.200 F 
ATOM     75  C   UNL A   1      40.543  26.110  26.762  1.00  0.00     0.200 A 
ATOM     76  F   UNL A   1      41.931  27.665  25.653  1.00  0.00    -0.200 F 
ATOM     77  F   UNL A   1      40.609  25.281  25.712  1.00  0.00    -0.200 F 
ENDBRANCH  53  67
BRANCH  54  78
ATOM     78  C   UNL A   1      39.695  33.824  36.920  1.00  0.00     0.064 A 
ATOM     79  C   UNL A   1      40.302  35.086  36.973  1.00  0.00     0.173 A 
ATOM     80  C   UNL A   1      38.924  33.424  38.020  1.00  0.00     0.173 A 
ATOM     81  F   UNL A   1      41.067  35.505  35.953  1.00  0.00    -0.203 F 
ATOM     82  C   UNL A   1      40.150  35.911  38.085  1.00  0.00     0.198 A 
ATOM     83  C   UNL A   1      38.749  34.262  39.120  1.00  0.00     0.198 A 
ATOM     84  F   UNL A   1      38.316  32.228  38.016  1.00  0.00    -0.203 F 
ATOM     85  F   UNL A   1      40.768  37.100  38.124  1.00  0.00    -0.200 F 
ATOM     86  C   UNL A   1      39.367  35.502  39.153  1.00  0.00     0.200 A 
ATOM     87  F   UNL A   1      37.977  33.870  40.142  1.00  0.00    -0.200 F 
ATOM     88  F   UNL A   1      39.207  36.303  40.216  1.00  0.00    -0.200 F 
ENDBRANCH  54  78
BRANCH  66  89
ATOM     89  C   UNL A   1      44.158  28.764  35.126  1.00  0.00     0.064 A 
ATOM     90  C   UNL A   1      44.076  27.659  35.986  1.00  0.00     0.173 A 
ATOM     91  C   UNL A   1      45.428  29.308  34.879  1.00  0.00     0.173 A 
ATOM     92  F   UNL A   1      42.884  27.110  36.268  1.00  0.00    -0.203 F 
ATOM     93  C   UNL A   1      45.215  27.137  36.595  1.00  0.00     0.198 A 
ATOM     94  C   UNL A   1      46.570  28.764  35.463  1.00  0.00     0.198 A 
ATOM     95  F   UNL A   1      45.566  30.362  34.060  1.00  0.00    -0.203 F 
ATOM     96  F   UNL A   1      45.106  26.114  37.452  1.00  0.00    -0.200 F 
ATOM     97  C   UNL A   1      46.461  27.685  36.327  1.00  0.00     0.200 A 
ATOM     98  F   UNL A   1      47.773  29.285  35.191  1.00  0.00    -0.200 F 
ATOM     99  F   UNL A   1      47.556  27.177  36.908  1.00  0.00    -0.200 F 
ENDBRANCH  66  89
ENDBRANCH  40  41
ENDBRANCH  32  35
ENDBRANCH  30  31
ENDBRANCH  29  30
ENDBRANCH   1  29
TORSDOF 14
ENDMDL
