MODEL 1
REMARK VINA RESULT:     -12.8      0.000      0.000
REMARK SMILES O=C(NCCCNC(=O)[C@@H]1CCCC[C@@H]1C(=O)Nc1cccc(C(F)(F)F)c1)c1ccc(-c2c3nc(c(-c4c(F)c(F)c(F)c(F)c4F)c4ccc([nH]4)c(-c4c(F)c(F)c(F)c(F)c4F)c4nc(c(-c5c(F)c(F)c(F)c(F)c5F)c5ccc2[nH]5)C=C4)C=C3)cc1
REMARK SMILES IDX 5 1 4 2 3 3 1 4 2 5 29 7 30 8 91 9 31 10 90 11 32 12 33 13
REMARK SMILES IDX 34 14 84 15 35 16 89 17 83 18 85 19 36 20 88 21 82 22 81 23
REMARK SMILES IDX 37 25 69 26 49 27 68 28 50 29 53 30 67 31 86 32 51 33 52 34
REMARK SMILES IDX 66 36 87 37 54 38 38 39 39 40 47 41 40 42 41 43 45 44 48 45
REMARK SMILES IDX 42 46 43 47 46 48 44 49 70 50 71 51 79 52 72 53 73 54 77 55
REMARK SMILES IDX 80 56 74 57 75 58 78 59 76 60 55 61 56 62 64 63 57 64 58 65
REMARK SMILES IDX 62 66 65 67 59 68 60 69 63 70 61 71 6 72 7 73 8 74 9 76
REMARK SMILES IDX 10 77 11 78 15 79 12 80 14 81 13 82 16 83 17 84 18 85 19 87
REMARK SMILES IDX 20 88 28 89 21 90 23 91 22 92 24 93 25 94 26 95 27 96
REMARK H PARENT 3 6 85 24 53 35 7 75 18 86
REMARK Flexibility Score: inf
ROOT
ATOM      1  C   UNL A   1      35.206  23.212  26.355  1.00  0.00     0.042 C 
ENDROOT
BRANCH   1   2
ATOM      2  C   UNL A   1      36.548  23.729  25.873  1.00  0.00     0.118 C 
BRANCH   2   3
ATOM      3  N   UNL A   1      37.607  22.722  25.992  1.00  0.00    -0.352 N 
ATOM      4  O   UNL A   1      39.701  21.904  26.143  1.00  0.00    -0.269 OA
ATOM      5  C   UNL A   1      38.934  22.847  26.320  1.00  0.00     0.251 C 
ATOM      6  H   UNL A   1      37.318  21.800  25.804  1.00  0.00     0.163 HD
BRANCH   5   7
ATOM      7  C   UNL A   1      39.435  24.114  26.883  1.00  0.00     0.039 A 
ATOM      8  C   UNL A   1      39.319  24.355  28.249  1.00  0.00     0.014 A 
ATOM      9  C   UNL A   1      40.041  25.062  26.053  1.00  0.00     0.014 A 
ATOM     10  C   UNL A   1      39.603  25.608  28.752  1.00  0.00     0.010 A 
ATOM     11  C   UNL A   1      40.475  26.275  26.594  1.00  0.00     0.010 A 
ATOM     12  C   UNL A   1      40.231  26.566  27.944  1.00  0.00    -0.014 A 
BRANCH  12  13
ATOM     13  C   UNL A   1      40.700  27.816  28.588  1.00  0.00     0.031 A 
ATOM     14  C   UNL A   1      42.152  28.048  28.875  1.00  0.00     0.074 A 
ATOM     15  C   UNL A   1      39.782  28.770  28.843  1.00  0.00     0.049 A 
ATOM     16  N   UNL A   1      42.723  29.098  29.411  1.00  0.00    -0.248 NA
ATOM     17  C   UNL A   1      43.087  26.968  28.531  1.00  0.00     0.031 C 
ATOM     18  C   UNL A   1      38.341  28.636  28.599  1.00  0.00     0.029 A 
ATOM     19  N   UNL A   1      39.915  30.047  29.317  1.00  0.00    -0.354 N 
ATOM     20  C   UNL A   1      44.074  28.793  29.497  1.00  0.00     0.074 A 
ATOM     21  C   UNL A   1      44.240  27.455  28.972  1.00  0.00     0.031 C 
ATOM     22  C   UNL A   1      37.740  29.807  28.841  1.00  0.00     0.029 A 
ATOM     23  C   UNL A   1      38.731  30.741  29.353  1.00  0.00     0.049 A 
ATOM     24  H   UNL A   1      40.776  30.430  29.604  1.00  0.00     0.167 HD
ATOM     25  C   UNL A   1      45.078  29.569  29.972  1.00  0.00     0.037 A 
ATOM     26  C   UNL A   1      38.464  31.989  29.779  1.00  0.00     0.037 A 
ATOM     27  C   UNL A   1      44.892  30.909  30.469  1.00  0.00     0.049 A 
ATOM     28  C   UNL A   1      39.595  32.813  30.315  1.00  0.00     0.074 A 
ATOM     29  C   UNL A   1      45.843  31.788  30.958  1.00  0.00     0.029 A 
ATOM     30  N   UNL A   1      43.670  31.564  30.539  1.00  0.00    -0.354 N 
ATOM     31  N   UNL A   1      40.868  32.513  30.394  1.00  0.00    -0.248 NA
ATOM     32  C   UNL A   1      39.252  34.140  30.835  1.00  0.00     0.031 C 
ATOM     33  C   UNL A   1      45.190  32.958  31.361  1.00  0.00     0.029 A 
ATOM     34  C   UNL A   1      43.839  32.829  31.080  1.00  0.00     0.049 A 
ATOM     35  H   UNL A   1      42.809  31.186  30.248  1.00  0.00     0.167 HD
ATOM     36  C   UNL A   1      41.482  33.614  30.968  1.00  0.00     0.074 A 
ATOM     37  C   UNL A   1      40.443  34.601  31.189  1.00  0.00     0.031 C 
ATOM     38  C   UNL A   1      42.787  33.790  31.291  1.00  0.00     0.037 A 
BRANCH  25  39
ATOM     39  C   UNL A   1      46.459  28.982  30.007  1.00  0.00     0.064 A 
ATOM     40  C   UNL A   1      46.939  28.280  31.122  1.00  0.00     0.173 A 
ATOM     41  C   UNL A   1      47.300  29.087  28.888  1.00  0.00     0.173 A 
ATOM     42  F   UNL A   1      46.181  28.163  32.223  1.00  0.00    -0.203 F 
ATOM     43  C   UNL A   1      48.216  27.722  31.123  1.00  0.00     0.198 A 
ATOM     44  C   UNL A   1      48.565  28.505  28.882  1.00  0.00     0.198 A 
ATOM     45  F   UNL A   1      46.891  29.745  27.793  1.00  0.00    -0.203 F 
ATOM     46  F   UNL A   1      48.667  27.089  32.215  1.00  0.00    -0.200 F 
ATOM     47  C   UNL A   1      49.024  27.828  30.001  1.00  0.00     0.200 A 
ATOM     48  F   UNL A   1      49.340  28.599  27.792  1.00  0.00    -0.200 F 
ATOM     49  F   UNL A   1      50.248  27.282  30.000  1.00  0.00    -0.200 F 
ENDBRANCH  25  39
BRANCH  26  50
ATOM     50  C   UNL A   1      37.072  32.503  29.732  1.00  0.00     0.064 A 
ATOM     51  C   UNL A   1      36.189  32.297  30.798  1.00  0.00     0.173 A 
ATOM     52  C   UNL A   1      36.608  33.242  28.632  1.00  0.00     0.173 A 
ATOM     53  F   UNL A   1      36.581  31.585  31.865  1.00  0.00    -0.203 F 
ATOM     54  C   UNL A   1      34.890  32.801  30.763  1.00  0.00     0.198 A 
ATOM     55  C   UNL A   1      35.322  33.774  28.614  1.00  0.00     0.198 A 
ATOM     56  F   UNL A   1      37.418  33.476  27.589  1.00  0.00    -0.203 F 
ATOM     57  F   UNL A   1      34.053  32.559  31.782  1.00  0.00    -0.200 F 
ATOM     58  C   UNL A   1      34.461  33.547  29.676  1.00  0.00     0.200 A 
ATOM     59  F   UNL A   1      34.921  34.514  27.571  1.00  0.00    -0.200 F 
ATOM     60  F   UNL A   1      33.217  34.045  29.651  1.00  0.00    -0.200 F 
ENDBRANCH  26  50
BRANCH  38  61
ATOM     61  C   UNL A   1      43.155  35.110  31.897  1.00  0.00     0.064 A 
ATOM     62  C   UNL A   1      43.061  35.335  33.278  1.00  0.00     0.173 A 
ATOM     63  C   UNL A   1      43.622  36.156  31.087  1.00  0.00     0.173 A 
ATOM     64  F   UNL A   1      42.601  34.371  34.089  1.00  0.00    -0.203 F 
ATOM     65  C   UNL A   1      43.397  36.571  33.824  1.00  0.00     0.198 A 
ATOM     66  C   UNL A   1      43.983  37.381  31.639  1.00  0.00     0.198 A 
ATOM     67  F   UNL A   1      43.731  35.987  29.761  1.00  0.00    -0.203 F 
ATOM     68  F   UNL A   1      43.248  36.783  35.138  1.00  0.00    -0.200 F 
ATOM     69  C   UNL A   1      43.862  37.590  33.005  1.00  0.00     0.200 A 
ATOM     70  F   UNL A   1      44.443  38.360  30.850  1.00  0.00    -0.200 F 
ATOM     71  F   UNL A   1      44.185  38.778  33.533  1.00  0.00    -0.200 F 
ENDBRANCH  38  61
ENDBRANCH  12  13
ENDBRANCH   5   7
ENDBRANCH   2   3
ENDBRANCH   1   2
BRANCH   1  72
ATOM     72  C   UNL A   1      34.083  23.713  25.479  1.00  0.00     0.117 C 
BRANCH  72  73
ATOM     73  N   UNL A   1      32.934  24.183  26.207  1.00  0.00    -0.356 N 
ATOM     74  C   UNL A   1      32.214  25.325  26.134  1.00  0.00     0.223 C 
ATOM     75  H   UNL A   1      32.610  23.551  26.890  1.00  0.00     0.163 HD
ATOM     76  O   UNL A   1      31.094  25.250  26.658  1.00  0.00    -0.275 OA
BRANCH  74  77
ATOM     77  C   UNL A   1      32.746  26.688  25.651  1.00  0.00     0.091 C 
ATOM     78  C   UNL A   1      31.684  27.773  25.943  1.00  0.00     0.014 C 
ATOM     79  C   UNL A   1      33.515  26.893  24.338  1.00  0.00     0.091 C 
ATOM     80  C   UNL A   1      31.965  29.191  25.446  1.00  0.00     0.001 C 
ATOM     81  C   UNL A   1      34.022  28.345  24.272  1.00  0.00     0.014 C 
ATOM     82  C   UNL A   1      32.857  29.314  24.220  1.00  0.00     0.001 C 
BRANCH  79  83
ATOM     83  C   UNL A   1      33.085  26.457  22.914  1.00  0.00     0.228 C 
ATOM     84  O   UNL A   1      33.967  26.162  22.097  1.00  0.00    -0.274 OA
ATOM     85  N   UNL A   1      31.812  26.128  22.567  1.00  0.00    -0.326 N 
ATOM     86  H   UNL A   1      31.736  25.344  21.975  1.00  0.00     0.169 HD
BRANCH  85  87
ATOM     87  C   UNL A   1      30.604  26.718  22.911  1.00  0.00     0.041 A 
ATOM     88  C   UNL A   1      29.653  25.962  23.590  1.00  0.00     0.026 A 
ATOM     89  C   UNL A   1      30.292  27.995  22.459  1.00  0.00     0.039 A 
ATOM     90  C   UNL A   1      28.431  26.537  23.936  1.00  0.00     0.003 A 
ATOM     91  C   UNL A   1      29.061  28.581  22.783  1.00  0.00     0.058 A 
ATOM     92  C   UNL A   1      28.141  27.847  23.547  1.00  0.00     0.013 A 
BRANCH  91  93
ATOM     93  C   UNL A   1      28.766  30.001  22.374  1.00  0.00     0.416 C 
ATOM     94  F   UNL A   1      27.451  30.208  22.092  1.00  0.00    -0.166 F 
ATOM     95  F   UNL A   1      29.092  30.895  23.346  1.00  0.00    -0.166 F 
ATOM     96  F   UNL A   1      29.453  30.393  21.263  1.00  0.00    -0.166 F 
ENDBRANCH  91  93
ENDBRANCH  85  87
ENDBRANCH  79  83
ENDBRANCH  74  77
ENDBRANCH  72  73
ENDBRANCH   1  72
TORSDOF 13
ENDMDL
MODEL 2
REMARK VINA RESULT:     -12.7      4.574      8.889
REMARK SMILES O=C(NCCCNC(=O)[C@@H]1CCCC[C@@H]1C(=O)Nc1cccc(C(F)(F)F)c1)c1ccc(-c2c3nc(c(-c4c(F)c(F)c(F)c(F)c4F)c4ccc([nH]4)c(-c4c(F)c(F)c(F)c(F)c4F)c4nc(c(-c5c(F)c(F)c(F)c(F)c5F)c5ccc2[nH]5)C=C4)C=C3)cc1
REMARK SMILES IDX 5 1 4 2 3 3 1 4 2 5 29 7 30 8 91 9 31 10 90 11 32 12 33 13
REMARK SMILES IDX 34 14 84 15 35 16 89 17 83 18 85 19 36 20 88 21 82 22 81 23
REMARK SMILES IDX 37 25 69 26 49 27 68 28 50 29 53 30 67 31 86 32 51 33 52 34
REMARK SMILES IDX 66 36 87 37 54 38 38 39 39 40 47 41 40 42 41 43 45 44 48 45
REMARK SMILES IDX 42 46 43 47 46 48 44 49 70 50 71 51 79 52 72 53 73 54 77 55
REMARK SMILES IDX 80 56 74 57 75 58 78 59 76 60 55 61 56 62 64 63 57 64 58 65
REMARK SMILES IDX 62 66 65 67 59 68 60 69 63 70 61 71 6 72 7 73 8 74 9 76
REMARK SMILES IDX 10 77 11 78 15 79 12 80 14 81 13 82 16 83 17 84 18 85 19 87
REMARK SMILES IDX 20 88 28 89 21 90 23 91 22 92 24 93 25 94 26 95 27 96
REMARK H PARENT 3 6 85 24 53 35 7 75 18 86
REMARK Flexibility Score: inf
ROOT
ATOM      1  C   UNL A   1      33.115  28.712  23.952  1.00  0.00     0.042 C 
ENDROOT
BRANCH   1   2
ATOM      2  C   UNL A   1      33.600  29.080  25.341  1.00  0.00     0.118 C 
BRANCH   2   3
ATOM      3  N   UNL A   1      33.026  30.344  25.813  1.00  0.00    -0.352 N 
ATOM      4  O   UNL A   1      32.596  32.038  27.236  1.00  0.00    -0.269 OA
ATOM      5  C   UNL A   1      33.351  31.132  26.890  1.00  0.00     0.251 C 
ATOM      6  H   UNL A   1      32.282  30.685  25.267  1.00  0.00     0.163 HD
BRANCH   5   7
ATOM      7  C   UNL A   1      34.604  30.889  27.627  1.00  0.00     0.039 A 
ATOM      8  C   UNL A   1      34.892  29.608  28.091  1.00  0.00     0.014 A 
ATOM      9  C   UNL A   1      35.507  31.933  27.844  1.00  0.00     0.014 A 
ATOM     10  C   UNL A   1      35.959  29.411  28.945  1.00  0.00     0.010 A 
ATOM     11  C   UNL A   1      36.672  31.696  28.578  1.00  0.00     0.010 A 
ATOM     12  C   UNL A   1      36.889  30.438  29.159  1.00  0.00    -0.014 A 
BRANCH  12  13
ATOM     13  C   UNL A   1      38.121  30.111  29.915  1.00  0.00     0.031 A 
ATOM     14  C   UNL A   1      38.322  30.587  31.321  1.00  0.00     0.074 A 
ATOM     15  C   UNL A   1      39.026  29.309  29.319  1.00  0.00     0.049 A 
ATOM     16  N   UNL A   1      39.333  30.365  32.124  1.00  0.00    -0.248 NA
ATOM     17  C   UNL A   1      37.267  31.428  31.905  1.00  0.00     0.031 C 
ATOM     18  C   UNL A   1      38.918  28.793  27.950  1.00  0.00     0.029 A 
ATOM     19  N   UNL A   1      40.183  28.748  29.789  1.00  0.00    -0.354 N 
ATOM     20  C   UNL A   1      39.051  31.062  33.291  1.00  0.00     0.074 A 
ATOM     21  C   UNL A   1      37.782  31.727  33.091  1.00  0.00     0.031 C 
ATOM     22  C   UNL A   1      39.914  27.930  27.721  1.00  0.00     0.029 A 
ATOM     23  C   UNL A   1      40.786  27.907  28.886  1.00  0.00     0.049 A 
ATOM     24  H   UNL A   1      40.547  28.931  30.685  1.00  0.00     0.167 HD
ATOM     25  C   UNL A   1      39.792  31.132  34.423  1.00  0.00     0.037 A 
ATOM     26  C   UNL A   1      41.934  27.211  28.975  1.00  0.00     0.037 A 
ATOM     27  C   UNL A   1      41.044  30.441  34.609  1.00  0.00     0.049 A 
ATOM     28  C   UNL A   1      42.737  27.325  30.235  1.00  0.00     0.074 A 
ATOM     29  C   UNL A   1      41.866  30.429  35.722  1.00  0.00     0.029 A 
ATOM     30  N   UNL A   1      41.652  29.636  33.655  1.00  0.00    -0.354 N 
ATOM     31  N   UNL A   1      42.462  27.989  31.331  1.00  0.00    -0.248 NA
ATOM     32  C   UNL A   1      44.016  26.609  30.265  1.00  0.00     0.031 C 
ATOM     33  C   UNL A   1      42.992  29.652  35.425  1.00  0.00     0.029 A 
ATOM     34  C   UNL A   1      42.848  29.138  34.146  1.00  0.00     0.049 A 
ATOM     35  H   UNL A   1      41.287  29.447  32.760  1.00  0.00     0.167 HD
ATOM     36  C   UNL A   1      43.529  27.769  32.185  1.00  0.00     0.074 A 
ATOM     37  C   UNL A   1      44.443  26.884  31.489  1.00  0.00     0.031 C 
ATOM     38  C   UNL A   1      43.740  28.261  33.431  1.00  0.00     0.037 A 
BRANCH  25  39
ATOM     39  C   UNL A   1      39.289  32.004  35.536  1.00  0.00     0.064 A 
ATOM     40  C   UNL A   1      38.442  31.512  36.540  1.00  0.00     0.173 A 
ATOM     41  C   UNL A   1      39.697  33.344  35.624  1.00  0.00     0.173 A 
ATOM     42  F   UNL A   1      38.011  30.242  36.495  1.00  0.00    -0.203 F 
ATOM     43  C   UNL A   1      38.007  32.332  37.578  1.00  0.00     0.198 A 
ATOM     44  C   UNL A   1      39.283  34.155  36.678  1.00  0.00     0.198 A 
ATOM     45  F   UNL A   1      40.509  33.866  34.693  1.00  0.00    -0.203 F 
ATOM     46  F   UNL A   1      37.167  31.850  38.504  1.00  0.00    -0.200 F 
ATOM     47  C   UNL A   1      38.434  33.650  37.651  1.00  0.00     0.200 A 
ATOM     48  F   UNL A   1      39.705  35.424  36.752  1.00  0.00    -0.200 F 
ATOM     49  F   UNL A   1      38.022  34.435  38.656  1.00  0.00    -0.200 F 
ENDBRANCH  25  39
BRANCH  26  50
ATOM     50  C   UNL A   1      42.383  26.378  27.831  1.00  0.00     0.064 A 
ATOM     51  C   UNL A   1      41.904  25.076  27.654  1.00  0.00     0.173 A 
ATOM     52  C   UNL A   1      43.276  26.883  26.872  1.00  0.00     0.173 A 
ATOM     53  F   UNL A   1      41.060  24.543  28.551  1.00  0.00    -0.203 F 
ATOM     54  C   UNL A   1      42.307  24.303  26.566  1.00  0.00     0.198 A 
ATOM     55  C   UNL A   1      43.651  26.123  25.767  1.00  0.00     0.198 A 
ATOM     56  F   UNL A   1      43.756  28.130  26.990  1.00  0.00    -0.203 F 
ATOM     57  F   UNL A   1      41.861  23.046  26.438  1.00  0.00    -0.200 F 
ATOM     58  C   UNL A   1      43.173  24.831  25.619  1.00  0.00     0.200 A 
ATOM     59  F   UNL A   1      44.468  26.646  24.844  1.00  0.00    -0.200 F 
ATOM     60  F   UNL A   1      43.547  24.093  24.565  1.00  0.00    -0.200 F 
ENDBRANCH  26  50
BRANCH  38  61
ATOM     61  C   UNL A   1      44.998  27.828  34.119  1.00  0.00     0.064 A 
ATOM     62  C   UNL A   1      45.044  26.661  34.895  1.00  0.00     0.173 A 
ATOM     63  C   UNL A   1      46.174  28.581  33.986  1.00  0.00     0.173 A 
ATOM     64  F   UNL A   1      43.939  25.920  35.067  1.00  0.00    -0.203 F 
ATOM     65  C   UNL A   1      46.218  26.277  35.538  1.00  0.00     0.198 A 
ATOM     66  C   UNL A   1      47.353  28.179  34.607  1.00  0.00     0.198 A 
ATOM     67  F   UNL A   1      46.179  29.703  33.252  1.00  0.00    -0.203 F 
ATOM     68  F   UNL A   1      46.227  25.189  36.319  1.00  0.00    -0.200 F 
ATOM     69  C   UNL A   1      47.372  27.034  35.388  1.00  0.00     0.200 A 
ATOM     70  F   UNL A   1      48.469  28.904  34.453  1.00  0.00    -0.200 F 
ATOM     71  F   UNL A   1      48.501  26.663  36.007  1.00  0.00    -0.200 F 
ENDBRANCH  38  61
ENDBRANCH  12  13
ENDBRANCH   5   7
ENDBRANCH   2   3
ENDBRANCH   1   2
BRANCH   1  72
ATOM     72  C   UNL A   1      32.577  27.301  23.918  1.00  0.00     0.117 C 
BRANCH  72  73
ATOM     73  N   UNL A   1      33.101  26.497  22.846  1.00  0.00    -0.356 N 
ATOM     74  C   UNL A   1      33.628  25.252  22.815  1.00  0.00     0.223 C 
ATOM     75  H   UNL A   1      33.072  26.939  21.966  1.00  0.00     0.163 HD
ATOM     76  O   UNL A   1      33.653  24.743  21.686  1.00  0.00    -0.275 OA
BRANCH  74  77
ATOM     77  C   UNL A   1      34.340  24.553  23.988  1.00  0.00     0.091 C 
ATOM     78  C   UNL A   1      34.921  23.209  23.494  1.00  0.00     0.014 C 
ATOM     79  C   UNL A   1      33.796  24.516  25.424  1.00  0.00     0.091 C 
ATOM     80  C   UNL A   1      35.582  22.298  24.529  1.00  0.00     0.001 C 
ATOM     81  C   UNL A   1      34.848  23.874  26.346  1.00  0.00     0.014 C 
ATOM     82  C   UNL A   1      35.082  22.427  25.959  1.00  0.00     0.001 C 
BRANCH  79  83
ATOM     83  C   UNL A   1      32.389  24.058  25.889  1.00  0.00     0.228 C 
ATOM     84  O   UNL A   1      31.874  24.631  26.859  1.00  0.00    -0.274 OA
ATOM     85  N   UNL A   1      31.569  23.253  25.163  1.00  0.00    -0.326 N 
ATOM     86  H   UNL A   1      30.620  23.517  25.171  1.00  0.00     0.169 HD
BRANCH  85  87
ATOM     87  C   UNL A   1      31.852  22.119  24.415  1.00  0.00     0.041 A 
ATOM     88  C   UNL A   1      31.701  22.168  23.032  1.00  0.00     0.026 A 
ATOM     89  C   UNL A   1      32.141  20.915  25.046  1.00  0.00     0.039 A 
ATOM     90  C   UNL A   1      31.975  21.036  22.266  1.00  0.00     0.003 A 
ATOM     91  C   UNL A   1      32.400  19.763  24.291  1.00  0.00     0.058 A 
ATOM     92  C   UNL A   1      32.337  19.841  22.892  1.00  0.00     0.013 A 
BRANCH  91  93
ATOM     93  C   UNL A   1      32.808  18.484  24.976  1.00  0.00     0.416 C 
ATOM     94  F   UNL A   1      31.992  17.438  24.671  1.00  0.00    -0.166 F 
ATOM     95  F   UNL A   1      34.066  18.096  24.635  1.00  0.00    -0.166 F 
ATOM     96  F   UNL A   1      32.803  18.578  26.336  1.00  0.00    -0.166 F 
ENDBRANCH  91  93
ENDBRANCH  85  87
ENDBRANCH  79  83
ENDBRANCH  74  77
ENDBRANCH  72  73
ENDBRANCH   1  72
TORSDOF 13
ENDMDL
MODEL 3
REMARK VINA RESULT:     -12.6      3.933      8.582
REMARK SMILES O=C(NCCCNC(=O)[C@@H]1CCCC[C@@H]1C(=O)Nc1cccc(C(F)(F)F)c1)c1ccc(-c2c3nc(c(-c4c(F)c(F)c(F)c(F)c4F)c4ccc([nH]4)c(-c4c(F)c(F)c(F)c(F)c4F)c4nc(c(-c5c(F)c(F)c(F)c(F)c5F)c5ccc2[nH]5)C=C4)C=C3)cc1
REMARK SMILES IDX 5 1 4 2 3 3 1 4 2 5 29 7 30 8 91 9 31 10 90 11 32 12 33 13
REMARK SMILES IDX 34 14 84 15 35 16 89 17 83 18 85 19 36 20 88 21 82 22 81 23
REMARK SMILES IDX 37 25 69 26 49 27 68 28 50 29 53 30 67 31 86 32 51 33 52 34
REMARK SMILES IDX 66 36 87 37 54 38 38 39 39 40 47 41 40 42 41 43 45 44 48 45
REMARK SMILES IDX 42 46 43 47 46 48 44 49 70 50 71 51 79 52 72 53 73 54 77 55
REMARK SMILES IDX 80 56 74 57 75 58 78 59 76 60 55 61 56 62 64 63 57 64 58 65
REMARK SMILES IDX 62 66 65 67 59 68 60 69 63 70 61 71 6 72 7 73 8 74 9 76
REMARK SMILES IDX 10 77 11 78 15 79 12 80 14 81 13 82 16 83 17 84 18 85 19 87
REMARK SMILES IDX 20 88 28 89 21 90 23 91 22 92 24 93 25 94 26 95 27 96
REMARK H PARENT 3 6 85 24 53 35 7 75 18 86
REMARK Flexibility Score: inf
ROOT
ATOM      1  C   UNL A   1      31.348  31.996  26.504  1.00  0.00     0.042 C 
ENDROOT
BRANCH   1   2
ATOM      2  C   UNL A   1      32.655  32.662  26.890  1.00  0.00     0.118 C 
BRANCH   2   3
ATOM      3  N   UNL A   1      32.448  33.980  27.498  1.00  0.00    -0.352 N 
ATOM      4  O   UNL A   1      32.570  35.600  29.059  1.00  0.00    -0.269 OA
ATOM      5  C   UNL A   1      33.050  34.576  28.578  1.00  0.00     0.251 C 
ATOM      6  H   UNL A   1      31.760  34.530  27.058  1.00  0.00     0.163 HD
BRANCH   5   7
ATOM      7  C   UNL A   1      34.270  33.986  29.158  1.00  0.00     0.039 A 
ATOM      8  C   UNL A   1      34.163  32.923  30.051  1.00  0.00     0.014 A 
ATOM      9  C   UNL A   1      35.528  34.477  28.799  1.00  0.00     0.014 A 
ATOM     10  C   UNL A   1      35.277  32.495  30.745  1.00  0.00     0.010 A 
ATOM     11  C   UNL A   1      36.674  33.933  29.387  1.00  0.00     0.010 A 
ATOM     12  C   UNL A   1      36.551  32.957  30.387  1.00  0.00    -0.014 A 
BRANCH  12  13
ATOM     13  C   UNL A   1      37.726  32.314  31.021  1.00  0.00     0.031 A 
ATOM     14  C   UNL A   1      38.130  32.640  32.426  1.00  0.00     0.074 A 
ATOM     15  C   UNL A   1      38.379  31.370  30.314  1.00  0.00     0.049 A 
ATOM     16  N   UNL A   1      39.117  32.145  33.130  1.00  0.00    -0.248 NA
ATOM     17  C   UNL A   1      37.340  33.656  33.135  1.00  0.00     0.031 C 
ATOM     18  C   UNL A   1      38.059  30.982  28.935  1.00  0.00     0.029 A 
ATOM     19  N   UNL A   1      39.407  30.535  30.657  1.00  0.00    -0.354 N 
ATOM     20  C   UNL A   1      39.086  32.809  34.348  1.00  0.00     0.074 A 
ATOM     21  C   UNL A   1      37.992  33.753  34.287  1.00  0.00     0.031 C 
ATOM     22  C   UNL A   1      38.812  29.934  28.583  1.00  0.00     0.029 A 
ATOM     23  C   UNL A   1      39.736  29.640  29.668  1.00  0.00     0.049 A 
ATOM     24  H   UNL A   1      39.866  30.572  31.527  1.00  0.00     0.167 HD
ATOM     25  C   UNL A   1      39.902  32.636  35.416  1.00  0.00     0.037 A 
ATOM     26  C   UNL A   1      40.698  28.701  29.627  1.00  0.00     0.037 A 
ATOM     27  C   UNL A   1      40.972  31.672  35.463  1.00  0.00     0.049 A 
ATOM     28  C   UNL A   1      41.593  28.548  30.819  1.00  0.00     0.074 A 
ATOM     29  C   UNL A   1      41.847  31.403  36.501  1.00  0.00     0.029 A 
ATOM     30  N   UNL A   1      41.311  30.815  34.424  1.00  0.00    -0.354 N 
ATOM     31  N   UNL A   1      41.556  29.184  31.964  1.00  0.00    -0.248 NA
ATOM     32  C   UNL A   1      42.673  27.563  30.708  1.00  0.00     0.031 C 
ATOM     33  C   UNL A   1      42.741  30.414  36.074  1.00  0.00     0.029 A 
ATOM     34  C   UNL A   1      42.394  30.031  34.789  1.00  0.00     0.049 A 
ATOM     35  H   UNL A   1      40.850  30.772  33.555  1.00  0.00     0.167 HD
ATOM     36  C   UNL A   1      42.602  28.675  32.715  1.00  0.00     0.074 A 
ATOM     37  C   UNL A   1      43.237  27.654  31.903  1.00  0.00     0.031 C 
ATOM     38  C   UNL A   1      43.008  29.025  33.960  1.00  0.00     0.037 A 
BRANCH  25  39
ATOM     39  C   UNL A   1      39.692  33.525  36.607  1.00  0.00     0.064 A 
ATOM     40  C   UNL A   1      40.332  34.767  36.729  1.00  0.00     0.173 A 
ATOM     41  C   UNL A   1      38.802  33.146  37.624  1.00  0.00     0.173 A 
ATOM     42  F   UNL A   1      41.204  35.171  35.792  1.00  0.00    -0.203 F 
ATOM     43  C   UNL A   1      40.104  35.587  37.832  1.00  0.00     0.198 A 
ATOM     44  C   UNL A   1      38.555  33.979  38.712  1.00  0.00     0.198 A 
ATOM     45  F   UNL A   1      38.161  31.969  37.558  1.00  0.00    -0.203 F 
ATOM     46  F   UNL A   1      40.756  36.752  37.944  1.00  0.00    -0.200 F 
ATOM     47  C   UNL A   1      39.210  35.197  38.817  1.00  0.00     0.200 A 
ATOM     48  F   UNL A   1      37.682  33.605  39.658  1.00  0.00    -0.200 F 
ATOM     49  F   UNL A   1      38.983  35.992  39.873  1.00  0.00    -0.200 F 
ENDBRANCH  25  39
BRANCH  26  50
ATOM     50  C   UNL A   1      40.862  27.865  28.411  1.00  0.00     0.064 A 
ATOM     51  C   UNL A   1      41.659  28.292  27.343  1.00  0.00     0.173 A 
ATOM     52  C   UNL A   1      40.250  26.605  28.308  1.00  0.00     0.173 A 
ATOM     53  F   UNL A   1      42.252  29.494  27.388  1.00  0.00    -0.203 F 
ATOM     54  C   UNL A   1      41.832  27.496  26.212  1.00  0.00     0.198 A 
ATOM     55  C   UNL A   1      40.452  25.796  27.192  1.00  0.00     0.198 A 
ATOM     56  F   UNL A   1      39.484  26.145  29.308  1.00  0.00    -0.203 F 
ATOM     57  F   UNL A   1      42.572  27.943  25.188  1.00  0.00    -0.200 F 
ATOM     58  C   UNL A   1      41.236  26.245  26.142  1.00  0.00     0.200 A 
ATOM     59  F   UNL A   1      39.893  24.580  27.141  1.00  0.00    -0.200 F 
ATOM     60  F   UNL A   1      41.416  25.474  25.060  1.00  0.00    -0.200 F 
ENDBRANCH  26  50
BRANCH  38  61
ATOM     61  C   UNL A   1      44.179  28.276  34.519  1.00  0.00     0.064 A 
ATOM     62  C   UNL A   1      45.490  28.752  34.373  1.00  0.00     0.173 A 
ATOM     63  C   UNL A   1      43.985  27.079  35.222  1.00  0.00     0.173 A 
ATOM     64  F   UNL A   1      45.727  29.882  33.690  1.00  0.00    -0.203 F 
ATOM     65  C   UNL A   1      46.569  28.039  34.888  1.00  0.00     0.198 A 
ATOM     66  C   UNL A   1      45.063  26.384  35.761  1.00  0.00     0.198 A 
ATOM     67  F   UNL A   1      42.749  26.585  35.390  1.00  0.00    -0.203 F 
ATOM     68  F   UNL A   1      47.818  28.482  34.690  1.00  0.00    -0.200 F 
ATOM     69  C   UNL A   1      46.354  26.859  35.586  1.00  0.00     0.200 A 
ATOM     70  F   UNL A   1      44.854  25.251  36.444  1.00  0.00    -0.200 F 
ATOM     71  F   UNL A   1      47.394  26.175  36.081  1.00  0.00    -0.200 F 
ENDBRANCH  38  61
ENDBRANCH  12  13
ENDBRANCH   5   7
ENDBRANCH   2   3
ENDBRANCH   1   2
BRANCH   1  72
ATOM     72  C   UNL A   1      31.541  30.516  26.268  1.00  0.00     0.117 C 
BRANCH  72  73
ATOM     73  N   UNL A   1      32.860  30.037  26.587  1.00  0.00    -0.356 N 
ATOM     74  C   UNL A   1      33.537  28.925  26.223  1.00  0.00     0.223 C 
ATOM     75  H   UNL A   1      33.366  30.633  27.186  1.00  0.00     0.163 HD
ATOM     76  O   UNL A   1      34.762  29.001  26.394  1.00  0.00    -0.275 OA
BRANCH  74  77
ATOM     77  C   UNL A   1      32.901  27.579  25.825  1.00  0.00     0.091 C 
ATOM     78  C   UNL A   1      33.979  26.474  25.892  1.00  0.00     0.014 C 
ATOM     79  C   UNL A   1      31.894  27.412  24.677  1.00  0.00     0.091 C 
ATOM     80  C   UNL A   1      33.585  25.071  25.431  1.00  0.00     0.001 C 
ATOM     81  C   UNL A   1      31.358  25.969  24.682  1.00  0.00     0.014 C 
ATOM     82  C   UNL A   1      32.476  24.986  24.394  1.00  0.00     0.001 C 
BRANCH  79  83
ATOM     83  C   UNL A   1      32.056  27.872  23.206  1.00  0.00     0.228 C 
ATOM     84  O   UNL A   1      33.177  27.798  22.684  1.00  0.00    -0.274 OA
ATOM     85  N   UNL A   1      31.017  28.112  22.362  1.00  0.00    -0.326 N 
ATOM     86  H   UNL A   1      31.147  27.777  21.444  1.00  0.00     0.169 HD
BRANCH  85  87
ATOM     87  C   UNL A   1      29.806  28.752  22.583  1.00  0.00     0.041 A 
ATOM     88  C   UNL A   1      28.696  27.991  22.941  1.00  0.00     0.026 A 
ATOM     89  C   UNL A   1      29.668  30.108  22.313  1.00  0.00     0.039 A 
ATOM     90  C   UNL A   1      27.470  28.617  23.160  1.00  0.00     0.003 A 
ATOM     91  C   UNL A   1      28.437  30.749  22.510  1.00  0.00     0.058 A 
ATOM     92  C   UNL A   1      27.344  29.993  22.960  1.00  0.00     0.013 A 
BRANCH  91  93
ATOM     93  C   UNL A   1      28.318  32.237  22.308  1.00  0.00     0.416 C 
ATOM     94  F   UNL A   1      27.639  32.564  21.175  1.00  0.00    -0.166 F 
ATOM     95  F   UNL A   1      27.660  32.845  23.333  1.00  0.00    -0.166 F 
ATOM     96  F   UNL A   1      29.524  32.866  22.216  1.00  0.00    -0.166 F 
ENDBRANCH  91  93
ENDBRANCH  85  87
ENDBRANCH  79  83
ENDBRANCH  74  77
ENDBRANCH  72  73
ENDBRANCH   1  72
TORSDOF 13
ENDMDL
