MODEL 1
REMARK VINA RESULT:     -11.5      0.000      0.000
REMARK SMILES CC(C)[C@@H](NC(N)=O)C(=O)N[C@H](C(=O)NCCCNC(=O)c1ccc(-c2c3nc(c(-c4c(F)c(F)c(F)c(F)c4F)c4ccc([nH]4)c(-c4c(F)c(F)c(F)c(F)c4F)c4nc(c(-c5c(F)c(F)c(F)c(F)c5F)c5ccc2[nH]5)C=C4)C=C3)cc1)[C@@H](C)O
REMARK SMILES IDX 16 1 15 2 13 3 14 4 12 6 11 7 9 8 10 9 4 11 2 12 1 13 3 14
REMARK SMILES IDX 5 15 6 16 7 18 8 19 85 22 86 23 87 24 17 26 18 27 19 28
REMARK SMILES IDX 20 29 21 31 22 32 23 33 84 34 24 35 83 36 25 37 26 38 27 39
REMARK SMILES IDX 77 40 28 41 82 42 76 43 78 44 29 45 81 46 75 47 74 48 30 50
REMARK SMILES IDX 62 51 42 52 61 53 43 54 46 55 60 56 79 57 44 58 45 59 59 61
REMARK SMILES IDX 80 62 47 63 31 64 32 65 40 66 33 67 34 68 38 69 41 70 35 71
REMARK SMILES IDX 36 72 39 73 37 74 63 75 64 76 72 77 65 78 66 79 70 80 73 81
REMARK SMILES IDX 67 82 68 83 71 84 69 85 48 86 49 87 57 88 50 89 51 90 55 91
REMARK SMILES IDX 58 92 52 93 53 94 56 95 54 96
REMARK H PARENT 15 5 11 10 5 17 7 20 7 21 87 25 19 30 78 49 46 60
REMARK Flexibility Score: inf
ROOT
ATOM      1  C   UNL A   1      33.688  26.608  25.001  1.00  0.00     0.117 C 
ENDROOT
BRANCH   1   2
ATOM      2  N   UNL A   1      33.696  26.253  23.596  1.00  0.00    -0.354 N 
ATOM      3  C   UNL A   1      33.299  25.086  22.981  1.00  0.00     0.245 C 
ATOM      4  O   UNL A   1      33.464  25.050  21.757  1.00  0.00    -0.273 OA
ATOM      5  H   UNL A   1      34.035  26.951  22.992  1.00  0.00     0.163 HD
BRANCH   3   6
ATOM      6  C   UNL A   1      32.665  23.896  23.759  1.00  0.00     0.200 C 
BRANCH   6   7
ATOM      7  N   UNL A   1      33.249  23.619  25.093  1.00  0.00    -0.340 N 
ATOM      8  C   UNL A   1      33.779  22.506  25.678  1.00  0.00     0.243 C 
ATOM      9  O   UNL A   1      33.654  22.417  26.904  1.00  0.00    -0.273 OA
ATOM     10  H   UNL A   1      33.258  24.406  25.683  1.00  0.00     0.164 HD
BRANCH   8  11
ATOM     11  C   UNL A   1      34.357  21.329  24.856  1.00  0.00     0.175 C 
BRANCH  11  12
ATOM     12  C   UNL A   1      35.806  21.668  24.406  1.00  0.00     0.015 C 
ATOM     13  C   UNL A   1      36.261  23.103  24.686  1.00  0.00     0.010 C 
ATOM     14  C   UNL A   1      36.799  20.722  25.104  1.00  0.00     0.010 C 
ENDBRANCH  11  12
BRANCH  11  15
ATOM     15  N   UNL A   1      34.170  20.130  25.660  1.00  0.00    -0.326 N 
ATOM     16  C   UNL A   1      32.992  19.436  25.513  1.00  0.00     0.312 C 
ATOM     17  H   UNL A   1      34.864  19.827  26.290  1.00  0.00     0.166 HD
ATOM     18  N   UNL A   1      32.810  18.504  26.479  1.00  0.00    -0.352 N 
ATOM     19  O   UNL A   1      32.141  19.643  24.667  1.00  0.00    -0.249 OA
ATOM     20  H   UNL A   1      33.511  18.351  27.155  1.00  0.00     0.161 HD
ATOM     21  H   UNL A   1      31.978  17.978  26.507  1.00  0.00     0.161 HD
ENDBRANCH  11  15
ENDBRANCH   8  11
ENDBRANCH   6   7
BRANCH   6  22
ATOM     22  C   UNL A   1      31.167  24.256  24.036  1.00  0.00     0.143 C 
ATOM     23  C   UNL A   1      30.841  24.506  25.498  1.00  0.00     0.041 C 
BRANCH  22  24
ATOM     24  O   UNL A   1      30.780  25.444  23.318  1.00  0.00    -0.391 OA
ATOM     25  H   UNL A   1      31.396  25.593  22.584  1.00  0.00     0.211 HD
ENDBRANCH  22  24
ENDBRANCH   6  22
ENDBRANCH   3   6
ENDBRANCH   1   2
BRANCH   1  26
ATOM     26  C   UNL A   1      32.847  27.833  25.449  1.00  0.00     0.042 C 
BRANCH  26  27
ATOM     27  C   UNL A   1      33.141  29.236  24.910  1.00  0.00     0.118 C 
BRANCH  27  28
ATOM     28  N   UNL A   1      32.602  30.316  25.723  1.00  0.00    -0.352 N 
ATOM     29  C   UNL A   1      33.050  31.102  26.757  1.00  0.00     0.251 C 
ATOM     30  H   UNL A   1      31.679  30.542  25.465  1.00  0.00     0.163 HD
ATOM     31  O   UNL A   1      32.291  32.013  27.097  1.00  0.00    -0.269 OA
BRANCH  29  32
ATOM     32  C   UNL A   1      34.336  30.947  27.504  1.00  0.00     0.039 A 
ATOM     33  C   UNL A   1      34.603  29.672  28.048  1.00  0.00     0.014 A 
ATOM     34  C   UNL A   1      35.286  31.944  27.711  1.00  0.00     0.014 A 
ATOM     35  C   UNL A   1      35.770  29.406  28.781  1.00  0.00     0.010 A 
ATOM     36  C   UNL A   1      36.469  31.675  28.421  1.00  0.00     0.010 A 
ATOM     37  C   UNL A   1      36.723  30.409  28.971  1.00  0.00    -0.014 A 
BRANCH  37  38
ATOM     38  C   UNL A   1      37.970  30.178  29.755  1.00  0.00     0.031 A 
ATOM     39  C   UNL A   1      39.047  29.279  29.207  1.00  0.00     0.074 A 
ATOM     40  C   UNL A   1      38.116  30.703  30.988  1.00  0.00     0.049 A 
ATOM     41  N   UNL A   1      40.115  28.800  29.796  1.00  0.00    -0.248 NA
ATOM     42  C   UNL A   1      38.883  28.838  27.814  1.00  0.00     0.031 C 
ATOM     43  C   UNL A   1      37.156  31.580  31.655  1.00  0.00     0.029 A 
ATOM     44  N   UNL A   1      39.127  30.554  31.908  1.00  0.00    -0.354 N 
ATOM     45  C   UNL A   1      40.723  27.967  28.865  1.00  0.00     0.074 A 
ATOM     46  C   UNL A   1      39.891  27.988  27.678  1.00  0.00     0.031 C 
ATOM     47  C   UNL A   1      37.623  31.897  32.875  1.00  0.00     0.029 A 
ATOM     48  C   UNL A   1      38.897  31.214  33.091  1.00  0.00     0.049 A 
ATOM     49  H   UNL A   1      39.938  30.025  31.735  1.00  0.00     0.167 HD
ATOM     50  C   UNL A   1      41.873  27.259  28.979  1.00  0.00     0.037 A 
ATOM     51  C   UNL A   1      39.621  31.252  34.227  1.00  0.00     0.037 A 
ATOM     52  C   UNL A   1      42.737  27.284  30.132  1.00  0.00     0.049 A 
ATOM     53  C   UNL A   1      40.910  30.480  34.320  1.00  0.00     0.074 A 
ATOM     54  C   UNL A   1      43.953  26.644  30.313  1.00  0.00     0.029 A 
ATOM     55  N   UNL A   1      42.487  28.000  31.292  1.00  0.00    -0.354 N 
ATOM     56  N   UNL A   1      41.478  29.708  33.429  1.00  0.00    -0.248 NA
ATOM     57  C   UNL A   1      41.659  30.590  35.582  1.00  0.00     0.031 C 
ATOM     58  C   UNL A   1      44.426  26.955  31.593  1.00  0.00     0.029 A 
ATOM     59  C   UNL A   1      43.524  27.815  32.194  1.00  0.00     0.049 A 
ATOM     60  H   UNL A   1      41.692  28.557  31.451  1.00  0.00     0.167 HD
ATOM     61  C   UNL A   1      42.659  29.261  34.008  1.00  0.00     0.074 A 
ATOM     62  C   UNL A   1      42.734  29.858  35.324  1.00  0.00     0.031 C 
ATOM     63  C   UNL A   1      43.595  28.426  33.495  1.00  0.00     0.037 A 
BRANCH  50  64
ATOM     64  C   UNL A   1      42.272  26.390  27.823  1.00  0.00     0.064 A 
ATOM     65  C   UNL A   1      41.739  25.104  27.651  1.00  0.00     0.173 A 
ATOM     66  C   UNL A   1      43.167  26.865  26.852  1.00  0.00     0.173 A 
ATOM     67  F   UNL A   1      40.889  24.599  28.556  1.00  0.00    -0.203 F 
ATOM     68  C   UNL A   1      42.112  24.313  26.566  1.00  0.00     0.198 A 
ATOM     69  C   UNL A   1      43.515  26.083  25.753  1.00  0.00     0.198 A 
ATOM     70  F   UNL A   1      43.698  28.092  26.965  1.00  0.00    -0.203 F 
ATOM     71  F   UNL A   1      41.630  23.068  26.450  1.00  0.00    -0.200 F 
ATOM     72  C   UNL A   1      42.995  24.806  25.616  1.00  0.00     0.200 A 
ATOM     73  F   UNL A   1      44.359  26.565  24.830  1.00  0.00    -0.200 F 
ATOM     74  F   UNL A   1      43.349  24.045  24.571  1.00  0.00    -0.200 F 
ENDBRANCH  50  64
BRANCH  51  75
ATOM     75  C   UNL A   1      39.154  32.070  35.378  1.00  0.00     0.064 A 
ATOM     76  C   UNL A   1      39.502  33.424  35.478  1.00  0.00     0.173 A 
ATOM     77  C   UNL A   1      38.373  31.517  36.401  1.00  0.00     0.173 A 
ATOM     78  F   UNL A   1      40.272  33.988  34.536  1.00  0.00    -0.203 F 
ATOM     79  C   UNL A   1      39.101  34.190  36.570  1.00  0.00     0.198 A 
ATOM     80  C   UNL A   1      37.951  32.291  37.481  1.00  0.00     0.198 A 
ATOM     81  F   UNL A   1      38.015  30.225  36.351  1.00  0.00    -0.203 F 
ATOM     82  F   UNL A   1      39.486  35.470  36.664  1.00  0.00    -0.200 F 
ATOM     83  C   UNL A   1      38.322  33.624  37.568  1.00  0.00     0.200 A 
ATOM     84  F   UNL A   1      37.192  31.744  38.439  1.00  0.00    -0.200 F 
ATOM     85  F   UNL A   1      37.937  34.362  38.618  1.00  0.00    -0.200 F 
ENDBRANCH  51  75
BRANCH  63  86
ATOM     86  C   UNL A   1      44.800  28.139  34.341  1.00  0.00     0.064 A 
ATOM     87  C   UNL A   1      45.941  28.954  34.294  1.00  0.00     0.173 A 
ATOM     88  C   UNL A   1      44.800  27.057  35.235  1.00  0.00     0.173 A 
ATOM     89  F   UNL A   1      45.994  29.990  33.445  1.00  0.00    -0.203 F 
ATOM     90  C   UNL A   1      47.047  28.682  35.096  1.00  0.00     0.198 A 
ATOM     91  C   UNL A   1      45.899  26.802  36.051  1.00  0.00     0.198 A 
ATOM     92  F   UNL A   1      43.731  26.252  35.321  1.00  0.00    -0.203 F 
ATOM     93  F   UNL A   1      48.143  29.449  35.004  1.00  0.00    -0.200 F 
ATOM     94  C   UNL A   1      47.023  27.611  35.976  1.00  0.00     0.200 A 
ATOM     95  F   UNL A   1      45.870  25.773  36.909  1.00  0.00    -0.200 F 
ATOM     96  F   UNL A   1      48.088  27.353  36.749  1.00  0.00    -0.200 F 
ENDBRANCH  63  86
ENDBRANCH  37  38
ENDBRANCH  29  32
ENDBRANCH  27  28
ENDBRANCH  26  27
ENDBRANCH   1  26
TORSDOF 16
ENDMDL
MODEL 2
REMARK VINA RESULT:     -11.4      3.077      8.008
REMARK SMILES CC(C)[C@@H](NC(N)=O)C(=O)N[C@H](C(=O)NCCCNC(=O)c1ccc(-c2c3nc(c(-c4c(F)c(F)c(F)c(F)c4F)c4ccc([nH]4)c(-c4c(F)c(F)c(F)c(F)c4F)c4nc(c(-c5c(F)c(F)c(F)c(F)c5F)c5ccc2[nH]5)C=C4)C=C3)cc1)[C@@H](C)O
REMARK SMILES IDX 16 1 15 2 13 3 14 4 12 6 11 7 9 8 10 9 4 11 2 12 1 13 3 14
REMARK SMILES IDX 5 15 6 16 7 18 8 19 85 22 86 23 87 24 17 26 18 27 19 28
REMARK SMILES IDX 20 29 21 31 22 32 23 33 84 34 24 35 83 36 25 37 26 38 27 39
REMARK SMILES IDX 77 40 28 41 82 42 76 43 78 44 29 45 81 46 75 47 74 48 30 50
REMARK SMILES IDX 62 51 42 52 61 53 43 54 46 55 60 56 79 57 44 58 45 59 59 61
REMARK SMILES IDX 80 62 47 63 31 64 32 65 40 66 33 67 34 68 38 69 41 70 35 71
REMARK SMILES IDX 36 72 39 73 37 74 63 75 64 76 72 77 65 78 66 79 70 80 73 81
REMARK SMILES IDX 67 82 68 83 71 84 69 85 48 86 49 87 57 88 50 89 51 90 55 91
REMARK SMILES IDX 58 92 52 93 53 94 56 95 54 96
REMARK H PARENT 15 5 11 10 5 17 7 20 7 21 87 25 19 30 78 49 46 60
REMARK Flexibility Score: inf
ROOT
ATOM      1  C   UNL A   1      32.881  26.803  24.933  1.00  0.00     0.117 C 
ENDROOT
BRANCH   1   2
ATOM      2  N   UNL A   1      33.179  26.606  23.529  1.00  0.00    -0.354 N 
ATOM      3  C   UNL A   1      33.362  25.437  22.824  1.00  0.00     0.245 C 
ATOM      4  O   UNL A   1      33.653  25.577  21.631  1.00  0.00    -0.273 OA
ATOM      5  H   UNL A   1      33.263  27.431  23.000  1.00  0.00     0.163 HD
BRANCH   3   6
ATOM      6  C   UNL A   1      33.194  24.028  23.467  1.00  0.00     0.200 C 
BRANCH   6   7
ATOM      7  N   UNL A   1      33.640  23.911  24.876  1.00  0.00    -0.340 N 
ATOM      8  C   UNL A   1      34.140  22.886  25.625  1.00  0.00     0.243 C 
ATOM      9  O   UNL A   1      33.886  22.914  26.834  1.00  0.00    -0.273 OA
ATOM     10  H   UNL A   1      33.559  24.753  25.379  1.00  0.00     0.164 HD
BRANCH   8  11
ATOM     11  C   UNL A   1      34.842  21.660  24.993  1.00  0.00     0.175 C 
BRANCH  11  12
ATOM     12  C   UNL A   1      36.365  21.942  24.858  1.00  0.00     0.015 C 
ATOM     13  C   UNL A   1      37.275  20.720  25.001  1.00  0.00     0.010 C 
ATOM     14  C   UNL A   1      36.653  22.578  23.487  1.00  0.00     0.010 C 
ENDBRANCH  11  12
BRANCH  11  15
ATOM     15  N   UNL A   1      34.444  20.503  25.782  1.00  0.00    -0.326 N 
ATOM     16  C   UNL A   1      33.334  19.800  25.374  1.00  0.00     0.312 C 
ATOM     17  H   UNL A   1      34.952  20.233  26.580  1.00  0.00     0.166 HD
ATOM     18  N   UNL A   1      32.903  18.917  26.307  1.00  0.00    -0.352 N 
ATOM     19  O   UNL A   1      32.728  19.963  24.330  1.00  0.00    -0.249 OA
ATOM     20  H   UNL A   1      33.408  18.800  27.145  1.00  0.00     0.161 HD
ATOM     21  H   UNL A   1      32.086  18.392  26.148  1.00  0.00     0.161 HD
ENDBRANCH  11  15
ENDBRANCH   8  11
ENDBRANCH   6   7
BRANCH   6  22
ATOM     22  C   UNL A   1      31.664  23.700  23.495  1.00  0.00     0.143 C 
ATOM     23  C   UNL A   1      31.032  23.764  24.874  1.00  0.00     0.041 C 
BRANCH  22  24
ATOM     24  O   UNL A   1      30.925  24.612  22.659  1.00  0.00    -0.391 OA
ATOM     25  H   UNL A   1      30.015  24.294  22.559  1.00  0.00     0.211 HD
ENDBRANCH  22  24
ENDBRANCH   6  22
ENDBRANCH   3   6
ENDBRANCH   1   2
BRANCH   1  26
ATOM     26  C   UNL A   1      33.589  27.963  25.683  1.00  0.00     0.042 C 
BRANCH  26  27
ATOM     27  C   UNL A   1      33.350  28.203  27.177  1.00  0.00     0.118 C 
BRANCH  27  28
ATOM     28  N   UNL A   1      33.517  29.586  27.596  1.00  0.00    -0.352 N 
ATOM     29  C   UNL A   1      34.564  30.392  27.973  1.00  0.00     0.251 C 
ATOM     30  H   UNL A   1      32.660  30.069  27.613  1.00  0.00     0.163 HD
ATOM     31  O   UNL A   1      34.282  31.580  28.145  1.00  0.00    -0.269 OA
BRANCH  29  32
ATOM     32  C   UNL A   1      35.979  29.968  28.207  1.00  0.00     0.039 A 
ATOM     33  C   UNL A   1      36.271  29.404  29.468  1.00  0.00     0.014 A 
ATOM     34  C   UNL A   1      37.027  30.082  27.297  1.00  0.00     0.014 A 
ATOM     35  C   UNL A   1      37.564  28.981  29.811  1.00  0.00     0.010 A 
ATOM     36  C   UNL A   1      38.318  29.632  27.626  1.00  0.00     0.010 A 
ATOM     37  C   UNL A   1      38.606  29.086  28.887  1.00  0.00    -0.014 A 
BRANCH  37  38
ATOM     38  C   UNL A   1      39.997  28.663  29.211  1.00  0.00     0.031 A 
ATOM     39  C   UNL A   1      40.907  29.589  29.975  1.00  0.00     0.074 A 
ATOM     40  C   UNL A   1      40.483  27.487  28.763  1.00  0.00     0.049 A 
ATOM     41  N   UNL A   1      42.195  29.498  30.198  1.00  0.00    -0.248 NA
ATOM     42  C   UNL A   1      40.285  30.797  30.537  1.00  0.00     0.031 C 
ATOM     43  C   UNL A   1      39.728  26.494  28.001  1.00  0.00     0.029 A 
ATOM     44  N   UNL A   1      41.741  26.942  28.867  1.00  0.00    -0.354 N 
ATOM     45  C   UNL A   1      42.545  30.655  30.886  1.00  0.00     0.074 A 
ATOM     46  C   UNL A   1      41.337  31.443  31.021  1.00  0.00     0.031 C 
ATOM     47  C   UNL A   1      40.533  25.458  27.712  1.00  0.00     0.029 A 
ATOM     48  C   UNL A   1      41.871  25.731  28.232  1.00  0.00     0.049 A 
ATOM     49  H   UNL A   1      42.478  27.378  29.352  1.00  0.00     0.167 HD
ATOM     50  C   UNL A   1      43.756  31.022  31.370  1.00  0.00     0.037 A 
ATOM     51  C   UNL A   1      42.948  24.938  28.072  1.00  0.00     0.037 A 
ATOM     52  C   UNL A   1      44.946  30.215  31.295  1.00  0.00     0.049 A 
ATOM     53  C   UNL A   1      44.277  25.354  28.645  1.00  0.00     0.074 A 
ATOM     54  C   UNL A   1      46.204  30.482  31.811  1.00  0.00     0.029 A 
ATOM     55  N   UNL A   1      45.023  28.975  30.681  1.00  0.00    -0.354 N 
ATOM     56  N   UNL A   1      44.590  26.442  29.302  1.00  0.00    -0.248 NA
ATOM     57  C   UNL A   1      45.402  24.426  28.453  1.00  0.00     0.031 C 
ATOM     58  C   UNL A   1      47.048  29.413  31.487  1.00  0.00     0.029 A 
ATOM     59  C   UNL A   1      46.307  28.466  30.801  1.00  0.00     0.049 A 
ATOM     60  H   UNL A   1      44.276  28.523  30.226  1.00  0.00     0.167 HD
ATOM     61  C   UNL A   1      45.935  26.320  29.624  1.00  0.00     0.074 A 
ATOM     62  C   UNL A   1      46.378  25.045  29.101  1.00  0.00     0.031 C 
ATOM     63  C   UNL A   1      46.733  27.190  30.290  1.00  0.00     0.037 A 
BRANCH  50  64
ATOM     64  C   UNL A   1      43.860  32.365  32.032  1.00  0.00     0.064 A 
ATOM     65  C   UNL A   1      44.172  33.523  31.304  1.00  0.00     0.173 A 
ATOM     66  C   UNL A   1      43.605  32.503  33.405  1.00  0.00     0.173 A 
ATOM     67  F   UNL A   1      44.435  33.443  29.992  1.00  0.00    -0.203 F 
ATOM     68  C   UNL A   1      44.256  34.763  31.932  1.00  0.00     0.198 A 
ATOM     69  C   UNL A   1      43.661  33.749  34.024  1.00  0.00     0.198 A 
ATOM     70  F   UNL A   1      43.294  31.428  34.146  1.00  0.00    -0.203 F 
ATOM     71  F   UNL A   1      44.606  35.847  31.225  1.00  0.00    -0.200 F 
ATOM     72  C   UNL A   1      43.994  34.876  33.289  1.00  0.00     0.200 A 
ATOM     73  F   UNL A   1      43.396  33.858  35.334  1.00  0.00    -0.200 F 
ATOM     74  F   UNL A   1      44.071  36.071  33.890  1.00  0.00    -0.200 F 
ENDBRANCH  50  64
BRANCH  51  75
ATOM     75  C   UNL A   1      42.818  23.646  27.347  1.00  0.00     0.064 A 
ATOM     76  C   UNL A   1      42.325  22.508  27.999  1.00  0.00     0.173 A 
ATOM     77  C   UNL A   1      43.198  23.518  26.004  1.00  0.00     0.173 A 
ATOM     78  F   UNL A   1      41.976  22.578  29.292  1.00  0.00    -0.203 F 
ATOM     79  C   UNL A   1      42.233  21.285  27.340  1.00  0.00     0.198 A 
ATOM     80  C   UNL A   1      43.083  22.299  25.338  1.00  0.00     0.198 A 
ATOM     81  F   UNL A   1      43.677  24.578  25.336  1.00  0.00    -0.203 F 
ATOM     82  F   UNL A   1      41.801  20.201  28.001  1.00  0.00    -0.200 F 
ATOM     83  C   UNL A   1      42.608  21.182  26.009  1.00  0.00     0.200 A 
ATOM     84  F   UNL A   1      43.437  22.205  24.050  1.00  0.00    -0.200 F 
ATOM     85  F   UNL A   1      42.520  20.005  25.376  1.00  0.00    -0.200 F 
ENDBRANCH  51  75
BRANCH  63  86
ATOM     86  C   UNL A   1      48.156  26.777  30.526  1.00  0.00     0.064 A 
ATOM     87  C   UNL A   1      48.513  25.963  31.611  1.00  0.00     0.173 A 
ATOM     88  C   UNL A   1      49.168  27.174  29.639  1.00  0.00     0.173 A 
ATOM     89  F   UNL A   1      47.584  25.571  32.495  1.00  0.00    -0.203 F 
ATOM     90  C   UNL A   1      49.837  25.577  31.810  1.00  0.00     0.198 A 
ATOM     91  C   UNL A   1      50.486  26.767  29.828  1.00  0.00     0.198 A 
ATOM     92  F   UNL A   1      48.876  27.949  28.584  1.00  0.00    -0.203 F 
ATOM     93  F   UNL A   1      50.163  24.833  32.876  1.00  0.00    -0.200 F 
ATOM     94  C   UNL A   1      50.820  25.975  30.916  1.00  0.00     0.200 A 
ATOM     95  F   UNL A   1      51.433  27.143  28.958  1.00  0.00    -0.200 F 
ATOM     96  F   UNL A   1      52.093  25.600  31.108  1.00  0.00    -0.200 F 
ENDBRANCH  63  86
ENDBRANCH  37  38
ENDBRANCH  29  32
ENDBRANCH  27  28
ENDBRANCH  26  27
ENDBRANCH   1  26
TORSDOF 16
ENDMDL
MODEL 3
REMARK VINA RESULT:     -11.4      0.197      1.622
REMARK SMILES CC(C)[C@@H](NC(N)=O)C(=O)N[C@H](C(=O)NCCCNC(=O)c1ccc(-c2c3nc(c(-c4c(F)c(F)c(F)c(F)c4F)c4ccc([nH]4)c(-c4c(F)c(F)c(F)c(F)c4F)c4nc(c(-c5c(F)c(F)c(F)c(F)c5F)c5ccc2[nH]5)C=C4)C=C3)cc1)[C@@H](C)O
REMARK SMILES IDX 16 1 15 2 13 3 14 4 12 6 11 7 9 8 10 9 4 11 2 12 1 13 3 14
REMARK SMILES IDX 5 15 6 16 7 18 8 19 85 22 86 23 87 24 17 26 18 27 19 28
REMARK SMILES IDX 20 29 21 31 22 32 23 33 84 34 24 35 83 36 25 37 26 38 27 39
REMARK SMILES IDX 77 40 28 41 82 42 76 43 78 44 29 45 81 46 75 47 74 48 30 50
REMARK SMILES IDX 62 51 42 52 61 53 43 54 46 55 60 56 79 57 44 58 45 59 59 61
REMARK SMILES IDX 80 62 47 63 31 64 32 65 40 66 33 67 34 68 38 69 41 70 35 71
REMARK SMILES IDX 36 72 39 73 37 74 63 75 64 76 72 77 65 78 66 79 70 80 73 81
REMARK SMILES IDX 67 82 68 83 71 84 69 85 48 86 49 87 57 88 50 89 51 90 55 91
REMARK SMILES IDX 58 92 52 93 53 94 56 95 54 96
REMARK H PARENT 15 5 11 10 5 17 7 20 7 21 87 25 19 30 78 49 46 60
REMARK Flexibility Score: inf
ROOT
ATOM      1  C   UNL A   1      33.663  26.636  25.001  1.00  0.00     0.117 C 
ENDROOT
BRANCH   1   2
ATOM      2  N   UNL A   1      33.612  26.280  23.598  1.00  0.00    -0.354 N 
ATOM      3  C   UNL A   1      33.134  25.136  22.997  1.00  0.00     0.245 C 
ATOM      4  O   UNL A   1      33.262  25.089  21.769  1.00  0.00    -0.273 OA
ATOM      5  H   UNL A   1      33.973  26.957  22.982  1.00  0.00     0.163 HD
BRANCH   3   6
ATOM      6  C   UNL A   1      32.456  23.984  23.795  1.00  0.00     0.200 C 
BRANCH   6   7
ATOM      7  N   UNL A   1      33.031  23.708  25.134  1.00  0.00    -0.340 N 
ATOM      8  C   UNL A   1      33.584  22.604  25.714  1.00  0.00     0.243 C 
ATOM      9  O   UNL A   1      33.446  22.498  26.937  1.00  0.00    -0.273 OA
ATOM     10  H   UNL A   1      33.009  24.489  25.732  1.00  0.00     0.164 HD
BRANCH   8  11
ATOM     11  C   UNL A   1      34.207  21.454  24.886  1.00  0.00     0.175 C 
BRANCH  11  12
ATOM     12  C   UNL A   1      35.631  21.862  24.414  1.00  0.00     0.015 C 
ATOM     13  C   UNL A   1      36.043  23.300  24.737  1.00  0.00     0.010 C 
ATOM     14  C   UNL A   1      36.674  20.926  25.051  1.00  0.00     0.010 C 
ENDBRANCH  11  12
BRANCH  11  15
ATOM     15  N   UNL A   1      34.090  20.250  25.697  1.00  0.00    -0.326 N 
ATOM     16  C   UNL A   1      32.966  19.474  25.535  1.00  0.00     0.312 C 
ATOM     17  H   UNL A   1      34.792  20.001  26.341  1.00  0.00     0.166 HD
ATOM     18  N   UNL A   1      32.834  18.538  26.505  1.00  0.00    -0.352 N 
ATOM     19  O   UNL A   1      32.118  19.615  24.672  1.00  0.00    -0.249 OA
ATOM     20  H   UNL A   1      33.531  18.439  27.194  1.00  0.00     0.161 HD
ATOM     21  H   UNL A   1      32.040  17.955  26.522  1.00  0.00     0.161 HD
ENDBRANCH  11  15
ENDBRANCH   8  11
ENDBRANCH   6   7
BRANCH   6  22
ATOM     22  C   UNL A   1      30.973  24.405  24.067  1.00  0.00     0.143 C 
ATOM     23  C   UNL A   1      30.652  24.672  25.526  1.00  0.00     0.041 C 
BRANCH  22  24
ATOM     24  O   UNL A   1      30.636  25.605  23.343  1.00  0.00    -0.391 OA
ATOM     25  H   UNL A   1      29.926  25.414  22.712  1.00  0.00     0.211 HD
ENDBRANCH  22  24
ENDBRANCH   6  22
ENDBRANCH   3   6
ENDBRANCH   1   2
BRANCH   1  26
ATOM     26  C   UNL A   1      32.862  27.877  25.478  1.00  0.00     0.042 C 
BRANCH  26  27
ATOM     27  C   UNL A   1      33.201  29.282  24.972  1.00  0.00     0.118 C 
BRANCH  27  28
ATOM     28  N   UNL A   1      32.679  30.359  25.799  1.00  0.00    -0.352 N 
ATOM     29  C   UNL A   1      33.145  31.134  26.834  1.00  0.00     0.251 C 
ATOM     30  H   UNL A   1      31.756  30.595  25.553  1.00  0.00     0.163 HD
ATOM     31  O   UNL A   1      32.397  32.048  27.189  1.00  0.00    -0.269 OA
BRANCH  29  32
ATOM     32  C   UNL A   1      34.438  30.964  27.566  1.00  0.00     0.039 A 
ATOM     33  C   UNL A   1      34.700  29.682  28.098  1.00  0.00     0.014 A 
ATOM     34  C   UNL A   1      35.398  31.952  27.770  1.00  0.00     0.014 A 
ATOM     35  C   UNL A   1      35.873  29.403  28.817  1.00  0.00     0.010 A 
ATOM     36  C   UNL A   1      36.586  31.668  28.464  1.00  0.00     0.010 A 
ATOM     37  C   UNL A   1      36.836  30.396  29.004  1.00  0.00    -0.014 A 
BRANCH  37  38
ATOM     38  C   UNL A   1      38.089  30.150  29.772  1.00  0.00     0.031 A 
ATOM     39  C   UNL A   1      39.140  29.223  29.219  1.00  0.00     0.074 A 
ATOM     40  C   UNL A   1      38.264  30.687  30.996  1.00  0.00     0.049 A 
ATOM     41  N   UNL A   1      40.207  28.729  29.799  1.00  0.00    -0.248 NA
ATOM     42  C   UNL A   1      38.946  28.768  27.835  1.00  0.00     0.031 C 
ATOM     43  C   UNL A   1      37.331  31.590  31.666  1.00  0.00     0.029 A 
ATOM     44  N   UNL A   1      39.285  30.529  31.904  1.00  0.00    -0.354 N 
ATOM     45  C   UNL A   1      40.784  27.873  28.869  1.00  0.00     0.074 A 
ATOM     46  C   UNL A   1      39.936  27.897  27.695  1.00  0.00     0.031 C 
ATOM     47  C   UNL A   1      37.822  31.912  32.875  1.00  0.00     0.029 A 
ATOM     48  C   UNL A   1      39.086  31.207  33.081  1.00  0.00     0.049 A 
ATOM     49  H   UNL A   1      40.083  29.981  31.725  1.00  0.00     0.167 HD
ATOM     50  C   UNL A   1      41.921  27.144  28.976  1.00  0.00     0.037 A 
ATOM     51  C   UNL A   1      39.826  31.244  34.206  1.00  0.00     0.037 A 
ATOM     52  C   UNL A   1      42.803  27.165  30.116  1.00  0.00     0.049 A 
ATOM     53  C   UNL A   1      41.101  30.448  34.290  1.00  0.00     0.074 A 
ATOM     54  C   UNL A   1      44.008  26.503  30.287  1.00  0.00     0.029 A 
ATOM     55  N   UNL A   1      42.584  27.901  31.270  1.00  0.00    -0.354 N 
ATOM     56  N   UNL A   1      41.641  29.653  33.401  1.00  0.00    -0.248 NA
ATOM     57  C   UNL A   1      41.870  30.558  35.540  1.00  0.00     0.031 C 
ATOM     58  C   UNL A   1      44.506  26.820  31.556  1.00  0.00     0.029 A 
ATOM     59  C   UNL A   1      43.630  27.706  32.159  1.00  0.00     0.049 A 
ATOM     60  H   UNL A   1      41.803  28.475  31.434  1.00  0.00     0.167 HD
ATOM     61  C   UNL A   1      42.821  29.190  33.968  1.00  0.00     0.074 A 
ATOM     62  C   UNL A   1      42.927  29.802  35.275  1.00  0.00     0.031 C 
ATOM     63  C   UNL A   1      43.733  28.330  33.452  1.00  0.00     0.037 A 
BRANCH  50  64
ATOM     64  C   UNL A   1      42.286  26.253  27.824  1.00  0.00     0.064 A 
ATOM     65  C   UNL A   1      41.694  24.993  27.652  1.00  0.00     0.173 A 
ATOM     66  C   UNL A   1      43.209  26.682  26.859  1.00  0.00     0.173 A 
ATOM     67  F   UNL A   1      40.814  24.533  28.554  1.00  0.00    -0.203 F 
ATOM     68  C   UNL A   1      42.035  24.182  26.573  1.00  0.00     0.198 A 
ATOM     69  C   UNL A   1      43.527  25.881  25.765  1.00  0.00     0.198 A 
ATOM     70  F   UNL A   1      43.798  27.882  26.972  1.00  0.00    -0.203 F 
ATOM     71  F   UNL A   1      41.495  22.961  26.457  1.00  0.00    -0.200 F 
ATOM     72  C   UNL A   1      42.947  24.629  25.627  1.00  0.00     0.200 A 
ATOM     73  F   UNL A   1      44.399  26.319  24.846  1.00  0.00    -0.200 F 
ATOM     74  F   UNL A   1      43.272  23.849  24.587  1.00  0.00    -0.200 F 
ENDBRANCH  50  64
BRANCH  51  75
ATOM     75  C   UNL A   1      39.393  32.085  35.353  1.00  0.00     0.064 A 
ATOM     76  C   UNL A   1      38.550  31.562  36.343  1.00  0.00     0.173 A 
ATOM     77  C   UNL A   1      39.792  33.423  35.473  1.00  0.00     0.173 A 
ATOM     78  F   UNL A   1      38.120  30.295  36.253  1.00  0.00    -0.203 F 
ATOM     79  C   UNL A   1      38.108  32.351  37.402  1.00  0.00     0.198 A 
ATOM     80  C   UNL A   1      39.369  34.205  36.547  1.00  0.00     0.198 A 
ATOM     81  F   UNL A   1      40.597  33.971  34.550  1.00  0.00    -0.203 F 
ATOM     82  F   UNL A   1      37.266  31.839  38.310  1.00  0.00    -0.200 F 
ATOM     83  C   UNL A   1      38.521  33.670  37.505  1.00  0.00     0.200 A 
ATOM     84  F   UNL A   1      39.777  35.477  36.649  1.00  0.00    -0.200 F 
ATOM     85  F   UNL A   1      38.096  34.429  38.524  1.00  0.00    -0.200 F 
ENDBRANCH  51  75
BRANCH  63  86
ATOM     86  C   UNL A   1      44.944  28.030  34.284  1.00  0.00     0.064 A 
ATOM     87  C   UNL A   1      44.966  26.956  35.186  1.00  0.00     0.173 A 
ATOM     88  C   UNL A   1      46.107  28.803  34.152  1.00  0.00     0.173 A 
ATOM     89  F   UNL A   1      43.874  26.198  35.359  1.00  0.00    -0.203 F 
ATOM     90  C   UNL A   1      46.103  26.682  35.943  1.00  0.00     0.198 A 
ATOM     91  C   UNL A   1      47.249  28.512  34.893  1.00  0.00     0.198 A 
ATOM     92  F   UNL A   1      46.137  29.838  33.298  1.00  0.00    -0.203 F 
ATOM     93  F   UNL A   1      46.089  25.677  36.830  1.00  0.00    -0.200 F 
ATOM     94  C   UNL A   1      47.244  27.456  35.791  1.00  0.00     0.200 A 
ATOM     95  F   UNL A   1      48.354  29.254  34.738  1.00  0.00    -0.200 F 
ATOM     96  F   UNL A   1      48.339  27.187  36.518  1.00  0.00    -0.200 F 
ENDBRANCH  63  86
ENDBRANCH  37  38
ENDBRANCH  29  32
ENDBRANCH  27  28
ENDBRANCH  26  27
ENDBRANCH   1  26
TORSDOF 16
ENDMDL
