MODEL 1
REMARK VINA RESULT:     -12.5      0.000      0.000
REMARK SMILES Cc1cccc(C)c1Nc1ccccc1CC(=O)NCCCNC(=O)c1ccc(-c2c3nc(c(-c4c(F)c(F)c(F)c(F)c4F)c4ccc([nH]4)c(-c4c(F)c(F)c(F)c(F)c4F)c4nc(c(-c5c(F)c(F)c(F)c(F)c5F)c5ccc2[nH]5)C=C4)C=C3)cc1
REMARK SMILES IDX 20 1 19 2 17 3 18 4 16 6 15 7 10 8 11 9 12 10 14 11 13 12
REMARK SMILES IDX 9 13 8 15 1 16 2 17 3 18 4 19 6 20 5 21 7 22 21 23 22 24
REMARK SMILES IDX 23 25 24 26 25 28 26 29 27 30 88 31 28 32 87 33 29 34 30 35
REMARK SMILES IDX 31 36 81 37 32 38 86 39 80 40 82 41 33 42 85 43 79 44 78 45
REMARK SMILES IDX 34 47 66 48 46 49 65 50 47 51 50 52 64 53 83 54 48 55 49 56
REMARK SMILES IDX 63 58 84 59 51 60 35 61 36 62 44 63 37 64 38 65 42 66 45 67
REMARK SMILES IDX 39 68 40 69 43 70 41 71 67 72 68 73 76 74 69 75 70 76 74 77
REMARK SMILES IDX 77 78 71 79 72 80 75 81 73 82 52 83 53 84 61 85 54 86 55 87
REMARK SMILES IDX 59 88 62 89 56 90 57 91 60 92 58 93
REMARK H PARENT 19 5 9 14 23 27 82 46 50 57
REMARK Flexibility Score: inf
ROOT
ATOM      1  C   UNL A   1      31.643  30.829  25.937  1.00  0.00     0.117 C 
ENDROOT
BRANCH   1   2
ATOM      2  N   UNL A   1      31.731  29.744  26.895  1.00  0.00    -0.356 N 
ATOM      3  C   UNL A   1      32.637  28.724  26.936  1.00  0.00     0.224 C 
ATOM      4  O   UNL A   1      32.466  27.822  27.758  1.00  0.00    -0.275 OA
ATOM      5  H   UNL A   1      31.052  29.745  27.607  1.00  0.00     0.163 HD
BRANCH   3   6
ATOM      6  C   UNL A   1      33.835  28.739  26.001  1.00  0.00     0.137 C 
BRANCH   6   7
ATOM      7  C   UNL A   1      33.657  27.899  24.753  1.00  0.00    -0.015 A 
ATOM      8  C   UNL A   1      33.768  26.491  24.746  1.00  0.00     0.042 A 
ATOM      9  C   UNL A   1      33.679  25.814  23.514  1.00  0.00     0.026 A 
ATOM     10  C   UNL A   1      33.447  26.497  22.320  1.00  0.00     0.002 A 
ATOM     11  C   UNL A   1      33.398  28.571  23.538  1.00  0.00     0.006 A 
ATOM     12  C   UNL A   1      33.293  27.875  22.335  1.00  0.00     0.000 A 
BRANCH   8  13
ATOM     13  N   UNL A   1      33.903  25.693  25.898  1.00  0.00    -0.355 N 
ATOM     14  H   UNL A   1      34.136  26.205  26.706  1.00  0.00     0.167 HD
BRANCH  13  15
ATOM     15  C   UNL A   1      33.771  24.303  26.131  1.00  0.00     0.044 A 
ATOM     16  C   UNL A   1      36.280  24.077  25.668  1.00  0.00     0.046 C 
ATOM     17  C   UNL A   1      34.941  23.499  26.053  1.00  0.00    -0.027 A 
ATOM     18  C   UNL A   1      34.881  22.131  26.364  1.00  0.00     0.005 A 
ATOM     19  C   UNL A   1      33.684  21.546  26.752  1.00  0.00     0.001 A 
ATOM     20  C   UNL A   1      32.546  23.683  26.476  1.00  0.00    -0.027 A 
ATOM     21  C   UNL A   1      32.528  22.316  26.808  1.00  0.00     0.005 A 
ATOM     22  C   UNL A   1      31.221  24.398  26.479  1.00  0.00     0.046 C 
ENDBRANCH  13  15
ENDBRANCH   8  13
ENDBRANCH   6   7
ENDBRANCH   3   6
ENDBRANCH   1   2
BRANCH   1  23
ATOM     23  C   UNL A   1      31.383  32.169  26.620  1.00  0.00     0.042 C 
BRANCH  23  24
ATOM     24  C   UNL A   1      32.620  32.778  27.272  1.00  0.00     0.118 C 
BRANCH  24  25
ATOM     25  N   UNL A   1      32.432  34.181  27.619  1.00  0.00    -0.352 N 
ATOM     26  C   UNL A   1      33.031  34.937  28.590  1.00  0.00     0.251 C 
ATOM     27  H   UNL A   1      31.772  34.660  27.068  1.00  0.00     0.163 HD
ATOM     28  O   UNL A   1      32.582  36.056  28.854  1.00  0.00    -0.269 OA
BRANCH  26  29
ATOM     29  C   UNL A   1      34.193  34.423  29.339  1.00  0.00     0.039 A 
ATOM     30  C   UNL A   1      33.977  33.788  30.566  1.00  0.00     0.014 A 
ATOM     31  C   UNL A   1      35.496  34.586  28.856  1.00  0.00     0.014 A 
ATOM     32  C   UNL A   1      35.057  33.257  31.273  1.00  0.00     0.010 A 
ATOM     33  C   UNL A   1      36.564  33.998  29.528  1.00  0.00     0.010 A 
ATOM     34  C   UNL A   1      36.354  33.323  30.739  1.00  0.00    -0.014 A 
BRANCH  34  35
ATOM     35  C   UNL A   1      37.496  32.659  31.416  1.00  0.00     0.031 A 
ATOM     36  C   UNL A   1      38.183  31.486  30.779  1.00  0.00     0.074 A 
ATOM     37  C   UNL A   1      37.861  33.075  32.644  1.00  0.00     0.049 A 
ATOM     38  N   UNL A   1      39.144  30.733  31.253  1.00  0.00    -0.248 NA
ATOM     39  C   UNL A   1      37.715  31.092  29.442  1.00  0.00     0.031 C 
ATOM     40  C   UNL A   1      37.239  34.175  33.382  1.00  0.00     0.029 A 
ATOM     41  N   UNL A   1      38.835  32.614  33.495  1.00  0.00    -0.354 N 
ATOM     42  C   UNL A   1      39.386  29.771  30.282  1.00  0.00     0.074 A 
ATOM     43  C   UNL A   1      38.441  30.007  29.211  1.00  0.00     0.031 C 
ATOM     44  C   UNL A   1      37.857  34.317  34.565  1.00  0.00     0.029 A 
ATOM     45  C   UNL A   1      38.889  33.292  34.687  1.00  0.00     0.049 A 
ATOM     46  H   UNL A   1      39.436  31.867  33.270  1.00  0.00     0.167 HD
ATOM     47  C   UNL A   1      40.324  28.795  30.277  1.00  0.00     0.037 A 
ATOM     48  C   UNL A   1      39.672  33.098  35.765  1.00  0.00     0.037 A 
ATOM     49  C   UNL A   1      41.274  28.579  31.338  1.00  0.00     0.049 A 
ATOM     50  C   UNL A   1      40.687  31.990  35.743  1.00  0.00     0.074 A 
ATOM     51  C   UNL A   1      42.311  27.665  31.395  1.00  0.00     0.029 A 
ATOM     52  N   UNL A   1      41.295  29.283  32.533  1.00  0.00    -0.354 N 
ATOM     53  N   UNL A   1      40.957  31.134  34.788  1.00  0.00    -0.248 NA
ATOM     54  C   UNL A   1      41.505  31.819  36.952  1.00  0.00     0.031 C 
ATOM     55  C   UNL A   1      42.926  27.779  32.647  1.00  0.00     0.029 A 
ATOM     56  C   UNL A   1      42.306  28.799  33.350  1.00  0.00     0.049 A 
ATOM     57  H   UNL A   1      40.684  30.017  32.768  1.00  0.00     0.167 HD
ATOM     58  C   UNL A   1      41.986  30.337  35.269  1.00  0.00     0.074 A 
ATOM     59  C   UNL A   1      42.307  30.825  36.595  1.00  0.00     0.031 C 
ATOM     60  C   UNL A   1      42.607  29.291  34.670  1.00  0.00     0.037 A 
BRANCH  47  61
ATOM     61  C   UNL A   1      40.371  27.879  29.088  1.00  0.00     0.064 A 
ATOM     62  C   UNL A   1      39.625  26.691  29.044  1.00  0.00     0.173 A 
ATOM     63  C   UNL A   1      41.136  28.214  27.961  1.00  0.00     0.173 A 
ATOM     64  F   UNL A   1      38.884  26.319  30.100  1.00  0.00    -0.203 F 
ATOM     65  C   UNL A   1      39.665  25.860  27.928  1.00  0.00     0.198 A 
ATOM     66  C   UNL A   1      41.149  27.395  26.834  1.00  0.00     0.198 A 
ATOM     67  F   UNL A   1      41.863  29.341  27.947  1.00  0.00    -0.203 F 
ATOM     68  F   UNL A   1      38.979  24.707  27.928  1.00  0.00    -0.200 F 
ATOM     69  C   UNL A   1      40.420  26.216  26.821  1.00  0.00     0.200 A 
ATOM     70  F   UNL A   1      41.869  27.748  25.760  1.00  0.00    -0.200 F 
ATOM     71  F   UNL A   1      40.450  25.419  25.744  1.00  0.00    -0.200 F 
ENDBRANCH  47  61
BRANCH  48  72
ATOM     72  C   UNL A   1      39.533  33.984  36.951  1.00  0.00     0.064 A 
ATOM     73  C   UNL A   1      40.217  35.206  37.018  1.00  0.00     0.173 A 
ATOM     74  C   UNL A   1      38.720  33.631  38.037  1.00  0.00     0.173 A 
ATOM     75  F   UNL A   1      41.023  35.577  36.013  1.00  0.00    -0.203 F 
ATOM     76  C   UNL A   1      40.106  36.034  38.133  1.00  0.00     0.198 A 
ATOM     77  C   UNL A   1      38.586  34.473  39.139  1.00  0.00     0.198 A 
ATOM     78  F   UNL A   1      38.041  32.474  38.021  1.00  0.00    -0.203 F 
ATOM     79  F   UNL A   1      40.803  37.176  38.189  1.00  0.00    -0.200 F 
ATOM     80  C   UNL A   1      39.285  35.669  39.191  1.00  0.00     0.200 A 
ATOM     81  F   UNL A   1      37.780  34.124  40.151  1.00  0.00    -0.200 F 
ATOM     82  F   UNL A   1      39.173  36.467  40.260  1.00  0.00    -0.200 F 
ENDBRANCH  48  72
BRANCH  60  83
ATOM     83  C   UNL A   1      43.702  28.613  35.440  1.00  0.00     0.064 A 
ATOM     84  C   UNL A   1      43.433  27.551  36.316  1.00  0.00     0.173 A 
ATOM     85  C   UNL A   1      45.040  29.006  35.274  1.00  0.00     0.173 A 
ATOM     86  F   UNL A   1      42.170  27.150  36.522  1.00  0.00    -0.203 F 
ATOM     87  C   UNL A   1      44.460  26.923  37.016  1.00  0.00     0.198 A 
ATOM     88  C   UNL A   1      46.066  28.355  35.952  1.00  0.00     0.198 A 
ATOM     89  F   UNL A   1      45.351  30.012  34.444  1.00  0.00    -0.203 F 
ATOM     90  F   UNL A   1      44.174  25.943  37.884  1.00  0.00    -0.200 F 
ATOM     91  C   UNL A   1      45.775  27.321  36.828  1.00  0.00     0.200 A 
ATOM     92  F   UNL A   1      47.338  28.731  35.759  1.00  0.00    -0.200 F 
ATOM     93  F   UNL A   1      46.763  26.709  37.497  1.00  0.00    -0.200 F 
ENDBRANCH  60  83
ENDBRANCH  34  35
ENDBRANCH  26  29
ENDBRANCH  24  25
ENDBRANCH  23  24
ENDBRANCH   1  23
TORSDOF 13
ENDMDL
MODEL 2
REMARK VINA RESULT:     -12.5      0.115      1.605
REMARK SMILES Cc1cccc(C)c1Nc1ccccc1CC(=O)NCCCNC(=O)c1ccc(-c2c3nc(c(-c4c(F)c(F)c(F)c(F)c4F)c4ccc([nH]4)c(-c4c(F)c(F)c(F)c(F)c4F)c4nc(c(-c5c(F)c(F)c(F)c(F)c5F)c5ccc2[nH]5)C=C4)C=C3)cc1
REMARK SMILES IDX 20 1 19 2 17 3 18 4 16 6 15 7 10 8 11 9 12 10 14 11 13 12
REMARK SMILES IDX 9 13 8 15 1 16 2 17 3 18 4 19 6 20 5 21 7 22 21 23 22 24
REMARK SMILES IDX 23 25 24 26 25 28 26 29 27 30 88 31 28 32 87 33 29 34 30 35
REMARK SMILES IDX 31 36 81 37 32 38 86 39 80 40 82 41 33 42 85 43 79 44 78 45
REMARK SMILES IDX 34 47 66 48 46 49 65 50 47 51 50 52 64 53 83 54 48 55 49 56
REMARK SMILES IDX 63 58 84 59 51 60 35 61 36 62 44 63 37 64 38 65 42 66 45 67
REMARK SMILES IDX 39 68 40 69 43 70 41 71 67 72 68 73 76 74 69 75 70 76 74 77
REMARK SMILES IDX 77 78 71 79 72 80 75 81 73 82 52 83 53 84 61 85 54 86 55 87
REMARK SMILES IDX 59 88 62 89 56 90 57 91 60 92 58 93
REMARK H PARENT 19 5 9 14 23 27 82 46 50 57
REMARK Flexibility Score: inf
ROOT
ATOM      1  C   UNL A   1      31.672  30.842  25.978  1.00  0.00     0.117 C 
ENDROOT
BRANCH   1   2
ATOM      2  N   UNL A   1      31.693  29.706  26.880  1.00  0.00    -0.356 N 
ATOM      3  C   UNL A   1      32.560  28.652  26.890  1.00  0.00     0.224 C 
ATOM      4  O   UNL A   1      32.332  27.715  27.659  1.00  0.00    -0.275 OA
ATOM      5  H   UNL A   1      30.993  29.695  27.572  1.00  0.00     0.163 HD
BRANCH   3   6
ATOM      6  C   UNL A   1      33.783  28.670  25.990  1.00  0.00     0.137 C 
BRANCH   6   7
ATOM      7  C   UNL A   1      33.650  27.817  24.745  1.00  0.00    -0.015 A 
ATOM      8  C   UNL A   1      33.858  26.421  24.738  1.00  0.00     0.042 A 
ATOM      9  C   UNL A   1      33.803  25.737  23.508  1.00  0.00     0.026 A 
ATOM     10  C   UNL A   1      33.509  26.399  22.316  1.00  0.00     0.002 A 
ATOM     11  C   UNL A   1      33.330  28.467  23.533  1.00  0.00     0.006 A 
ATOM     12  C   UNL A   1      33.259  27.764  22.331  1.00  0.00     0.000 A 
BRANCH   8  13
ATOM     13  N   UNL A   1      34.063  25.636  25.889  1.00  0.00    -0.355 N 
ATOM     14  H   UNL A   1      34.377  26.153  26.666  1.00  0.00     0.167 HD
BRANCH  13  15
ATOM     15  C   UNL A   1      33.908  24.255  26.156  1.00  0.00     0.044 A 
ATOM     16  C   UNL A   1      36.402  23.967  25.650  1.00  0.00     0.046 C 
ATOM     17  C   UNL A   1      35.060  23.426  26.075  1.00  0.00    -0.027 A 
ATOM     18  C   UNL A   1      34.979  22.067  26.418  1.00  0.00     0.005 A 
ATOM     19  C   UNL A   1      33.778  21.515  26.843  1.00  0.00     0.001 A 
ATOM     20  C   UNL A   1      32.678  23.668  26.539  1.00  0.00    -0.027 A 
ATOM     21  C   UNL A   1      32.639  22.309  26.903  1.00  0.00     0.005 A 
ATOM     22  C   UNL A   1      31.367  24.410  26.552  1.00  0.00     0.046 C 
ENDBRANCH  13  15
ENDBRANCH   8  13
ENDBRANCH   6   7
ENDBRANCH   3   6
ENDBRANCH   1   2
BRANCH   1  23
ATOM     23  C   UNL A   1      31.416  32.150  26.721  1.00  0.00     0.042 C 
BRANCH  23  24
ATOM     24  C   UNL A   1      32.686  32.834  27.218  1.00  0.00     0.118 C 
BRANCH  24  25
ATOM     25  N   UNL A   1      32.451  34.214  27.626  1.00  0.00    -0.352 N 
ATOM     26  C   UNL A   1      33.021  34.944  28.632  1.00  0.00     0.251 C 
ATOM     27  H   UNL A   1      31.777  34.695  27.093  1.00  0.00     0.163 HD
ATOM     28  O   UNL A   1      32.535  36.036  28.944  1.00  0.00    -0.269 OA
BRANCH  26  29
ATOM     29  C   UNL A   1      34.197  34.436  29.364  1.00  0.00     0.039 A 
ATOM     30  C   UNL A   1      34.004  33.816  30.602  1.00  0.00     0.014 A 
ATOM     31  C   UNL A   1      35.489  34.588  28.852  1.00  0.00     0.014 A 
ATOM     32  C   UNL A   1      35.096  33.290  31.294  1.00  0.00     0.010 A 
ATOM     33  C   UNL A   1      36.569  34.005  29.510  1.00  0.00     0.010 A 
ATOM     34  C   UNL A   1      36.381  33.345  30.732  1.00  0.00    -0.014 A 
BRANCH  34  35
ATOM     35  C   UNL A   1      37.535  32.686  31.395  1.00  0.00     0.031 A 
ATOM     36  C   UNL A   1      38.216  31.513  30.750  1.00  0.00     0.074 A 
ATOM     37  C   UNL A   1      37.917  33.105  32.617  1.00  0.00     0.049 A 
ATOM     38  N   UNL A   1      39.185  30.764  31.211  1.00  0.00    -0.248 NA
ATOM     39  C   UNL A   1      37.729  31.114  29.421  1.00  0.00     0.031 C 
ATOM     40  C   UNL A   1      37.303  34.205  33.361  1.00  0.00     0.029 A 
ATOM     41  N   UNL A   1      38.904  32.647  33.454  1.00  0.00    -0.354 N 
ATOM     42  C   UNL A   1      39.415  29.800  30.239  1.00  0.00     0.074 A 
ATOM     43  C   UNL A   1      38.454  30.031  29.181  1.00  0.00     0.031 C 
ATOM     44  C   UNL A   1      37.938  34.351  34.534  1.00  0.00     0.029 A 
ATOM     45  C   UNL A   1      38.973  33.328  34.644  1.00  0.00     0.049 A 
ATOM     46  H   UNL A   1      39.504  31.902  33.222  1.00  0.00     0.167 HD
ATOM     47  C   UNL A   1      40.356  28.826  30.222  1.00  0.00     0.037 A 
ATOM     48  C   UNL A   1      39.773  33.139  35.711  1.00  0.00     0.037 A 
ATOM     49  C   UNL A   1      41.322  28.615  31.270  1.00  0.00     0.049 A 
ATOM     50  C   UNL A   1      40.790  32.033  35.676  1.00  0.00     0.074 A 
ATOM     51  C   UNL A   1      42.362  27.703  31.314  1.00  0.00     0.029 A 
ATOM     52  N   UNL A   1      41.358  29.321  32.463  1.00  0.00    -0.354 N 
ATOM     53  N   UNL A   1      41.049  31.176  34.719  1.00  0.00    -0.248 NA
ATOM     54  C   UNL A   1      41.626  31.867  36.874  1.00  0.00     0.031 C 
ATOM     55  C   UNL A   1      42.995  27.822  32.556  1.00  0.00     0.029 A 
ATOM     56  C   UNL A   1      42.382  28.841  33.266  1.00  0.00     0.049 A 
ATOM     57  H   UNL A   1      40.749  30.054  32.705  1.00  0.00     0.167 HD
ATOM     58  C   UNL A   1      42.086  30.382  35.187  1.00  0.00     0.074 A 
ATOM     59  C   UNL A   1      42.426  30.874  36.507  1.00  0.00     0.031 C 
ATOM     60  C   UNL A   1      42.701  29.337  34.581  1.00  0.00     0.037 A 
BRANCH  47  61
ATOM     61  C   UNL A   1      40.388  27.907  29.035  1.00  0.00     0.064 A 
ATOM     62  C   UNL A   1      39.626  26.730  28.994  1.00  0.00     0.173 A 
ATOM     63  C   UNL A   1      41.156  28.230  27.906  1.00  0.00     0.173 A 
ATOM     64  F   UNL A   1      38.881  26.371  30.052  1.00  0.00    -0.203 F 
ATOM     65  C   UNL A   1      39.652  25.897  27.879  1.00  0.00     0.198 A 
ATOM     66  C   UNL A   1      41.156  27.410  26.780  1.00  0.00     0.198 A 
ATOM     67  F   UNL A   1      41.898  29.347  27.888  1.00  0.00    -0.203 F 
ATOM     68  F   UNL A   1      38.950  24.754  27.882  1.00  0.00    -0.200 F 
ATOM     69  C   UNL A   1      40.410  26.241  26.770  1.00  0.00     0.200 A 
ATOM     70  F   UNL A   1      41.878  27.751  25.704  1.00  0.00    -0.200 F 
ATOM     71  F   UNL A   1      40.427  25.442  25.694  1.00  0.00    -0.200 F 
ENDBRANCH  47  61
BRANCH  48  72
ATOM     72  C   UNL A   1      39.649  34.027  36.897  1.00  0.00     0.064 A 
ATOM     73  C   UNL A   1      38.856  33.657  37.991  1.00  0.00     0.173 A 
ATOM     74  C   UNL A   1      40.317  35.258  36.961  1.00  0.00     0.173 A 
ATOM     75  F   UNL A   1      38.182  32.499  37.967  1.00  0.00    -0.203 F 
ATOM     76  C   UNL A   1      38.722  34.492  39.098  1.00  0.00     0.198 A 
ATOM     77  C   UNL A   1      40.206  36.080  38.080  1.00  0.00     0.198 A 
ATOM     78  F   UNL A   1      41.092  35.658  35.941  1.00  0.00    -0.203 F 
ATOM     79  F   UNL A   1      37.924  34.134  40.113  1.00  0.00    -0.200 F 
ATOM     80  C   UNL A   1      39.402  35.701  39.145  1.00  0.00     0.200 A 
ATOM     81  F   UNL A   1      40.877  37.239  38.127  1.00  0.00    -0.200 F 
ATOM     82  F   UNL A   1      39.278  36.500  40.212  1.00  0.00    -0.200 F 
ENDBRANCH  48  72
BRANCH  60  83
ATOM     83  C   UNL A   1      43.809  28.663  35.336  1.00  0.00     0.064 A 
ATOM     84  C   UNL A   1      45.149  29.046  35.167  1.00  0.00     0.173 A 
ATOM     85  C   UNL A   1      43.527  27.650  36.265  1.00  0.00     0.173 A 
ATOM     86  F   UNL A   1      45.472  29.998  34.279  1.00  0.00    -0.203 F 
ATOM     87  C   UNL A   1      46.167  28.421  35.882  1.00  0.00     0.198 A 
ATOM     88  C   UNL A   1      44.545  27.049  37.000  1.00  0.00     0.198 A 
ATOM     89  F   UNL A   1      42.263  27.251  36.467  1.00  0.00    -0.203 F 
ATOM     90  F   UNL A   1      47.443  28.769  35.670  1.00  0.00    -0.200 F 
ATOM     91  C   UNL A   1      45.863  27.429  36.803  1.00  0.00     0.200 A 
ATOM     92  F   UNL A   1      44.249  26.100  37.898  1.00  0.00    -0.200 F 
ATOM     93  F   UNL A   1      46.845  26.834  37.496  1.00  0.00    -0.200 F 
ENDBRANCH  60  83
ENDBRANCH  34  35
ENDBRANCH  26  29
ENDBRANCH  24  25
ENDBRANCH  23  24
ENDBRANCH   1  23
TORSDOF 13
ENDMDL
MODEL 3
REMARK VINA RESULT:     -12.3      5.765     11.296
REMARK SMILES Cc1cccc(C)c1Nc1ccccc1CC(=O)NCCCNC(=O)c1ccc(-c2c3nc(c(-c4c(F)c(F)c(F)c(F)c4F)c4ccc([nH]4)c(-c4c(F)c(F)c(F)c(F)c4F)c4nc(c(-c5c(F)c(F)c(F)c(F)c5F)c5ccc2[nH]5)C=C4)C=C3)cc1
REMARK SMILES IDX 20 1 19 2 17 3 18 4 16 6 15 7 10 8 11 9 12 10 14 11 13 12
REMARK SMILES IDX 9 13 8 15 1 16 2 17 3 18 4 19 6 20 5 21 7 22 21 23 22 24
REMARK SMILES IDX 23 25 24 26 25 28 26 29 27 30 88 31 28 32 87 33 29 34 30 35
REMARK SMILES IDX 31 36 81 37 32 38 86 39 80 40 82 41 33 42 85 43 79 44 78 45
REMARK SMILES IDX 34 47 66 48 46 49 65 50 47 51 50 52 64 53 83 54 48 55 49 56
REMARK SMILES IDX 63 58 84 59 51 60 35 61 36 62 44 63 37 64 38 65 42 66 45 67
REMARK SMILES IDX 39 68 40 69 43 70 41 71 67 72 68 73 76 74 69 75 70 76 74 77
REMARK SMILES IDX 77 78 71 79 72 80 75 81 73 82 52 83 53 84 61 85 54 86 55 87
REMARK SMILES IDX 59 88 62 89 56 90 57 91 60 92 58 93
REMARK H PARENT 19 5 9 14 23 27 82 46 50 57
REMARK Flexibility Score: inf
ROOT
ATOM      1  C   UNL A   1      36.839  20.470  25.010  1.00  0.00     0.117 C 
ENDROOT
BRANCH   1   2
ATOM      2  N   UNL A   1      36.886  21.566  24.062  1.00  0.00    -0.356 N 
ATOM      3  C   UNL A   1      36.598  22.883  24.279  1.00  0.00     0.224 C 
ATOM      4  O   UNL A   1      36.573  23.643  23.309  1.00  0.00    -0.275 OA
ATOM      5  H   UNL A   1      37.161  21.331  23.147  1.00  0.00     0.163 HD
BRANCH   3   6
ATOM      6  C   UNL A   1      36.350  23.380  25.693  1.00  0.00     0.137 C 
BRANCH   6   7
ATOM      7  C   UNL A   1      34.887  23.439  26.081  1.00  0.00    -0.015 A 
ATOM      8  C   UNL A   1      34.033  24.503  25.718  1.00  0.00     0.042 A 
ATOM      9  C   UNL A   1      32.713  24.507  26.211  1.00  0.00     0.026 A 
ATOM     10  C   UNL A   1      32.229  23.472  27.010  1.00  0.00     0.002 A 
ATOM     11  C   UNL A   1      34.373  22.388  26.871  1.00  0.00     0.006 A 
ATOM     12  C   UNL A   1      33.056  22.404  27.329  1.00  0.00     0.000 A 
BRANCH   8  13
ATOM     13  N   UNL A   1      34.383  25.546  24.839  1.00  0.00    -0.355 N 
ATOM     14  H   UNL A   1      35.329  25.530  24.567  1.00  0.00     0.167 HD
BRANCH  13  15
ATOM     15  C   UNL A   1      33.650  26.612  24.266  1.00  0.00     0.044 A 
ATOM     16  C   UNL A   1      33.313  25.151  22.189  1.00  0.00     0.046 C 
ATOM     17  C   UNL A   1      33.088  26.420  22.974  1.00  0.00    -0.027 A 
ATOM     18  C   UNL A   1      32.277  27.412  22.400  1.00  0.00     0.005 A 
ATOM     19  C   UNL A   1      32.010  28.590  23.084  1.00  0.00     0.001 A 
ATOM     20  C   UNL A   1      33.414  27.840  24.929  1.00  0.00    -0.027 A 
ATOM     21  C   UNL A   1      32.573  28.801  24.337  1.00  0.00     0.005 A 
ATOM     22  C   UNL A   1      34.045  28.213  26.245  1.00  0.00     0.046 C 
ENDBRANCH  13  15
ENDBRANCH   8  13
ENDBRANCH   6   7
ENDBRANCH   3   6
ENDBRANCH   1   2
BRANCH   1  23
ATOM     23  C   UNL A   1      38.081  19.588  24.919  1.00  0.00     0.042 C 
BRANCH  23  24
ATOM     24  C   UNL A   1      39.233  20.056  25.804  1.00  0.00     0.118 C 
BRANCH  24  25
ATOM     25  N   UNL A   1      40.282  19.052  25.928  1.00  0.00    -0.352 N 
ATOM     26  C   UNL A   1      41.630  19.203  26.103  1.00  0.00     0.251 C 
ATOM     27  H   UNL A   1      39.971  18.119  25.879  1.00  0.00     0.163 HD
ATOM     28  O   UNL A   1      42.374  18.226  25.980  1.00  0.00    -0.269 OA
BRANCH  26  29
ATOM     29  C   UNL A   1      42.209  20.523  26.419  1.00  0.00     0.039 A 
ATOM     30  C   UNL A   1      42.712  21.305  25.375  1.00  0.00     0.014 A 
ATOM     31  C   UNL A   1      42.284  20.984  27.737  1.00  0.00     0.014 A 
ATOM     32  C   UNL A   1      43.226  22.574  25.644  1.00  0.00     0.010 A 
ATOM     33  C   UNL A   1      42.735  22.276  27.996  1.00  0.00     0.010 A 
ATOM     34  C   UNL A   1      43.204  23.085  26.951  1.00  0.00    -0.014 A 
BRANCH  34  35
ATOM     35  C   UNL A   1      43.634  24.476  27.238  1.00  0.00     0.031 A 
ATOM     36  C   UNL A   1      42.644  25.496  27.722  1.00  0.00     0.074 A 
ATOM     37  C   UNL A   1      44.908  24.833  26.988  1.00  0.00     0.049 A 
ATOM     38  N   UNL A   1      42.817  26.773  27.950  1.00  0.00    -0.248 NA
ATOM     39  C   UNL A   1      41.271  25.024  27.959  1.00  0.00     0.031 C 
ATOM     40  C   UNL A   1      45.949  23.941  26.475  1.00  0.00     0.029 A 
ATOM     41  N   UNL A   1      45.543  26.043  27.118  1.00  0.00    -0.354 N 
ATOM     42  C   UNL A   1      41.578  27.260  28.344  1.00  0.00     0.074 A 
ATOM     43  C   UNL A   1      40.650  26.150  28.281  1.00  0.00     0.031 C 
ATOM     44  C   UNL A   1      47.096  24.628  26.353  1.00  0.00     0.029 A 
ATOM     45  C   UNL A   1      46.862  26.016  26.736  1.00  0.00     0.049 A 
ATOM     46  H   UNL A   1      45.095  26.853  27.453  1.00  0.00     0.167 HD
ATOM     47  C   UNL A   1      41.251  28.512  28.742  1.00  0.00     0.037 A 
ATOM     48  C   UNL A   1      47.775  27.004  26.685  1.00  0.00     0.037 A 
ATOM     49  C   UNL A   1      42.184  29.606  28.821  1.00  0.00     0.049 A 
ATOM     50  C   UNL A   1      47.377  28.391  27.107  1.00  0.00     0.074 A 
ATOM     51  C   UNL A   1      41.968  30.893  29.282  1.00  0.00     0.029 A 
ATOM     52  N   UNL A   1      43.511  29.542  28.421  1.00  0.00    -0.354 N 
ATOM     53  N   UNL A   1      46.221  28.821  27.550  1.00  0.00    -0.248 NA
ATOM     54  C   UNL A   1      48.413  29.430  27.020  1.00  0.00     0.031 C 
ATOM     55  C   UNL A   1      43.150  31.623  29.110  1.00  0.00     0.029 A 
ATOM     56  C   UNL A   1      44.117  30.778  28.591  1.00  0.00     0.049 A 
ATOM     57  H   UNL A   1      43.957  28.740  28.068  1.00  0.00     0.167 HD
ATOM     58  C   UNL A   1      46.393  30.174  27.812  1.00  0.00     0.074 A 
ATOM     59  C   UNL A   1      47.773  30.488  27.499  1.00  0.00     0.031 C 
ATOM     60  C   UNL A   1      45.488  31.076  28.266  1.00  0.00     0.037 A 
BRANCH  47  61
ATOM     61  C   UNL A   1      39.821  28.773  29.120  1.00  0.00     0.064 A 
ATOM     62  C   UNL A   1      39.373  28.636  30.443  1.00  0.00     0.173 A 
ATOM     63  C   UNL A   1      38.899  29.209  28.158  1.00  0.00     0.173 A 
ATOM     64  F   UNL A   1      40.213  28.213  31.400  1.00  0.00    -0.203 F 
ATOM     65  C   UNL A   1      38.048  28.898  30.782  1.00  0.00     0.198 A 
ATOM     66  C   UNL A   1      37.582  29.500  28.506  1.00  0.00     0.198 A 
ATOM     67  F   UNL A   1      39.275  29.364  26.880  1.00  0.00    -0.203 F 
ATOM     68  F   UNL A   1      37.633  28.716  32.044  1.00  0.00    -0.200 F 
ATOM     69  C   UNL A   1      37.156  29.338  29.816  1.00  0.00     0.200 A 
ATOM     70  F   UNL A   1      36.724  29.938  27.574  1.00  0.00    -0.200 F 
ATOM     71  F   UNL A   1      35.884  29.598  30.146  1.00  0.00    -0.200 F 
ENDBRANCH  47  61
BRANCH  48  72
ATOM     72  C   UNL A   1      49.159  26.711  26.228  1.00  0.00     0.064 A 
ATOM     73  C   UNL A   1      50.128  26.244  27.127  1.00  0.00     0.173 A 
ATOM     74  C   UNL A   1      49.541  26.892  24.892  1.00  0.00     0.173 A 
ATOM     75  F   UNL A   1      49.815  26.076  28.420  1.00  0.00    -0.203 F 
ATOM     76  C   UNL A   1      51.431  25.984  26.709  1.00  0.00     0.198 A 
ATOM     77  C   UNL A   1      50.837  26.604  24.469  1.00  0.00     0.198 A 
ATOM     78  F   UNL A   1      48.651  27.334  23.991  1.00  0.00    -0.203 F 
ATOM     79  F   UNL A   1      52.349  25.579  27.597  1.00  0.00    -0.200 F 
ATOM     80  C   UNL A   1      51.784  26.158  25.379  1.00  0.00     0.200 A 
ATOM     81  F   UNL A   1      51.169  26.759  23.180  1.00  0.00    -0.200 F 
ATOM     82  F   UNL A   1      53.035  25.902  24.976  1.00  0.00    -0.200 F 
ENDBRANCH  48  72
BRANCH  60  83
ATOM     83  C   UNL A   1      45.967  32.485  28.462  1.00  0.00     0.064 A 
ATOM     84  C   UNL A   1      46.567  32.895  29.663  1.00  0.00     0.173 A 
ATOM     85  C   UNL A   1      45.858  33.426  27.427  1.00  0.00     0.173 A 
ATOM     86  F   UNL A   1      46.678  32.038  30.689  1.00  0.00    -0.203 F 
ATOM     87  C   UNL A   1      47.017  34.202  29.828  1.00  0.00     0.198 A 
ATOM     88  C   UNL A   1      46.338  34.723  27.585  1.00  0.00     0.198 A 
ATOM     89  F   UNL A   1      45.298  33.083  26.258  1.00  0.00    -0.203 F 
ATOM     90  F   UNL A   1      47.542  34.584  30.999  1.00  0.00    -0.200 F 
ATOM     91  C   UNL A   1      46.909  35.112  28.787  1.00  0.00     0.200 A 
ATOM     92  F   UNL A   1      46.244  35.598  26.574  1.00  0.00    -0.200 F 
ATOM     93  F   UNL A   1      47.350  36.368  28.946  1.00  0.00    -0.200 F 
ENDBRANCH  60  83
ENDBRANCH  34  35
ENDBRANCH  26  29
ENDBRANCH  24  25
ENDBRANCH  23  24
ENDBRANCH   1  23
TORSDOF 13
ENDMDL
