MODEL 1
REMARK VINA RESULT:     -13.0      0.000      0.000
REMARK SMILES O=C(NCCCNC(=O)[C@H]1[C@@H](C(=O)NNC(=O)c2ccccc2Cl)[C@H]2C=C[C@@H]1C2)c1ccc(-c2c3nc(c(-c4c(F)c(F)c(F)c(F)c4F)c4ccc([nH]4)c(-c4c(F)c(F)c(F)c(F)c4F)c4nc(c(-c5c(F)c(F)c(F)c(F)c5F)c5ccc2[nH]5)C=C4)C=C3)cc1
REMARK SMILES IDX 5 1 4 2 3 3 1 4 2 5 30 7 31 8 92 9 32 10 91 11 33 12 34 13
REMARK SMILES IDX 35 14 85 15 36 16 90 17 84 18 86 19 37 20 89 21 83 22 82 23
REMARK SMILES IDX 38 25 70 26 50 27 69 28 51 29 54 30 68 31 87 32 52 33 53 34
REMARK SMILES IDX 67 36 88 37 55 38 39 39 40 40 48 41 41 42 42 43 46 44 49 45
REMARK SMILES IDX 43 46 44 47 47 48 45 49 71 50 72 51 80 52 73 53 74 54 78 55
REMARK SMILES IDX 81 56 75 57 76 58 79 59 77 60 56 61 57 62 65 63 58 64 59 65
REMARK SMILES IDX 63 66 66 67 60 68 61 69 64 70 62 71 6 72 7 73 8 74 9 76
REMARK SMILES IDX 10 77 11 78 28 79 25 80 27 81 29 82 26 83 12 84 13 85 14 86
REMARK SMILES IDX 15 88 16 89 17 91 18 92 19 93 23 94 20 95 22 96 24 97 21 98
REMARK H PARENT 3 6 86 24 54 35 7 75 14 87 15 90
REMARK Flexibility Score: inf
ROOT
ATOM      1  C   UNL A   1      31.321  31.992  26.650  1.00  0.00     0.042 C 
ENDROOT
BRANCH   1   2
ATOM      2  C   UNL A   1      32.604  32.715  27.052  1.00  0.00     0.118 C 
BRANCH   2   3
ATOM      3  N   UNL A   1      32.386  34.051  27.579  1.00  0.00    -0.352 N 
ATOM      4  O   UNL A   1      32.642  35.842  28.916  1.00  0.00    -0.269 OA
ATOM      5  C   UNL A   1      33.048  34.742  28.564  1.00  0.00     0.251 C 
ATOM      6  H   UNL A   1      31.641  34.542  27.162  1.00  0.00     0.163 HD
BRANCH   5   7
ATOM      7  C   UNL A   1      34.229  34.152  29.233  1.00  0.00     0.039 A 
ATOM      8  C   UNL A   1      35.530  34.472  28.839  1.00  0.00     0.014 A 
ATOM      9  C   UNL A   1      34.018  33.283  30.308  1.00  0.00     0.014 A 
ATOM     10  C   UNL A   1      36.612  33.823  29.431  1.00  0.00     0.010 A 
ATOM     11  C   UNL A   1      35.106  32.688  30.949  1.00  0.00     0.010 A 
ATOM     12  C   UNL A   1      36.412  32.927  30.494  1.00  0.00    -0.014 A 
BRANCH  12  13
ATOM     13  C   UNL A   1      37.579  32.289  31.152  1.00  0.00     0.031 A 
ATOM     14  C   UNL A   1      38.361  31.207  30.462  1.00  0.00     0.074 A 
ATOM     15  C   UNL A   1      37.932  32.694  32.387  1.00  0.00     0.049 A 
ATOM     16  N   UNL A   1      39.405  30.541  30.891  1.00  0.00    -0.248 NA
ATOM     17  C   UNL A   1      37.912  30.814  29.118  1.00  0.00     0.031 C 
ATOM     18  C   UNL A   1      37.234  33.717  33.167  1.00  0.00     0.029 A 
ATOM     19  N   UNL A   1      38.964  32.301  33.200  1.00  0.00    -0.354 N 
ATOM     20  C   UNL A   1      39.723  29.641  29.883  1.00  0.00     0.074 A 
ATOM     21  C   UNL A   1      38.749  29.828  28.828  1.00  0.00     0.031 C 
ATOM     22  C   UNL A   1      37.874  33.893  34.332  1.00  0.00     0.029 A 
ATOM     23  C   UNL A   1      38.996  32.964  34.402  1.00  0.00     0.049 A 
ATOM     24  H   UNL A   1      39.619  31.611  32.946  1.00  0.00     0.167 HD
ATOM     25  C   UNL A   1      40.741  28.747  29.841  1.00  0.00     0.037 A 
ATOM     26  C   UNL A   1      39.828  32.828  35.450  1.00  0.00     0.037 A 
ATOM     27  C   UNL A   1      41.721  28.579  30.885  1.00  0.00     0.049 A 
ATOM     28  C   UNL A   1      40.945  31.828  35.378  1.00  0.00     0.074 A 
ATOM     29  C   UNL A   1      42.820  27.737  30.909  1.00  0.00     0.029 A 
ATOM     30  N   UNL A   1      41.714  29.261  32.092  1.00  0.00    -0.354 N 
ATOM     31  N   UNL A   1      41.264  31.016  34.399  1.00  0.00    -0.248 NA
ATOM     32  C   UNL A   1      41.818  31.724  36.554  1.00  0.00     0.031 C 
ATOM     33  C   UNL A   1      43.454  27.881  32.148  1.00  0.00     0.029 A 
ATOM     34  C   UNL A   1      42.778  28.844  32.877  1.00  0.00     0.049 A 
ATOM     35  H   UNL A   1      41.053  29.943  32.352  1.00  0.00     0.167 HD
ATOM     36  C   UNL A   1      42.379  30.315  34.834  1.00  0.00     0.074 A 
ATOM     37  C   UNL A   1      42.695  30.812  36.157  1.00  0.00     0.031 C 
ATOM     38  C   UNL A   1      43.075  29.344  34.194  1.00  0.00     0.037 A 
BRANCH  25  39
ATOM     39  C   UNL A   1      40.849  27.867  28.631  1.00  0.00     0.064 A 
ATOM     40  C   UNL A   1      40.146  26.657  28.534  1.00  0.00     0.173 A 
ATOM     41  C   UNL A   1      41.621  28.267  27.529  1.00  0.00     0.173 A 
ATOM     42  F   UNL A   1      39.402  26.225  29.563  1.00  0.00    -0.203 F 
ATOM     43  C   UNL A   1      40.224  25.873  27.385  1.00  0.00     0.198 A 
ATOM     44  C   UNL A   1      41.677  27.492  26.373  1.00  0.00     0.198 A 
ATOM     45  F   UNL A   1      42.309  29.419  27.567  1.00  0.00    -0.203 F 
ATOM     46  F   UNL A   1      39.570  24.704  27.328  1.00  0.00    -0.200 F 
ATOM     47  C   UNL A   1      40.983  26.294  26.303  1.00  0.00     0.200 A 
ATOM     48  F   UNL A   1      42.403  27.906  25.324  1.00  0.00    -0.200 F 
ATOM     49  F   UNL A   1      41.049  25.542  25.196  1.00  0.00    -0.200 F 
ENDBRANCH  25  39
BRANCH  26  50
ATOM     50  C   UNL A   1      39.628  33.672  36.656  1.00  0.00     0.064 A 
ATOM     51  C   UNL A   1      40.193  34.952  36.740  1.00  0.00     0.173 A 
ATOM     52  C   UNL A   1      38.848  33.226  37.732  1.00  0.00     0.173 A 
ATOM     53  F   UNL A   1      40.962  35.412  35.743  1.00  0.00    -0.203 F 
ATOM     54  C   UNL A   1      39.991  35.751  37.863  1.00  0.00     0.198 A 
ATOM     55  C   UNL A   1      38.625  34.037  38.842  1.00  0.00     0.198 A 
ATOM     56  F   UNL A   1      38.283  32.011  37.693  1.00  0.00    -0.203 F 
ATOM     57  F   UNL A   1      40.568  36.958  37.935  1.00  0.00    -0.200 F 
ATOM     58  C   UNL A   1      39.202  35.296  38.909  1.00  0.00     0.200 A 
ATOM     59  F   UNL A   1      37.849  33.600  39.843  1.00  0.00    -0.200 F 
ATOM     60  F   UNL A   1      38.998  36.071  39.984  1.00  0.00    -0.200 F 
ENDBRANCH  26  50
BRANCH  38  61
ATOM     61  C   UNL A   1      44.258  28.768  34.914  1.00  0.00     0.064 A 
ATOM     62  C   UNL A   1      44.138  27.633  35.728  1.00  0.00     0.173 A 
ATOM     63  C   UNL A   1      45.530  29.340  34.765  1.00  0.00     0.173 A 
ATOM     64  F   UNL A   1      42.938  27.059  35.915  1.00  0.00    -0.203 F 
ATOM     65  C   UNL A   1      45.245  27.105  36.388  1.00  0.00     0.198 A 
ATOM     66  C   UNL A   1      46.639  28.795  35.405  1.00  0.00     0.198 A 
ATOM     67  F   UNL A   1      45.697  30.424  33.994  1.00  0.00    -0.203 F 
ATOM     68  F   UNL A   1      45.099  26.046  37.196  1.00  0.00    -0.200 F 
ATOM     69  C   UNL A   1      46.495  27.682  36.220  1.00  0.00     0.200 A 
ATOM     70  F   UNL A   1      47.848  29.348  35.236  1.00  0.00    -0.200 F 
ATOM     71  F   UNL A   1      47.560  27.171  36.853  1.00  0.00    -0.200 F 
ENDBRANCH  38  61
ENDBRANCH  12  13
ENDBRANCH   5   7
ENDBRANCH   2   3
ENDBRANCH   1   2
BRANCH   1  72
ATOM     72  C   UNL A   1      31.521  30.683  25.898  1.00  0.00     0.117 C 
BRANCH  72  73
ATOM     73  N   UNL A   1      32.259  29.693  26.650  1.00  0.00    -0.356 N 
ATOM     74  C   UNL A   1      33.296  28.895  26.312  1.00  0.00     0.224 C 
ATOM     75  H   UNL A   1      31.950  29.579  27.578  1.00  0.00     0.163 HD
ATOM     76  O   UNL A   1      34.001  28.492  27.239  1.00  0.00    -0.275 OA
BRANCH  74  77
ATOM     77  C   UNL A   1      33.677  28.581  24.883  1.00  0.00     0.098 C 
ATOM     78  C   UNL A   1      33.977  27.065  24.591  1.00  0.00     0.100 C 
ATOM     79  C   UNL A   1      32.834  28.986  23.643  1.00  0.00     0.025 C 
ATOM     80  C   UNL A   1      33.413  26.877  23.153  1.00  0.00     0.025 C 
ATOM     81  C   UNL A   1      31.561  28.184  23.504  1.00  0.00    -0.027 C 
ATOM     82  C   UNL A   1      33.645  28.265  22.548  1.00  0.00     0.017 C 
ATOM     83  C   UNL A   1      31.908  26.926  23.193  1.00  0.00    -0.027 C 
BRANCH  78  84
ATOM     84  C   UNL A   1      33.606  25.861  25.478  1.00  0.00     0.242 C 
ATOM     85  O   UNL A   1      32.604  25.963  26.202  1.00  0.00    -0.273 OA
ATOM     86  N   UNL A   1      34.374  24.743  25.669  1.00  0.00    -0.267 N 
ATOM     87  H   UNL A   1      34.146  24.172  26.438  1.00  0.00     0.191 HD
BRANCH  86  88
ATOM     88  N   UNL A   1      35.435  24.339  24.886  1.00  0.00    -0.263 N 
ATOM     89  C   UNL A   1      35.421  23.324  23.955  1.00  0.00     0.271 C 
ATOM     90  H   UNL A   1      36.284  24.824  25.004  1.00  0.00     0.191 HD
ATOM     91  O   UNL A   1      36.354  23.224  23.155  1.00  0.00    -0.267 OA
BRANCH  89  92
ATOM     92  C   UNL A   1      34.445  22.220  24.014  1.00  0.00     0.060 A 
ATOM     93  C   UNL A   1      34.898  21.085  24.715  1.00  0.00     0.015 A 
ATOM     94  C   UNL A   1      33.198  22.183  23.388  1.00  0.00     0.053 A 
ATOM     95  C   UNL A   1      34.100  19.948  24.831  1.00  0.00     0.001 A 
ATOM     96  C   UNL A   1      32.392  21.044  23.525  1.00  0.00     0.021 A 
ATOM     97  Cl  UNL A   1      32.599  23.438  22.375  1.00  0.00    -0.083 Cl
ATOM     98  C   UNL A   1      32.839  19.933  24.247  1.00  0.00     0.002 A 
ENDBRANCH  89  92
ENDBRANCH  86  88
ENDBRANCH  78  84
ENDBRANCH  74  77
ENDBRANCH  72  73
ENDBRANCH   1  72
TORSDOF 13
ENDMDL
MODEL 2
REMARK VINA RESULT:     -13.0      5.119     10.886
REMARK SMILES O=C(NCCCNC(=O)[C@H]1[C@@H](C(=O)NNC(=O)c2ccccc2Cl)[C@H]2C=C[C@@H]1C2)c1ccc(-c2c3nc(c(-c4c(F)c(F)c(F)c(F)c4F)c4ccc([nH]4)c(-c4c(F)c(F)c(F)c(F)c4F)c4nc(c(-c5c(F)c(F)c(F)c(F)c5F)c5ccc2[nH]5)C=C4)C=C3)cc1
REMARK SMILES IDX 5 1 4 2 3 3 1 4 2 5 30 7 31 8 92 9 32 10 91 11 33 12 34 13
REMARK SMILES IDX 35 14 85 15 36 16 90 17 84 18 86 19 37 20 89 21 83 22 82 23
REMARK SMILES IDX 38 25 70 26 50 27 69 28 51 29 54 30 68 31 87 32 52 33 53 34
REMARK SMILES IDX 67 36 88 37 55 38 39 39 40 40 48 41 41 42 42 43 46 44 49 45
REMARK SMILES IDX 43 46 44 47 47 48 45 49 71 50 72 51 80 52 73 53 74 54 78 55
REMARK SMILES IDX 81 56 75 57 76 58 79 59 77 60 56 61 57 62 65 63 58 64 59 65
REMARK SMILES IDX 63 66 66 67 60 68 61 69 64 70 62 71 6 72 7 73 8 74 9 76
REMARK SMILES IDX 10 77 11 78 28 79 25 80 27 81 29 82 26 83 12 84 13 85 14 86
REMARK SMILES IDX 15 88 16 89 17 91 18 92 19 93 23 94 20 95 22 96 24 97 21 98
REMARK H PARENT 3 6 86 24 54 35 7 75 14 87 15 90
REMARK Flexibility Score: inf
ROOT
ATOM      1  C   UNL A   1      37.872  19.454  24.976  1.00  0.00     0.042 C 
ENDROOT
BRANCH   1   2
ATOM      2  C   UNL A   1      39.068  20.009  25.745  1.00  0.00     0.118 C 
BRANCH   2   3
ATOM      3  N   UNL A   1      40.176  19.076  25.863  1.00  0.00    -0.352 N 
ATOM      4  O   UNL A   1      42.296  18.363  26.103  1.00  0.00    -0.269 OA
ATOM      5  C   UNL A   1      41.505  19.297  26.132  1.00  0.00     0.251 C 
ATOM      6  H   UNL A   1      39.935  18.131  25.728  1.00  0.00     0.163 HD
BRANCH   5   7
ATOM      7  C   UNL A   1      41.997  20.662  26.421  1.00  0.00     0.039 A 
ATOM      8  C   UNL A   1      42.277  21.079  27.724  1.00  0.00     0.014 A 
ATOM      9  C   UNL A   1      42.218  21.529  25.347  1.00  0.00     0.014 A 
ATOM     10  C   UNL A   1      42.648  22.401  27.964  1.00  0.00     0.010 A 
ATOM     11  C   UNL A   1      42.660  22.833  25.581  1.00  0.00     0.010 A 
ATOM     12  C   UNL A   1      42.847  23.290  26.894  1.00  0.00    -0.014 A 
BRANCH  12  13
ATOM     13  C   UNL A   1      43.299  24.678  27.162  1.00  0.00     0.031 A 
ATOM     14  C   UNL A   1      42.361  25.699  27.742  1.00  0.00     0.074 A 
ATOM     15  C   UNL A   1      44.571  25.015  26.878  1.00  0.00     0.049 A 
ATOM     16  N   UNL A   1      42.588  26.956  28.037  1.00  0.00    -0.248 NA
ATOM     17  C   UNL A   1      40.986  25.260  28.020  1.00  0.00     0.031 C 
ATOM     18  C   UNL A   1      45.566  24.117  26.290  1.00  0.00     0.029 A 
ATOM     19  N   UNL A   1      45.247  26.197  27.047  1.00  0.00    -0.354 N 
ATOM     20  C   UNL A   1      41.385  27.459  28.514  1.00  0.00     0.074 A 
ATOM     21  C   UNL A   1      40.422  26.380  28.450  1.00  0.00     0.031 C 
ATOM     22  C   UNL A   1      46.732  24.769  26.175  1.00  0.00     0.029 A 
ATOM     23  C   UNL A   1      46.555  26.142  26.635  1.00  0.00     0.049 A 
ATOM     24  H   UNL A   1      44.833  27.005  27.428  1.00  0.00     0.167 HD
ATOM     25  C   UNL A   1      41.115  28.706  28.973  1.00  0.00     0.037 A 
ATOM     26  C   UNL A   1      47.503  27.096  26.616  1.00  0.00     0.037 A 
ATOM     27  C   UNL A   1      42.083  29.771  29.054  1.00  0.00     0.049 A 
ATOM     28  C   UNL A   1      47.175  28.469  27.126  1.00  0.00     0.074 A 
ATOM     29  C   UNL A   1      41.916  31.051  29.554  1.00  0.00     0.029 A 
ATOM     30  N   UNL A   1      43.396  29.681  28.617  1.00  0.00    -0.354 N 
ATOM     31  N   UNL A   1      46.047  28.919  27.620  1.00  0.00    -0.248 NA
ATOM     32  C   UNL A   1      48.250  29.468  27.077  1.00  0.00     0.031 C 
ATOM     33  C   UNL A   1      43.117  31.748  29.382  1.00  0.00     0.029 A 
ATOM     34  C   UNL A   1      44.045  30.889  28.816  1.00  0.00     0.049 A 
ATOM     35  H   UNL A   1      43.807  28.876  28.225  1.00  0.00     0.167 HD
ATOM     36  C   UNL A   1      46.278  30.245  27.953  1.00  0.00     0.074 A 
ATOM     37  C   UNL A   1      47.661  30.523  27.623  1.00  0.00     0.031 C 
ATOM     38  C   UNL A   1      45.419  31.151  28.479  1.00  0.00     0.037 A 
BRANCH  25  39
ATOM     39  C   UNL A   1      39.712  28.999  29.415  1.00  0.00     0.064 A 
ATOM     40  C   UNL A   1      38.736  29.454  28.517  1.00  0.00     0.173 A 
ATOM     41  C   UNL A   1      39.323  28.765  30.743  1.00  0.00     0.173 A 
ATOM     42  F   UNL A   1      39.058  29.704  27.239  1.00  0.00    -0.203 F 
ATOM     43  C   UNL A   1      37.426  29.681  28.936  1.00  0.00     0.198 A 
ATOM     44  C   UNL A   1      38.008  28.969  31.152  1.00  0.00     0.198 A 
ATOM     45  F   UNL A   1      40.217  28.323  31.642  1.00  0.00    -0.203 F 
ATOM     46  F   UNL A   1      36.518  30.149  28.068  1.00  0.00    -0.200 F 
ATOM     47  C   UNL A   1      37.062  29.431  30.250  1.00  0.00     0.200 A 
ATOM     48  F   UNL A   1      37.654  28.717  32.421  1.00  0.00    -0.200 F 
ATOM     49  F   UNL A   1      35.799  29.641  30.648  1.00  0.00    -0.200 F 
ENDBRANCH  25  39
BRANCH  26  50
ATOM     50  C   UNL A   1      48.855  26.772  26.095  1.00  0.00     0.064 A 
ATOM     51  C   UNL A   1      49.815  26.161  26.913  1.00  0.00     0.173 A 
ATOM     52  C   UNL A   1      49.203  27.041  24.763  1.00  0.00     0.173 A 
ATOM     53  F   UNL A   1      49.533  25.903  28.198  1.00  0.00    -0.203 F 
ATOM     54  C   UNL A   1      51.078  25.841  26.420  1.00  0.00     0.198 A 
ATOM     55  C   UNL A   1      50.457  26.696  24.264  1.00  0.00     0.198 A 
ATOM     56  F   UNL A   1      48.316  27.619  23.941  1.00  0.00    -0.203 F 
ATOM     57  F   UNL A   1      51.990  25.287  27.230  1.00  0.00    -0.200 F 
ATOM     58  C   UNL A   1      51.395  26.101  25.094  1.00  0.00     0.200 A 
ATOM     59  F   UNL A   1      50.753  26.934  22.980  1.00  0.00    -0.200 F 
ATOM     60  F   UNL A   1      52.606  25.782  24.618  1.00  0.00    -0.200 F 
ENDBRANCH  26  50
BRANCH  38  61
ATOM     61  C   UNL A   1      45.959  32.525  28.747  1.00  0.00     0.064 A 
ATOM     62  C   UNL A   1      45.873  33.545  27.788  1.00  0.00     0.173 A 
ATOM     63  C   UNL A   1      46.544  32.832  29.984  1.00  0.00     0.173 A 
ATOM     64  F   UNL A   1      45.337  33.296  26.583  1.00  0.00    -0.203 F 
ATOM     65  C   UNL A   1      46.374  34.818  28.051  1.00  0.00     0.198 A 
ATOM     66  C   UNL A   1      47.020  34.112  30.253  1.00  0.00     0.198 A 
ATOM     67  F   UNL A   1      46.646  31.892  30.935  1.00  0.00    -0.203 F 
ATOM     68  F   UNL A   1      46.321  35.765  27.104  1.00  0.00    -0.200 F 
ATOM     69  C   UNL A   1      46.940  35.101  29.284  1.00  0.00     0.200 A 
ATOM     70  F   UNL A   1      47.559  34.387  31.448  1.00  0.00    -0.200 F 
ATOM     71  F   UNL A   1      47.419  36.327  29.537  1.00  0.00    -0.200 F 
ENDBRANCH  38  61
ENDBRANCH  12  13
ENDBRANCH   5   7
ENDBRANCH   2   3
ENDBRANCH   1   2
BRANCH   1  72
ATOM     72  C   UNL A   1      36.623  20.324  25.002  1.00  0.00     0.117 C 
BRANCH  72  73
ATOM     73  N   UNL A   1      36.894  21.729  24.796  1.00  0.00    -0.356 N 
ATOM     74  C   UNL A   1      36.504  22.830  25.477  1.00  0.00     0.224 C 
ATOM     75  H   UNL A   1      37.466  21.920  24.018  1.00  0.00     0.163 HD
ATOM     76  O   UNL A   1      37.222  23.826  25.364  1.00  0.00    -0.275 OA
BRANCH  74  77
ATOM     77  C   UNL A   1      35.327  22.852  26.425  1.00  0.00     0.098 C 
ATOM     78  C   UNL A   1      34.302  24.022  26.189  1.00  0.00     0.100 C 
ATOM     79  C   UNL A   1      34.383  21.645  26.678  1.00  0.00     0.025 C 
ATOM     80  C   UNL A   1      32.937  23.350  26.512  1.00  0.00     0.025 C 
ATOM     81  C   UNL A   1      33.466  21.355  25.512  1.00  0.00    -0.027 C 
ATOM     82  C   UNL A   1      33.341  22.332  27.584  1.00  0.00     0.017 C 
ATOM     83  C   UNL A   1      32.591  22.367  25.425  1.00  0.00    -0.027 C 
BRANCH  78  84
ATOM     84  C   UNL A   1      34.184  24.908  24.935  1.00  0.00     0.242 C 
ATOM     85  O   UNL A   1      34.394  24.380  23.831  1.00  0.00    -0.273 OA
ATOM     86  N   UNL A   1      34.030  26.269  24.929  1.00  0.00    -0.267 N 
ATOM     87  H   UNL A   1      34.215  26.736  24.082  1.00  0.00     0.191 HD
BRANCH  86  88
ATOM     88  N   UNL A   1      33.637  27.049  25.997  1.00  0.00    -0.263 N 
ATOM     89  C   UNL A   1      32.359  27.494  26.255  1.00  0.00     0.271 C 
ATOM     90  H   UNL A   1      34.338  27.312  26.636  1.00  0.00     0.191 HD
ATOM     91  O   UNL A   1      32.097  27.973  27.360  1.00  0.00    -0.267 OA
BRANCH  89  92
ATOM     92  C   UNL A   1      31.344  27.622  25.192  1.00  0.00     0.060 A 
ATOM     93  C   UNL A   1      31.376  28.854  24.509  1.00  0.00     0.015 A 
ATOM     94  C   UNL A   1      30.349  26.695  24.882  1.00  0.00     0.053 A 
ATOM     95  C   UNL A   1      30.459  29.137  23.498  1.00  0.00     0.001 A 
ATOM     96  C   UNL A   1      29.442  26.977  23.850  1.00  0.00     0.021 A 
ATOM     97  Cl  UNL A   1      30.106  25.227  25.746  1.00  0.00    -0.083 Cl
ATOM     98  C   UNL A   1      29.499  28.190  23.159  1.00  0.00     0.002 A 
ENDBRANCH  89  92
ENDBRANCH  86  88
ENDBRANCH  78  84
ENDBRANCH  74  77
ENDBRANCH  72  73
ENDBRANCH   1  72
TORSDOF 13
ENDMDL
MODEL 3
REMARK VINA RESULT:     -12.9      5.113     10.856
REMARK SMILES O=C(NCCCNC(=O)[C@H]1[C@@H](C(=O)NNC(=O)c2ccccc2Cl)[C@H]2C=C[C@@H]1C2)c1ccc(-c2c3nc(c(-c4c(F)c(F)c(F)c(F)c4F)c4ccc([nH]4)c(-c4c(F)c(F)c(F)c(F)c4F)c4nc(c(-c5c(F)c(F)c(F)c(F)c5F)c5ccc2[nH]5)C=C4)C=C3)cc1
REMARK SMILES IDX 5 1 4 2 3 3 1 4 2 5 30 7 31 8 92 9 32 10 91 11 33 12 34 13
REMARK SMILES IDX 35 14 85 15 36 16 90 17 84 18 86 19 37 20 89 21 83 22 82 23
REMARK SMILES IDX 38 25 70 26 50 27 69 28 51 29 54 30 68 31 87 32 52 33 53 34
REMARK SMILES IDX 67 36 88 37 55 38 39 39 40 40 48 41 41 42 42 43 46 44 49 45
REMARK SMILES IDX 43 46 44 47 47 48 45 49 71 50 72 51 80 52 73 53 74 54 78 55
REMARK SMILES IDX 81 56 75 57 76 58 79 59 77 60 56 61 57 62 65 63 58 64 59 65
REMARK SMILES IDX 63 66 66 67 60 68 61 69 64 70 62 71 6 72 7 73 8 74 9 76
REMARK SMILES IDX 10 77 11 78 28 79 25 80 27 81 29 82 26 83 12 84 13 85 14 86
REMARK SMILES IDX 15 88 16 89 17 91 18 92 19 93 23 94 20 95 22 96 24 97 21 98
REMARK H PARENT 3 6 86 24 54 35 7 75 14 87 15 90
REMARK Flexibility Score: inf
ROOT
ATOM      1  C   UNL A   1      37.887  19.376  24.956  1.00  0.00     0.042 C 
ENDROOT
BRANCH   1   2
ATOM      2  C   UNL A   1      39.072  19.917  25.752  1.00  0.00     0.118 C 
BRANCH   2   3
ATOM      3  N   UNL A   1      40.181  18.984  25.865  1.00  0.00    -0.352 N 
ATOM      4  O   UNL A   1      42.302  18.272  26.093  1.00  0.00    -0.269 OA
ATOM      5  C   UNL A   1      41.511  19.206  26.126  1.00  0.00     0.251 C 
ATOM      6  H   UNL A   1      39.939  18.039  25.733  1.00  0.00     0.163 HD
BRANCH   5   7
ATOM      7  C   UNL A   1      42.005  20.571  26.409  1.00  0.00     0.039 A 
ATOM      8  C   UNL A   1      42.272  20.998  27.712  1.00  0.00     0.014 A 
ATOM      9  C   UNL A   1      42.242  21.429  25.331  1.00  0.00     0.014 A 
ATOM     10  C   UNL A   1      42.645  22.320  27.946  1.00  0.00     0.010 A 
ATOM     11  C   UNL A   1      42.686  22.733  25.560  1.00  0.00     0.010 A 
ATOM     12  C   UNL A   1      42.859  23.200  26.872  1.00  0.00    -0.014 A 
BRANCH  12  13
ATOM     13  C   UNL A   1      43.313  24.589  27.134  1.00  0.00     0.031 A 
ATOM     14  C   UNL A   1      42.377  25.613  27.710  1.00  0.00     0.074 A 
ATOM     15  C   UNL A   1      44.585  24.923  26.847  1.00  0.00     0.049 A 
ATOM     16  N   UNL A   1      42.606  26.871  27.999  1.00  0.00    -0.248 NA
ATOM     17  C   UNL A   1      41.001  25.177  27.991  1.00  0.00     0.031 C 
ATOM     18  C   UNL A   1      45.579  24.021  26.263  1.00  0.00     0.029 A 
ATOM     19  N   UNL A   1      45.263  26.104  27.011  1.00  0.00    -0.354 N 
ATOM     20  C   UNL A   1      41.404  27.378  28.476  1.00  0.00     0.074 A 
ATOM     21  C   UNL A   1      40.440  26.300  28.416  1.00  0.00     0.031 C 
ATOM     22  C   UNL A   1      46.746  24.671  26.144  1.00  0.00     0.029 A 
ATOM     23  C   UNL A   1      46.571  26.046  26.599  1.00  0.00     0.049 A 
ATOM     24  H   UNL A   1      44.851  26.914  27.389  1.00  0.00     0.167 HD
ATOM     25  C   UNL A   1      41.136  28.626  28.929  1.00  0.00     0.037 A 
ATOM     26  C   UNL A   1      47.520  26.999  26.575  1.00  0.00     0.037 A 
ATOM     27  C   UNL A   1      42.105  29.691  29.006  1.00  0.00     0.049 A 
ATOM     28  C   UNL A   1      47.194  28.374  27.081  1.00  0.00     0.074 A 
ATOM     29  C   UNL A   1      41.941  30.973  29.501  1.00  0.00     0.029 A 
ATOM     30  N   UNL A   1      43.418  29.597  28.569  1.00  0.00    -0.354 N 
ATOM     31  N   UNL A   1      46.067  28.827  27.573  1.00  0.00    -0.248 NA
ATOM     32  C   UNL A   1      48.271  29.371  27.027  1.00  0.00     0.031 C 
ATOM     33  C   UNL A   1      43.142  31.668  29.326  1.00  0.00     0.029 A 
ATOM     34  C   UNL A   1      44.068  30.805  28.763  1.00  0.00     0.049 A 
ATOM     35  H   UNL A   1      43.827  28.790  28.180  1.00  0.00     0.167 HD
ATOM     36  C   UNL A   1      46.301  30.154  27.900  1.00  0.00     0.074 A 
ATOM     37  C   UNL A   1      47.684  30.429  27.569  1.00  0.00     0.031 C 
ATOM     38  C   UNL A   1      45.443  31.064  28.423  1.00  0.00     0.037 A 
BRANCH  25  39
ATOM     39  C   UNL A   1      39.733  28.923  29.372  1.00  0.00     0.064 A 
ATOM     40  C   UNL A   1      39.326  28.743  30.702  1.00  0.00     0.173 A 
ATOM     41  C   UNL A   1      38.800  29.449  28.466  1.00  0.00     0.173 A 
ATOM     42  F   UNL A   1      40.177  28.233  31.605  1.00  0.00    -0.203 F 
ATOM     43  C   UNL A   1      38.032  29.065  31.105  1.00  0.00     0.198 A 
ATOM     44  C   UNL A   1      37.515  29.792  28.878  1.00  0.00     0.198 A 
ATOM     45  F   UNL A   1      39.140  29.647  27.182  1.00  0.00    -0.203 F 
ATOM     46  F   UNL A   1      37.655  28.853  32.374  1.00  0.00    -0.200 F 
ATOM     47  C   UNL A   1      37.130  29.595  30.195  1.00  0.00     0.200 A 
ATOM     48  F   UNL A   1      36.647  30.315  27.999  1.00  0.00    -0.200 F 
ATOM     49  F   UNL A   1      35.888  29.912  30.588  1.00  0.00    -0.200 F 
ENDBRANCH  25  39
BRANCH  26  50
ATOM     50  C   UNL A   1      48.872  26.670  26.055  1.00  0.00     0.064 A 
ATOM     51  C   UNL A   1      49.236  26.995  24.741  1.00  0.00     0.173 A 
ATOM     52  C   UNL A   1      49.831  26.051  26.868  1.00  0.00     0.173 A 
ATOM     53  F   UNL A   1      48.345  27.571  23.922  1.00  0.00    -0.203 F 
ATOM     54  C   UNL A   1      50.509  26.703  24.258  1.00  0.00     0.198 A 
ATOM     55  C   UNL A   1      51.112  25.783  26.392  1.00  0.00     0.198 A 
ATOM     56  F   UNL A   1      49.530  25.726  28.134  1.00  0.00    -0.203 F 
ATOM     57  F   UNL A   1      50.824  26.994  22.989  1.00  0.00    -0.200 F 
ATOM     58  C   UNL A   1      51.449  26.105  25.086  1.00  0.00     0.200 A 
ATOM     59  F   UNL A   1      52.021  25.221  27.200  1.00  0.00    -0.200 F 
ATOM     60  F   UNL A   1      52.677  25.835  24.623  1.00  0.00    -0.200 F 
ENDBRANCH  26  50
BRANCH  38  61
ATOM     61  C   UNL A   1      45.985  32.438  28.685  1.00  0.00     0.064 A 
ATOM     62  C   UNL A   1      46.616  32.757  29.897  1.00  0.00     0.173 A 
ATOM     63  C   UNL A   1      45.898  33.437  27.705  1.00  0.00     0.173 A 
ATOM     64  F   UNL A   1      46.708  31.839  30.872  1.00  0.00    -0.203 F 
ATOM     65  C   UNL A   1      47.119  34.035  30.127  1.00  0.00     0.198 A 
ATOM     66  C   UNL A   1      46.425  34.706  27.928  1.00  0.00     0.198 A 
ATOM     67  F   UNL A   1      45.309  33.180  26.529  1.00  0.00    -0.203 F 
ATOM     68  F   UNL A   1      47.677  34.331  31.308  1.00  0.00    -0.200 F 
ATOM     69  C   UNL A   1      47.029  35.005  29.140  1.00  0.00     0.200 A 
ATOM     70  F   UNL A   1      46.346  35.640  26.971  1.00  0.00    -0.200 F 
ATOM     71  F   UNL A   1      47.517  36.234  29.361  1.00  0.00    -0.200 F 
ENDBRANCH  38  61
ENDBRANCH  12  13
ENDBRANCH   5   7
ENDBRANCH   2   3
ENDBRANCH   1   2
BRANCH   1  72
ATOM     72  C   UNL A   1      36.629  20.232  25.001  1.00  0.00     0.117 C 
BRANCH  72  73
ATOM     73  N   UNL A   1      36.875  21.633  24.746  1.00  0.00    -0.356 N 
ATOM     74  C   UNL A   1      36.489  22.749  25.405  1.00  0.00     0.224 C 
ATOM     75  H   UNL A   1      37.424  21.808  23.947  1.00  0.00     0.163 HD
ATOM     76  O   UNL A   1      37.190  23.750  25.243  1.00  0.00    -0.275 OA
BRANCH  74  77
ATOM     77  C   UNL A   1      35.338  22.785  26.384  1.00  0.00     0.098 C 
ATOM     78  C   UNL A   1      34.302  23.945  26.152  1.00  0.00     0.100 C 
ATOM     79  C   UNL A   1      34.407  21.579  26.685  1.00  0.00     0.025 C 
ATOM     80  C   UNL A   1      32.949  23.273  26.525  1.00  0.00     0.025 C 
ATOM     81  C   UNL A   1      33.461  21.262  25.550  1.00  0.00    -0.027 C 
ATOM     82  C   UNL A   1      33.387  22.279  27.605  1.00  0.00     0.017 C 
ATOM     83  C   UNL A   1      32.578  22.268  25.467  1.00  0.00    -0.027 C 
BRANCH  78  84
ATOM     84  C   UNL A   1      34.145  24.806  24.885  1.00  0.00     0.242 C 
ATOM     85  O   UNL A   1      34.307  24.253  23.786  1.00  0.00    -0.273 OA
ATOM     86  N   UNL A   1      34.007  26.169  24.856  1.00  0.00    -0.267 N 
ATOM     87  H   UNL A   1      34.165  26.615  23.992  1.00  0.00     0.191 HD
BRANCH  86  88
ATOM     88  N   UNL A   1      33.665  26.976  25.921  1.00  0.00    -0.263 N 
ATOM     89  C   UNL A   1      32.416  27.494  26.183  1.00  0.00     0.271 C 
ATOM     90  H   UNL A   1      34.384  27.203  26.554  1.00  0.00     0.191 HD
ATOM     91  O   UNL A   1      32.188  27.993  27.287  1.00  0.00    -0.267 OA
BRANCH  89  92
ATOM     92  C   UNL A   1      31.404  27.672  25.126  1.00  0.00     0.060 A 
ATOM     93  C   UNL A   1      31.404  28.951  24.535  1.00  0.00     0.015 A 
ATOM     94  C   UNL A   1      30.436  26.743  24.740  1.00  0.00     0.053 A 
ATOM     95  C   UNL A   1      30.485  29.283  23.542  1.00  0.00     0.001 A 
ATOM     96  C   UNL A   1      29.527  27.076  23.726  1.00  0.00     0.021 A 
ATOM     97  Cl  UNL A   1      30.230  25.209  25.491  1.00  0.00    -0.083 Cl
ATOM     98  C   UNL A   1      29.554  28.338  23.126  1.00  0.00     0.002 A 
ENDBRANCH  89  92
ENDBRANCH  86  88
ENDBRANCH  78  84
ENDBRANCH  74  77
ENDBRANCH  72  73
ENDBRANCH   1  72
TORSDOF 13
ENDMDL
