MODEL 1
REMARK VINA RESULT:     -12.6      0.000      0.000
REMARK SMILES O=C(Cc1cccc(NS(=O)(=O)c2cccc(Cl)c2)c1)NCCCNC(=O)c1ccc(-c2c3nc(c(-c4c(F)c(F)c(F)c(F)c4F)c4ccc([nH]4)c(-c4c(F)c(F)c(F)c(F)c4F)c4nc(c(-c5c(F)c(F)c(F)c(F)c5F)c5ccc2[nH]5)C=C4)C=C3)cc1
REMARK SMILES IDX 22 1 21 2 1 3 2 4 3 6 4 7 5 8 20 9 6 10 8 11 7 12 9 13 10 15
REMARK SMILES IDX 11 16 12 17 13 18 14 19 19 20 15 21 17 22 16 23 18 24 23 25
REMARK SMILES IDX 24 26 25 27 26 28 27 30 28 31 29 32 90 33 30 34 89 35 31 36
REMARK SMILES IDX 32 37 33 38 83 39 34 40 88 41 82 42 84 43 35 44 87 45 81 46
REMARK SMILES IDX 80 47 36 49 68 50 48 51 67 52 49 53 52 54 66 55 85 56 50 57
REMARK SMILES IDX 51 58 65 60 86 61 53 62 37 63 38 64 46 65 39 66 40 67 44 68
REMARK SMILES IDX 47 69 41 70 42 71 45 72 43 73 69 74 70 75 78 76 71 77 72 78
REMARK SMILES IDX 76 79 79 80 73 81 74 82 77 83 75 84 54 85 55 86 63 87 56 88
REMARK SMILES IDX 57 89 61 90 64 91 58 92 59 93 62 94 60 95
REMARK H PARENT 21 5 9 14 25 29 84 48 52 59
REMARK Flexibility Score: inf
ROOT
ATOM      1  C   UNL A   1      37.143  20.910  24.859  1.00  0.00     0.117 C 
ENDROOT
BRANCH   1   2
ATOM      2  N   UNL A   1      35.772  20.454  24.950  1.00  0.00    -0.356 N 
ATOM      3  O   UNL A   1      35.064  22.007  26.488  1.00  0.00    -0.275 OA
ATOM      4  C   UNL A   1      34.813  21.087  25.717  1.00  0.00     0.224 C 
ATOM      5  H   UNL A   1      35.510  19.653  24.440  1.00  0.00     0.163 HD
BRANCH   4   6
ATOM      6  C   UNL A   1      33.400  20.527  25.550  1.00  0.00     0.135 C 
BRANCH   6   7
ATOM      7  C   UNL A   1      32.435  21.568  25.018  1.00  0.00    -0.037 A 
ATOM      8  C   UNL A   1      31.414  22.051  25.845  1.00  0.00     0.004 A 
ATOM      9  C   UNL A   1      32.617  22.148  23.753  1.00  0.00     0.031 A 
ATOM     10  C   UNL A   1      30.708  23.193  25.482  1.00  0.00     0.002 A 
ATOM     11  C   UNL A   1      31.842  23.243  23.346  1.00  0.00     0.049 A 
ATOM     12  C   UNL A   1      30.980  23.828  24.268  1.00  0.00     0.027 A 
BRANCH  11  13
ATOM     13  N   UNL A   1      32.149  23.846  22.086  1.00  0.00    -0.280 N 
ATOM     14  H   UNL A   1      31.781  23.420  21.278  1.00  0.00     0.180 HD
BRANCH  13  15
ATOM     15  S   UNL A   1      33.099  25.235  21.875  1.00  0.00     0.261 S 
ATOM     16  O   UNL A   1      34.380  24.913  22.468  1.00  0.00    -0.201 OA
ATOM     17  O   UNL A   1      33.011  25.539  20.459  1.00  0.00    -0.201 OA
BRANCH  15  18
ATOM     18  C   UNL A   1      32.456  26.650  22.727  1.00  0.00     0.089 A 
ATOM     19  C   UNL A   1      33.158  27.262  23.770  1.00  0.00     0.022 A 
ATOM     20  C   UNL A   1      31.189  27.123  22.360  1.00  0.00     0.042 A 
ATOM     21  C   UNL A   1      32.653  28.427  24.351  1.00  0.00     0.003 A 
ATOM     22  C   UNL A   1      30.667  28.251  22.989  1.00  0.00     0.042 A 
ATOM     23  C   UNL A   1      31.408  28.924  23.957  1.00  0.00     0.020 A 
ATOM     24  Cl  UNL A   1      29.099  28.816  22.566  1.00  0.00    -0.084 Cl
ENDBRANCH  15  18
ENDBRANCH  13  15
ENDBRANCH  11  13
ENDBRANCH   6   7
ENDBRANCH   4   6
ENDBRANCH   1   2
BRANCH   1  25
ATOM     25  C   UNL A   1      38.148  19.776  25.007  1.00  0.00     0.042 C 
BRANCH  25  26
ATOM     26  C   UNL A   1      39.277  20.057  25.995  1.00  0.00     0.118 C 
BRANCH  26  27
ATOM     27  N   UNL A   1      40.352  19.075  25.944  1.00  0.00    -0.352 N 
ATOM     28  C   UNL A   1      41.709  19.240  26.086  1.00  0.00     0.251 C 
ATOM     29  H   UNL A   1      40.060  18.149  25.782  1.00  0.00     0.163 HD
ATOM     30  O   UNL A   1      42.461  18.292  25.877  1.00  0.00    -0.269 OA
BRANCH  28  31
ATOM     31  C   UNL A   1      42.280  20.555  26.459  1.00  0.00     0.039 A 
ATOM     32  C   UNL A   1      42.823  21.359  25.451  1.00  0.00     0.014 A 
ATOM     33  C   UNL A   1      42.301  20.994  27.784  1.00  0.00     0.014 A 
ATOM     34  C   UNL A   1      43.318  22.629  25.763  1.00  0.00     0.010 A 
ATOM     35  C   UNL A   1      42.723  22.289  28.082  1.00  0.00     0.010 A 
ATOM     36  C   UNL A   1      43.235  23.122  27.075  1.00  0.00    -0.014 A 
BRANCH  36  37
ATOM     37  C   UNL A   1      43.673  24.501  27.414  1.00  0.00     0.031 A 
ATOM     38  C   UNL A   1      42.665  25.538  27.829  1.00  0.00     0.074 A 
ATOM     39  C   UNL A   1      44.971  24.842  27.282  1.00  0.00     0.049 A 
ATOM     40  N   UNL A   1      42.839  26.812  28.076  1.00  0.00    -0.248 NA
ATOM     41  C   UNL A   1      41.271  25.087  27.959  1.00  0.00     0.031 C 
ATOM     42  C   UNL A   1      46.042  23.944  26.851  1.00  0.00     0.029 A 
ATOM     43  N   UNL A   1      45.607  26.044  27.483  1.00  0.00    -0.354 N 
ATOM     44  C   UNL A   1      41.580  27.316  28.375  1.00  0.00     0.074 A 
ATOM     45  C   UNL A   1      40.643  26.223  28.226  1.00  0.00     0.031 C 
ATOM     46  C   UNL A   1      47.204  24.617  26.839  1.00  0.00     0.029 A 
ATOM     47  C   UNL A   1      46.954  26.005  27.215  1.00  0.00     0.049 A 
ATOM     48  H   UNL A   1      45.142  26.855  27.790  1.00  0.00     0.167 HD
ATOM     49  C   UNL A   1      41.238  28.569  28.760  1.00  0.00     0.037 A 
ATOM     50  C   UNL A   1      47.882  26.981  27.255  1.00  0.00     0.037 A 
ATOM     51  C   UNL A   1      42.176  29.650  28.928  1.00  0.00     0.049 A 
ATOM     52  C   UNL A   1      47.472  28.371  27.662  1.00  0.00     0.074 A 
ATOM     53  C   UNL A   1      41.934  30.940  29.368  1.00  0.00     0.029 A 
ATOM     54  N   UNL A   1      43.533  29.569  28.656  1.00  0.00    -0.354 N 
ATOM     55  N   UNL A   1      46.289  28.819  28.004  1.00  0.00    -0.248 NA
ATOM     56  C   UNL A   1      48.530  29.391  27.693  1.00  0.00     0.031 C 
ATOM     57  C   UNL A   1      43.135  31.656  29.309  1.00  0.00     0.029 A 
ATOM     58  C   UNL A   1      44.137  30.795  28.893  1.00  0.00     0.049 A 
ATOM     59  H   UNL A   1      44.000  28.761  28.342  1.00  0.00     0.167 HD
ATOM     60  C   UNL A   1      46.464  30.159  28.321  1.00  0.00     0.074 A 
ATOM     61  C   UNL A   1      47.872  30.449  28.145  1.00  0.00     0.031 C 
ATOM     62  C   UNL A   1      45.541  31.068  28.723  1.00  0.00     0.037 A 
BRANCH  49  63
ATOM     63  C   UNL A   1      39.786  28.843  29.027  1.00  0.00     0.064 A 
ATOM     64  C   UNL A   1      38.919  29.280  28.013  1.00  0.00     0.173 A 
ATOM     65  C   UNL A   1      39.243  28.627  30.303  1.00  0.00     0.173 A 
ATOM     66  F   UNL A   1      39.386  29.511  26.777  1.00  0.00    -0.203 F 
ATOM     67  C   UNL A   1      37.573  29.523  28.275  1.00  0.00     0.198 A 
ATOM     68  C   UNL A   1      37.889  28.839  30.553  1.00  0.00     0.198 A 
ATOM     69  F   UNL A   1      40.024  28.202  31.308  1.00  0.00    -0.203 F 
ATOM     70  F   UNL A   1      36.777  29.992  27.305  1.00  0.00    -0.200 F 
ATOM     71  C   UNL A   1      37.057  29.295  29.543  1.00  0.00     0.200 A 
ATOM     72  F   UNL A   1      37.390  28.602  31.775  1.00  0.00    -0.200 F 
ATOM     73  F   UNL A   1      35.760  29.521  29.790  1.00  0.00    -0.200 F 
ENDBRANCH  49  63
BRANCH  50  74
ATOM     74  C   UNL A   1      49.297  26.678  26.910  1.00  0.00     0.064 A 
ATOM     75  C   UNL A   1      49.743  26.736  25.582  1.00  0.00     0.173 A 
ATOM     76  C   UNL A   1      50.227  26.311  27.894  1.00  0.00     0.173 A 
ATOM     77  F   UNL A   1      48.886  27.060  24.602  1.00  0.00    -0.203 F 
ATOM     78  C   UNL A   1      51.057  26.416  25.249  1.00  0.00     0.198 A 
ATOM     79  C   UNL A   1      51.549  26.023  27.563  1.00  0.00     0.198 A 
ATOM     80  F   UNL A   1      49.853  26.244  29.180  1.00  0.00    -0.203 F 
ATOM     81  F   UNL A   1      51.442  26.428  23.965  1.00  0.00    -0.200 F 
ATOM     82  C   UNL A   1      51.961  26.065  26.240  1.00  0.00     0.200 A 
ATOM     83  F   UNL A   1      52.423  25.698  28.526  1.00  0.00    -0.200 F 
ATOM     84  F   UNL A   1      53.225  25.759  25.919  1.00  0.00    -0.200 F 
ENDBRANCH  50  74
BRANCH  62  85
ATOM     85  C   UNL A   1      46.029  32.454  29.041  1.00  0.00     0.064 A 
ATOM     86  C   UNL A   1      46.487  32.803  30.320  1.00  0.00     0.173 A 
ATOM     87  C   UNL A   1      46.072  33.437  28.039  1.00  0.00     0.173 A 
ATOM     88  F   UNL A   1      46.451  31.906  31.317  1.00  0.00    -0.203 F 
ATOM     89  C   UNL A   1      46.943  34.090  30.591  1.00  0.00     0.198 A 
ATOM     90  C   UNL A   1      46.562  34.712  28.305  1.00  0.00     0.198 A 
ATOM     91  F   UNL A   1      45.653  33.154  26.796  1.00  0.00    -0.203 F 
ATOM     92  F   UNL A   1      47.328  34.415  31.834  1.00  0.00    -0.200 F 
ATOM     93  C   UNL A   1      46.989  35.040  29.581  1.00  0.00     0.200 A 
ATOM     94  F   UNL A   1      46.621  35.624  27.324  1.00  0.00    -0.200 F 
ATOM     95  F   UNL A   1      47.439  36.276  29.842  1.00  0.00    -0.200 F 
ENDBRANCH  62  85
ENDBRANCH  36  37
ENDBRANCH  28  31
ENDBRANCH  26  27
ENDBRANCH  25  26
ENDBRANCH   1  25
TORSDOF 14
ENDMDL
MODEL 2
REMARK VINA RESULT:     -12.6      1.413      2.043
REMARK SMILES O=C(Cc1cccc(NS(=O)(=O)c2cccc(Cl)c2)c1)NCCCNC(=O)c1ccc(-c2c3nc(c(-c4c(F)c(F)c(F)c(F)c4F)c4ccc([nH]4)c(-c4c(F)c(F)c(F)c(F)c4F)c4nc(c(-c5c(F)c(F)c(F)c(F)c5F)c5ccc2[nH]5)C=C4)C=C3)cc1
REMARK SMILES IDX 22 1 21 2 1 3 2 4 3 6 4 7 5 8 20 9 6 10 8 11 7 12 9 13 10 15
REMARK SMILES IDX 11 16 12 17 13 18 14 19 19 20 15 21 17 22 16 23 18 24 23 25
REMARK SMILES IDX 24 26 25 27 26 28 27 30 28 31 29 32 90 33 30 34 89 35 31 36
REMARK SMILES IDX 32 37 33 38 83 39 34 40 88 41 82 42 84 43 35 44 87 45 81 46
REMARK SMILES IDX 80 47 36 49 68 50 48 51 67 52 49 53 52 54 66 55 85 56 50 57
REMARK SMILES IDX 51 58 65 60 86 61 53 62 37 63 38 64 46 65 39 66 40 67 44 68
REMARK SMILES IDX 47 69 41 70 42 71 45 72 43 73 69 74 70 75 78 76 71 77 72 78
REMARK SMILES IDX 76 79 79 80 73 81 74 82 77 83 75 84 54 85 55 86 63 87 56 88
REMARK SMILES IDX 57 89 61 90 64 91 58 92 59 93 62 94 60 95
REMARK H PARENT 21 5 9 14 25 29 84 48 52 59
REMARK Flexibility Score: inf
ROOT
ATOM      1  C   UNL A   1      36.566  20.317  25.004  1.00  0.00     0.117 C 
ENDROOT
BRANCH   1   2
ATOM      2  N   UNL A   1      36.447  21.656  25.543  1.00  0.00    -0.356 N 
ATOM      3  O   UNL A   1      35.871  22.696  23.577  1.00  0.00    -0.275 OA
ATOM      4  C   UNL A   1      36.040  22.741  24.791  1.00  0.00     0.224 C 
ATOM      5  H   UNL A   1      36.667  21.800  26.491  1.00  0.00     0.163 HD
BRANCH   4   6
ATOM      6  C   UNL A   1      35.841  24.027  25.594  1.00  0.00     0.135 C 
BRANCH   6   7
ATOM      7  C   UNL A   1      34.397  24.487  25.583  1.00  0.00    -0.037 A 
ATOM      8  C   UNL A   1      33.431  23.749  26.277  1.00  0.00     0.004 A 
ATOM      9  C   UNL A   1      34.028  25.706  24.992  1.00  0.00     0.031 A 
ATOM     10  C   UNL A   1      32.175  24.300  26.515  1.00  0.00     0.002 A 
ATOM     11  C   UNL A   1      32.733  26.220  25.152  1.00  0.00     0.049 A 
ATOM     12  C   UNL A   1      31.860  25.566  26.017  1.00  0.00     0.027 A 
BRANCH  11  13
ATOM     13  N   UNL A   1      32.457  27.512  24.607  1.00  0.00    -0.280 N 
ATOM     14  H   UNL A   1      32.571  28.289  25.201  1.00  0.00     0.180 HD
BRANCH  13  15
ATOM     15  S   UNL A   1      31.946  27.811  23.017  1.00  0.00     0.261 S 
ATOM     16  O   UNL A   1      32.723  28.951  22.577  1.00  0.00    -0.201 OA
ATOM     17  O   UNL A   1      32.076  26.538  22.335  1.00  0.00    -0.201 OA
BRANCH  15  18
ATOM     18  C   UNL A   1      30.235  28.258  22.911  1.00  0.00     0.089 A 
ATOM     19  C   UNL A   1      29.234  27.480  23.500  1.00  0.00     0.022 A 
ATOM     20  C   UNL A   1      29.893  29.401  22.174  1.00  0.00     0.042 A 
ATOM     21  C   UNL A   1      27.908  27.920  23.467  1.00  0.00     0.003 A 
ATOM     22  C   UNL A   1      28.561  29.796  22.096  1.00  0.00     0.042 A 
ATOM     23  C   UNL A   1      27.573  29.081  22.768  1.00  0.00     0.020 A 
ATOM     24  Cl  UNL A   1      28.133  31.178  21.165  1.00  0.00    -0.084 Cl
ENDBRANCH  15  18
ENDBRANCH  13  15
ENDBRANCH  11  13
ENDBRANCH   6   7
ENDBRANCH   4   6
ENDBRANCH   1   2
BRANCH   1  25
ATOM     25  C   UNL A   1      38.003  19.951  24.657  1.00  0.00     0.042 C 
BRANCH  25  26
ATOM     26  C   UNL A   1      39.010  20.224  25.771  1.00  0.00     0.118 C 
BRANCH  26  27
ATOM     27  N   UNL A   1      40.038  19.198  25.889  1.00  0.00    -0.352 N 
ATOM     28  C   UNL A   1      41.386  19.318  26.125  1.00  0.00     0.251 C 
ATOM     29  H   UNL A   1      39.715  18.274  25.784  1.00  0.00     0.163 HD
ATOM     30  O   UNL A   1      42.105  18.325  26.057  1.00  0.00    -0.269 OA
BRANCH  28  31
ATOM     31  C   UNL A   1      41.989  20.636  26.430  1.00  0.00     0.039 A 
ATOM     32  C   UNL A   1      42.290  21.497  25.369  1.00  0.00     0.014 A 
ATOM     33  C   UNL A   1      42.277  21.023  27.740  1.00  0.00     0.014 A 
ATOM     34  C   UNL A   1      42.808  22.769  25.628  1.00  0.00     0.010 A 
ATOM     35  C   UNL A   1      42.720  22.319  28.002  1.00  0.00     0.010 A 
ATOM     36  C   UNL A   1      42.989  23.207  26.949  1.00  0.00    -0.014 A 
BRANCH  36  37
ATOM     37  C   UNL A   1      43.454  24.587  27.251  1.00  0.00     0.031 A 
ATOM     38  C   UNL A   1      42.496  25.607  27.803  1.00  0.00     0.074 A 
ATOM     39  C   UNL A   1      44.722  24.942  26.965  1.00  0.00     0.049 A 
ATOM     40  N   UNL A   1      42.689  26.880  28.046  1.00  0.00    -0.248 NA
ATOM     41  C   UNL A   1      41.133  25.140  28.098  1.00  0.00     0.031 C 
ATOM     42  C   UNL A   1      45.739  24.061  26.392  1.00  0.00     0.029 A 
ATOM     43  N   UNL A   1      45.369  26.147  27.103  1.00  0.00    -0.354 N 
ATOM     44  C   UNL A   1      41.473  27.366  28.506  1.00  0.00     0.074 A 
ATOM     45  C   UNL A   1      40.534  26.266  28.458  1.00  0.00     0.031 C 
ATOM     46  C   UNL A   1      46.885  24.745  26.246  1.00  0.00     0.029 A 
ATOM     47  C   UNL A   1      46.672  26.126  26.670  1.00  0.00     0.049 A 
ATOM     48  H   UNL A   1      44.938  26.950  27.477  1.00  0.00     0.167 HD
ATOM     49  C   UNL A   1      41.170  28.611  28.949  1.00  0.00     0.037 A 
ATOM     50  C   UNL A   1      47.589  27.111  26.609  1.00  0.00     0.037 A 
ATOM     51  C   UNL A   1      42.112  29.699  29.015  1.00  0.00     0.049 A 
ATOM     52  C   UNL A   1      47.221  28.491  27.085  1.00  0.00     0.074 A 
ATOM     53  C   UNL A   1      41.916  30.980  29.500  1.00  0.00     0.029 A 
ATOM     54  N   UNL A   1      43.426  29.635  28.576  1.00  0.00    -0.354 N 
ATOM     55  N   UNL A   1      46.086  28.922  27.577  1.00  0.00    -0.248 NA
ATOM     56  C   UNL A   1      48.266  29.521  26.999  1.00  0.00     0.031 C 
ATOM     57  C   UNL A   1      43.094  31.708  29.304  1.00  0.00     0.029 A 
ATOM     58  C   UNL A   1      44.045  30.864  28.755  1.00  0.00     0.049 A 
ATOM     59  H   UNL A   1      43.857  28.837  28.195  1.00  0.00     0.167 HD
ATOM     60  C   UNL A   1      46.288  30.260  27.890  1.00  0.00     0.074 A 
ATOM     61  C   UNL A   1      47.661  30.566  27.545  1.00  0.00     0.031 C 
ATOM     62  C   UNL A   1      45.415  31.154  28.416  1.00  0.00     0.037 A 
BRANCH  49  63
ATOM     63  C   UNL A   1      39.760  28.866  29.397  1.00  0.00     0.064 A 
ATOM     64  C   UNL A   1      39.358  28.656  30.725  1.00  0.00     0.173 A 
ATOM     65  C   UNL A   1      38.806  29.365  28.496  1.00  0.00     0.173 A 
ATOM     66  F   UNL A   1      40.226  28.172  31.626  1.00  0.00    -0.203 F 
ATOM     67  C   UNL A   1      38.047  28.904  31.126  1.00  0.00     0.198 A 
ATOM     68  C   UNL A   1      37.505  29.643  28.909  1.00  0.00     0.198 A 
ATOM     69  F   UNL A   1      39.137  29.592  27.216  1.00  0.00    -0.203 F 
ATOM     70  F   UNL A   1      37.674  28.644  32.386  1.00  0.00    -0.200 F 
ATOM     71  C   UNL A   1      37.124  29.404  30.220  1.00  0.00     0.200 A 
ATOM     72  F   UNL A   1      36.619  30.143  28.036  1.00  0.00    -0.200 F 
ATOM     73  F   UNL A   1      35.866  29.650  30.610  1.00  0.00    -0.200 F 
ENDBRANCH  49  63
BRANCH  50  74
ATOM     74  C   UNL A   1      48.953  26.827  26.088  1.00  0.00     0.064 A 
ATOM     75  C   UNL A   1      49.265  27.035  24.737  1.00  0.00     0.173 A 
ATOM     76  C   UNL A   1      49.966  26.330  26.921  1.00  0.00     0.173 A 
ATOM     77  F   UNL A   1      48.325  27.488  23.895  1.00  0.00    -0.203 F 
ATOM     78  C   UNL A   1      50.530  26.735  24.235  1.00  0.00     0.198 A 
ATOM     79  C   UNL A   1      51.239  26.060  26.424  1.00  0.00     0.198 A 
ATOM     80  F   UNL A   1      49.721  26.116  28.221  1.00  0.00    -0.203 F 
ATOM     81  F   UNL A   1      50.784  26.894  22.929  1.00  0.00    -0.200 F 
ATOM     82  C   UNL A   1      51.518  26.253  25.079  1.00  0.00     0.200 A 
ATOM     83  F   UNL A   1      52.196  25.608  27.247  1.00  0.00    -0.200 F 
ATOM     84  F   UNL A   1      52.734  25.966  24.596  1.00  0.00    -0.200 F 
ENDBRANCH  50  74
BRANCH  62  85
ATOM     85  C   UNL A   1      45.926  32.540  28.692  1.00  0.00     0.064 A 
ATOM     86  C   UNL A   1      46.619  32.853  29.870  1.00  0.00     0.173 A 
ATOM     87  C   UNL A   1      45.751  33.561  27.743  1.00  0.00     0.173 A 
ATOM     88  F   UNL A   1      46.799  31.918  30.816  1.00  0.00    -0.203 F 
ATOM     89  C   UNL A   1      47.093  34.142  30.101  1.00  0.00     0.198 A 
ATOM     90  C   UNL A   1      46.257  34.839  27.963  1.00  0.00     0.198 A 
ATOM     91  F   UNL A   1      45.102  33.314  26.595  1.00  0.00    -0.203 F 
ATOM     92  F   UNL A   1      47.707  34.430  31.258  1.00  0.00    -0.200 F 
ATOM     93  C   UNL A   1      46.920  35.130  29.144  1.00  0.00     0.200 A 
ATOM     94  F   UNL A   1      46.103  35.788  27.029  1.00  0.00    -0.200 F 
ATOM     95  F   UNL A   1      47.386  36.368  29.365  1.00  0.00    -0.200 F 
ENDBRANCH  62  85
ENDBRANCH  36  37
ENDBRANCH  28  31
ENDBRANCH  26  27
ENDBRANCH  25  26
ENDBRANCH   1  25
TORSDOF 14
ENDMDL
MODEL 3
REMARK VINA RESULT:     -12.5      0.598      7.282
REMARK SMILES O=C(Cc1cccc(NS(=O)(=O)c2cccc(Cl)c2)c1)NCCCNC(=O)c1ccc(-c2c3nc(c(-c4c(F)c(F)c(F)c(F)c4F)c4ccc([nH]4)c(-c4c(F)c(F)c(F)c(F)c4F)c4nc(c(-c5c(F)c(F)c(F)c(F)c5F)c5ccc2[nH]5)C=C4)C=C3)cc1
REMARK SMILES IDX 22 1 21 2 1 3 2 4 3 6 4 7 5 8 20 9 6 10 8 11 7 12 9 13 10 15
REMARK SMILES IDX 11 16 12 17 13 18 14 19 19 20 15 21 17 22 16 23 18 24 23 25
REMARK SMILES IDX 24 26 25 27 26 28 27 30 28 31 29 32 90 33 30 34 89 35 31 36
REMARK SMILES IDX 32 37 33 38 83 39 34 40 88 41 82 42 84 43 35 44 87 45 81 46
REMARK SMILES IDX 80 47 36 49 68 50 48 51 67 52 49 53 52 54 66 55 85 56 50 57
REMARK SMILES IDX 51 58 65 60 86 61 53 62 37 63 38 64 46 65 39 66 40 67 44 68
REMARK SMILES IDX 47 69 41 70 42 71 45 72 43 73 69 74 70 75 78 76 71 77 72 78
REMARK SMILES IDX 76 79 79 80 73 81 74 82 77 83 75 84 54 85 55 86 63 87 56 88
REMARK SMILES IDX 57 89 61 90 64 91 58 92 59 93 62 94 60 95
REMARK H PARENT 21 5 9 14 25 29 84 48 52 59
REMARK Flexibility Score: inf
ROOT
ATOM      1  C   UNL A   1      37.300  20.792  24.921  1.00  0.00     0.117 C 
ENDROOT
BRANCH   1   2
ATOM      2  N   UNL A   1      35.937  20.305  24.916  1.00  0.00    -0.356 N 
ATOM      3  O   UNL A   1      35.106  21.791  26.459  1.00  0.00    -0.275 OA
ATOM      4  C   UNL A   1      34.921  20.892  25.645  1.00  0.00     0.224 C 
ATOM      5  H   UNL A   1      35.724  19.516  24.367  1.00  0.00     0.163 HD
BRANCH   4   6
ATOM      6  C   UNL A   1      33.533  20.309  25.377  1.00  0.00     0.135 C 
BRANCH   6   7
ATOM      7  C   UNL A   1      32.539  21.375  24.959  1.00  0.00    -0.037 A 
ATOM      8  C   UNL A   1      31.591  21.834  25.880  1.00  0.00     0.004 A 
ATOM      9  C   UNL A   1      32.629  21.998  23.704  1.00  0.00     0.031 A 
ATOM     10  C   UNL A   1      30.869  22.994  25.613  1.00  0.00     0.002 A 
ATOM     11  C   UNL A   1      31.834  23.113  23.397  1.00  0.00     0.049 A 
ATOM     12  C   UNL A   1      31.052  23.670  24.405  1.00  0.00     0.027 A 
BRANCH  11  13
ATOM     13  N   UNL A   1      32.048  23.757  22.139  1.00  0.00    -0.280 N 
ATOM     14  H   UNL A   1      31.559  23.407  21.361  1.00  0.00     0.180 HD
BRANCH  13  15
ATOM     15  S   UNL A   1      33.081  25.079  21.884  1.00  0.00     0.261 S 
ATOM     16  O   UNL A   1      34.275  24.781  22.647  1.00  0.00    -0.201 OA
ATOM     17  O   UNL A   1      33.158  25.222  20.443  1.00  0.00    -0.201 OA
BRANCH  15  18
ATOM     18  C   UNL A   1      32.421  26.604  22.500  1.00  0.00     0.089 A 
ATOM     19  C   UNL A   1      33.250  27.641  22.939  1.00  0.00     0.022 A 
ATOM     20  C   UNL A   1      31.028  26.736  22.584  1.00  0.00     0.042 A 
ATOM     21  C   UNL A   1      32.686  28.856  23.332  1.00  0.00     0.003 A 
ATOM     22  C   UNL A   1      30.476  27.931  23.036  1.00  0.00     0.042 A 
ATOM     23  C   UNL A   1      31.298  29.003  23.376  1.00  0.00     0.020 A 
ATOM     24  Cl  UNL A   1      28.768  28.086  23.172  1.00  0.00    -0.084 Cl
ENDBRANCH  15  18
ENDBRANCH  13  15
ENDBRANCH  11  13
ENDBRANCH   6   7
ENDBRANCH   4   6
ENDBRANCH   1   2
BRANCH   1  25
ATOM     25  C   UNL A   1      38.324  19.667  24.992  1.00  0.00     0.042 C 
BRANCH  25  26
ATOM     26  C   UNL A   1      39.362  19.826  26.100  1.00  0.00     0.118 C 
BRANCH  26  27
ATOM     27  N   UNL A   1      40.512  18.944  25.951  1.00  0.00    -0.352 N 
ATOM     28  C   UNL A   1      41.856  19.223  26.009  1.00  0.00     0.251 C 
ATOM     29  H   UNL A   1      40.290  17.999  25.783  1.00  0.00     0.163 HD
ATOM     30  O   UNL A   1      42.670  18.349  25.724  1.00  0.00    -0.269 OA
BRANCH  28  31
ATOM     31  C   UNL A   1      42.335  20.574  26.381  1.00  0.00     0.039 A 
ATOM     32  C   UNL A   1      42.780  21.430  25.367  1.00  0.00     0.014 A 
ATOM     33  C   UNL A   1      42.368  20.998  27.711  1.00  0.00     0.014 A 
ATOM     34  C   UNL A   1      43.186  22.731  25.680  1.00  0.00     0.010 A 
ATOM     35  C   UNL A   1      42.699  22.318  28.012  1.00  0.00     0.010 A 
ATOM     36  C   UNL A   1      43.110  23.200  27.001  1.00  0.00    -0.014 A 
BRANCH  36  37
ATOM     37  C   UNL A   1      43.451  24.606  27.344  1.00  0.00     0.031 A 
ATOM     38  C   UNL A   1      44.888  25.048  27.395  1.00  0.00     0.074 A 
ATOM     39  C   UNL A   1      42.471  25.469  27.676  1.00  0.00     0.049 A 
ATOM     40  N   UNL A   1      45.388  26.203  27.759  1.00  0.00    -0.248 NA
ATOM     41  C   UNL A   1      45.899  24.052  27.010  1.00  0.00     0.031 C 
ATOM     42  C   UNL A   1      41.042  25.157  27.704  1.00  0.00     0.029 A 
ATOM     43  N   UNL A   1      42.530  26.785  28.070  1.00  0.00    -0.354 N 
ATOM     44  C   UNL A   1      46.767  26.066  27.660  1.00  0.00     0.074 A 
ATOM     45  C   UNL A   1      47.027  24.702  27.255  1.00  0.00     0.031 C 
ATOM     46  C   UNL A   1      40.359  26.252  28.074  1.00  0.00     0.029 A 
ATOM     47  C   UNL A   1      41.302  27.330  28.354  1.00  0.00     0.049 A 
ATOM     48  H   UNL A   1      43.373  27.289  28.142  1.00  0.00     0.167 HD
ATOM     49  C   UNL A   1      47.728  26.999  27.868  1.00  0.00     0.037 A 
ATOM     50  C   UNL A   1      40.973  28.557  28.804  1.00  0.00     0.037 A 
ATOM     51  C   UNL A   1      47.465  28.363  28.251  1.00  0.00     0.049 A 
ATOM     52  C   UNL A   1      42.061  29.568  29.050  1.00  0.00     0.074 A 
ATOM     53  C   UNL A   1      48.367  29.396  28.431  1.00  0.00     0.029 A 
ATOM     54  N   UNL A   1      46.206  28.880  28.521  1.00  0.00    -0.354 N 
ATOM     55  N   UNL A   1      43.357  29.446  28.892  1.00  0.00    -0.248 NA
ATOM     56  C   UNL A   1      41.640  30.890  29.534  1.00  0.00     0.031 C 
ATOM     57  C   UNL A   1      47.661  30.524  28.864  1.00  0.00     0.029 A 
ATOM     58  C   UNL A   1      46.312  30.212  28.892  1.00  0.00     0.049 A 
ATOM     59  H   UNL A   1      45.363  28.377  28.457  1.00  0.00     0.167 HD
ATOM     60  C   UNL A   1      43.900  30.679  29.224  1.00  0.00     0.074 A 
ATOM     61  C   UNL A   1      42.793  31.542  29.578  1.00  0.00     0.031 C 
ATOM     62  C   UNL A   1      45.201  31.063  29.233  1.00  0.00     0.037 A 
BRANCH  49  63
ATOM     63  C   UNL A   1      49.158  26.577  27.686  1.00  0.00     0.064 A 
ATOM     64  C   UNL A   1      49.743  26.481  26.414  1.00  0.00     0.173 A 
ATOM     65  C   UNL A   1      49.966  26.302  28.799  1.00  0.00     0.173 A 
ATOM     66  F   UNL A   1      49.013  26.724  25.314  1.00  0.00    -0.203 F 
ATOM     67  C   UNL A   1      51.072  26.095  26.262  1.00  0.00     0.198 A 
ATOM     68  C   UNL A   1      51.304  25.948  28.646  1.00  0.00     0.198 A 
ATOM     69  F   UNL A   1      49.461  26.385  30.040  1.00  0.00    -0.203 F 
ATOM     70  F   UNL A   1      51.593  25.958  25.035  1.00  0.00    -0.200 F 
ATOM     71  C   UNL A   1      51.854  25.836  27.378  1.00  0.00     0.200 A 
ATOM     72  F   UNL A   1      52.063  25.716  29.727  1.00  0.00    -0.200 F 
ATOM     73  F   UNL A   1      53.135  25.473  27.231  1.00  0.00    -0.200 F 
ENDBRANCH  49  63
BRANCH  50  74
ATOM     74  C   UNL A   1      39.547  28.906  29.040  1.00  0.00     0.064 A 
ATOM     75  C   UNL A   1      38.970  28.759  30.311  1.00  0.00     0.173 A 
ATOM     76  C   UNL A   1      38.727  29.378  28.005  1.00  0.00     0.173 A 
ATOM     77  F   UNL A   1      39.706  28.290  31.329  1.00  0.00    -0.203 F 
ATOM     78  C   UNL A   1      37.625  29.047  30.529  1.00  0.00     0.198 A 
ATOM     79  C   UNL A   1      37.391  29.696  28.233  1.00  0.00     0.198 A 
ATOM     80  F   UNL A   1      39.230  29.540  26.772  1.00  0.00    -0.203 F 
ATOM     81  F   UNL A   1      37.089  28.847  31.740  1.00  0.00    -0.200 F 
ATOM     82  C   UNL A   1      36.837  29.521  29.492  1.00  0.00     0.200 A 
ATOM     83  F   UNL A   1      36.636  30.168  27.230  1.00  0.00    -0.200 F 
ATOM     84  F   UNL A   1      35.544  29.800  29.703  1.00  0.00    -0.200 F 
ENDBRANCH  50  74
BRANCH  62  85
ATOM     85  C   UNL A   1      45.498  32.490  29.599  1.00  0.00     0.064 A 
ATOM     86  C   UNL A   1      45.757  32.877  30.923  1.00  0.00     0.173 A 
ATOM     87  C   UNL A   1      45.562  33.478  28.603  1.00  0.00     0.173 A 
ATOM     88  F   UNL A   1      45.693  31.975  31.914  1.00  0.00    -0.203 F 
ATOM     89  C   UNL A   1      46.040  34.204  31.238  1.00  0.00     0.198 A 
ATOM     90  C   UNL A   1      45.880  34.796  28.918  1.00  0.00     0.198 A 
ATOM     91  F   UNL A   1      45.331  33.161  27.320  1.00  0.00    -0.203 F 
ATOM     92  F   UNL A   1      46.233  34.559  32.517  1.00  0.00    -0.200 F 
ATOM     93  C   UNL A   1      46.111  35.159  30.235  1.00  0.00     0.200 A 
ATOM     94  F   UNL A   1      45.964  35.715  27.946  1.00  0.00    -0.200 F 
ATOM     95  F   UNL A   1      46.393  36.433  30.541  1.00  0.00    -0.200 F 
ENDBRANCH  62  85
ENDBRANCH  36  37
ENDBRANCH  28  31
ENDBRANCH  26  27
ENDBRANCH  25  26
ENDBRANCH   1  25
TORSDOF 14
ENDMDL
