MODEL 1
REMARK VINA RESULT:     -12.3      0.000      0.000
REMARK SMILES O=C(NCCCNC(=O)c1ccc(OC[C@H]2C[C@H]3CC[C@@H]2C3)c(Cl)c1)c1ccc(-c2c3nc(c(-c4c(F)c(F)c(F)c(F)c4F)c4ccc([nH]4)c(-c4c(F)c(F)c(F)c(F)c4F)c4nc(c(-c5c(F)c(F)c(F)c(F)c5F)c5ccc2[nH]5)C=C4)C=C3)cc1
REMARK SMILES IDX 5 1 4 2 3 3 1 4 2 5 26 7 27 8 88 9 28 10 87 11 29 12 30 13
REMARK SMILES IDX 31 14 81 15 32 16 86 17 80 18 82 19 33 20 85 21 79 22 78 23
REMARK SMILES IDX 34 25 66 26 46 27 65 28 47 29 50 30 64 31 83 32 48 33 49 34
REMARK SMILES IDX 63 36 84 37 51 38 35 39 36 40 44 41 37 42 38 43 42 44 45 45
REMARK SMILES IDX 39 46 40 47 43 48 41 49 67 50 68 51 76 52 69 53 70 54 74 55
REMARK SMILES IDX 77 56 71 57 72 58 75 59 73 60 52 61 53 62 61 63 54 64 55 65
REMARK SMILES IDX 59 66 62 67 56 68 57 69 60 70 58 71 6 72 7 73 8 74 9 76
REMARK SMILES IDX 10 77 11 78 25 79 12 80 23 81 13 82 24 83 14 84 15 85 16 86
REMARK SMILES IDX 17 87 21 88 18 89 20 90 22 91 19 92
REMARK H PARENT 3 6 82 24 50 35 7 75
REMARK Flexibility Score: inf
ROOT
ATOM      1  C   UNL A   1      32.204  28.193  25.460  1.00  0.00     0.042 C 
ENDROOT
BRANCH   1   2
ATOM      2  C   UNL A   1      33.266  29.286  25.419  1.00  0.00     0.118 C 
BRANCH   2   3
ATOM      3  N   UNL A   1      32.774  30.576  25.887  1.00  0.00    -0.352 N 
ATOM      4  O   UNL A   1      32.539  32.357  27.242  1.00  0.00    -0.269 OA
ATOM      5  C   UNL A   1      33.207  31.381  26.912  1.00  0.00     0.251 C 
ATOM      6  H   UNL A   1      32.004  30.929  25.385  1.00  0.00     0.163 HD
BRANCH   5   7
ATOM      7  C   UNL A   1      34.459  31.074  27.635  1.00  0.00     0.039 A 
ATOM      8  C   UNL A   1      34.721  29.783  28.095  1.00  0.00     0.014 A 
ATOM      9  C   UNL A   1      35.408  32.085  27.825  1.00  0.00     0.014 A 
ATOM     10  C   UNL A   1      35.840  29.544  28.882  1.00  0.00     0.010 A 
ATOM     11  C   UNL A   1      36.587  31.817  28.530  1.00  0.00     0.010 A 
ATOM     12  C   UNL A   1      36.797  30.551  29.093  1.00  0.00    -0.014 A 
BRANCH  12  13
ATOM     13  C   UNL A   1      38.031  30.207  29.845  1.00  0.00     0.031 A 
ATOM     14  C   UNL A   1      38.239  30.656  31.264  1.00  0.00     0.074 A 
ATOM     15  C   UNL A   1      38.940  29.410  29.247  1.00  0.00     0.049 A 
ATOM     16  N   UNL A   1      39.216  30.359  32.085  1.00  0.00    -0.248 NA
ATOM     17  C   UNL A   1      37.231  31.558  31.838  1.00  0.00     0.031 C 
ATOM     18  C   UNL A   1      38.857  28.939  27.862  1.00  0.00     0.029 A 
ATOM     19  N   UNL A   1      40.080  28.823  29.729  1.00  0.00    -0.354 N 
ATOM     20  C   UNL A   1      38.946  31.043  33.264  1.00  0.00     0.074 A 
ATOM     21  C   UNL A   1      37.730  31.795  33.044  1.00  0.00     0.031 C 
ATOM     22  C   UNL A   1      39.860  28.081  27.629  1.00  0.00     0.029 A 
ATOM     23  C   UNL A   1      40.689  27.988  28.825  1.00  0.00     0.049 A 
ATOM     24  H   UNL A   1      40.429  28.983  30.636  1.00  0.00     0.167 HD
ATOM     25  C   UNL A   1      39.648  31.033  34.423  1.00  0.00     0.037 A 
ATOM     26  C   UNL A   1      41.794  27.230  28.942  1.00  0.00     0.037 A 
ATOM     27  C   UNL A   1      40.852  30.271  34.640  1.00  0.00     0.049 A 
ATOM     28  C   UNL A   1      42.537  27.227  30.245  1.00  0.00     0.074 A 
ATOM     29  C   UNL A   1      41.631  30.190  35.783  1.00  0.00     0.029 A 
ATOM     30  N   UNL A   1      41.451  29.454  33.693  1.00  0.00    -0.354 N 
ATOM     31  N   UNL A   1      42.259  27.864  31.356  1.00  0.00    -0.248 NA
ATOM     32  C   UNL A   1      43.748  26.398  30.312  1.00  0.00     0.031 C 
ATOM     33  C   UNL A   1      42.717  29.349  35.517  1.00  0.00     0.029 A 
ATOM     34  C   UNL A   1      42.594  28.874  34.222  1.00  0.00     0.049 A 
ATOM     35  H   UNL A   1      41.115  29.306  32.780  1.00  0.00     0.167 HD
ATOM     36  C   UNL A   1      43.259  27.521  32.252  1.00  0.00     0.074 A 
ATOM     37  C   UNL A   1      44.128  26.584  31.569  1.00  0.00     0.031 C 
ATOM     38  C   UNL A   1      43.452  27.954  33.521  1.00  0.00     0.037 A 
BRANCH  25  39
ATOM     39  C   UNL A   1      39.137  31.873  35.556  1.00  0.00     0.064 A 
ATOM     40  C   UNL A   1      38.274  31.345  36.529  1.00  0.00     0.173 A 
ATOM     41  C   UNL A   1      39.568  33.199  35.712  1.00  0.00     0.173 A 
ATOM     42  F   UNL A   1      37.825  30.086  36.420  1.00  0.00    -0.203 F 
ATOM     43  C   UNL A   1      37.854  32.118  37.609  1.00  0.00     0.198 A 
ATOM     44  C   UNL A   1      39.164  33.961  36.806  1.00  0.00     0.198 A 
ATOM     45  F   UNL A   1      40.397  33.750  34.814  1.00  0.00    -0.203 F 
ATOM     46  F   UNL A   1      37.008  31.602  38.512  1.00  0.00    -0.200 F 
ATOM     47  C   UNL A   1      38.306  33.422  37.751  1.00  0.00     0.200 A 
ATOM     48  F   UNL A   1      39.610  35.218  36.948  1.00  0.00    -0.200 F 
ATOM     49  F   UNL A   1      37.911  34.159  38.799  1.00  0.00    -0.200 F 
ENDBRANCH  25  39
BRANCH  26  50
ATOM     50  C   UNL A   1      42.260  26.421  27.787  1.00  0.00     0.064 A 
ATOM     51  C   UNL A   1      41.748  25.140  27.545  1.00  0.00     0.173 A 
ATOM     52  C   UNL A   1      43.220  26.921  26.895  1.00  0.00     0.173 A 
ATOM     53  F   UNL A   1      40.841  24.612  28.380  1.00  0.00    -0.203 F 
ATOM     54  C   UNL A   1      42.191  24.382  26.463  1.00  0.00     0.198 A 
ATOM     55  C   UNL A   1      43.640  26.175  25.796  1.00  0.00     0.198 A 
ATOM     56  F   UNL A   1      43.737  28.145  27.080  1.00  0.00    -0.203 F 
ATOM     57  F   UNL A   1      41.718  23.142  26.278  1.00  0.00    -0.200 F 
ATOM     58  C   UNL A   1      43.132  24.903  25.586  1.00  0.00     0.200 A 
ATOM     59  F   UNL A   1      44.535  26.690  24.942  1.00  0.00    -0.200 F 
ATOM     60  F   UNL A   1      43.551  24.176  24.542  1.00  0.00    -0.200 F 
ENDBRANCH  26  50
BRANCH  38  61
ATOM     61  C   UNL A   1      44.652  27.415  34.240  1.00  0.00     0.064 A 
ATOM     62  C   UNL A   1      44.590  26.215  34.963  1.00  0.00     0.173 A 
ATOM     63  C   UNL A   1      45.872  28.105  34.208  1.00  0.00     0.173 A 
ATOM     64  F   UNL A   1      43.438  25.530  35.036  1.00  0.00    -0.203 F 
ATOM     65  C   UNL A   1      45.699  25.741  35.656  1.00  0.00     0.198 A 
ATOM     66  C   UNL A   1      46.987  27.613  34.881  1.00  0.00     0.198 A 
ATOM     67  F   UNL A   1      45.982  29.255  33.528  1.00  0.00    -0.203 F 
ATOM     68  F   UNL A   1      45.603  24.620  36.385  1.00  0.00    -0.200 F 
ATOM     69  C   UNL A   1      46.897  26.437  35.612  1.00  0.00     0.200 A 
ATOM     70  F   UNL A   1      48.148  28.282  34.831  1.00  0.00    -0.200 F 
ATOM     71  F   UNL A   1      47.963  25.982  36.284  1.00  0.00    -0.200 F 
ENDBRANCH  38  61
ENDBRANCH  12  13
ENDBRANCH   5   7
ENDBRANCH   2   3
ENDBRANCH   1   2
BRANCH   1  72
ATOM     72  C   UNL A   1      31.758  27.718  24.084  1.00  0.00     0.118 C 
BRANCH  72  73
ATOM     73  N   UNL A   1      30.318  27.529  24.019  1.00  0.00    -0.352 N 
ATOM     74  C   UNL A   1      29.602  26.360  24.111  1.00  0.00     0.251 C 
ATOM     75  H   UNL A   1      29.785  28.347  23.893  1.00  0.00     0.163 HD
ATOM     76  O   UNL A   1      28.407  26.323  23.877  1.00  0.00    -0.269 OA
BRANCH  74  77
ATOM     77  C   UNL A   1      30.314  25.136  24.507  1.00  0.00     0.041 A 
ATOM     78  C   UNL A   1      30.639  24.938  25.847  1.00  0.00     0.018 A 
ATOM     79  C   UNL A   1      30.695  24.217  23.529  1.00  0.00     0.038 A 
ATOM     80  C   UNL A   1      31.349  23.797  26.209  1.00  0.00     0.049 A 
ATOM     81  C   UNL A   1      31.444  23.094  23.894  1.00  0.00     0.083 A 
ATOM     82  C   UNL A   1      31.733  22.854  25.244  1.00  0.00     0.137 A 
ATOM     83  Cl  UNL A   1      32.100  22.152  22.605  1.00  0.00    -0.080 Cl
BRANCH  82  84
ATOM     84  O   UNL A   1      32.471  21.829  25.758  1.00  0.00    -0.492 OA
BRANCH  84  85
ATOM     85  C   UNL A   1      33.534  22.116  26.676  1.00  0.00     0.233 C 
BRANCH  85  86
ATOM     86  C   UNL A   1      34.964  21.965  26.127  1.00  0.00     0.030 C 
ATOM     87  C   UNL A   1      35.016  21.535  24.639  1.00  0.00     0.011 C 
ATOM     88  C   UNL A   1      35.777  23.291  26.094  1.00  0.00    -0.004 C 
ATOM     89  C   UNL A   1      35.840  22.648  23.968  1.00  0.00    -0.010 C 
ATOM     90  C   UNL A   1      35.006  24.411  25.374  1.00  0.00     0.004 C 
ATOM     91  C   UNL A   1      36.857  22.974  25.056  1.00  0.00     0.007 C 
ATOM     92  C   UNL A   1      34.988  23.930  23.918  1.00  0.00     0.004 C 
ENDBRANCH  85  86
ENDBRANCH  84  85
ENDBRANCH  82  84
ENDBRANCH  74  77
ENDBRANCH  72  73
ENDBRANCH   1  72
TORSDOF 13
ENDMDL
MODEL 2
REMARK VINA RESULT:     -12.2      1.705      2.517
REMARK SMILES O=C(NCCCNC(=O)c1ccc(OC[C@H]2C[C@H]3CC[C@@H]2C3)c(Cl)c1)c1ccc(-c2c3nc(c(-c4c(F)c(F)c(F)c(F)c4F)c4ccc([nH]4)c(-c4c(F)c(F)c(F)c(F)c4F)c4nc(c(-c5c(F)c(F)c(F)c(F)c5F)c5ccc2[nH]5)C=C4)C=C3)cc1
REMARK SMILES IDX 5 1 4 2 3 3 1 4 2 5 26 7 27 8 88 9 28 10 87 11 29 12 30 13
REMARK SMILES IDX 31 14 81 15 32 16 86 17 80 18 82 19 33 20 85 21 79 22 78 23
REMARK SMILES IDX 34 25 66 26 46 27 65 28 47 29 50 30 64 31 83 32 48 33 49 34
REMARK SMILES IDX 63 36 84 37 51 38 35 39 36 40 44 41 37 42 38 43 42 44 45 45
REMARK SMILES IDX 39 46 40 47 43 48 41 49 67 50 68 51 76 52 69 53 70 54 74 55
REMARK SMILES IDX 77 56 71 57 72 58 75 59 73 60 52 61 53 62 61 63 54 64 55 65
REMARK SMILES IDX 59 66 62 67 56 68 57 69 60 70 58 71 6 72 7 73 8 74 9 76
REMARK SMILES IDX 10 77 11 78 25 79 12 80 23 81 13 82 24 83 14 84 15 85 16 86
REMARK SMILES IDX 17 87 21 88 18 89 20 90 22 91 19 92
REMARK H PARENT 3 6 82 24 50 35 7 75
REMARK Flexibility Score: inf
ROOT
ATOM      1  C   UNL A   1      32.662  28.441  24.108  1.00  0.00     0.042 C 
ENDROOT
BRANCH   1   2
ATOM      2  C   UNL A   1      33.476  29.069  25.233  1.00  0.00     0.118 C 
BRANCH   2   3
ATOM      3  N   UNL A   1      32.870  30.284  25.765  1.00  0.00    -0.352 N 
ATOM      4  O   UNL A   1      32.474  31.962  27.211  1.00  0.00    -0.269 OA
ATOM      5  C   UNL A   1      33.228  31.068  26.835  1.00  0.00     0.251 C 
ATOM      6  H   UNL A   1      32.072  30.593  25.278  1.00  0.00     0.163 HD
BRANCH   5   7
ATOM      7  C   UNL A   1      34.501  30.836  27.549  1.00  0.00     0.039 A 
ATOM      8  C   UNL A   1      34.827  29.570  28.037  1.00  0.00     0.014 A 
ATOM      9  C   UNL A   1      35.406  31.893  27.702  1.00  0.00     0.014 A 
ATOM     10  C   UNL A   1      35.965  29.401  28.814  1.00  0.00     0.010 A 
ATOM     11  C   UNL A   1      36.604  31.696  28.397  1.00  0.00     0.010 A 
ATOM     12  C   UNL A   1      36.878  30.455  28.988  1.00  0.00    -0.014 A 
BRANCH  12  13
ATOM     13  C   UNL A   1      38.135  30.186  29.732  1.00  0.00     0.031 A 
ATOM     14  C   UNL A   1      38.338  30.674  31.139  1.00  0.00     0.074 A 
ATOM     15  C   UNL A   1      39.073  29.420  29.140  1.00  0.00     0.049 A 
ATOM     16  N   UNL A   1      39.336  30.441  31.954  1.00  0.00    -0.248 NA
ATOM     17  C   UNL A   1      37.294  31.540  31.706  1.00  0.00     0.031 C 
ATOM     18  C   UNL A   1      38.998  28.915  27.766  1.00  0.00     0.029 A 
ATOM     19  N   UNL A   1      40.246  28.897  29.620  1.00  0.00    -0.354 N 
ATOM     20  C   UNL A   1      39.048  31.137  33.121  1.00  0.00     0.074 A 
ATOM     21  C   UNL A   1      37.794  31.826  32.901  1.00  0.00     0.031 C 
ATOM     22  C   UNL A   1      40.037  28.101  27.538  1.00  0.00     0.029 A 
ATOM     23  C   UNL A   1      40.883  28.072  28.726  1.00  0.00     0.049 A 
ATOM     24  H   UNL A   1      40.597  29.093  30.519  1.00  0.00     0.167 HD
ATOM     25  C   UNL A   1      39.763  31.184  34.272  1.00  0.00     0.037 A 
ATOM     26  C   UNL A   1      42.025  27.370  28.845  1.00  0.00     0.037 A 
ATOM     27  C   UNL A   1      41.003  30.485  34.489  1.00  0.00     0.049 A 
ATOM     28  C   UNL A   1      42.781  27.430  30.139  1.00  0.00     0.074 A 
ATOM     29  C   UNL A   1      41.798  30.466  35.625  1.00  0.00     0.029 A 
ATOM     30  N   UNL A   1      41.630  29.677  33.553  1.00  0.00    -0.354 N 
ATOM     31  N   UNL A   1      42.485  28.078  31.239  1.00  0.00    -0.248 NA
ATOM     32  C   UNL A   1      44.030  26.661  30.209  1.00  0.00     0.031 C 
ATOM     33  C   UNL A   1      42.919  29.671  35.363  1.00  0.00     0.029 A 
ATOM     34  C   UNL A   1      42.805  29.163  34.080  1.00  0.00     0.049 A 
ATOM     35  H   UNL A   1      41.290  29.494  32.647  1.00  0.00     0.167 HD
ATOM     36  C   UNL A   1      43.511  27.801  32.130  1.00  0.00     0.074 A 
ATOM     37  C   UNL A   1      44.416  26.892  31.456  1.00  0.00     0.031 C 
ATOM     38  C   UNL A   1      43.697  28.269  33.388  1.00  0.00     0.037 A 
BRANCH  25  39
ATOM     39  C   UNL A   1      39.225  32.024  35.393  1.00  0.00     0.064 A 
ATOM     40  C   UNL A   1      38.420  31.471  36.401  1.00  0.00     0.173 A 
ATOM     41  C   UNL A   1      39.573  33.379  35.502  1.00  0.00     0.173 A 
ATOM     42  F   UNL A   1      38.049  30.184  36.338  1.00  0.00    -0.203 F 
ATOM     43  C   UNL A   1      37.976  32.247  37.470  1.00  0.00     0.198 A 
ATOM     44  C   UNL A   1      39.147  34.146  36.583  1.00  0.00     0.198 A 
ATOM     45  F   UNL A   1      40.346  33.954  34.568  1.00  0.00    -0.203 F 
ATOM     46  F   UNL A   1      37.185  31.706  38.407  1.00  0.00    -0.200 F 
ATOM     47  C   UNL A   1      38.347  33.581  37.564  1.00  0.00     0.200 A 
ATOM     48  F   UNL A   1      39.515  35.431  36.679  1.00  0.00    -0.200 F 
ATOM     49  F   UNL A   1      37.930  34.322  38.600  1.00  0.00    -0.200 F 
ENDBRANCH  25  39
BRANCH  26  50
ATOM     50  C   UNL A   1      42.515  26.559  27.702  1.00  0.00     0.064 A 
ATOM     51  C   UNL A   1      42.050  25.256  27.484  1.00  0.00     0.173 A 
ATOM     52  C   UNL A   1      43.452  27.079  26.796  1.00  0.00     0.173 A 
ATOM     53  F   UNL A   1      41.167  24.710  28.332  1.00  0.00    -0.203 F 
ATOM     54  C   UNL A   1      42.517  24.497  26.413  1.00  0.00     0.198 A 
ATOM     55  C   UNL A   1      43.894  26.331  25.709  1.00  0.00     0.198 A 
ATOM     56  F   UNL A   1      43.923  28.325  26.959  1.00  0.00    -0.203 F 
ATOM     57  F   UNL A   1      42.089  23.237  26.251  1.00  0.00    -0.200 F 
ATOM     58  C   UNL A   1      43.433  25.038  25.523  1.00  0.00     0.200 A 
ATOM     59  F   UNL A   1      44.766  26.865  24.841  1.00  0.00    -0.200 F 
ATOM     60  F   UNL A   1      43.875  24.309  24.489  1.00  0.00    -0.200 F 
ENDBRANCH  26  50
BRANCH  38  61
ATOM     61  C   UNL A   1      44.929  27.803  34.103  1.00  0.00     0.064 A 
ATOM     62  C   UNL A   1      46.134  28.516  34.021  1.00  0.00     0.173 A 
ATOM     63  C   UNL A   1      44.906  26.634  34.877  1.00  0.00     0.173 A 
ATOM     64  F   UNL A   1      46.208  29.631  33.277  1.00  0.00    -0.203 F 
ATOM     65  C   UNL A   1      47.281  28.057  34.660  1.00  0.00     0.198 A 
ATOM     66  C   UNL A   1      46.048  26.193  35.538  1.00  0.00     0.198 A 
ATOM     67  F   UNL A   1      43.776  25.920  34.991  1.00  0.00    -0.203 F 
ATOM     68  F   UNL A   1      48.435  28.725  34.522  1.00  0.00    -0.200 F 
ATOM     69  C   UNL A   1      47.237  26.899  35.421  1.00  0.00     0.200 A 
ATOM     70  F   UNL A   1      46.004  25.078  36.280  1.00  0.00    -0.200 F 
ATOM     71  F   UNL A   1      48.344  26.456  36.033  1.00  0.00    -0.200 F 
ENDBRANCH  38  61
ENDBRANCH  12  13
ENDBRANCH   5   7
ENDBRANCH   2   3
ENDBRANCH   1   2
BRANCH   1  72
ATOM     72  C   UNL A   1      32.955  26.963  23.889  1.00  0.00     0.118 C 
BRANCH  72  73
ATOM     73  N   UNL A   1      32.914  26.608  22.480  1.00  0.00    -0.352 N 
ATOM     74  C   UNL A   1      33.089  25.374  21.901  1.00  0.00     0.251 C 
ATOM     75  H   UNL A   1      32.736  27.350  21.858  1.00  0.00     0.163 HD
ATOM     76  O   UNL A   1      33.191  25.244  20.694  1.00  0.00    -0.269 OA
BRANCH  74  77
ATOM     77  C   UNL A   1      33.148  24.195  22.778  1.00  0.00     0.041 A 
ATOM     78  C   UNL A   1      31.972  23.699  23.335  1.00  0.00     0.018 A 
ATOM     79  C   UNL A   1      34.385  23.623  23.076  1.00  0.00     0.038 A 
ATOM     80  C   UNL A   1      32.040  22.608  24.197  1.00  0.00     0.049 A 
ATOM     81  C   UNL A   1      34.451  22.553  23.975  1.00  0.00     0.083 A 
ATOM     82  C   UNL A   1      33.271  22.009  24.502  1.00  0.00     0.137 A 
ATOM     83  Cl  UNL A   1      36.026  22.078  24.493  1.00  0.00    -0.080 Cl
BRANCH  82  84
ATOM     84  O   UNL A   1      33.166  20.994  25.406  1.00  0.00    -0.492 OA
BRANCH  84  85
ATOM     85  C   UNL A   1      32.559  19.757  25.011  1.00  0.00     0.233 C 
BRANCH  85  86
ATOM     86  C   UNL A   1      33.360  18.896  24.018  1.00  0.00     0.030 C 
ATOM     87  C   UNL A   1      34.761  18.485  24.540  1.00  0.00     0.011 C 
ATOM     88  C   UNL A   1      32.723  17.507  23.720  1.00  0.00    -0.004 C 
ATOM     89  C   UNL A   1      34.739  16.948  24.468  1.00  0.00    -0.010 C 
ATOM     90  C   UNL A   1      32.407  16.739  25.015  1.00  0.00     0.004 C 
ATOM     91  C   UNL A   1      33.924  16.713  23.200  1.00  0.00     0.007 C 
ATOM     92  C   UNL A   1      33.802  16.416  25.567  1.00  0.00     0.004 C 
ENDBRANCH  85  86
ENDBRANCH  84  85
ENDBRANCH  82  84
ENDBRANCH  74  77
ENDBRANCH  72  73
ENDBRANCH   1  72
TORSDOF 13
ENDMDL
MODEL 3
REMARK VINA RESULT:     -12.2      1.852      3.165
REMARK SMILES O=C(NCCCNC(=O)c1ccc(OC[C@H]2C[C@H]3CC[C@@H]2C3)c(Cl)c1)c1ccc(-c2c3nc(c(-c4c(F)c(F)c(F)c(F)c4F)c4ccc([nH]4)c(-c4c(F)c(F)c(F)c(F)c4F)c4nc(c(-c5c(F)c(F)c(F)c(F)c5F)c5ccc2[nH]5)C=C4)C=C3)cc1
REMARK SMILES IDX 5 1 4 2 3 3 1 4 2 5 26 7 27 8 88 9 28 10 87 11 29 12 30 13
REMARK SMILES IDX 31 14 81 15 32 16 86 17 80 18 82 19 33 20 85 21 79 22 78 23
REMARK SMILES IDX 34 25 66 26 46 27 65 28 47 29 50 30 64 31 83 32 48 33 49 34
REMARK SMILES IDX 63 36 84 37 51 38 35 39 36 40 44 41 37 42 38 43 42 44 45 45
REMARK SMILES IDX 39 46 40 47 43 48 41 49 67 50 68 51 76 52 69 53 70 54 74 55
REMARK SMILES IDX 77 56 71 57 72 58 75 59 73 60 52 61 53 62 61 63 54 64 55 65
REMARK SMILES IDX 59 66 62 67 56 68 57 69 60 70 58 71 6 72 7 73 8 74 9 76
REMARK SMILES IDX 10 77 11 78 25 79 12 80 23 81 13 82 24 83 14 84 15 85 16 86
REMARK SMILES IDX 17 87 21 88 18 89 20 90 22 91 19 92
REMARK H PARENT 3 6 82 24 50 35 7 75
REMARK Flexibility Score: inf
ROOT
ATOM      1  C   UNL A   1      31.524  32.012  26.876  1.00  0.00     0.042 C 
ENDROOT
BRANCH   1   2
ATOM      2  C   UNL A   1      32.704  32.978  26.879  1.00  0.00     0.118 C 
BRANCH   2   3
ATOM      3  N   UNL A   1      32.436  34.203  27.622  1.00  0.00    -0.352 N 
ATOM      4  O   UNL A   1      32.528  35.684  29.314  1.00  0.00    -0.269 OA
ATOM      5  C   UNL A   1      33.024  34.709  28.755  1.00  0.00     0.251 C 
ATOM      6  H   UNL A   1      31.713  34.759  27.251  1.00  0.00     0.163 HD
BRANCH   5   7
ATOM      7  C   UNL A   1      34.238  34.082  29.321  1.00  0.00     0.039 A 
ATOM      8  C   UNL A   1      34.142  32.989  30.183  1.00  0.00     0.014 A 
ATOM      9  C   UNL A   1      35.497  34.569  28.954  1.00  0.00     0.014 A 
ATOM     10  C   UNL A   1      35.283  32.497  30.803  1.00  0.00     0.010 A 
ATOM     11  C   UNL A   1      36.655  34.003  29.499  1.00  0.00     0.010 A 
ATOM     12  C   UNL A   1      36.555  32.982  30.455  1.00  0.00    -0.014 A 
BRANCH  12  13
ATOM     13  C   UNL A   1      37.748  32.340  31.063  1.00  0.00     0.031 A 
ATOM     14  C   UNL A   1      38.178  32.649  32.470  1.00  0.00     0.074 A 
ATOM     15  C   UNL A   1      38.402  31.404  30.347  1.00  0.00     0.049 A 
ATOM     16  N   UNL A   1      39.137  32.103  33.175  1.00  0.00    -0.248 NA
ATOM     17  C   UNL A   1      37.447  33.711  33.177  1.00  0.00     0.031 C 
ATOM     18  C   UNL A   1      38.092  31.043  28.961  1.00  0.00     0.029 A 
ATOM     19  N   UNL A   1      39.426  30.559  30.687  1.00  0.00    -0.354 N 
ATOM     20  C   UNL A   1      39.133  32.759  34.400  1.00  0.00     0.074 A 
ATOM     21  C   UNL A   1      38.094  33.765  34.334  1.00  0.00     0.031 C 
ATOM     22  C   UNL A   1      38.858  30.006  28.594  1.00  0.00     0.029 A 
ATOM     23  C   UNL A   1      39.753  29.668  29.695  1.00  0.00     0.049 A 
ATOM     24  H   UNL A   1      39.883  30.588  31.559  1.00  0.00     0.167 HD
ATOM     25  C   UNL A   1      39.919  32.531  35.480  1.00  0.00     0.037 A 
ATOM     26  C   UNL A   1      40.672  28.687  29.669  1.00  0.00     0.037 A 
ATOM     27  C   UNL A   1      40.942  31.519  35.544  1.00  0.00     0.049 A 
ATOM     28  C   UNL A   1      41.512  28.449  30.889  1.00  0.00     0.074 A 
ATOM     29  C   UNL A   1      41.786  31.207  36.598  1.00  0.00     0.029 A 
ATOM     30  N   UNL A   1      41.260  30.650  34.511  1.00  0.00    -0.354 N 
ATOM     31  N   UNL A   1      41.483  29.065  32.045  1.00  0.00    -0.248 NA
ATOM     32  C   UNL A   1      42.514  27.379  30.801  1.00  0.00     0.031 C 
ATOM     33  C   UNL A   1      42.633  30.171  36.191  1.00  0.00     0.029 A 
ATOM     34  C   UNL A   1      42.292  29.809  34.898  1.00  0.00     0.049 A 
ATOM     35  H   UNL A   1      40.816  30.631  33.632  1.00  0.00     0.167 HD
ATOM     36  C   UNL A   1      42.462  28.464  32.821  1.00  0.00     0.074 A 
ATOM     37  C   UNL A   1      43.040  27.405  32.018  1.00  0.00     0.031 C 
ATOM     38  C   UNL A   1      42.861  28.770  34.079  1.00  0.00     0.037 A 
BRANCH  25  39
ATOM     39  C   UNL A   1      39.709  33.393  36.690  1.00  0.00     0.064 A 
ATOM     40  C   UNL A   1      40.365  34.625  36.834  1.00  0.00     0.173 A 
ATOM     41  C   UNL A   1      38.792  33.019  37.684  1.00  0.00     0.173 A 
ATOM     42  F   UNL A   1      41.260  35.024  35.918  1.00  0.00    -0.203 F 
ATOM     43  C   UNL A   1      40.117  35.445  37.933  1.00  0.00     0.198 A 
ATOM     44  C   UNL A   1      38.529  33.851  38.769  1.00  0.00     0.198 A 
ATOM     45  F   UNL A   1      38.134  31.854  37.591  1.00  0.00    -0.203 F 
ATOM     46  F   UNL A   1      40.775  36.606  38.064  1.00  0.00    -0.200 F 
ATOM     47  C   UNL A   1      39.194  35.061  38.895  1.00  0.00     0.200 A 
ATOM     48  F   UNL A   1      37.628  33.484  39.692  1.00  0.00    -0.200 F 
ATOM     49  F   UNL A   1      38.946  35.858  39.944  1.00  0.00    -0.200 F 
ENDBRANCH  25  39
BRANCH  26  50
ATOM     50  C   UNL A   1      40.842  27.866  28.444  1.00  0.00     0.064 A 
ATOM     51  C   UNL A   1      40.156  26.656  28.279  1.00  0.00     0.173 A 
ATOM     52  C   UNL A   1      41.688  28.284  27.405  1.00  0.00     0.173 A 
ATOM     53  F   UNL A   1      39.349  26.206  29.251  1.00  0.00    -0.203 F 
ATOM     54  C   UNL A   1      40.322  25.887  27.130  1.00  0.00     0.198 A 
ATOM     55  C   UNL A   1      41.830  27.530  26.244  1.00  0.00     0.198 A 
ATOM     56  F   UNL A   1      42.363  29.439  27.513  1.00  0.00    -0.203 F 
ATOM     57  F   UNL A   1      39.688  24.711  27.015  1.00  0.00    -0.200 F 
ATOM     58  C   UNL A   1      41.154  26.328  26.110  1.00  0.00     0.200 A 
ATOM     59  F   UNL A   1      42.620  27.970  25.254  1.00  0.00    -0.200 F 
ATOM     60  F   UNL A   1      41.307  25.591  25.002  1.00  0.00    -0.200 F 
ENDBRANCH  26  50
BRANCH  38  61
ATOM     61  C   UNL A   1      43.975  27.947  34.651  1.00  0.00     0.064 A 
ATOM     62  C   UNL A   1      45.311  28.362  34.556  1.00  0.00     0.173 A 
ATOM     63  C   UNL A   1      43.705  26.733  35.300  1.00  0.00     0.173 A 
ATOM     64  F   UNL A   1      45.618  29.507  33.928  1.00  0.00    -0.203 F 
ATOM     65  C   UNL A   1      46.341  27.574  35.059  1.00  0.00     0.198 A 
ATOM     66  C   UNL A   1      44.736  25.961  35.827  1.00  0.00     0.198 A 
ATOM     67  F   UNL A   1      42.443  26.296  35.420  1.00  0.00    -0.203 F 
ATOM     68  F   UNL A   1      47.615  27.963  34.908  1.00  0.00    -0.200 F 
ATOM     69  C   UNL A   1      46.053  26.377  35.697  1.00  0.00     0.200 A 
ATOM     70  F   UNL A   1      44.458  24.808  36.450  1.00  0.00    -0.200 F 
ATOM     71  F   UNL A   1      47.048  25.617  36.178  1.00  0.00    -0.200 F 
ENDBRANCH  38  61
ENDBRANCH  12  13
ENDBRANCH   5   7
ENDBRANCH   2   3
ENDBRANCH   1   2
BRANCH   1  72
ATOM     72  C   UNL A   1      31.917  30.564  26.614  1.00  0.00     0.118 C 
BRANCH  72  73
ATOM     73  N   UNL A   1      33.305  30.311  26.962  1.00  0.00    -0.352 N 
ATOM     74  C   UNL A   1      34.045  29.172  26.757  1.00  0.00     0.251 C 
ATOM     75  H   UNL A   1      33.778  31.053  27.402  1.00  0.00     0.163 HD
ATOM     76  O   UNL A   1      35.153  29.034  27.246  1.00  0.00    -0.269 OA
BRANCH  74  77
ATOM     77  C   UNL A   1      33.469  28.106  25.923  1.00  0.00     0.041 A 
ATOM     78  C   UNL A   1      32.799  27.049  26.534  1.00  0.00     0.018 A 
ATOM     79  C   UNL A   1      33.645  28.147  24.540  1.00  0.00     0.038 A 
ATOM     80  C   UNL A   1      32.292  26.022  25.742  1.00  0.00     0.049 A 
ATOM     81  C   UNL A   1      33.169  27.092  23.755  1.00  0.00     0.083 A 
ATOM     82  C   UNL A   1      32.446  26.047  24.348  1.00  0.00     0.137 A 
ATOM     83  Cl  UNL A   1      33.654  27.084  22.099  1.00  0.00    -0.080 Cl
BRANCH  82  84
ATOM     84  O   UNL A   1      31.945  24.940  23.732  1.00  0.00    -0.492 OA
BRANCH  84  85
ATOM     85  C   UNL A   1      32.054  23.663  24.375  1.00  0.00     0.233 C 
BRANCH  85  86
ATOM     86  C   UNL A   1      33.230  22.777  23.927  1.00  0.00     0.030 C 
ATOM     87  C   UNL A   1      34.315  23.542  23.125  1.00  0.00     0.011 C 
ATOM     88  C   UNL A   1      34.069  22.191  25.100  1.00  0.00    -0.004 C 
ATOM     89  C   UNL A   1      35.603  23.291  23.928  1.00  0.00    -0.010 C 
ATOM     90  C   UNL A   1      34.523  23.289  26.076  1.00  0.00     0.004 C 
ATOM     91  C   UNL A   1      35.393  21.858  24.406  1.00  0.00     0.007 C 
ATOM     92  C   UNL A   1      35.530  24.092  25.241  1.00  0.00     0.004 C 
ENDBRANCH  85  86
ENDBRANCH  84  85
ENDBRANCH  82  84
ENDBRANCH  74  77
ENDBRANCH  72  73
ENDBRANCH   1  72
TORSDOF 13
ENDMDL
