MODEL 1
REMARK VINA RESULT:     -13.1      0.000      0.000
REMARK SMILES O=C(NCCCNC(=O)[C@H](CO)NC(=O)[C@H](CS)NC(=O)[C@H](Cc1ccccc1)NC(=O)c1ccc(F)cc1)c1ccc(-c2c3nc(c(-c4c(F)c(F)c(F)c(F)c4F)c4ccc([nH]4)c(-c4c(F)c(F)c(F)c(F)c4F)c4nc(c(-c5c(F)c(F)c(F)c(F)c5F)c5ccc2[nH]5)C=C4)C=C3)cc1
REMARK SMILES IDX 7 1 8 2 9 3 6 5 5 6 4 7 3 8 1 9 2 10 40 12 41 13 102 14
REMARK SMILES IDX 42 15 101 16 43 17 44 18 45 19 95 20 46 21 100 22 94 23
REMARK SMILES IDX 96 24 47 25 99 26 93 27 92 28 48 30 80 31 60 32 79 33 61 34
REMARK SMILES IDX 64 35 78 36 97 37 62 38 63 39 77 41 98 42 65 43 49 44 50 45
REMARK SMILES IDX 58 46 51 47 52 48 56 49 59 50 53 51 54 52 57 53 55 54 81 55
REMARK SMILES IDX 82 56 90 57 83 58 84 59 88 60 91 61 85 62 86 63 89 64 87 65
REMARK SMILES IDX 66 66 67 67 75 68 68 69 69 70 73 71 76 72 70 73 71 74 74 75
REMARK SMILES IDX 72 76 10 77 13 78 14 79 15 81 16 82 19 83 20 84 21 86 22 87
REMARK SMILES IDX 30 88 31 89 32 91 33 92 34 93 39 94 35 95 38 96 36 97 37 98
REMARK SMILES IDX 23 99 24 100 25 101 29 102 26 103 28 104 27 105 17 106
REMARK SMILES IDX 18 107 11 109 12 110
REMARK H PARENT 7 4 3 11 96 29 64 40 13 80 19 85 30 90 18 108 12 111
REMARK Flexibility Score: inf
ROOT
ATOM      1  N   UNL A   1      29.764  31.505  24.212  1.00  0.00    -0.354 N 
ATOM      2  C   UNL A   1      29.496  30.699  23.152  1.00  0.00     0.244 C 
ATOM      3  O   UNL A   1      28.656  31.296  22.433  1.00  0.00    -0.273 OA
ATOM      4  H   UNL A   1      29.165  32.283  24.154  1.00  0.00     0.163 HD
ENDROOT
BRANCH   1   5
ATOM      5  C   UNL A   1      30.599  31.674  25.416  1.00  0.00     0.117 C 
BRANCH   5   6
ATOM      6  C   UNL A   1      31.372  30.404  25.811  1.00  0.00     0.042 C 
BRANCH   6   7
ATOM      7  C   UNL A   1      32.534  30.629  26.766  1.00  0.00     0.118 C 
BRANCH   7   8
ATOM      8  N   UNL A   1      32.758  32.038  27.050  1.00  0.00    -0.352 N 
ATOM      9  O   UNL A   1      33.496  33.943  27.911  1.00  0.00    -0.269 OA
ATOM     10  C   UNL A   1      33.737  32.755  27.692  1.00  0.00     0.251 C 
ATOM     11  H   UNL A   1      32.040  32.611  26.700  1.00  0.00     0.163 HD
BRANCH  10  12
ATOM     12  C   UNL A   1      35.054  32.209  28.133  1.00  0.00     0.039 A 
ATOM     13  C   UNL A   1      36.193  32.986  28.316  1.00  0.00     0.014 A 
ATOM     14  C   UNL A   1      35.110  30.856  28.524  1.00  0.00     0.014 A 
ATOM     15  C   UNL A   1      37.378  32.417  28.786  1.00  0.00     0.010 A 
ATOM     16  C   UNL A   1      36.266  30.310  29.107  1.00  0.00     0.010 A 
ATOM     17  C   UNL A   1      37.415  31.091  29.248  1.00  0.00    -0.014 A 
BRANCH  17  18
ATOM     18  C   UNL A   1      38.626  30.640  29.992  1.00  0.00     0.031 A 
ATOM     19  C   UNL A   1      38.871  31.015  31.424  1.00  0.00     0.074 A 
ATOM     20  C   UNL A   1      39.475  29.799  29.364  1.00  0.00     0.049 A 
ATOM     21  N   UNL A   1      39.805  30.586  32.237  1.00  0.00    -0.248 NA
ATOM     22  C   UNL A   1      37.967  32.007  32.023  1.00  0.00     0.031 C 
ATOM     23  C   UNL A   1      39.376  29.411  27.953  1.00  0.00     0.029 A 
ATOM     24  N   UNL A   1      40.544  29.074  29.826  1.00  0.00    -0.354 N 
ATOM     25  C   UNL A   1      39.613  31.262  33.434  1.00  0.00     0.074 A 
ATOM     26  C   UNL A   1      38.485  32.148  33.238  1.00  0.00     0.031 C 
ATOM     27  C   UNL A   1      40.266  28.444  27.696  1.00  0.00     0.029 A 
ATOM     28  C   UNL A   1      41.048  28.190  28.900  1.00  0.00     0.049 A 
ATOM     29  H   UNL A   1      40.915  29.176  30.733  1.00  0.00     0.167 HD
ATOM     30  C   UNL A   1      40.312  31.147  34.590  1.00  0.00     0.037 A 
ATOM     31  C   UNL A   1      42.025  27.269  29.006  1.00  0.00     0.037 A 
ATOM     32  C   UNL A   1      41.428  30.256  34.782  1.00  0.00     0.049 A 
ATOM     33  C   UNL A   1      42.739  27.122  30.317  1.00  0.00     0.074 A 
ATOM     34  C   UNL A   1      42.209  30.076  35.912  1.00  0.00     0.029 A 
ATOM     35  N   UNL A   1      41.919  29.387  33.818  1.00  0.00    -0.354 N 
ATOM     36  N   UNL A   1      42.536  27.764  31.441  1.00  0.00    -0.248 NA
ATOM     37  C   UNL A   1      43.824  26.134  30.373  1.00  0.00     0.031 C 
ATOM     38  C   UNL A   1      43.186  29.115  35.624  1.00  0.00     0.029 A 
ATOM     39  C   UNL A   1      42.992  28.670  34.326  1.00  0.00     0.049 A 
ATOM     40  H   UNL A   1      41.558  29.291  32.907  1.00  0.00     0.167 HD
ATOM     41  C   UNL A   1      43.478  27.274  32.332  1.00  0.00     0.074 A 
ATOM     42  C   UNL A   1      44.218  26.242  31.634  1.00  0.00     0.031 C 
ATOM     43  C   UNL A   1      43.725  27.661  33.607  1.00  0.00     0.037 A 
BRANCH  30  44
ATOM     44  C   UNL A   1      39.896  32.015  35.742  1.00  0.00     0.064 A 
ATOM     45  C   UNL A   1      40.526  33.242  36.000  1.00  0.00     0.173 A 
ATOM     46  C   UNL A   1      38.826  31.641  36.570  1.00  0.00     0.173 A 
ATOM     47  F   UNL A   1      41.562  33.640  35.246  1.00  0.00    -0.203 F 
ATOM     48  C   UNL A   1      40.110  34.054  37.053  1.00  0.00     0.198 A 
ATOM     49  C   UNL A   1      38.398  32.466  37.607  1.00  0.00     0.198 A 
ATOM     50  F   UNL A   1      38.186  30.481  36.363  1.00  0.00    -0.203 F 
ATOM     51  F   UNL A   1      40.748  35.207  37.300  1.00  0.00    -0.200 F 
ATOM     52  C   UNL A   1      39.043  33.669  37.851  1.00  0.00     0.200 A 
ATOM     53  F   UNL A   1      37.360  32.097  38.371  1.00  0.00    -0.200 F 
ATOM     54  F   UNL A   1      38.639  34.456  38.858  1.00  0.00    -0.200 F 
ENDBRANCH  30  44
BRANCH  31  55
ATOM     55  C   UNL A   1      42.372  26.419  27.836  1.00  0.00     0.064 A 
ATOM     56  C   UNL A   1      41.710  25.207  27.596  1.00  0.00     0.173 A 
ATOM     57  C   UNL A   1      43.361  26.813  26.922  1.00  0.00     0.173 A 
ATOM     58  F   UNL A   1      40.770  24.776  28.450  1.00  0.00    -0.203 F 
ATOM     59  C   UNL A   1      42.030  24.418  26.491  1.00  0.00     0.198 A 
ATOM     60  C   UNL A   1      43.656  26.041  25.801  1.00  0.00     0.198 A 
ATOM     61  F   UNL A   1      44.021  27.966  27.103  1.00  0.00    -0.203 F 
ATOM     62  F   UNL A   1      41.407  23.246  26.306  1.00  0.00    -0.200 F 
ATOM     63  C   UNL A   1      42.995  24.840  25.591  1.00  0.00     0.200 A 
ATOM     64  F   UNL A   1      44.575  26.463  24.923  1.00  0.00    -0.200 F 
ATOM     65  F   UNL A   1      43.291  24.090  24.521  1.00  0.00    -0.200 F 
ENDBRANCH  31  55
BRANCH  43  66
ATOM     66  C   UNL A   1      44.853  26.969  34.310  1.00  0.00     0.064 A 
ATOM     67  C   UNL A   1      44.640  25.787  35.036  1.00  0.00     0.173 A 
ATOM     68  C   UNL A   1      46.154  27.488  34.259  1.00  0.00     0.173 A 
ATOM     69  F   UNL A   1      43.408  25.265  35.129  1.00  0.00    -0.203 F 
ATOM     70  C   UNL A   1      45.687  25.165  35.711  1.00  0.00     0.198 A 
ATOM     71  C   UNL A   1      47.203  26.850  34.916  1.00  0.00     0.198 A 
ATOM     72  F   UNL A   1      46.406  28.615  33.577  1.00  0.00    -0.203 F 
ATOM     73  F   UNL A   1      45.450  24.066  36.440  1.00  0.00    -0.200 F 
ATOM     74  C   UNL A   1      46.967  25.695  35.647  1.00  0.00     0.200 A 
ATOM     75  F   UNL A   1      48.440  27.358  34.850  1.00  0.00    -0.200 F 
ATOM     76  F   UNL A   1      47.972  25.098  36.303  1.00  0.00    -0.200 F 
ENDBRANCH  43  66
ENDBRANCH  17  18
ENDBRANCH  10  12
ENDBRANCH   7   8
ENDBRANCH   6   7
ENDBRANCH   5   6
ENDBRANCH   1   5
BRANCH   2  77
ATOM     77  C   UNL A   1      30.000  29.071  22.565  1.00  0.00     0.197 C 
BRANCH  77  78
ATOM     78  N   UNL A   1      31.853  28.169  22.173  1.00  0.00    -0.340 N 
ATOM     79  C   UNL A   1      32.737  27.134  21.883  1.00  0.00     0.244 C 
ATOM     80  H   UNL A   1      32.463  28.941  22.226  1.00  0.00     0.164 HD
ATOM     81  O   UNL A   1      33.861  27.620  21.621  1.00  0.00    -0.273 OA
BRANCH  79  82
ATOM     82  C   UNL A   1      32.663  25.554  21.992  1.00  0.00     0.181 C 
BRANCH  82  83
ATOM     83  N   UNL A   1      31.460  24.780  22.361  1.00  0.00    -0.342 N 
ATOM     84  C   UNL A   1      31.278  23.735  23.218  1.00  0.00     0.243 C 
ATOM     85  H   UNL A   1      30.639  25.074  21.906  1.00  0.00     0.164 HD
ATOM     86  O   UNL A   1      30.129  23.306  23.362  1.00  0.00    -0.273 OA
BRANCH  84  87
ATOM     87  C   UNL A   1      32.444  23.124  23.986  1.00  0.00     0.176 C 
BRANCH  87  88
ATOM     88  N   UNL A   1      32.885  24.185  24.908  1.00  0.00    -0.340 N 
ATOM     89  C   UNL A   1      34.146  24.627  25.204  1.00  0.00     0.251 C 
ATOM     90  H   UNL A   1      32.160  24.648  25.387  1.00  0.00     0.164 HD
ATOM     91  O   UNL A   1      34.292  25.709  25.763  1.00  0.00    -0.269 OA
BRANCH  89  92
ATOM     92  C   UNL A   1      35.313  23.751  25.004  1.00  0.00     0.040 A 
ATOM     93  C   UNL A   1      35.954  23.299  26.166  1.00  0.00     0.017 A 
ATOM     94  C   UNL A   1      35.775  23.367  23.743  1.00  0.00     0.017 A 
ATOM     95  C   UNL A   1      37.015  22.405  26.068  1.00  0.00     0.040 A 
ATOM     96  C   UNL A   1      36.831  22.458  23.651  1.00  0.00     0.040 A 
ATOM     97  C   UNL A   1      37.431  21.978  24.812  1.00  0.00     0.123 A 
ATOM     98  F   UNL A   1      38.429  21.090  24.720  1.00  0.00    -0.207 F 
ENDBRANCH  89  92
ENDBRANCH  87  88
BRANCH  87  99
ATOM     99  C   UNL A   1      32.200  21.759  24.652  1.00  0.00     0.070 C 
BRANCH  99 100
ATOM    100  C   UNL A   1      32.826  20.486  24.128  1.00  0.00    -0.045 A 
ATOM    101  C   UNL A   1      32.051  19.344  22.929  1.00  0.00     0.004 A 
ATOM    102  C   UNL A   1      34.342  19.983  24.974  1.00  0.00     0.004 A 
ATOM    103  C   UNL A   1      32.752  17.699  22.691  1.00  0.00     0.000 A 
ATOM    104  C   UNL A   1      35.125  18.398  24.619  1.00  0.00     0.000 A 
ATOM    105  C   UNL A   1      34.322  17.240  23.494  1.00  0.00     0.000 A 
ENDBRANCH  99 100
ENDBRANCH  87  99
ENDBRANCH  84  87
ENDBRANCH  82  83
BRANCH  82 106
ATOM    106  C   UNL A   1      33.119  24.960  20.625  1.00  0.00     0.101 C 
BRANCH 106 107
ATOM    107  S   UNL A   1      32.180  25.508  19.165  1.00  0.00    -0.177 SA
ATOM    108  H   UNL A   1      31.368  24.501  18.743  1.00  0.00     0.102 HD
ENDBRANCH 106 107
ENDBRANCH  82 106
ENDBRANCH  79  82
ENDBRANCH  77  78
BRANCH  77 109
ATOM    109  C   UNL A   1      28.485  28.277  23.103  1.00  0.00     0.191 C 
BRANCH 109 110
ATOM    110  O   UNL A   1      27.269  28.682  22.478  1.00  0.00    -0.394 OA
ATOM    111  H   UNL A   1      26.530  28.177  22.852  1.00  0.00     0.210 HD
ENDBRANCH 109 110
ENDBRANCH  77 109
ENDBRANCH   2  77
TORSDOF 22
ENDMDL
MODEL 2
REMARK VINA RESULT:     -12.6      2.906      7.323
REMARK SMILES O=C(NCCCNC(=O)[C@H](CO)NC(=O)[C@H](CS)NC(=O)[C@H](Cc1ccccc1)NC(=O)c1ccc(F)cc1)c1ccc(-c2c3nc(c(-c4c(F)c(F)c(F)c(F)c4F)c4ccc([nH]4)c(-c4c(F)c(F)c(F)c(F)c4F)c4nc(c(-c5c(F)c(F)c(F)c(F)c5F)c5ccc2[nH]5)C=C4)C=C3)cc1
REMARK SMILES IDX 7 1 8 2 9 3 6 5 5 6 4 7 3 8 1 9 2 10 40 12 41 13 102 14
REMARK SMILES IDX 42 15 101 16 43 17 44 18 45 19 95 20 46 21 100 22 94 23
REMARK SMILES IDX 96 24 47 25 99 26 93 27 92 28 48 30 80 31 60 32 79 33 61 34
REMARK SMILES IDX 64 35 78 36 97 37 62 38 63 39 77 41 98 42 65 43 49 44 50 45
REMARK SMILES IDX 58 46 51 47 52 48 56 49 59 50 53 51 54 52 57 53 55 54 81 55
REMARK SMILES IDX 82 56 90 57 83 58 84 59 88 60 91 61 85 62 86 63 89 64 87 65
REMARK SMILES IDX 66 66 67 67 75 68 68 69 69 70 73 71 76 72 70 73 71 74 74 75
REMARK SMILES IDX 72 76 10 77 13 78 14 79 15 81 16 82 19 83 20 84 21 86 22 87
REMARK SMILES IDX 30 88 31 89 32 91 33 92 34 93 39 94 35 95 38 96 36 97 37 98
REMARK SMILES IDX 23 99 24 100 25 101 29 102 26 103 28 104 27 105 17 106
REMARK SMILES IDX 18 107 11 109 12 110
REMARK H PARENT 7 4 3 11 96 29 64 40 13 80 19 85 30 90 18 108 12 111
REMARK Flexibility Score: inf
ROOT
ATOM      1  N   UNL A   1      30.676  31.122  25.333  1.00  0.00    -0.354 N 
ATOM      2  C   UNL A   1      30.147  30.715  24.151  1.00  0.00     0.244 C 
ATOM      3  O   UNL A   1      29.153  31.448  23.915  1.00  0.00    -0.273 OA
ATOM      4  H   UNL A   1      30.082  31.814  25.703  1.00  0.00     0.163 HD
ENDROOT
BRANCH   1   5
ATOM      5  C   UNL A   1      31.789  30.935  26.283  1.00  0.00     0.117 C 
BRANCH   5   6
ATOM      6  C   UNL A   1      32.587  29.641  26.049  1.00  0.00     0.042 C 
BRANCH   6   7
ATOM      7  C   UNL A   1      33.718  29.395  27.034  1.00  0.00     0.118 C 
BRANCH   7   8
ATOM      8  N   UNL A   1      33.974  30.544  27.889  1.00  0.00    -0.352 N 
ATOM      9  O   UNL A   1      34.769  31.894  29.458  1.00  0.00    -0.269 OA
ATOM     10  C   UNL A   1      34.984  30.914  28.742  1.00  0.00     0.251 C 
ATOM     11  H   UNL A   1      33.255  31.214  27.844  1.00  0.00     0.163 HD
BRANCH  10  12
ATOM     12  C   UNL A   1      36.304  30.229  28.860  1.00  0.00     0.039 A 
ATOM     13  C   UNL A   1      37.368  30.443  27.990  1.00  0.00     0.014 A 
ATOM     14  C   UNL A   1      36.535  29.432  29.998  1.00  0.00     0.014 A 
ATOM     15  C   UNL A   1      38.596  29.810  28.194  1.00  0.00     0.010 A 
ATOM     16  C   UNL A   1      37.803  28.890  30.268  1.00  0.00     0.010 A 
ATOM     17  C   UNL A   1      38.852  29.079  29.366  1.00  0.00    -0.014 A 
BRANCH  17  18
ATOM     18  C   UNL A   1      40.258  28.674  29.648  1.00  0.00     0.031 A 
ATOM     19  C   UNL A   1      40.866  27.432  29.064  1.00  0.00     0.074 A 
ATOM     20  C   UNL A   1      41.019  29.509  30.388  1.00  0.00     0.049 A 
ATOM     21  N   UNL A   1      42.112  27.028  29.110  1.00  0.00    -0.248 NA
ATOM     22  C   UNL A   1      39.966  26.515  28.350  1.00  0.00     0.031 C 
ATOM     23  C   UNL A   1      40.525  30.714  31.060  1.00  0.00     0.029 A 
ATOM     24  N   UNL A   1      42.365  29.517  30.654  1.00  0.00    -0.354 N 
ATOM     25  C   UNL A   1      42.144  25.808  28.447  1.00  0.00     0.074 A 
ATOM     26  C   UNL A   1      40.788  25.525  28.025  1.00  0.00     0.031 C 
ATOM     27  C   UNL A   1      41.561  31.399  31.562  1.00  0.00     0.029 A 
ATOM     28  C   UNL A   1      42.786  30.649  31.312  1.00  0.00     0.049 A 
ATOM     29  H   UNL A   1      42.971  28.783  30.398  1.00  0.00     0.167 HD
ATOM     30  C   UNL A   1      43.210  25.005  28.210  1.00  0.00     0.037 A 
ATOM     31  C   UNL A   1      44.022  31.049  31.669  1.00  0.00     0.037 A 
ATOM     32  C   UNL A   1      44.559  25.297  28.625  1.00  0.00     0.049 A 
ATOM     33  C   UNL A   1      45.190  30.167  31.338  1.00  0.00     0.074 A 
ATOM     34  C   UNL A   1      45.705  24.540  28.443  1.00  0.00     0.029 A 
ATOM     35  N   UNL A   1      44.946  26.445  29.301  1.00  0.00    -0.354 N 
ATOM     36  N   UNL A   1      45.201  29.022  30.702  1.00  0.00    -0.248 NA
ATOM     37  C   UNL A   1      46.512  30.624  31.783  1.00  0.00     0.031 C 
ATOM     38  C   UNL A   1      46.779  25.220  29.029  1.00  0.00     0.029 A 
ATOM     39  C   UNL A   1      46.310  26.416  29.545  1.00  0.00     0.049 A 
ATOM     40  H   UNL A   1      44.340  27.174  29.568  1.00  0.00     0.167 HD
ATOM     41  C   UNL A   1      46.525  28.611  30.686  1.00  0.00     0.074 A 
ATOM     42  C   UNL A   1      47.295  29.656  31.329  1.00  0.00     0.031 C 
ATOM     43  C   UNL A   1      47.053  27.460  30.203  1.00  0.00     0.037 A 
BRANCH  30  44
ATOM     44  C   UNL A   1      42.962  23.721  27.472  1.00  0.00     0.064 A 
ATOM     45  C   UNL A   1      42.467  22.583  28.127  1.00  0.00     0.173 A 
ATOM     46  C   UNL A   1      43.174  23.640  26.087  1.00  0.00     0.173 A 
ATOM     47  F   UNL A   1      42.258  22.606  29.452  1.00  0.00    -0.203 F 
ATOM     48  C   UNL A   1      42.210  21.408  27.426  1.00  0.00     0.198 A 
ATOM     49  C   UNL A   1      42.895  22.470  25.385  1.00  0.00     0.198 A 
ATOM     50  F   UNL A   1      43.641  24.700  25.412  1.00  0.00    -0.203 F 
ATOM     51  F   UNL A   1      41.768  20.323  28.078  1.00  0.00    -0.200 F 
ATOM     52  C   UNL A   1      42.418  21.354  26.055  1.00  0.00     0.200 A 
ATOM     53  F   UNL A   1      43.086  22.423  24.059  1.00  0.00    -0.200 F 
ATOM     54  F   UNL A   1      42.161  20.223  25.381  1.00  0.00    -0.200 F 
ENDBRANCH  30  44
BRANCH  31  55
ATOM     55  C   UNL A   1      44.206  32.345  32.374  1.00  0.00     0.064 A 
ATOM     56  C   UNL A   1      44.232  32.415  33.773  1.00  0.00     0.173 A 
ATOM     57  C   UNL A   1      44.379  33.540  31.659  1.00  0.00     0.173 A 
ATOM     58  F   UNL A   1      44.052  31.304  34.504  1.00  0.00    -0.203 F 
ATOM     59  C   UNL A   1      44.417  33.631  34.430  1.00  0.00     0.198 A 
ATOM     60  C   UNL A   1      44.598  34.749  32.316  1.00  0.00     0.198 A 
ATOM     61  F   UNL A   1      44.367  33.528  30.318  1.00  0.00    -0.203 F 
ATOM     62  F   UNL A   1      44.402  33.675  35.770  1.00  0.00    -0.200 F 
ATOM     63  C   UNL A   1      44.609  34.794  33.701  1.00  0.00     0.200 A 
ATOM     64  F   UNL A   1      44.802  35.866  31.607  1.00  0.00    -0.200 F 
ATOM     65  F   UNL A   1      44.802  35.960  34.333  1.00  0.00    -0.200 F 
ENDBRANCH  31  55
BRANCH  43  66
ATOM     66  C   UNL A   1      48.530  27.277  30.375  1.00  0.00     0.064 A 
ATOM     67  C   UNL A   1      49.056  26.646  31.513  1.00  0.00     0.173 A 
ATOM     68  C   UNL A   1      49.427  27.734  29.399  1.00  0.00     0.173 A 
ATOM     69  F   UNL A   1      48.236  26.210  32.482  1.00  0.00    -0.203 F 
ATOM     70  C   UNL A   1      50.430  26.505  31.681  1.00  0.00     0.198 A 
ATOM     71  C   UNL A   1      50.800  27.570  29.560  1.00  0.00     0.198 A 
ATOM     72  F   UNL A   1      48.971  28.343  28.294  1.00  0.00    -0.203 F 
ATOM     73  F   UNL A   1      50.912  25.946  32.799  1.00  0.00    -0.200 F 
ATOM     74  C   UNL A   1      51.300  26.964  30.703  1.00  0.00     0.200 A 
ATOM     75  F   UNL A   1      51.640  28.008  28.613  1.00  0.00    -0.200 F 
ATOM     76  F   UNL A   1      52.624  26.833  30.869  1.00  0.00    -0.200 F 
ENDBRANCH  43  66
ENDBRANCH  17  18
ENDBRANCH  10  12
ENDBRANCH   7   8
ENDBRANCH   6   7
ENDBRANCH   5   6
ENDBRANCH   1   5
BRANCH   2  77
ATOM     77  C   UNL A   1      30.485  29.447  22.916  1.00  0.00     0.197 C 
BRANCH  77  78
ATOM     78  N   UNL A   1      32.194  28.364  22.363  1.00  0.00    -0.340 N 
ATOM     79  C   UNL A   1      32.940  27.245  22.003  1.00  0.00     0.244 C 
ATOM     80  H   UNL A   1      32.880  29.071  22.349  1.00  0.00     0.164 HD
ATOM     81  O   UNL A   1      34.077  27.616  21.632  1.00  0.00    -0.273 OA
BRANCH  79  82
ATOM     82  C   UNL A   1      32.720  25.681  22.137  1.00  0.00     0.181 C 
BRANCH  82  83
ATOM     83  N   UNL A   1      31.451  25.027  22.514  1.00  0.00    -0.342 N 
ATOM     84  C   UNL A   1      31.180  23.968  23.330  1.00  0.00     0.243 C 
ATOM     85  H   UNL A   1      30.654  25.430  22.102  1.00  0.00     0.164 HD
ATOM     86  O   UNL A   1      29.995  23.662  23.496  1.00  0.00    -0.273 OA
BRANCH  84  87
ATOM     87  C   UNL A   1      32.293  23.198  24.029  1.00  0.00     0.176 C 
BRANCH  87  88
ATOM     88  N   UNL A   1      32.855  24.148  25.004  1.00  0.00    -0.340 N 
ATOM     89  C   UNL A   1      34.159  24.446  25.292  1.00  0.00     0.251 C 
ATOM     90  H   UNL A   1      32.189  24.645  25.531  1.00  0.00     0.164 HD
ATOM     91  O   UNL A   1      34.422  25.470  25.914  1.00  0.00    -0.269 OA
BRANCH  89  92
ATOM     92  C   UNL A   1      35.231  23.478  25.004  1.00  0.00     0.040 A 
ATOM     93  C   UNL A   1      35.500  22.537  26.007  1.00  0.00     0.017 A 
ATOM     94  C   UNL A   1      35.951  23.466  23.807  1.00  0.00     0.017 A 
ATOM     95  C   UNL A   1      36.442  21.538  25.784  1.00  0.00     0.040 A 
ATOM     96  C   UNL A   1      36.884  22.452  23.583  1.00  0.00     0.040 A 
ATOM     97  C   UNL A   1      37.112  21.493  24.567  1.00  0.00     0.123 A 
ATOM     98  F   UNL A   1      37.992  20.511  24.339  1.00  0.00    -0.207 F 
ENDBRANCH  89  92
ENDBRANCH  87  88
BRANCH  87  99
ATOM     99  C   UNL A   1      31.926  21.823  24.615  1.00  0.00     0.070 C 
BRANCH  99 100
ATOM    100  C   UNL A   1      32.470  20.534  24.041  1.00  0.00    -0.045 A 
ATOM    101  C   UNL A   1      32.118  19.893  22.365  1.00  0.00     0.004 A 
ATOM    102  C   UNL A   1      33.320  19.474  25.233  1.00  0.00     0.004 A 
ATOM    103  C   UNL A   1      32.530  18.182  21.966  1.00  0.00     0.000 A 
ATOM    104  C   UNL A   1      33.868  17.815  24.779  1.00  0.00     0.000 A 
ATOM    105  C   UNL A   1      33.455  17.154  23.153  1.00  0.00     0.000 A 
ENDBRANCH  99 100
ENDBRANCH  87  99
ENDBRANCH  84  87
ENDBRANCH  82  83
BRANCH  82 106
ATOM    106  C   UNL A   1      33.123  25.025  20.782  1.00  0.00     0.101 C 
BRANCH 106 107
ATOM    107  S   UNL A   1      32.157  25.542  19.328  1.00  0.00    -0.177 SA
ATOM    108  H   UNL A   1      31.479  24.473  18.830  1.00  0.00     0.102 HD
ENDBRANCH 106 107
ENDBRANCH  82 106
ENDBRANCH  79  82
ENDBRANCH  77  78
BRANCH  77 109
ATOM    109  C   UNL A   1      28.773  28.922  22.815  1.00  0.00     0.191 C 
BRANCH 109 110
ATOM    110  O   UNL A   1      27.939  29.568  21.856  1.00  0.00    -0.394 OA
ATOM    111  H   UNL A   1      27.135  29.891  22.292  1.00  0.00     0.210 HD
ENDBRANCH 109 110
ENDBRANCH  77 109
ENDBRANCH   2  77
TORSDOF 22
ENDMDL
MODEL 3
REMARK VINA RESULT:     -12.3      6.023      8.136
REMARK SMILES O=C(NCCCNC(=O)[C@H](CO)NC(=O)[C@H](CS)NC(=O)[C@H](Cc1ccccc1)NC(=O)c1ccc(F)cc1)c1ccc(-c2c3nc(c(-c4c(F)c(F)c(F)c(F)c4F)c4ccc([nH]4)c(-c4c(F)c(F)c(F)c(F)c4F)c4nc(c(-c5c(F)c(F)c(F)c(F)c5F)c5ccc2[nH]5)C=C4)C=C3)cc1
REMARK SMILES IDX 7 1 8 2 9 3 6 5 5 6 4 7 3 8 1 9 2 10 40 12 41 13 102 14
REMARK SMILES IDX 42 15 101 16 43 17 44 18 45 19 95 20 46 21 100 22 94 23
REMARK SMILES IDX 96 24 47 25 99 26 93 27 92 28 48 30 80 31 60 32 79 33 61 34
REMARK SMILES IDX 64 35 78 36 97 37 62 38 63 39 77 41 98 42 65 43 49 44 50 45
REMARK SMILES IDX 58 46 51 47 52 48 56 49 59 50 53 51 54 52 57 53 55 54 81 55
REMARK SMILES IDX 82 56 90 57 83 58 84 59 88 60 91 61 85 62 86 63 89 64 87 65
REMARK SMILES IDX 66 66 67 67 75 68 68 69 69 70 73 71 76 72 70 73 71 74 74 75
REMARK SMILES IDX 72 76 10 77 13 78 14 79 15 81 16 82 19 83 20 84 21 86 22 87
REMARK SMILES IDX 30 88 31 89 32 91 33 92 34 93 39 94 35 95 38 96 36 97 37 98
REMARK SMILES IDX 23 99 24 100 25 101 29 102 26 103 28 104 27 105 17 106
REMARK SMILES IDX 18 107 11 109 12 110
REMARK H PARENT 7 4 3 11 96 29 64 40 13 80 19 85 30 90 18 108 12 111
REMARK Flexibility Score: inf
ROOT
ATOM      1  N   UNL A   1      33.757  34.834  30.688  1.00  0.00    -0.354 N 
ATOM      2  C   UNL A   1      33.384  34.547  29.414  1.00  0.00     0.244 C 
ATOM      3  O   UNL A   1      32.691  35.512  29.003  1.00  0.00    -0.273 OA
ATOM      4  H   UNL A   1      33.311  35.672  30.948  1.00  0.00     0.163 HD
ENDROOT
BRANCH   1   5
ATOM      5  C   UNL A   1      34.567  34.385  31.836  1.00  0.00     0.117 C 
BRANCH   5   6
ATOM      6  C   UNL A   1      34.583  32.858  32.017  1.00  0.00     0.042 C 
BRANCH   6   7
ATOM      7  C   UNL A   1      35.802  32.154  31.443  1.00  0.00     0.118 C 
BRANCH   7   8
ATOM      8  N   UNL A   1      36.136  30.936  32.166  1.00  0.00    -0.352 N 
ATOM      9  O   UNL A   1      37.054  29.017  32.792  1.00  0.00    -0.269 OA
ATOM     10  C   UNL A   1      37.202  30.071  32.170  1.00  0.00     0.251 C 
ATOM     11  H   UNL A   1      35.433  30.670  32.800  1.00  0.00     0.163 HD
BRANCH  10  12
ATOM     12  C   UNL A   1      38.509  30.314  31.493  1.00  0.00     0.039 A 
ATOM     13  C   UNL A   1      38.661  30.412  30.114  1.00  0.00     0.014 A 
ATOM     14  C   UNL A   1      39.626  30.603  32.300  1.00  0.00     0.014 A 
ATOM     15  C   UNL A   1      39.906  30.698  29.550  1.00  0.00     0.010 A 
ATOM     16  C   UNL A   1      40.850  31.006  31.739  1.00  0.00     0.010 A 
ATOM     17  C   UNL A   1      41.000  31.062  30.352  1.00  0.00    -0.014 A 
BRANCH  17  18
ATOM     18  C   UNL A   1      42.206  31.624  29.680  1.00  0.00     0.031 A 
ATOM     19  C   UNL A   1      42.473  33.099  29.618  1.00  0.00     0.074 A 
ATOM     20  C   UNL A   1      43.117  30.756  29.191  1.00  0.00     0.049 A 
ATOM     21  N   UNL A   1      43.543  33.723  29.190  1.00  0.00    -0.248 NA
ATOM     22  C   UNL A   1      41.403  33.996  30.079  1.00  0.00     0.031 C 
ATOM     23  C   UNL A   1      42.942  29.302  29.137  1.00  0.00     0.029 A 
ATOM     24  N   UNL A   1      44.385  30.949  28.703  1.00  0.00    -0.354 N 
ATOM     25  C   UNL A   1      43.274  35.079  29.315  1.00  0.00     0.074 A 
ATOM     26  C   UNL A   1      41.928  35.192  29.839  1.00  0.00     0.031 C 
ATOM     27  C   UNL A   1      44.091  28.730  28.753  1.00  0.00     0.029 A 
ATOM     28  C   UNL A   1      45.064  29.776  28.464  1.00  0.00     0.049 A 
ATOM     29  H   UNL A   1      44.772  31.840  28.540  1.00  0.00     0.167 HD
ATOM     30  C   UNL A   1      44.078  36.131  29.023  1.00  0.00     0.037 A 
ATOM     31  C   UNL A   1      46.332  29.561  28.065  1.00  0.00     0.037 A 
ATOM     32  C   UNL A   1      45.420  36.012  28.509  1.00  0.00     0.049 A 
ATOM     33  C   UNL A   1      47.219  30.744  27.809  1.00  0.00     0.074 A 
ATOM     34  C   UNL A   1      46.311  37.017  28.171  1.00  0.00     0.029 A 
ATOM     35  N   UNL A   1      46.068  34.809  28.267  1.00  0.00    -0.354 N 
ATOM     36  N   UNL A   1      46.948  32.019  27.943  1.00  0.00    -0.248 NA
ATOM     37  C   UNL A   1      48.580  30.462  27.337  1.00  0.00     0.031 C 
ATOM     38  C   UNL A   1      47.488  36.423  27.702  1.00  0.00     0.029 A 
ATOM     39  C   UNL A   1      47.345  35.047  27.782  1.00  0.00     0.049 A 
ATOM     40  H   UNL A   1      45.680  33.917  28.418  1.00  0.00     0.167 HD
ATOM     41  C   UNL A   1      48.096  32.692  27.553  1.00  0.00     0.074 A 
ATOM     42  C   UNL A   1      49.084  31.683  27.230  1.00  0.00     0.031 C 
ATOM     43  C   UNL A   1      48.305  34.027  27.450  1.00  0.00     0.037 A 
BRANCH  30  44
ATOM     44  C   UNL A   1      43.527  37.510  29.243  1.00  0.00     0.064 A 
ATOM     45  C   UNL A   1      43.866  38.262  30.378  1.00  0.00     0.173 A 
ATOM     46  C   UNL A   1      42.690  38.106  28.287  1.00  0.00     0.173 A 
ATOM     47  F   UNL A   1      44.653  37.734  31.326  1.00  0.00    -0.203 F 
ATOM     48  C   UNL A   1      43.374  39.553  30.554  1.00  0.00     0.198 A 
ATOM     49  C   UNL A   1      42.218  39.405  28.456  1.00  0.00     0.198 A 
ATOM     50  F   UNL A   1      42.340  37.432  27.181  1.00  0.00    -0.203 F 
ATOM     51  F   UNL A   1      43.685  40.241  31.662  1.00  0.00    -0.200 F 
ATOM     52  C   UNL A   1      42.556  40.126  29.591  1.00  0.00     0.200 A 
ATOM     53  F   UNL A   1      41.437  39.960  27.519  1.00  0.00    -0.200 F 
ATOM     54  F   UNL A   1      42.091  41.372  29.759  1.00  0.00    -0.200 F 
ENDBRANCH  30  44
BRANCH  31  55
ATOM     55  C   UNL A   1      46.828  28.170  27.892  1.00  0.00     0.064 A 
ATOM     56  C   UNL A   1      46.768  27.526  26.648  1.00  0.00     0.173 A 
ATOM     57  C   UNL A   1      47.391  27.462  28.964  1.00  0.00     0.173 A 
ATOM     58  F   UNL A   1      46.222  28.152  25.595  1.00  0.00    -0.203 F 
ATOM     59  C   UNL A   1      47.245  26.226  26.487  1.00  0.00     0.198 A 
ATOM     60  C   UNL A   1      47.898  26.176  28.794  1.00  0.00     0.198 A 
ATOM     61  F   UNL A   1      47.476  28.034  30.175  1.00  0.00    -0.203 F 
ATOM     62  F   UNL A   1      47.143  25.621  25.295  1.00  0.00    -0.200 F 
ATOM     63  C   UNL A   1      47.817  25.556  27.557  1.00  0.00     0.200 A 
ATOM     64  F   UNL A   1      48.468  25.541  29.826  1.00  0.00    -0.200 F 
ATOM     65  F   UNL A   1      48.290  24.313  27.397  1.00  0.00    -0.200 F 
ENDBRANCH  31  55
BRANCH  43  66
ATOM     66  C   UNL A   1      49.651  34.457  26.949  1.00  0.00     0.064 A 
ATOM     67  C   UNL A   1      50.769  34.473  27.797  1.00  0.00     0.173 A 
ATOM     68  C   UNL A   1      49.826  34.854  25.616  1.00  0.00     0.173 A 
ATOM     69  F   UNL A   1      50.645  34.118  29.085  1.00  0.00    -0.203 F 
ATOM     70  C   UNL A   1      52.010  34.900  27.333  1.00  0.00     0.198 A 
ATOM     71  C   UNL A   1      51.074  35.260  25.151  1.00  0.00     0.198 A 
ATOM     72  F   UNL A   1      48.786  34.855  24.769  1.00  0.00    -0.203 F 
ATOM     73  F   UNL A   1      53.052  34.956  28.174  1.00  0.00    -0.200 F 
ATOM     74  C   UNL A   1      52.162  35.289  26.011  1.00  0.00     0.200 A 
ATOM     75  F   UNL A   1      51.222  35.631  23.872  1.00  0.00    -0.200 F 
ATOM     76  F   UNL A   1      53.356  35.707  25.569  1.00  0.00    -0.200 F 
ENDBRANCH  43  66
ENDBRANCH  17  18
ENDBRANCH  10  12
ENDBRANCH   7   8
ENDBRANCH   6   7
ENDBRANCH   5   6
ENDBRANCH   1   5
BRANCH   2  77
ATOM     77  C   UNL A   1      33.604  33.196  28.242  1.00  0.00     0.197 C 
BRANCH  77  78
ATOM     78  N   UNL A   1      32.310  32.126  26.985  1.00  0.00    -0.340 N 
ATOM     79  C   UNL A   1      31.848  31.037  26.252  1.00  0.00     0.244 C 
ATOM     80  H   UNL A   1      31.610  32.796  26.807  1.00  0.00     0.164 HD
ATOM     81  O   UNL A   1      30.686  31.279  25.852  1.00  0.00    -0.273 OA
BRANCH  79  82
ATOM     82  C   UNL A   1      32.519  29.713  25.697  1.00  0.00     0.181 C 
BRANCH  82  83
ATOM     83  N   UNL A   1      33.463  29.645  24.563  1.00  0.00    -0.342 N 
ATOM     84  C   UNL A   1      33.761  28.645  23.685  1.00  0.00     0.243 C 
ATOM     85  H   UNL A   1      33.969  30.476  24.412  1.00  0.00     0.164 HD
ATOM     86  O   UNL A   1      34.578  28.891  22.793  1.00  0.00    -0.273 OA
BRANCH  84  87
ATOM     87  C   UNL A   1      33.100  27.276  23.785  1.00  0.00     0.176 C 
BRANCH  87  88
ATOM     88  N   UNL A   1      31.715  27.491  23.331  1.00  0.00    -0.340 N 
ATOM     89  C   UNL A   1      30.551  26.903  23.743  1.00  0.00     0.251 C 
ATOM     90  H   UNL A   1      31.612  28.162  22.618  1.00  0.00     0.164 HD
ATOM     91  O   UNL A   1      29.477  27.424  23.461  1.00  0.00    -0.269 OA
BRANCH  89  92
ATOM     92  C   UNL A   1      30.567  25.576  24.381  1.00  0.00     0.040 A 
ATOM     93  C   UNL A   1      30.635  24.475  23.517  1.00  0.00     0.017 A 
ATOM     94  C   UNL A   1      30.525  25.391  25.766  1.00  0.00     0.017 A 
ATOM     95  C   UNL A   1      30.735  23.189  24.041  1.00  0.00     0.040 A 
ATOM     96  C   UNL A   1      30.641  24.101  26.286  1.00  0.00     0.040 A 
ATOM     97  C   UNL A   1      30.755  23.016  25.420  1.00  0.00     0.123 A 
ATOM     98  F   UNL A   1      30.887  21.782  25.923  1.00  0.00    -0.207 F 
ENDBRANCH  89  92
ENDBRANCH  87  88
BRANCH  87  99
ATOM     99  C   UNL A   1      33.822  26.103  23.102  1.00  0.00     0.070 C 
BRANCH  99 100
ATOM    100  C   UNL A   1      34.111  24.805  23.825  1.00  0.00    -0.045 A 
ATOM    101  C   UNL A   1      34.148  23.150  23.048  1.00  0.00     0.004 A 
ATOM    102  C   UNL A   1      34.169  24.939  25.626  1.00  0.00     0.004 A 
ATOM    103  C   UNL A   1      34.135  21.680  24.095  1.00  0.00     0.000 A 
ATOM    104  C   UNL A   1      34.311  23.470  26.665  1.00  0.00     0.000 A 
ATOM    105  C   UNL A   1      34.272  21.835  25.905  1.00  0.00     0.000 A 
ENDBRANCH  99 100
ENDBRANCH  87  99
ENDBRANCH  84  87
ENDBRANCH  82  83
BRANCH  82 106
ATOM    106  C   UNL A   1      33.263  29.024  26.881  1.00  0.00     0.101 C 
BRANCH 106 107
ATOM    107  S   UNL A   1      34.933  29.650  27.245  1.00  0.00    -0.177 SA
ATOM    108  H   UNL A   1      34.840  30.827  27.920  1.00  0.00     0.102 HD
ENDBRANCH 106 107
ENDBRANCH  82 106
ENDBRANCH  79  82
ENDBRANCH  77  78
BRANCH  77 109
ATOM    109  C   UNL A   1      35.344  33.547  27.983  1.00  0.00     0.191 C 
BRANCH 109 110
ATOM    110  O   UNL A   1      35.886  34.704  28.618  1.00  0.00    -0.394 OA
ATOM    111  H   UNL A   1      35.646  35.494  28.110  1.00  0.00     0.210 HD
ENDBRANCH 109 110
ENDBRANCH  77 109
ENDBRANCH   2  77
TORSDOF 22
ENDMDL
