MODEL 1
REMARK VINA RESULT:     -12.1      0.000      0.000
REMARK SMILES CCNc1nc(C)c(C(=O)N2CC[NH2+][C@H](C(=O)NCCCNC(=O)c3ccc(-c4c5nc(c(-c6c(F)c(F)c(F)c(F)c6F)c6ccc([nH]6)c(-c6c(F)c(F)c(F)c(F)c6F)c6nc(c(-c7c(F)c(F)c(F)c(F)c7F)c7ccc4[nH]7)C=C6)C=C5)cc3)C2)s1
REMARK SMILES IDX 19 1 18 2 16 3 17 4 15 6 11 7 12 8 88 9 13 10 14 11 9 14
REMARK SMILES IDX 10 15 8 16 4 17 5 18 89 19 6 20 7 21 3 22 2 24 1 25 20 26
REMARK SMILES IDX 21 27 22 28 23 29 24 31 25 32 26 33 87 34 27 35 86 36 28 37
REMARK SMILES IDX 29 38 30 39 80 40 31 41 85 42 79 43 81 44 32 45 84 46 78 47
REMARK SMILES IDX 77 48 33 50 65 51 45 52 64 53 46 54 49 55 63 56 82 57 47 58
REMARK SMILES IDX 48 59 62 61 83 62 50 63 34 64 35 65 43 66 36 67 37 68 41 69
REMARK SMILES IDX 44 70 38 71 39 72 42 73 40 74 66 75 67 76 75 77 68 78 69 79
REMARK SMILES IDX 73 80 76 81 70 82 71 83 74 84 72 85 51 86 52 87 60 88 53 89
REMARK SMILES IDX 54 90 58 91 61 92 55 93 56 94 59 95 57 96
REMARK H PARENT 18 5 14 12 14 13 3 23 22 30 81 49 49 60
REMARK Flexibility Score: inf
ROOT
ATOM      1  C   UNL A   1      37.002  21.368  24.734  1.00  0.00     0.118 C 
ENDROOT
BRANCH   1   2
ATOM      2  N   UNL A   1      36.318  21.812  25.941  1.00  0.00    -0.351 N 
ATOM      3  C   UNL A   1      35.118  22.469  26.034  1.00  0.00     0.280 C 
ATOM      4  O   UNL A   1      34.663  22.736  27.146  1.00  0.00    -0.268 OA
ATOM      5  H   UNL A   1      36.772  21.616  26.792  1.00  0.00     0.163 HD
BRANCH   3   6
ATOM      6  C   UNL A   1      34.402  22.840  24.732  1.00  0.00     0.292 C 
ATOM      7  N   UNL A   1      33.206  24.607  23.485  1.00  0.00    -0.326 N 
ATOM      8  C   UNL A   1      32.122  23.676  23.175  1.00  0.00     0.181 C 
ATOM      9  C   UNL A   1      33.932  24.309  24.728  1.00  0.00     0.195 C 
ATOM     10  C   UNL A   1      32.626  22.223  23.217  1.00  0.00     0.283 C 
ATOM     11  N   UNL A   1      33.279  21.884  24.494  1.00  0.00    -0.333 N 
ATOM     12  H   UNL A   1      33.643  20.931  24.450  1.00  0.00     0.347 HD
ATOM     13  H   UNL A   1      32.603  21.948  25.255  1.00  0.00     0.347 HD
BRANCH   7  14
ATOM     14  C   UNL A   1      33.198  25.854  22.866  1.00  0.00     0.266 C 
ATOM     15  O   UNL A   1      33.926  26.032  21.885  1.00  0.00    -0.268 OA
BRANCH  14  16
ATOM     16  C   UNL A   1      32.449  26.941  23.485  1.00  0.00     0.117 A 
ATOM     17  C   UNL A   1      30.971  28.876  23.725  1.00  0.00     0.183 A 
ATOM     18  N   UNL A   1      31.851  28.849  24.693  1.00  0.00    -0.225 NA
ATOM     19  S   UNL A   1      31.035  27.524  22.675  1.00  0.00    -0.092 S 
ATOM     20  C   UNL A   1      32.697  27.762  24.577  1.00  0.00     0.063 A 
ATOM     21  C   UNL A   1      33.784  27.714  25.581  1.00  0.00     0.068 C 
BRANCH  17  22
ATOM     22  N   UNL A   1      30.158  29.940  23.601  1.00  0.00    -0.362 N 
ATOM     23  H   UNL A   1      30.396  30.754  24.102  1.00  0.00     0.162 HD
BRANCH  22  24
ATOM     24  C   UNL A   1      28.966  29.986  22.792  1.00  0.00     0.112 C 
ATOM     25  C   UNL A   1      28.006  30.990  23.413  1.00  0.00     0.027 C 
ENDBRANCH  22  24
ENDBRANCH  17  22
ENDBRANCH  14  16
ENDBRANCH   7  14
ENDBRANCH   3   6
ENDBRANCH   1   2
BRANCH   1  26
ATOM     26  C   UNL A   1      37.907  20.173  24.993  1.00  0.00     0.042 C 
BRANCH  26  27
ATOM     27  C   UNL A   1      39.129  20.508  25.838  1.00  0.00     0.118 C 
BRANCH  27  28
ATOM     28  N   UNL A   1      40.119  19.437  25.844  1.00  0.00    -0.352 N 
ATOM     29  C   UNL A   1      41.475  19.491  26.048  1.00  0.00     0.251 C 
ATOM     30  H   UNL A   1      39.759  18.536  25.676  1.00  0.00     0.163 HD
ATOM     31  O   UNL A   1      42.172  18.502  25.839  1.00  0.00    -0.269 OA
BRANCH  29  32
ATOM     32  C   UNL A   1      42.099  20.749  26.499  1.00  0.00     0.039 A 
ATOM     33  C   UNL A   1      42.594  21.648  25.548  1.00  0.00     0.014 A 
ATOM     34  C   UNL A   1      42.190  21.043  27.860  1.00  0.00     0.014 A 
ATOM     35  C   UNL A   1      43.104  22.880  25.962  1.00  0.00     0.010 A 
ATOM     36  C   UNL A   1      42.619  22.299  28.264  1.00  0.00     0.010 A 
ATOM     37  C   UNL A   1      43.080  23.231  27.320  1.00  0.00    -0.014 A 
BRANCH  37  38
ATOM     38  C   UNL A   1      43.547  24.552  27.809  1.00  0.00     0.031 A 
ATOM     39  C   UNL A   1      42.533  25.603  28.158  1.00  0.00     0.074 A 
ATOM     40  C   UNL A   1      44.861  24.842  27.822  1.00  0.00     0.049 A 
ATOM     41  N   UNL A   1      42.704  26.880  28.383  1.00  0.00    -0.248 NA
ATOM     42  C   UNL A   1      41.129  25.163  28.221  1.00  0.00     0.031 C 
ATOM     43  C   UNL A   1      45.940  23.912  27.484  1.00  0.00     0.029 A 
ATOM     44  N   UNL A   1      45.512  26.018  28.100  1.00  0.00    -0.354 N 
ATOM     45  C   UNL A   1      41.431  27.401  28.576  1.00  0.00     0.074 A 
ATOM     46  C   UNL A   1      40.494  26.311  28.402  1.00  0.00     0.031 C 
ATOM     47  C   UNL A   1      47.117  24.552  27.579  1.00  0.00     0.029 A 
ATOM     48  C   UNL A   1      46.873  25.948  27.930  1.00  0.00     0.049 A 
ATOM     49  H   UNL A   1      45.047  26.835  28.395  1.00  0.00     0.167 HD
ATOM     50  C   UNL A   1      41.079  28.670  28.886  1.00  0.00     0.037 A 
ATOM     51  C   UNL A   1      47.813  26.909  28.019  1.00  0.00     0.037 A 
ATOM     52  C   UNL A   1      42.019  29.737  29.098  1.00  0.00     0.049 A 
ATOM     53  C   UNL A   1      47.395  28.315  28.358  1.00  0.00     0.074 A 
ATOM     54  C   UNL A   1      41.770  31.045  29.470  1.00  0.00     0.029 A 
ATOM     55  N   UNL A   1      43.394  29.613  28.959  1.00  0.00    -0.354 N 
ATOM     56  N   UNL A   1      46.194  28.790  28.577  1.00  0.00    -0.248 NA
ATOM     57  C   UNL A   1      48.464  29.320  28.460  1.00  0.00     0.031 C 
ATOM     58  C   UNL A   1      42.991  31.724  29.518  1.00  0.00     0.029 A 
ATOM     59  C   UNL A   1      44.005  30.826  29.227  1.00  0.00     0.049 A 
ATOM     60  H   UNL A   1      43.866  28.785  28.708  1.00  0.00     0.167 HD
ATOM     61  C   UNL A   1      46.363  30.134  28.881  1.00  0.00     0.074 A 
ATOM     62  C   UNL A   1      47.784  30.402  28.816  1.00  0.00     0.031 C 
ATOM     63  C   UNL A   1      45.426  31.062  29.190  1.00  0.00     0.037 A 
BRANCH  50  64
ATOM     64  C   UNL A   1      39.615  28.975  29.013  1.00  0.00     0.064 A 
ATOM     65  C   UNL A   1      38.836  29.326  27.901  1.00  0.00     0.173 A 
ATOM     66  C   UNL A   1      38.975  28.882  30.259  1.00  0.00     0.173 A 
ATOM     67  F   UNL A   1      39.401  29.441  26.690  1.00  0.00    -0.203 F 
ATOM     68  C   UNL A   1      37.478  29.604  28.036  1.00  0.00     0.198 A 
ATOM     69  C   UNL A   1      37.611  29.128  30.385  1.00  0.00     0.198 A 
ATOM     70  F   UNL A   1      39.673  28.544  31.354  1.00  0.00    -0.203 F 
ATOM     71  F   UNL A   1      36.766  29.988  26.968  1.00  0.00    -0.200 F 
ATOM     72  C   UNL A   1      36.866  29.496  29.276  1.00  0.00     0.200 A 
ATOM     73  F   UNL A   1      37.018  29.011  31.581  1.00  0.00    -0.200 F 
ATOM     74  F   UNL A   1      35.557  29.757  29.402  1.00  0.00    -0.200 F 
ENDBRANCH  50  64
BRANCH  51  75
ATOM     75  C   UNL A   1      49.244  26.572  27.797  1.00  0.00     0.064 A 
ATOM     76  C   UNL A   1      49.759  26.454  26.499  1.00  0.00     0.173 A 
ATOM     77  C   UNL A   1      50.122  26.357  28.869  1.00  0.00     0.173 A 
ATOM     78  F   UNL A   1      48.953  26.630  25.441  1.00  0.00    -0.203 F 
ATOM     79  C   UNL A   1      51.092  26.115  26.280  1.00  0.00     0.198 A 
ATOM     80  C   UNL A   1      51.463  26.045  28.649  1.00  0.00     0.198 A 
ATOM     81  F   UNL A   1      49.682  26.463  30.131  1.00  0.00    -0.203 F 
ATOM     82  F   UNL A   1      51.546  25.965  25.029  1.00  0.00    -0.200 F 
ATOM     83  C   UNL A   1      51.945  25.916  27.356  1.00  0.00     0.200 A 
ATOM     84  F   UNL A   1      52.287  25.868  29.691  1.00  0.00    -0.200 F 
ATOM     85  F   UNL A   1      53.228  25.593  27.144  1.00  0.00    -0.200 F 
ENDBRANCH  51  75
BRANCH  63  86
ATOM     86  C   UNL A   1      45.898  32.438  29.549  1.00  0.00     0.064 A 
ATOM     87  C   UNL A   1      46.021  33.451  28.589  1.00  0.00     0.173 A 
ATOM     88  C   UNL A   1      46.142  32.768  30.893  1.00  0.00     0.173 A 
ATOM     89  F   UNL A   1      45.811  33.181  27.292  1.00  0.00    -0.203 F 
ATOM     90  C   UNL A   1      46.378  34.745  28.959  1.00  0.00     0.198 A 
ATOM     91  C   UNL A   1      46.473  34.068  31.262  1.00  0.00     0.198 A 
ATOM     92  F   UNL A   1      46.030  31.833  31.849  1.00  0.00    -0.203 F 
ATOM     93  F   UNL A   1      46.515  35.695  28.024  1.00  0.00    -0.200 F 
ATOM     94  C   UNL A   1      46.592  35.055  30.296  1.00  0.00     0.200 A 
ATOM     95  F   UNL A   1      46.665  34.367  32.554  1.00  0.00    -0.200 F 
ATOM     96  F   UNL A   1      46.914  36.306  30.652  1.00  0.00    -0.200 F 
ENDBRANCH  63  86
ENDBRANCH  37  38
ENDBRANCH  29  32
ENDBRANCH  27  28
ENDBRANCH  26  27
ENDBRANCH   1  26
TORSDOF 14
ENDMDL
MODEL 2
REMARK VINA RESULT:     -12.1      5.508     10.854
REMARK SMILES CCNc1nc(C)c(C(=O)N2CC[NH2+][C@H](C(=O)NCCCNC(=O)c3ccc(-c4c5nc(c(-c6c(F)c(F)c(F)c(F)c6F)c6ccc([nH]6)c(-c6c(F)c(F)c(F)c(F)c6F)c6nc(c(-c7c(F)c(F)c(F)c(F)c7F)c7ccc4[nH]7)C=C6)C=C5)cc3)C2)s1
REMARK SMILES IDX 19 1 18 2 16 3 17 4 15 6 11 7 12 8 88 9 13 10 14 11 9 14
REMARK SMILES IDX 10 15 8 16 4 17 5 18 89 19 6 20 7 21 3 22 2 24 1 25 20 26
REMARK SMILES IDX 21 27 22 28 23 29 24 31 25 32 26 33 87 34 27 35 86 36 28 37
REMARK SMILES IDX 29 38 30 39 80 40 31 41 85 42 79 43 81 44 32 45 84 46 78 47
REMARK SMILES IDX 77 48 33 50 65 51 45 52 64 53 46 54 49 55 63 56 82 57 47 58
REMARK SMILES IDX 48 59 62 61 83 62 50 63 34 64 35 65 43 66 36 67 37 68 41 69
REMARK SMILES IDX 44 70 38 71 39 72 42 73 40 74 66 75 67 76 75 77 68 78 69 79
REMARK SMILES IDX 73 80 76 81 70 82 71 83 74 84 72 85 51 86 52 87 60 88 53 89
REMARK SMILES IDX 54 90 58 91 61 92 55 93 56 94 59 95 57 96
REMARK H PARENT 18 5 14 12 14 13 3 23 22 30 81 49 49 60
REMARK Flexibility Score: inf
ROOT
ATOM      1  C   UNL A   1      31.810  30.668  26.162  1.00  0.00     0.118 C 
ENDROOT
BRANCH   1   2
ATOM      2  N   UNL A   1      32.981  30.026  26.742  1.00  0.00    -0.351 N 
ATOM      3  C   UNL A   1      33.720  28.995  26.221  1.00  0.00     0.280 C 
ATOM      4  O   UNL A   1      34.711  28.596  26.833  1.00  0.00    -0.268 OA
ATOM      5  H   UNL A   1      33.277  30.374  27.615  1.00  0.00     0.163 HD
BRANCH   3   6
ATOM      6  C   UNL A   1      33.264  28.387  24.892  1.00  0.00     0.292 C 
ATOM      7  N   UNL A   1      32.913  26.308  23.604  1.00  0.00    -0.326 N 
ATOM      8  C   UNL A   1      33.645  26.869  22.469  1.00  0.00     0.181 C 
ATOM      9  C   UNL A   1      33.308  26.846  24.914  1.00  0.00     0.195 C 
ATOM     10  C   UNL A   1      33.600  28.406  22.501  1.00  0.00     0.283 C 
ATOM     11  N   UNL A   1      34.077  28.963  23.779  1.00  0.00    -0.333 N 
ATOM     12  H   UNL A   1      33.974  29.979  23.769  1.00  0.00     0.347 HD
ATOM     13  H   UNL A   1      35.060  28.729  23.912  1.00  0.00     0.347 HD
BRANCH   7  14
ATOM     14  C   UNL A   1      32.255  25.094  23.426  1.00  0.00     0.266 C 
ATOM     15  O   UNL A   1      31.231  25.072  22.738  1.00  0.00    -0.268 OA
BRANCH  14  16
ATOM     16  C   UNL A   1      32.713  23.930  24.175  1.00  0.00     0.117 A 
ATOM     17  C   UNL A   1      33.666  21.729  24.657  1.00  0.00     0.183 A 
ATOM     18  N   UNL A   1      32.821  22.076  25.593  1.00  0.00    -0.225 NA
ATOM     19  S   UNL A   1      33.938  22.933  23.470  1.00  0.00    -0.092 S 
ATOM     20  C   UNL A   1      32.270  23.319  25.341  1.00  0.00     0.063 A 
ATOM     21  C   UNL A   1      31.228  23.740  26.305  1.00  0.00     0.068 C 
BRANCH  17  22
ATOM     22  N   UNL A   1      34.191  20.490  24.668  1.00  0.00    -0.362 N 
ATOM     23  H   UNL A   1      35.154  20.404  24.486  1.00  0.00     0.162 HD
BRANCH  22  24
ATOM     24  C   UNL A   1      33.454  19.278  24.926  1.00  0.00     0.112 C 
ATOM     25  C   UNL A   1      32.550  19.006  23.732  1.00  0.00     0.027 C 
ENDBRANCH  22  24
ENDBRANCH  17  22
ENDBRANCH  14  16
ENDBRANCH   7  14
ENDBRANCH   3   6
ENDBRANCH   1   2
BRANCH   1  26
ATOM     26  C   UNL A   1      31.484  31.989  26.841  1.00  0.00     0.042 C 
BRANCH  26  27
ATOM     27  C   UNL A   1      32.712  32.735  27.344  1.00  0.00     0.118 C 
BRANCH  27  28
ATOM     28  N   UNL A   1      32.437  34.135  27.647  1.00  0.00    -0.352 N 
ATOM     29  C   UNL A   1      33.003  34.963  28.583  1.00  0.00     0.251 C 
ATOM     30  H   UNL A   1      31.735  34.550  27.093  1.00  0.00     0.163 HD
ATOM     31  O   UNL A   1      32.515  36.066  28.808  1.00  0.00    -0.269 OA
BRANCH  29  32
ATOM     32  C   UNL A   1      34.191  34.516  29.335  1.00  0.00     0.039 A 
ATOM     33  C   UNL A   1      34.025  33.955  30.605  1.00  0.00     0.014 A 
ATOM     34  C   UNL A   1      35.466  34.645  28.781  1.00  0.00     0.014 A 
ATOM     35  C   UNL A   1      35.134  33.447  31.285  1.00  0.00     0.010 A 
ATOM     36  C   UNL A   1      36.553  34.065  29.420  1.00  0.00     0.010 A 
ATOM     37  C   UNL A   1      36.399  33.461  30.678  1.00  0.00    -0.014 A 
BRANCH  37  38
ATOM     38  C   UNL A   1      37.599  32.876  31.325  1.00  0.00     0.031 A 
ATOM     39  C   UNL A   1      38.303  31.727  30.660  1.00  0.00     0.074 A 
ATOM     40  C   UNL A   1      37.976  33.288  32.549  1.00  0.00     0.049 A 
ATOM     41  N   UNL A   1      39.215  30.922  31.139  1.00  0.00    -0.248 NA
ATOM     42  C   UNL A   1      37.892  31.418  29.281  1.00  0.00     0.031 C 
ATOM     43  C   UNL A   1      37.359  34.379  33.306  1.00  0.00     0.029 A 
ATOM     44  N   UNL A   1      38.953  32.814  33.389  1.00  0.00    -0.354 N 
ATOM     45  C   UNL A   1      39.459  29.992  30.137  1.00  0.00     0.074 A 
ATOM     46  C   UNL A   1      38.571  30.307  29.039  1.00  0.00     0.031 C 
ATOM     47  C   UNL A   1      37.973  34.491  34.494  1.00  0.00     0.029 A 
ATOM     48  C   UNL A   1      38.990  33.449  34.607  1.00  0.00     0.049 A 
ATOM     49  H   UNL A   1      39.570  32.087  33.142  1.00  0.00     0.167 HD
ATOM     50  C   UNL A   1      40.354  28.978  30.130  1.00  0.00     0.037 A 
ATOM     51  C   UNL A   1      39.738  33.199  35.698  1.00  0.00     0.037 A 
ATOM     52  C   UNL A   1      41.262  28.698  31.209  1.00  0.00     0.049 A 
ATOM     53  C   UNL A   1      40.722  32.060  35.667  1.00  0.00     0.074 A 
ATOM     54  C   UNL A   1      42.247  27.730  31.279  1.00  0.00     0.029 A 
ATOM     55  N   UNL A   1      41.297  29.395  32.409  1.00  0.00    -0.354 N 
ATOM     56  N   UNL A   1      40.973  31.211  34.702  1.00  0.00    -0.248 NA
ATOM     57  C   UNL A   1      41.526  31.843  36.879  1.00  0.00     0.031 C 
ATOM     58  C   UNL A   1      42.852  27.814  32.537  1.00  0.00     0.029 A 
ATOM     59  C   UNL A   1      42.279  28.869  33.230  1.00  0.00     0.049 A 
ATOM     60  H   UNL A   1      40.711  30.152  32.641  1.00  0.00     0.167 HD
ATOM     61  C   UNL A   1      41.988  30.387  35.171  1.00  0.00     0.074 A 
ATOM     62  C   UNL A   1      42.305  30.835  36.510  1.00  0.00     0.031 C 
ATOM     63  C   UNL A   1      42.603  29.353  34.547  1.00  0.00     0.037 A 
BRANCH  50  64
ATOM     64  C   UNL A   1      40.396  28.095  28.917  1.00  0.00     0.064 A 
ATOM     65  C   UNL A   1      39.680  26.889  28.859  1.00  0.00     0.173 A 
ATOM     66  C   UNL A   1      41.133  28.475  27.785  1.00  0.00     0.173 A 
ATOM     67  F   UNL A   1      38.970  26.474  29.918  1.00  0.00    -0.203 F 
ATOM     68  C   UNL A   1      39.728  26.082  27.726  1.00  0.00     0.198 A 
ATOM     69  C   UNL A   1      41.152  27.681  26.642  1.00  0.00     0.198 A 
ATOM     70  F   UNL A   1      41.831  29.621  27.786  1.00  0.00    -0.203 F 
ATOM     71  F   UNL A   1      39.079  24.910  27.713  1.00  0.00    -0.200 F 
ATOM     72  C   UNL A   1      40.456  26.483  26.616  1.00  0.00     0.200 A 
ATOM     73  F   UNL A   1      41.845  28.077  25.565  1.00  0.00    -0.200 F 
ATOM     74  F   UNL A   1      40.494  25.708  25.522  1.00  0.00    -0.200 F 
ENDBRANCH  50  64
BRANCH  51  75
ATOM     75  C   UNL A   1      39.596  34.051  36.908  1.00  0.00     0.064 A 
ATOM     76  C   UNL A   1      38.799  33.640  37.985  1.00  0.00     0.173 A 
ATOM     77  C   UNL A   1      40.246  35.290  37.013  1.00  0.00     0.173 A 
ATOM     78  F   UNL A   1      38.142  32.472  37.922  1.00  0.00    -0.203 F 
ATOM     79  C   UNL A   1      38.641  34.442  39.112  1.00  0.00     0.198 A 
ATOM     80  C   UNL A   1      40.108  36.080  38.154  1.00  0.00     0.198 A 
ATOM     81  F   UNL A   1      41.025  35.728  36.014  1.00  0.00    -0.203 F 
ATOM     82  F   UNL A   1      37.837  34.043  40.107  1.00  0.00    -0.200 F 
ATOM     83  C   UNL A   1      39.299  35.659  39.198  1.00  0.00     0.200 A 
ATOM     84  F   UNL A   1      40.759  37.248  38.239  1.00  0.00    -0.200 F 
ATOM     85  F   UNL A   1      39.150  36.428  40.285  1.00  0.00    -0.200 F 
ENDBRANCH  51  75
BRANCH  63  86
ATOM     86  C   UNL A   1      43.727  28.673  35.267  1.00  0.00     0.064 A 
ATOM     87  C   UNL A   1      45.057  29.088  35.119  1.00  0.00     0.173 A 
ATOM     88  C   UNL A   1      43.454  27.650  36.190  1.00  0.00     0.173 A 
ATOM     89  F   UNL A   1      45.370  30.052  34.240  1.00  0.00    -0.203 F 
ATOM     90  C   UNL A   1      46.076  28.499  35.863  1.00  0.00     0.198 A 
ATOM     91  C   UNL A   1      44.470  27.082  36.951  1.00  0.00     0.198 A 
ATOM     92  F   UNL A   1      42.194  27.224  36.371  1.00  0.00    -0.203 F 
ATOM     93  F   UNL A   1      47.345  28.892  35.690  1.00  0.00    -0.200 F 
ATOM     94  C   UNL A   1      45.780  27.505  36.787  1.00  0.00     0.200 A 
ATOM     95  F   UNL A   1      44.180  26.134  37.852  1.00  0.00    -0.200 F 
ATOM     96  F   UNL A   1      46.758  26.955  37.518  1.00  0.00    -0.200 F 
ENDBRANCH  63  86
ENDBRANCH  37  38
ENDBRANCH  29  32
ENDBRANCH  27  28
ENDBRANCH  26  27
ENDBRANCH   1  26
TORSDOF 14
ENDMDL
MODEL 3
REMARK VINA RESULT:     -12.0      1.402      2.037
REMARK SMILES CCNc1nc(C)c(C(=O)N2CC[NH2+][C@H](C(=O)NCCCNC(=O)c3ccc(-c4c5nc(c(-c6c(F)c(F)c(F)c(F)c6F)c6ccc([nH]6)c(-c6c(F)c(F)c(F)c(F)c6F)c6nc(c(-c7c(F)c(F)c(F)c(F)c7F)c7ccc4[nH]7)C=C6)C=C5)cc3)C2)s1
REMARK SMILES IDX 19 1 18 2 16 3 17 4 15 6 11 7 12 8 88 9 13 10 14 11 9 14
REMARK SMILES IDX 10 15 8 16 4 17 5 18 89 19 6 20 7 21 3 22 2 24 1 25 20 26
REMARK SMILES IDX 21 27 22 28 23 29 24 31 25 32 26 33 87 34 27 35 86 36 28 37
REMARK SMILES IDX 29 38 30 39 80 40 31 41 85 42 79 43 81 44 32 45 84 46 78 47
REMARK SMILES IDX 77 48 33 50 65 51 45 52 64 53 46 54 49 55 63 56 82 57 47 58
REMARK SMILES IDX 48 59 62 61 83 62 50 63 34 64 35 65 43 66 36 67 37 68 41 69
REMARK SMILES IDX 44 70 38 71 39 72 42 73 40 74 66 75 67 76 75 77 68 78 69 79
REMARK SMILES IDX 73 80 76 81 70 82 71 83 74 84 72 85 51 86 52 87 60 88 53 89
REMARK SMILES IDX 54 90 58 91 61 92 55 93 56 94 59 95 57 96
REMARK H PARENT 18 5 14 12 14 13 3 23 22 30 81 49 49 60
REMARK Flexibility Score: inf
ROOT
ATOM      1  C   UNL A   1      37.379  21.165  24.572  1.00  0.00     0.118 C 
ENDROOT
BRANCH   1   2
ATOM      2  N   UNL A   1      37.859  22.364  25.244  1.00  0.00    -0.351 N 
ATOM      3  C   UNL A   1      37.114  23.385  25.777  1.00  0.00     0.280 C 
ATOM      4  O   UNL A   1      37.687  24.312  26.349  1.00  0.00    -0.268 OA
ATOM      5  H   UNL A   1      38.836  22.452  25.324  1.00  0.00     0.163 HD
BRANCH   3   6
ATOM      6  C   UNL A   1      35.592  23.314  25.628  1.00  0.00     0.292 C 
ATOM      7  N   UNL A   1      33.555  24.476  24.849  1.00  0.00    -0.326 N 
ATOM      8  C   UNL A   1      32.894  24.206  26.125  1.00  0.00     0.181 C 
ATOM      9  C   UNL A   1      35.021  24.563  24.924  1.00  0.00     0.195 C 
ATOM     10  C   UNL A   1      33.512  22.973  26.805  1.00  0.00     0.283 C 
ATOM     11  N   UNL A   1      34.973  23.084  26.967  1.00  0.00    -0.333 N 
ATOM     12  H   UNL A   1      35.339  22.220  27.370  1.00  0.00     0.347 HD
ATOM     13  H   UNL A   1      35.193  23.862  27.589  1.00  0.00     0.347 HD
BRANCH   7  14
ATOM     14  C   UNL A   1      32.794  25.020  23.817  1.00  0.00     0.266 C 
ATOM     15  O   UNL A   1      32.727  24.409  22.747  1.00  0.00    -0.268 OA
BRANCH  14  16
ATOM     16  C   UNL A   1      32.231  26.354  23.987  1.00  0.00     0.117 A 
ATOM     17  C   UNL A   1      32.064  28.730  24.545  1.00  0.00     0.183 A 
ATOM     18  N   UNL A   1      30.891  28.158  24.625  1.00  0.00    -0.225 NA
ATOM     19  S   UNL A   1      33.312  27.705  23.974  1.00  0.00    -0.092 S 
ATOM     20  C   UNL A   1      30.961  26.813  24.312  1.00  0.00     0.063 A 
ATOM     21  C   UNL A   1      29.690  26.072  24.475  1.00  0.00     0.068 C 
BRANCH  17  22
ATOM     22  N   UNL A   1      32.206  30.005  24.951  1.00  0.00    -0.362 N 
ATOM     23  H   UNL A   1      32.521  30.660  24.288  1.00  0.00     0.162 HD
BRANCH  22  24
ATOM     24  C   UNL A   1      31.931  30.488  26.281  1.00  0.00     0.112 C 
ATOM     25  C   UNL A   1      32.855  29.766  27.251  1.00  0.00     0.027 C 
ENDBRANCH  22  24
ENDBRANCH  17  22
ENDBRANCH  14  16
ENDBRANCH   7  14
ENDBRANCH   3   6
ENDBRANCH   1   2
BRANCH   1  26
ATOM     26  C   UNL A   1      38.145  19.922  24.998  1.00  0.00     0.042 C 
BRANCH  26  27
ATOM     27  C   UNL A   1      39.278  20.210  25.974  1.00  0.00     0.118 C 
BRANCH  27  28
ATOM     28  N   UNL A   1      40.280  19.150  26.002  1.00  0.00    -0.352 N 
ATOM     29  C   UNL A   1      41.645  19.229  26.115  1.00  0.00     0.251 C 
ATOM     30  H   UNL A   1      39.920  18.236  25.929  1.00  0.00     0.163 HD
ATOM     31  O   UNL A   1      42.339  18.232  25.942  1.00  0.00    -0.269 OA
BRANCH  29  32
ATOM     32  C   UNL A   1      42.281  20.524  26.424  1.00  0.00     0.039 A 
ATOM     33  C   UNL A   1      42.730  21.335  25.376  1.00  0.00     0.014 A 
ATOM     34  C   UNL A   1      42.427  20.939  27.749  1.00  0.00     0.014 A 
ATOM     35  C   UNL A   1      43.250  22.600  25.656  1.00  0.00     0.010 A 
ATOM     36  C   UNL A   1      42.866  22.227  28.020  1.00  0.00     0.010 A 
ATOM     37  C   UNL A   1      43.282  23.071  26.977  1.00  0.00    -0.014 A 
BRANCH  37  38
ATOM     38  C   UNL A   1      43.762  24.431  27.326  1.00  0.00     0.031 A 
ATOM     39  C   UNL A   1      42.777  25.450  27.824  1.00  0.00     0.074 A 
ATOM     40  C   UNL A   1      45.039  24.781  27.082  1.00  0.00     0.049 A 
ATOM     41  N   UNL A   1      42.920  26.741  27.970  1.00  0.00    -0.248 NA
ATOM     42  C   UNL A   1      41.435  24.950  28.163  1.00  0.00     0.031 C 
ATOM     43  C   UNL A   1      46.083  23.887  26.579  1.00  0.00     0.029 A 
ATOM     44  N   UNL A   1      45.668  25.996  27.194  1.00  0.00    -0.354 N 
ATOM     45  C   UNL A   1      41.680  27.212  28.381  1.00  0.00     0.074 A 
ATOM     46  C   UNL A   1      40.785  26.075  28.422  1.00  0.00     0.031 C 
ATOM     47  C   UNL A   1      47.222  24.583  26.430  1.00  0.00     0.029 A 
ATOM     48  C   UNL A   1      46.976  25.980  26.774  1.00  0.00     0.049 A 
ATOM     49  H   UNL A   1      45.224  26.802  27.543  1.00  0.00     0.167 HD
ATOM     50  C   UNL A   1      41.325  28.476  28.708  1.00  0.00     0.037 A 
ATOM     51  C   UNL A   1      47.865  26.985  26.653  1.00  0.00     0.037 A 
ATOM     52  C   UNL A   1      42.232  29.592  28.704  1.00  0.00     0.049 A 
ATOM     53  C   UNL A   1      47.444  28.384  27.017  1.00  0.00     0.074 A 
ATOM     54  C   UNL A   1      41.988  30.903  29.073  1.00  0.00     0.029 A 
ATOM     55  N   UNL A   1      43.562  29.524  28.314  1.00  0.00    -0.354 N 
ATOM     56  N   UNL A   1      46.281  28.813  27.442  1.00  0.00    -0.248 NA
ATOM     57  C   UNL A   1      48.459  29.440  26.884  1.00  0.00     0.031 C 
ATOM     58  C   UNL A   1      43.160  31.637  28.869  1.00  0.00     0.029 A 
ATOM     59  C   UNL A   1      44.147  30.774  28.423  1.00  0.00     0.049 A 
ATOM     60  H   UNL A   1      44.021  28.709  28.007  1.00  0.00     0.167 HD
ATOM     61  C   UNL A   1      46.433  30.175  27.664  1.00  0.00     0.074 A 
ATOM     62  C   UNL A   1      47.802  30.504  27.324  1.00  0.00     0.031 C 
ATOM     63  C   UNL A   1      45.522  31.072  28.112  1.00  0.00     0.037 A 
BRANCH  50  64
ATOM     64  C   UNL A   1      39.897  28.719  29.098  1.00  0.00     0.064 A 
ATOM     65  C   UNL A   1      38.934  29.114  28.157  1.00  0.00     0.173 A 
ATOM     66  C   UNL A   1      39.478  28.523  30.423  1.00  0.00     0.173 A 
ATOM     67  F   UNL A   1      39.284  29.328  26.881  1.00  0.00    -0.203 F 
ATOM     68  C   UNL A   1      37.612  29.334  28.535  1.00  0.00     0.198 A 
ATOM     69  C   UNL A   1      38.148  28.713  30.790  1.00  0.00     0.198 A 
ATOM     70  F   UNL A   1      40.357  28.140  31.361  1.00  0.00    -0.203 F 
ATOM     71  F   UNL A   1      36.721  29.762  27.630  1.00  0.00    -0.200 F 
ATOM     72  C   UNL A   1      37.219  29.125  29.849  1.00  0.00     0.200 A 
ATOM     73  F   UNL A   1      37.768  28.497  32.057  1.00  0.00    -0.200 F 
ATOM     74  F   UNL A   1      35.944  29.330  30.209  1.00  0.00    -0.200 F 
ENDBRANCH  50  64
BRANCH  51  75
ATOM     75  C   UNL A   1      49.244  26.704  26.178  1.00  0.00     0.064 A 
ATOM     76  C   UNL A   1      50.226  26.237  27.063  1.00  0.00     0.173 A 
ATOM     77  C   UNL A   1      49.613  26.900  24.838  1.00  0.00     0.173 A 
ATOM     78  F   UNL A   1      49.926  26.054  28.357  1.00  0.00    -0.203 F 
ATOM     79  C   UNL A   1      51.528  25.993  26.631  1.00  0.00     0.198 A 
ATOM     80  C   UNL A   1      50.910  26.630  24.402  1.00  0.00     0.198 A 
ATOM     81  F   UNL A   1      48.711  27.340  23.950  1.00  0.00    -0.203 F 
ATOM     82  F   UNL A   1      52.456  25.590  27.509  1.00  0.00    -0.200 F 
ATOM     83  C   UNL A   1      51.868  26.185  25.301  1.00  0.00     0.200 A 
ATOM     84  F   UNL A   1      51.230  26.802  23.113  1.00  0.00    -0.200 F 
ATOM     85  F   UNL A   1      53.119  25.947  24.886  1.00  0.00    -0.200 F 
ENDBRANCH  51  75
BRANCH  63  86
ATOM     86  C   UNL A   1      45.981  32.482  28.330  1.00  0.00     0.064 A 
ATOM     87  C   UNL A   1      45.870  33.458  27.331  1.00  0.00     0.173 A 
ATOM     88  C   UNL A   1      46.452  32.880  29.592  1.00  0.00     0.173 A 
ATOM     89  F   UNL A   1      45.438  33.123  26.106  1.00  0.00    -0.203 F 
ATOM     90  C   UNL A   1      46.222  34.781  27.584  1.00  0.00     0.198 A 
ATOM     91  C   UNL A   1      46.777  34.208  29.849  1.00  0.00     0.198 A 
ATOM     92  F   UNL A   1      46.568  31.982  30.583  1.00  0.00    -0.203 F 
ATOM     93  F   UNL A   1      46.133  35.696  26.608  1.00  0.00    -0.200 F 
ATOM     94  C   UNL A   1      46.663  35.158  28.845  1.00  0.00     0.200 A 
ATOM     95  F   UNL A   1      47.189  34.570  31.071  1.00  0.00    -0.200 F 
ATOM     96  F   UNL A   1      46.980  36.435  29.092  1.00  0.00    -0.200 F 
ENDBRANCH  63  86
ENDBRANCH  37  38
ENDBRANCH  29  32
ENDBRANCH  27  28
ENDBRANCH  26  27
ENDBRANCH   1  26
TORSDOF 14
ENDMDL
