MODEL 1
REMARK VINA RESULT:     -12.0      0.000      0.000
REMARK SMILES COCc1cc(OCC(=O)NCCCNC(=O)c2ccc(-c3c4nc(c(-c5c(F)c(F)c(F)c(F)c5F)c5ccc([nH]5)c(-c5c(F)c(F)c(F)c(F)c5F)c5nc(c(-c6c(F)c(F)c(F)c(F)c6F)c6ccc3[nH]6)C=C5)C=C4)cc2)nc(Nc2cccc(C)c2C)n1
REMARK SMILES IDX 12 1 11 2 9 3 10 4 8 6 7 7 6 8 4 9 5 10 92 11 82 12 81 13
REMARK SMILES IDX 3 14 2 15 1 16 83 17 84 19 85 20 90 21 86 22 88 23 91 24
REMARK SMILES IDX 87 25 89 26 13 27 14 28 15 29 16 30 17 32 18 33 19 34 80 35
REMARK SMILES IDX 20 36 79 37 21 38 22 39 23 40 73 41 24 42 78 43 72 44 74 45
REMARK SMILES IDX 25 46 77 47 71 48 70 49 26 51 58 52 38 53 57 54 39 55 42 56
REMARK SMILES IDX 56 57 75 58 40 59 41 60 55 62 76 63 43 64 27 65 28 66 36 67
REMARK SMILES IDX 29 68 30 69 34 70 37 71 31 72 32 73 35 74 33 75 59 76 60 77
REMARK SMILES IDX 68 78 61 79 62 80 66 81 69 82 63 83 64 84 67 85 65 86 44 87
REMARK SMILES IDX 45 88 53 89 46 90 47 91 51 92 54 93 48 94 49 95 52 96 50 97
REMARK H PARENT 11 5 83 18 15 31 74 50 42 61
REMARK Flexibility Score: inf
ROOT
ATOM      1  C   UNL A   1      37.594  21.403  24.550  1.00  0.00     0.117 C 
ENDROOT
BRANCH   1   2
ATOM      2  N   UNL A   1      38.089  22.507  25.349  1.00  0.00    -0.353 N 
ATOM      3  C   UNL A   1      37.417  23.606  25.792  1.00  0.00     0.258 C 
ATOM      4  O   UNL A   1      38.027  24.434  26.473  1.00  0.00    -0.271 OA
ATOM      5  H   UNL A   1      39.039  22.456  25.605  1.00  0.00     0.163 HD
BRANCH   3   6
ATOM      6  C   UNL A   1      35.933  23.793  25.450  1.00  0.00     0.331 C 
BRANCH   6   7
ATOM      7  O   UNL A   1      35.023  22.860  26.005  1.00  0.00    -0.467 OA
BRANCH   7   8
ATOM      8  C   UNL A   1      34.154  22.225  25.162  1.00  0.00     0.218 A 
ATOM      9  C   UNL A   1      32.916  20.427  24.307  1.00  0.00     0.076 A 
ATOM     10  C   UNL A   1      33.932  20.868  25.127  1.00  0.00     0.095 A 
ATOM     11  N   UNL A   1      32.207  21.285  23.556  1.00  0.00    -0.215 NA
ATOM     12  C   UNL A   1      32.530  22.586  23.584  1.00  0.00     0.230 A 
ATOM     13  N   UNL A   1      33.487  23.087  24.375  1.00  0.00    -0.177 NA
BRANCH   9  14
ATOM     14  C   UNL A   1      32.530  18.957  24.348  1.00  0.00     0.216 C 
BRANCH  14  15
ATOM     15  O   UNL A   1      32.478  18.333  25.632  1.00  0.00    -0.378 OA
ATOM     16  C   UNL A   1      32.863  16.966  25.613  1.00  0.00     0.195 C 
ENDBRANCH  14  15
ENDBRANCH   9  14
BRANCH  12  17
ATOM     17  N   UNL A   1      31.852  23.488  22.763  1.00  0.00    -0.324 N 
ATOM     18  H   UNL A   1      31.769  23.231  21.816  1.00  0.00     0.170 HD
BRANCH  17  19
ATOM     19  C   UNL A   1      31.276  24.716  23.124  1.00  0.00     0.044 A 
ATOM     20  C   UNL A   1      30.384  24.730  24.206  1.00  0.00     0.026 A 
ATOM     21  C   UNL A   1      31.643  25.940  22.511  1.00  0.00    -0.025 A 
ATOM     22  C   UNL A   1      29.891  25.930  24.714  1.00  0.00     0.002 A 
ATOM     23  C   UNL A   1      31.173  27.160  23.055  1.00  0.00    -0.046 A 
ATOM     24  C   UNL A   1      32.473  25.956  21.250  1.00  0.00     0.047 C 
ATOM     25  C   UNL A   1      30.297  27.136  24.153  1.00  0.00     0.004 A 
ATOM     26  C   UNL A   1      31.575  28.511  22.525  1.00  0.00     0.044 C 
ENDBRANCH  17  19
ENDBRANCH  12  17
ENDBRANCH   7   8
ENDBRANCH   6   7
ENDBRANCH   3   6
ENDBRANCH   1   2
BRANCH   1  27
ATOM     27  C   UNL A   1      38.153  20.058  25.001  1.00  0.00     0.042 C 
BRANCH  27  28
ATOM     28  C   UNL A   1      39.181  20.141  26.128  1.00  0.00     0.118 C 
BRANCH  28  29
ATOM     29  N   UNL A   1      40.226  19.128  26.031  1.00  0.00    -0.352 N 
ATOM     30  C   UNL A   1      41.592  19.244  26.075  1.00  0.00     0.251 C 
ATOM     31  H   UNL A   1      39.896  18.207  25.914  1.00  0.00     0.163 HD
ATOM     32  O   UNL A   1      42.292  18.267  25.810  1.00  0.00    -0.269 OA
BRANCH  30  33
ATOM     33  C   UNL A   1      42.236  20.532  26.409  1.00  0.00     0.039 A 
ATOM     34  C   UNL A   1      42.728  21.328  25.369  1.00  0.00     0.014 A 
ATOM     35  C   UNL A   1      42.374  20.953  27.734  1.00  0.00     0.014 A 
ATOM     36  C   UNL A   1      43.271  22.584  25.650  1.00  0.00     0.010 A 
ATOM     37  C   UNL A   1      42.850  22.233  28.007  1.00  0.00     0.010 A 
ATOM     38  C   UNL A   1      43.288  23.069  26.967  1.00  0.00    -0.014 A 
BRANCH  38  39
ATOM     39  C   UNL A   1      43.710  24.459  27.277  1.00  0.00     0.031 A 
ATOM     40  C   UNL A   1      42.710  25.473  27.752  1.00  0.00     0.074 A 
ATOM     41  C   UNL A   1      44.985  24.829  27.041  1.00  0.00     0.049 A 
ATOM     42  N   UNL A   1      42.865  26.758  27.953  1.00  0.00    -0.248 NA
ATOM     43  C   UNL A   1      41.348  24.984  28.013  1.00  0.00     0.031 C 
ATOM     44  C   UNL A   1      46.043  23.946  26.548  1.00  0.00     0.029 A 
ATOM     45  N   UNL A   1      45.603  26.051  27.161  1.00  0.00    -0.354 N 
ATOM     46  C   UNL A   1      41.622  27.231  28.352  1.00  0.00     0.074 A 
ATOM     47  C   UNL A   1      40.711  26.105  28.320  1.00  0.00     0.031 C 
ATOM     48  C   UNL A   1      47.178  24.649  26.418  1.00  0.00     0.029 A 
ATOM     49  C   UNL A   1      46.918  26.043  26.765  1.00  0.00     0.049 A 
ATOM     50  H   UNL A   1      45.146  26.854  27.500  1.00  0.00     0.167 HD
ATOM     51  C   UNL A   1      41.276  28.487  28.725  1.00  0.00     0.037 A 
ATOM     52  C   UNL A   1      47.808  27.049  26.664  1.00  0.00     0.037 A 
ATOM     53  C   UNL A   1      42.190  29.599  28.767  1.00  0.00     0.049 A 
ATOM     54  C   UNL A   1      47.384  28.444  27.036  1.00  0.00     0.074 A 
ATOM     55  C   UNL A   1      41.953  30.893  29.197  1.00  0.00     0.029 A 
ATOM     56  N   UNL A   1      43.514  29.553  28.352  1.00  0.00    -0.354 N 
ATOM     57  N   UNL A   1      46.228  28.865  27.484  1.00  0.00    -0.248 NA
ATOM     58  C   UNL A   1      48.390  29.505  26.883  1.00  0.00     0.031 C 
ATOM     59  C   UNL A   1      43.112  31.646  28.983  1.00  0.00     0.029 A 
ATOM     60  C   UNL A   1      44.091  30.808  28.475  1.00  0.00     0.049 A 
ATOM     61  H   UNL A   1      43.973  28.749  28.020  1.00  0.00     0.167 HD
ATOM     62  C   UNL A   1      46.369  30.232  27.683  1.00  0.00     0.074 A 
ATOM     63  C   UNL A   1      47.732  30.567  27.330  1.00  0.00     0.031 C 
ATOM     64  C   UNL A   1      45.449  31.128  28.117  1.00  0.00     0.037 A 
BRANCH  51  65
ATOM     65  C   UNL A   1      39.846  28.733  29.111  1.00  0.00     0.064 A 
ATOM     66  C   UNL A   1      39.403  28.586  30.435  1.00  0.00     0.173 A 
ATOM     67  C   UNL A   1      38.917  29.170  28.155  1.00  0.00     0.173 A 
ATOM     68  F   UNL A   1      40.249  28.166  31.387  1.00  0.00    -0.203 F 
ATOM     69  C   UNL A   1      38.078  28.838  30.779  1.00  0.00     0.198 A 
ATOM     70  C   UNL A   1      37.600  29.452  28.510  1.00  0.00     0.198 A 
ATOM     71  F   UNL A   1      39.288  29.335  26.877  1.00  0.00    -0.203 F 
ATOM     72  F   UNL A   1      37.667  28.644  32.041  1.00  0.00    -0.200 F 
ATOM     73  C   UNL A   1      37.179  29.278  29.819  1.00  0.00     0.200 A 
ATOM     74  F   UNL A   1      36.737  29.893  27.584  1.00  0.00    -0.200 F 
ATOM     75  F   UNL A   1      35.907  29.530  30.155  1.00  0.00    -0.200 F 
ENDBRANCH  51  65
BRANCH  52  76
ATOM     76  C   UNL A   1      49.187  26.775  26.179  1.00  0.00     0.064 A 
ATOM     77  C   UNL A   1      50.186  26.336  27.059  1.00  0.00     0.173 A 
ATOM     78  C   UNL A   1      49.538  26.952  24.832  1.00  0.00     0.173 A 
ATOM     79  F   UNL A   1      49.907  26.173  28.360  1.00  0.00    -0.203 F 
ATOM     80  C   UNL A   1      51.486  26.104  26.614  1.00  0.00     0.198 A 
ATOM     81  C   UNL A   1      50.830  26.689  24.382  1.00  0.00     0.198 A 
ATOM     82  F   UNL A   1      48.620  27.368  23.948  1.00  0.00    -0.203 F 
ATOM     83  F   UNL A   1      52.433  25.731  27.487  1.00  0.00    -0.200 F 
ATOM     84  C   UNL A   1      51.806  26.273  25.276  1.00  0.00     0.200 A 
ATOM     85  F   UNL A   1      51.130  26.838  23.085  1.00  0.00    -0.200 F 
ATOM     86  F   UNL A   1      53.055  26.044  24.849  1.00  0.00    -0.200 F 
ENDBRANCH  52  76
BRANCH  64  87
ATOM     87  C   UNL A   1      45.886  32.559  28.244  1.00  0.00     0.064 A 
ATOM     88  C   UNL A   1      46.554  33.023  29.386  1.00  0.00     0.173 A 
ATOM     89  C   UNL A   1      45.689  33.462  27.187  1.00  0.00     0.173 A 
ATOM     90  F   UNL A   1      46.753  32.206  30.431  1.00  0.00    -0.203 F 
ATOM     91  C   UNL A   1      46.996  34.342  29.473  1.00  0.00     0.198 A 
ATOM     92  C   UNL A   1      46.159  34.770  27.264  1.00  0.00     0.198 A 
ATOM     93  F   UNL A   1      45.059  33.068  26.070  1.00  0.00    -0.203 F 
ATOM     94  F   UNL A   1      47.598  34.772  30.589  1.00  0.00    -0.200 F 
ATOM     95  C   UNL A   1      46.808  35.210  28.407  1.00  0.00     0.200 A 
ATOM     96  F   UNL A   1      45.991  35.602  26.227  1.00  0.00    -0.200 F 
ATOM     97  F   UNL A   1      47.249  36.473  28.486  1.00  0.00    -0.200 F 
ENDBRANCH  64  87
ENDBRANCH  38  39
ENDBRANCH  30  33
ENDBRANCH  28  29
ENDBRANCH  27  28
ENDBRANCH   1  27
TORSDOF 16
ENDMDL
MODEL 2
REMARK VINA RESULT:     -12.0      1.573      2.388
REMARK SMILES COCc1cc(OCC(=O)NCCCNC(=O)c2ccc(-c3c4nc(c(-c5c(F)c(F)c(F)c(F)c5F)c5ccc([nH]5)c(-c5c(F)c(F)c(F)c(F)c5F)c5nc(c(-c6c(F)c(F)c(F)c(F)c6F)c6ccc3[nH]6)C=C5)C=C4)cc2)nc(Nc2cccc(C)c2C)n1
REMARK SMILES IDX 12 1 11 2 9 3 10 4 8 6 7 7 6 8 4 9 5 10 92 11 82 12 81 13
REMARK SMILES IDX 3 14 2 15 1 16 83 17 84 19 85 20 90 21 86 22 88 23 91 24
REMARK SMILES IDX 87 25 89 26 13 27 14 28 15 29 16 30 17 32 18 33 19 34 80 35
REMARK SMILES IDX 20 36 79 37 21 38 22 39 23 40 73 41 24 42 78 43 72 44 74 45
REMARK SMILES IDX 25 46 77 47 71 48 70 49 26 51 58 52 38 53 57 54 39 55 42 56
REMARK SMILES IDX 56 57 75 58 40 59 41 60 55 62 76 63 43 64 27 65 28 66 36 67
REMARK SMILES IDX 29 68 30 69 34 70 37 71 31 72 32 73 35 74 33 75 59 76 60 77
REMARK SMILES IDX 68 78 61 79 62 80 66 81 69 82 63 83 64 84 67 85 65 86 44 87
REMARK SMILES IDX 45 88 53 89 46 90 47 91 51 92 54 93 48 94 49 95 52 96 50 97
REMARK H PARENT 11 5 83 18 15 31 74 50 42 61
REMARK Flexibility Score: inf
ROOT
ATOM      1  C   UNL A   1      36.953  20.688  24.855  1.00  0.00     0.117 C 
ENDROOT
BRANCH   1   2
ATOM      2  N   UNL A   1      37.243  21.893  25.610  1.00  0.00    -0.353 N 
ATOM      3  C   UNL A   1      37.138  23.192  25.214  1.00  0.00     0.258 C 
ATOM      4  O   UNL A   1      37.430  24.078  26.020  1.00  0.00    -0.271 OA
ATOM      5  H   UNL A   1      37.559  21.752  26.532  1.00  0.00     0.163 HD
BRANCH   3   6
ATOM      6  C   UNL A   1      36.660  23.530  23.795  1.00  0.00     0.331 C 
BRANCH   6   7
ATOM      7  O   UNL A   1      35.291  23.305  23.509  1.00  0.00    -0.467 OA
BRANCH   7   8
ATOM      8  C   UNL A   1      34.356  23.915  24.299  1.00  0.00     0.218 A 
ATOM      9  C   UNL A   1      32.808  24.091  26.050  1.00  0.00     0.076 A 
ATOM     10  C   UNL A   1      33.597  23.286  25.257  1.00  0.00     0.095 A 
ATOM     11  N   UNL A   1      32.764  25.421  25.864  1.00  0.00    -0.215 NA
ATOM     12  C   UNL A   1      33.474  25.956  24.860  1.00  0.00     0.230 A 
ATOM     13  N   UNL A   1      34.280  25.237  24.068  1.00  0.00    -0.177 NA
BRANCH   9  14
ATOM     14  C   UNL A   1      32.068  23.465  27.220  1.00  0.00     0.216 C 
BRANCH  14  15
ATOM     15  O   UNL A   1      30.648  23.620  27.251  1.00  0.00    -0.378 OA
ATOM     16  C   UNL A   1      29.954  22.623  26.514  1.00  0.00     0.195 C 
ENDBRANCH  14  15
ENDBRANCH   9  14
BRANCH  12  17
ATOM     17  N   UNL A   1      33.393  27.325  24.604  1.00  0.00    -0.324 N 
ATOM     18  H   UNL A   1      33.533  27.598  23.669  1.00  0.00     0.170 HD
BRANCH  17  19
ATOM     19  C   UNL A   1      33.135  28.358  25.519  1.00  0.00     0.044 A 
ATOM     20  C   UNL A   1      34.009  28.505  26.607  1.00  0.00     0.026 A 
ATOM     21  C   UNL A   1      32.104  29.310  25.324  1.00  0.00    -0.025 A 
ATOM     22  C   UNL A   1      33.904  29.594  27.469  1.00  0.00     0.002 A 
ATOM     23  C   UNL A   1      32.026  30.438  26.177  1.00  0.00    -0.046 A 
ATOM     24  C   UNL A   1      31.051  29.103  24.262  1.00  0.00     0.047 C 
ATOM     25  C   UNL A   1      32.931  30.561  27.244  1.00  0.00     0.004 A 
ATOM     26  C   UNL A   1      31.019  31.542  25.997  1.00  0.00     0.044 C 
ENDBRANCH  17  19
ENDBRANCH  12  17
ENDBRANCH   7   8
ENDBRANCH   6   7
ENDBRANCH   3   6
ENDBRANCH   1   2
BRANCH   1  27
ATOM     27  C   UNL A   1      38.003  19.601  25.064  1.00  0.00     0.042 C 
BRANCH  27  28
ATOM     28  C   UNL A   1      39.307  20.086  25.694  1.00  0.00     0.118 C 
BRANCH  28  29
ATOM     29  N   UNL A   1      40.325  19.046  25.786  1.00  0.00    -0.352 N 
ATOM     30  C   UNL A   1      41.676  19.133  26.012  1.00  0.00     0.251 C 
ATOM     31  H   UNL A   1      39.987  18.129  25.666  1.00  0.00     0.163 HD
ATOM     32  O   UNL A   1      42.376  18.128  25.889  1.00  0.00    -0.269 OA
BRANCH  30  33
ATOM     33  C   UNL A   1      42.306  20.420  26.373  1.00  0.00     0.039 A 
ATOM     34  C   UNL A   1      42.948  21.158  25.374  1.00  0.00     0.014 A 
ATOM     35  C   UNL A   1      42.285  20.895  27.687  1.00  0.00     0.014 A 
ATOM     36  C   UNL A   1      43.485  22.414  25.672  1.00  0.00     0.010 A 
ATOM     37  C   UNL A   1      42.756  22.176  27.967  1.00  0.00     0.010 A 
ATOM     38  C   UNL A   1      43.346  22.955  26.959  1.00  0.00    -0.014 A 
BRANCH  38  39
ATOM     39  C   UNL A   1      43.762  24.349  27.264  1.00  0.00     0.031 A 
ATOM     40  C   UNL A   1      42.756  25.362  27.728  1.00  0.00     0.074 A 
ATOM     41  C   UNL A   1      45.037  24.721  27.033  1.00  0.00     0.049 A 
ATOM     42  N   UNL A   1      42.907  26.648  27.924  1.00  0.00    -0.248 NA
ATOM     43  C   UNL A   1      41.395  24.870  27.985  1.00  0.00     0.031 C 
ATOM     44  C   UNL A   1      46.100  23.839  26.550  1.00  0.00     0.029 A 
ATOM     45  N   UNL A   1      45.651  25.945  27.150  1.00  0.00    -0.354 N 
ATOM     46  C   UNL A   1      41.660  27.119  28.314  1.00  0.00     0.074 A 
ATOM     47  C   UNL A   1      40.753  25.991  28.283  1.00  0.00     0.031 C 
ATOM     48  C   UNL A   1      47.234  24.544  26.422  1.00  0.00     0.029 A 
ATOM     49  C   UNL A   1      46.968  25.939  26.760  1.00  0.00     0.049 A 
ATOM     50  H   UNL A   1      45.190  26.749  27.482  1.00  0.00     0.167 HD
ATOM     51  C   UNL A   1      41.309  28.376  28.680  1.00  0.00     0.037 A 
ATOM     52  C   UNL A   1      47.856  26.948  26.659  1.00  0.00     0.037 A 
ATOM     53  C   UNL A   1      42.220  29.491  28.720  1.00  0.00     0.049 A 
ATOM     54  C   UNL A   1      47.425  28.343  27.021  1.00  0.00     0.074 A 
ATOM     55  C   UNL A   1      41.976  30.786  29.143  1.00  0.00     0.029 A 
ATOM     56  N   UNL A   1      43.545  29.447  28.312  1.00  0.00    -0.354 N 
ATOM     57  N   UNL A   1      46.266  28.763  27.462  1.00  0.00    -0.248 NA
ATOM     58  C   UNL A   1      48.429  29.407  26.868  1.00  0.00     0.031 C 
ATOM     59  C   UNL A   1      43.134  31.542  28.930  1.00  0.00     0.029 A 
ATOM     60  C   UNL A   1      44.118  30.704  28.432  1.00  0.00     0.049 A 
ATOM     61  H   UNL A   1      44.009  28.642  27.987  1.00  0.00     0.167 HD
ATOM     62  C   UNL A   1      46.402  30.131  27.655  1.00  0.00     0.074 A 
ATOM     63  C   UNL A   1      47.766  30.468  27.307  1.00  0.00     0.031 C 
ATOM     64  C   UNL A   1      45.477  31.027  28.079  1.00  0.00     0.037 A 
BRANCH  51  65
ATOM     65  C   UNL A   1      39.876  28.620  29.057  1.00  0.00     0.064 A 
ATOM     66  C   UNL A   1      39.409  28.400  30.362  1.00  0.00     0.173 A 
ATOM     67  C   UNL A   1      38.969  29.128  28.114  1.00  0.00     0.173 A 
ATOM     68  F   UNL A   1      40.233  27.910  31.300  1.00  0.00    -0.203 F 
ATOM     69  C   UNL A   1      38.082  28.650  30.700  1.00  0.00     0.198 A 
ATOM     70  C   UNL A   1      37.651  29.408  28.465  1.00  0.00     0.198 A 
ATOM     71  F   UNL A   1      39.364  29.365  26.855  1.00  0.00    -0.203 F 
ATOM     72  F   UNL A   1      37.647  28.386  31.941  1.00  0.00    -0.200 F 
ATOM     73  C   UNL A   1      37.206  29.161  29.754  1.00  0.00     0.200 A 
ATOM     74  F   UNL A   1      36.810  29.917  27.554  1.00  0.00    -0.200 F 
ATOM     75  F   UNL A   1      35.931  29.411  30.085  1.00  0.00    -0.200 F 
ENDBRANCH  51  65
BRANCH  52  76
ATOM     76  C   UNL A   1      49.238  26.675  26.182  1.00  0.00     0.064 A 
ATOM     77  C   UNL A   1      49.583  26.854  24.835  1.00  0.00     0.173 A 
ATOM     78  C   UNL A   1      50.238  26.225  27.056  1.00  0.00     0.173 A 
ATOM     79  F   UNL A   1      48.656  27.261  23.955  1.00  0.00    -0.203 F 
ATOM     80  C   UNL A   1      50.869  26.574  24.378  1.00  0.00     0.198 A 
ATOM     81  C   UNL A   1      51.533  25.976  26.604  1.00  0.00     0.198 A 
ATOM     82  F   UNL A   1      49.962  26.040  28.355  1.00  0.00    -0.203 F 
ATOM     83  F   UNL A   1      51.159  26.707  23.076  1.00  0.00    -0.200 F 
ATOM     84  C   UNL A   1      51.845  26.143  25.263  1.00  0.00     0.200 A 
ATOM     85  F   UNL A   1      52.477  25.576  27.467  1.00  0.00    -0.200 F 
ATOM     86  F   UNL A   1      53.083  25.879  24.824  1.00  0.00    -0.200 F 
ENDBRANCH  52  76
BRANCH  64  87
ATOM     87  C   UNL A   1      45.909  32.460  28.201  1.00  0.00     0.064 A 
ATOM     88  C   UNL A   1      46.475  32.957  29.384  1.00  0.00     0.173 A 
ATOM     89  C   UNL A   1      45.813  33.330  27.104  1.00  0.00     0.173 A 
ATOM     90  F   UNL A   1      46.574  32.171  30.467  1.00  0.00    -0.203 F 
ATOM     91  C   UNL A   1      46.915  34.276  29.470  1.00  0.00     0.198 A 
ATOM     92  C   UNL A   1      46.281  34.638  27.183  1.00  0.00     0.198 A 
ATOM     93  F   UNL A   1      45.284  32.904  25.947  1.00  0.00    -0.203 F 
ATOM     94  F   UNL A   1      47.416  34.739  30.622  1.00  0.00    -0.200 F 
ATOM     95  C   UNL A   1      46.828  35.111  28.366  1.00  0.00     0.200 A 
ATOM     96  F   UNL A   1      46.212  35.439  26.110  1.00  0.00    -0.200 F 
ATOM     97  F   UNL A   1      47.267  36.375  28.445  1.00  0.00    -0.200 F 
ENDBRANCH  64  87
ENDBRANCH  38  39
ENDBRANCH  30  33
ENDBRANCH  28  29
ENDBRANCH  27  28
ENDBRANCH   1  27
TORSDOF 16
ENDMDL
MODEL 3
REMARK VINA RESULT:     -11.9      5.718     10.119
REMARK SMILES COCc1cc(OCC(=O)NCCCNC(=O)c2ccc(-c3c4nc(c(-c5c(F)c(F)c(F)c(F)c5F)c5ccc([nH]5)c(-c5c(F)c(F)c(F)c(F)c5F)c5nc(c(-c6c(F)c(F)c(F)c(F)c6F)c6ccc3[nH]6)C=C5)C=C4)cc2)nc(Nc2cccc(C)c2C)n1
REMARK SMILES IDX 12 1 11 2 9 3 10 4 8 6 7 7 6 8 4 9 5 10 92 11 82 12 81 13
REMARK SMILES IDX 3 14 2 15 1 16 83 17 84 19 85 20 90 21 86 22 88 23 91 24
REMARK SMILES IDX 87 25 89 26 13 27 14 28 15 29 16 30 17 32 18 33 19 34 80 35
REMARK SMILES IDX 20 36 79 37 21 38 22 39 23 40 73 41 24 42 78 43 72 44 74 45
REMARK SMILES IDX 25 46 77 47 71 48 70 49 26 51 58 52 38 53 57 54 39 55 42 56
REMARK SMILES IDX 56 57 75 58 40 59 41 60 55 62 76 63 43 64 27 65 28 66 36 67
REMARK SMILES IDX 29 68 30 69 34 70 37 71 31 72 32 73 35 74 33 75 59 76 60 77
REMARK SMILES IDX 68 78 61 79 62 80 66 81 69 82 63 83 64 84 67 85 65 86 44 87
REMARK SMILES IDX 45 88 53 89 46 90 47 91 51 92 54 93 48 94 49 95 52 96 50 97
REMARK H PARENT 11 5 83 18 15 31 74 50 42 61
REMARK Flexibility Score: inf
ROOT
ATOM      1  C   UNL A   1      31.410  30.867  26.208  1.00  0.00     0.117 C 
ENDROOT
BRANCH   1   2
ATOM      2  N   UNL A   1      32.681  30.272  26.576  1.00  0.00    -0.353 N 
ATOM      3  C   UNL A   1      32.915  29.100  27.229  1.00  0.00     0.258 C 
ATOM      4  O   UNL A   1      34.084  28.768  27.441  1.00  0.00    -0.271 OA
ATOM      5  H   UNL A   1      33.481  30.786  26.321  1.00  0.00     0.163 HD
BRANCH   3   6
ATOM      6  C   UNL A   1      31.742  28.218  27.678  1.00  0.00     0.331 C 
BRANCH   6   7
ATOM      7  O   UNL A   1      31.729  26.880  27.214  1.00  0.00    -0.467 OA
BRANCH   7   8
ATOM      8  C   UNL A   1      31.711  26.663  25.865  1.00  0.00     0.218 A 
ATOM      9  C   UNL A   1      30.955  26.906  23.659  1.00  0.00     0.076 A 
ATOM     10  C   UNL A   1      30.730  27.099  25.005  1.00  0.00     0.095 A 
ATOM     11  N   UNL A   1      32.065  26.290  23.221  1.00  0.00    -0.215 NA
ATOM     12  C   UNL A   1      32.943  25.824  24.122  1.00  0.00     0.230 A 
ATOM     13  N   UNL A   1      32.800  25.998  25.442  1.00  0.00    -0.177 NA
BRANCH   9  14
ATOM     14  C   UNL A   1      29.976  27.503  22.662  1.00  0.00     0.216 C 
BRANCH  14  15
ATOM     15  O   UNL A   1      30.414  28.645  21.923  1.00  0.00    -0.378 OA
ATOM     16  C   UNL A   1      29.800  29.857  22.336  1.00  0.00     0.195 C 
ENDBRANCH  14  15
ENDBRANCH   9  14
BRANCH  12  17
ATOM     17  N   UNL A   1      34.070  25.122  23.695  1.00  0.00    -0.324 N 
ATOM     18  H   UNL A   1      34.520  25.474  22.893  1.00  0.00     0.170 HD
BRANCH  17  19
ATOM     19  C   UNL A   1      34.639  23.976  24.271  1.00  0.00     0.044 A 
ATOM     20  C   UNL A   1      35.721  24.149  25.147  1.00  0.00     0.026 A 
ATOM     21  C   UNL A   1      34.098  22.679  24.085  1.00  0.00    -0.025 A 
ATOM     22  C   UNL A   1      36.240  23.075  25.868  1.00  0.00     0.002 A 
ATOM     23  C   UNL A   1      34.599  21.598  24.850  1.00  0.00    -0.046 A 
ATOM     24  C   UNL A   1      33.041  22.425  23.037  1.00  0.00     0.047 C 
ATOM     25  C   UNL A   1      35.670  21.814  25.733  1.00  0.00     0.004 A 
ATOM     26  C   UNL A   1      34.033  20.205  24.783  1.00  0.00     0.044 C 
ENDBRANCH  17  19
ENDBRANCH  12  17
ENDBRANCH   7   8
ENDBRANCH   6   7
ENDBRANCH   3   6
ENDBRANCH   1   2
BRANCH   1  27
ATOM     27  C   UNL A   1      31.364  32.366  26.481  1.00  0.00     0.042 C 
BRANCH  27  28
ATOM     28  C   UNL A   1      32.578  32.914  27.230  1.00  0.00     0.118 C 
BRANCH  28  29
ATOM     29  N   UNL A   1      32.415  34.299  27.658  1.00  0.00    -0.352 N 
ATOM     30  C   UNL A   1      33.037  35.007  28.655  1.00  0.00     0.251 C 
ATOM     31  H   UNL A   1      31.746  34.810  27.147  1.00  0.00     0.163 HD
ATOM     32  O   UNL A   1      32.626  36.129  28.948  1.00  0.00    -0.269 OA
BRANCH  30  33
ATOM     33  C   UNL A   1      34.176  34.432  29.400  1.00  0.00     0.039 A 
ATOM     34  C   UNL A   1      33.927  33.781  30.612  1.00  0.00     0.014 A 
ATOM     35  C   UNL A   1      35.485  34.544  28.925  1.00  0.00     0.014 A 
ATOM     36  C   UNL A   1      34.975  33.161  31.298  1.00  0.00     0.010 A 
ATOM     37  C   UNL A   1      36.517  33.866  29.572  1.00  0.00     0.010 A 
ATOM     38  C   UNL A   1      36.269  33.153  30.756  1.00  0.00    -0.014 A 
BRANCH  38  39
ATOM     39  C   UNL A   1      37.368  32.370  31.378  1.00  0.00     0.031 A 
ATOM     40  C   UNL A   1      37.908  32.751  32.726  1.00  0.00     0.074 A 
ATOM     41  C   UNL A   1      37.939  31.367  30.682  1.00  0.00     0.049 A 
ATOM     42  N   UNL A   1      38.939  32.266  33.372  1.00  0.00    -0.248 NA
ATOM     43  C   UNL A   1      37.211  33.835  33.433  1.00  0.00     0.031 C 
ATOM     44  C   UNL A   1      37.527  30.922  29.350  1.00  0.00     0.029 A 
ATOM     45  N   UNL A   1      39.004  30.554  30.987  1.00  0.00    -0.354 N 
ATOM     46  C   UNL A   1      39.022  32.993  34.552  1.00  0.00     0.074 A 
ATOM     47  C   UNL A   1      37.965  33.983  34.513  1.00  0.00     0.031 C 
ATOM     48  C   UNL A   1      38.320  29.914  28.957  1.00  0.00     0.029 A 
ATOM     49  C   UNL A   1      39.331  29.676  29.983  1.00  0.00     0.049 A 
ATOM     50  H   UNL A   1      39.487  30.597  31.844  1.00  0.00     0.167 HD
ATOM     51  C   UNL A   1      39.891  32.838  35.580  1.00  0.00     0.037 A 
ATOM     52  C   UNL A   1      40.347  28.796  29.885  1.00  0.00     0.037 A 
ATOM     53  C   UNL A   1      40.931  31.843  35.617  1.00  0.00     0.049 A 
ATOM     54  C   UNL A   1      41.329  28.680  31.019  1.00  0.00     0.074 A 
ATOM     55  C   UNL A   1      41.817  31.562  36.643  1.00  0.00     0.029 A 
ATOM     56  N   UNL A   1      41.235  30.975  34.578  1.00  0.00    -0.354 N 
ATOM     57  N   UNL A   1      41.352  29.319  32.162  1.00  0.00    -0.248 NA
ATOM     58  C   UNL A   1      42.430  27.721  30.847  1.00  0.00     0.031 C 
ATOM     59  C   UNL A   1      42.698  30.568  36.201  1.00  0.00     0.029 A 
ATOM     60  C   UNL A   1      42.324  30.188  34.923  1.00  0.00     0.049 A 
ATOM     61  H   UNL A   1      40.749  30.926  33.723  1.00  0.00     0.167 HD
ATOM     62  C   UNL A   1      42.454  28.831  32.851  1.00  0.00     0.074 A 
ATOM     63  C   UNL A   1      43.061  27.824  32.009  1.00  0.00     0.031 C 
ATOM     64  C   UNL A   1      42.921  29.190  34.072  1.00  0.00     0.037 A 
BRANCH  51  65
ATOM     65  C   UNL A   1      39.764  33.771  36.750  1.00  0.00     0.064 A 
ATOM     66  C   UNL A   1      40.418  35.013  36.779  1.00  0.00     0.173 A 
ATOM     67  C   UNL A   1      38.937  33.442  37.836  1.00  0.00     0.173 A 
ATOM     68  F   UNL A   1      41.225  35.374  35.770  1.00  0.00    -0.203 F 
ATOM     69  C   UNL A   1      40.273  35.874  37.862  1.00  0.00     0.198 A 
ATOM     70  C   UNL A   1      38.769  34.321  38.902  1.00  0.00     0.198 A 
ATOM     71  F   UNL A   1      38.282  32.272  37.856  1.00  0.00    -0.203 F 
ATOM     72  F   UNL A   1      40.946  37.034  37.889  1.00  0.00    -0.200 F 
ATOM     73  C   UNL A   1      39.443  35.532  38.919  1.00  0.00     0.200 A 
ATOM     74  F   UNL A   1      37.954  33.995  39.915  1.00  0.00    -0.200 F 
ATOM     75  F   UNL A   1      39.298  36.368  39.957  1.00  0.00    -0.200 F 
ENDBRANCH  51  65
BRANCH  52  76
ATOM     76  C   UNL A   1      40.493  27.963  28.661  1.00  0.00     0.064 A 
ATOM     77  C   UNL A   1      39.861  26.717  28.560  1.00  0.00     0.173 A 
ATOM     78  C   UNL A   1      41.271  28.390  27.574  1.00  0.00     0.173 A 
ATOM     79  F   UNL A   1      39.125  26.254  29.581  1.00  0.00    -0.203 F 
ATOM     80  C   UNL A   1      40.016  25.921  27.426  1.00  0.00     0.198 A 
ATOM     81  C   UNL A   1      41.400  27.608  26.428  1.00  0.00     0.198 A 
ATOM     82  F   UNL A   1      41.894  29.576  27.619  1.00  0.00    -0.203 F 
ATOM     83  F   UNL A   1      39.440  24.712  27.375  1.00  0.00    -0.200 F 
ATOM     84  C   UNL A   1      40.779  26.369  26.359  1.00  0.00     0.200 A 
ATOM     85  F   UNL A   1      42.124  28.053  25.393  1.00  0.00    -0.200 F 
ATOM     86  F   UNL A   1      40.924  25.606  25.268  1.00  0.00    -0.200 F 
ENDBRANCH  52  76
BRANCH  64  87
ATOM     87  C   UNL A   1      44.145  28.484  34.579  1.00  0.00     0.064 A 
ATOM     88  C   UNL A   1      45.430  29.013  34.386  1.00  0.00     0.173 A 
ATOM     89  C   UNL A   1      44.029  27.297  35.319  1.00  0.00     0.173 A 
ATOM     90  F   UNL A   1      45.597  30.136  33.672  1.00  0.00    -0.203 F 
ATOM     91  C   UNL A   1      46.554  28.372  34.902  1.00  0.00     0.198 A 
ATOM     92  C   UNL A   1      45.151  26.675  35.860  1.00  0.00     0.198 A 
ATOM     93  F   UNL A   1      42.823  26.751  35.536  1.00  0.00    -0.203 F 
ATOM     94  F   UNL A   1      47.773  28.875  34.672  1.00  0.00    -0.200 F 
ATOM     95  C   UNL A   1      46.412  27.211  35.648  1.00  0.00     0.200 A 
ATOM     96  F   UNL A   1      45.010  25.562  36.593  1.00  0.00    -0.200 F 
ATOM     97  F   UNL A   1      47.493  26.605  36.157  1.00  0.00    -0.200 F 
ENDBRANCH  64  87
ENDBRANCH  38  39
ENDBRANCH  30  33
ENDBRANCH  28  29
ENDBRANCH  27  28
ENDBRANCH   1  27
TORSDOF 16
ENDMDL
