MODEL 1
REMARK VINA RESULT:     -12.0      0.000      0.000
REMARK SMILES C[C@@H](C(=O)NCCCNC(=O)c1ccc(-c2c3nc(c(-c4c(F)c(F)c(F)c(F)c4F)c4ccc([nH]4)c(-c4c(F)c(F)c(F)c(F)c4F)c4nc(c(-c5c(F)c(F)c(F)c(F)c5F)c5ccc2[nH]5)C=C4)C=C3)cc1)c1ccn(C(F)F)c(=O)c1
REMARK SMILES IDX 7 1 6 2 5 3 3 4 4 5 2 7 1 8 75 9 76 10 84 11 77 12 82 13
REMARK SMILES IDX 78 14 83 15 79 16 80 17 81 18 8 19 9 20 10 21 11 23 12 24
REMARK SMILES IDX 13 25 74 26 14 27 73 28 15 29 16 30 17 31 67 32 18 33 72 34
REMARK SMILES IDX 66 35 68 36 19 37 71 38 65 39 64 40 20 42 52 43 32 44 51 45
REMARK SMILES IDX 33 46 36 47 50 48 69 49 34 50 35 51 49 53 70 54 37 55 21 56
REMARK SMILES IDX 22 57 30 58 23 59 24 60 28 61 31 62 25 63 26 64 29 65 27 66
REMARK SMILES IDX 53 67 54 68 62 69 55 70 56 71 60 72 63 73 57 74 58 75 61 76
REMARK SMILES IDX 59 77 38 78 39 79 47 80 40 81 41 82 45 83 48 84 42 85 43 86
REMARK SMILES IDX 46 87 44 88
REMARK H PARENT 5 6 9 22 68 41 36 52
REMARK Flexibility Score: inf
ROOT
ATOM      1  C   UNL A   1      38.199  19.719  24.925  1.00  0.00     0.042 C 
ENDROOT
BRANCH   1   2
ATOM      2  C   UNL A   1      37.316  20.925  24.606  1.00  0.00     0.117 C 
BRANCH   2   3
ATOM      3  N   UNL A   1      36.343  21.156  25.657  1.00  0.00    -0.356 N 
ATOM      4  C   UNL A   1      34.982  21.065  25.636  1.00  0.00     0.227 C 
ATOM      5  O   UNL A   1      34.381  21.498  26.621  1.00  0.00    -0.274 OA
ATOM      6  H   UNL A   1      36.726  21.421  26.524  1.00  0.00     0.163 HD
BRANCH   4   7
ATOM      7  C   UNL A   1      34.270  20.434  24.424  1.00  0.00     0.105 C 
ATOM      8  C   UNL A   1      33.074  21.275  23.970  1.00  0.00     0.023 C 
BRANCH   7   9
ATOM      9  C   UNL A   1      33.904  18.990  24.745  1.00  0.00    -0.029 A 
ATOM     10  C   UNL A   1      32.627  18.688  25.365  1.00  0.00     0.023 A 
ATOM     11  C   UNL A   1      34.756  17.977  24.502  1.00  0.00     0.076 A 
ATOM     12  C   UNL A   1      32.308  17.432  25.695  1.00  0.00     0.095 A 
ATOM     13  C   UNL A   1      34.420  16.574  24.875  1.00  0.00     0.255 A 
ATOM     14  N   UNL A   1      33.179  16.385  25.457  1.00  0.00    -0.258 N 
ATOM     15  O   UNL A   1      35.249  15.695  24.647  1.00  0.00    -0.269 OA
BRANCH  14  16
ATOM     16  C   UNL A   1      32.842  15.048  25.867  1.00  0.00     0.451 C 
ATOM     17  F   UNL A   1      31.932  15.057  26.872  1.00  0.00    -0.185 F 
ATOM     18  F   UNL A   1      32.319  14.341  24.835  1.00  0.00    -0.185 F 
ENDBRANCH  14  16
ENDBRANCH   7   9
ENDBRANCH   4   7
ENDBRANCH   2   3
ENDBRANCH   1   2
BRANCH   1  19
ATOM     19  C   UNL A   1      39.246  19.979  26.007  1.00  0.00     0.118 C 
BRANCH  19  20
ATOM     20  N   UNL A   1      40.353  19.037  25.956  1.00  0.00    -0.352 N 
ATOM     21  C   UNL A   1      41.704  19.258  26.035  1.00  0.00     0.251 C 
ATOM     22  H   UNL A   1      40.092  18.094  25.848  1.00  0.00     0.163 HD
ATOM     23  O   UNL A   1      42.484  18.335  25.798  1.00  0.00    -0.269 OA
BRANCH  21  24
ATOM     24  C   UNL A   1      42.242  20.593  26.380  1.00  0.00     0.039 A 
ATOM     25  C   UNL A   1      42.637  21.443  25.342  1.00  0.00     0.014 A 
ATOM     26  C   UNL A   1      42.397  20.997  27.709  1.00  0.00     0.014 A 
ATOM     27  C   UNL A   1      43.129  22.718  25.633  1.00  0.00     0.010 A 
ATOM     28  C   UNL A   1      42.827  22.292  27.997  1.00  0.00     0.010 A 
ATOM     29  C   UNL A   1      43.197  23.165  26.962  1.00  0.00    -0.014 A 
BRANCH  29  30
ATOM     30  C   UNL A   1      43.647  24.543  27.287  1.00  0.00     0.031 A 
ATOM     31  C   UNL A   1      42.671  25.556  27.818  1.00  0.00     0.074 A 
ATOM     32  C   UNL A   1      44.922  24.902  27.042  1.00  0.00     0.049 A 
ATOM     33  N   UNL A   1      42.857  26.826  28.082  1.00  0.00    -0.248 NA
ATOM     34  C   UNL A   1      41.300  25.086  28.062  1.00  0.00     0.031 C 
ATOM     35  C   UNL A   1      45.956  24.025  26.491  1.00  0.00     0.029 A 
ATOM     36  N   UNL A   1      45.563  26.104  27.213  1.00  0.00    -0.354 N 
ATOM     37  C   UNL A   1      41.625  27.308  28.504  1.00  0.00     0.074 A 
ATOM     38  C   UNL A   1      40.689  26.207  28.420  1.00  0.00     0.031 C 
ATOM     39  C   UNL A   1      47.104  24.712  26.382  1.00  0.00     0.029 A 
ATOM     40  C   UNL A   1      46.880  26.085  26.822  1.00  0.00     0.049 A 
ATOM     41  H   UNL A   1      45.122  26.903  27.579  1.00  0.00     0.167 HD
ATOM     42  C   UNL A   1      41.308  28.550  28.941  1.00  0.00     0.037 A 
ATOM     43  C   UNL A   1      47.801  27.068  26.809  1.00  0.00     0.037 A 
ATOM     44  C   UNL A   1      42.245  29.637  29.051  1.00  0.00     0.049 A 
ATOM     45  C   UNL A   1      47.423  28.439  27.300  1.00  0.00     0.074 A 
ATOM     46  C   UNL A   1      42.033  30.916  29.538  1.00  0.00     0.029 A 
ATOM     47  N   UNL A   1      43.577  29.573  28.667  1.00  0.00    -0.354 N 
ATOM     48  N   UNL A   1      46.270  28.866  27.754  1.00  0.00    -0.248 NA
ATOM     49  C   UNL A   1      48.477  29.462  27.282  1.00  0.00     0.031 C 
ATOM     50  C   UNL A   1      43.226  31.637  29.413  1.00  0.00     0.029 A 
ATOM     51  C   UNL A   1      44.193  30.794  28.890  1.00  0.00     0.049 A 
ATOM     52  H   UNL A   1      44.019  28.777  28.292  1.00  0.00     0.167 HD
ATOM     53  C   UNL A   1      46.466  30.195  28.102  1.00  0.00     0.074 A 
ATOM     54  C   UNL A   1      47.852  30.502  27.818  1.00  0.00     0.031 C 
ATOM     55  C   UNL A   1      45.577  31.082  28.612  1.00  0.00     0.037 A 
BRANCH  42  56
ATOM     56  C   UNL A   1      39.883  28.805  29.337  1.00  0.00     0.064 A 
ATOM     57  C   UNL A   1      38.935  29.265  28.411  1.00  0.00     0.173 A 
ATOM     58  C   UNL A   1      39.450  28.547  30.647  1.00  0.00     0.173 A 
ATOM     59  F   UNL A   1      39.300  29.537  27.149  1.00  0.00    -0.203 F 
ATOM     60  C   UNL A   1      37.612  29.485  28.789  1.00  0.00     0.198 A 
ATOM     61  C   UNL A   1      38.120  28.740  31.013  1.00  0.00     0.198 A 
ATOM     62  F   UNL A   1      40.314  28.099  31.570  1.00  0.00    -0.203 F 
ATOM     63  F   UNL A   1      36.734  29.969  27.899  1.00  0.00    -0.200 F 
ATOM     64  C   UNL A   1      37.204  29.215  30.087  1.00  0.00     0.200 A 
ATOM     65  F   UNL A   1      37.724  28.467  32.264  1.00  0.00    -0.200 F 
ATOM     66  F   UNL A   1      35.929  29.420  30.446  1.00  0.00    -0.200 F 
ENDBRANCH  42  56
BRANCH  43  67
ATOM     67  C   UNL A   1      49.180  26.784  26.336  1.00  0.00     0.064 A 
ATOM     68  C   UNL A   1      49.545  27.022  25.003  1.00  0.00     0.173 A 
ATOM     69  C   UNL A   1      50.158  26.273  27.201  1.00  0.00     0.173 A 
ATOM     70  F   UNL A   1      48.639  27.492  24.135  1.00  0.00    -0.203 F 
ATOM     71  C   UNL A   1      50.831  26.740  24.549  1.00  0.00     0.198 A 
ATOM     72  C   UNL A   1      51.451  26.017  26.752  1.00  0.00     0.198 A 
ATOM     73  F   UNL A   1      49.859  26.033  28.486  1.00  0.00    -0.203 F 
ATOM     74  F   UNL A   1      51.142  26.937  23.261  1.00  0.00    -0.200 F 
ATOM     75  C   UNL A   1      51.786  26.243  25.425  1.00  0.00     0.200 A 
ATOM     76  F   UNL A   1      52.374  25.549  27.604  1.00  0.00    -0.200 F 
ATOM     77  F   UNL A   1      53.024  25.977  24.989  1.00  0.00    -0.200 F 
ENDBRANCH  43  67
BRANCH  55  78
ATOM     78  C   UNL A   1      46.082  32.457  28.932  1.00  0.00     0.064 A 
ATOM     79  C   UNL A   1      46.016  33.501  27.998  1.00  0.00     0.173 A 
ATOM     80  C   UNL A   1      46.604  32.743  30.203  1.00  0.00     0.173 A 
ATOM     81  F   UNL A   1      45.540  33.274  26.764  1.00  0.00    -0.203 F 
ATOM     82  C   UNL A   1      46.473  34.777  28.318  1.00  0.00     0.198 A 
ATOM     83  C   UNL A   1      47.034  34.026  30.529  1.00  0.00     0.198 A 
ATOM     84  F   UNL A   1      46.684  31.779  31.133  1.00  0.00    -0.203 F 
ATOM     85  F   UNL A   1      46.439  35.749  27.397  1.00  0.00    -0.200 F 
ATOM     86  C   UNL A   1      46.974  35.040  29.585  1.00  0.00     0.200 A 
ATOM     87  F   UNL A   1      47.508  34.281  31.756  1.00  0.00    -0.200 F 
ATOM     88  F   UNL A   1      47.406  36.270  29.893  1.00  0.00    -0.200 F 
ENDBRANCH  55  78
ENDBRANCH  29  30
ENDBRANCH  21  24
ENDBRANCH  19  20
ENDBRANCH   1  19
TORSDOF 12
ENDMDL
MODEL 2
REMARK VINA RESULT:     -11.8      6.313     11.574
REMARK SMILES C[C@@H](C(=O)NCCCNC(=O)c1ccc(-c2c3nc(c(-c4c(F)c(F)c(F)c(F)c4F)c4ccc([nH]4)c(-c4c(F)c(F)c(F)c(F)c4F)c4nc(c(-c5c(F)c(F)c(F)c(F)c5F)c5ccc2[nH]5)C=C4)C=C3)cc1)c1ccn(C(F)F)c(=O)c1
REMARK SMILES IDX 7 1 6 2 5 3 3 4 4 5 2 7 1 8 75 9 76 10 84 11 77 12 82 13
REMARK SMILES IDX 78 14 83 15 79 16 80 17 81 18 8 19 9 20 10 21 11 23 12 24
REMARK SMILES IDX 13 25 74 26 14 27 73 28 15 29 16 30 17 31 67 32 18 33 72 34
REMARK SMILES IDX 66 35 68 36 19 37 71 38 65 39 64 40 20 42 52 43 32 44 51 45
REMARK SMILES IDX 33 46 36 47 50 48 69 49 34 50 35 51 49 53 70 54 37 55 21 56
REMARK SMILES IDX 22 57 30 58 23 59 24 60 28 61 31 62 25 63 26 64 29 65 27 66
REMARK SMILES IDX 53 67 54 68 62 69 55 70 56 71 60 72 63 73 57 74 58 75 61 76
REMARK SMILES IDX 59 77 38 78 39 79 47 80 40 81 41 82 45 83 48 84 42 85 43 86
REMARK SMILES IDX 46 87 44 88
REMARK H PARENT 5 6 9 22 68 41 36 52
REMARK Flexibility Score: inf
ROOT
ATOM      1  C   UNL A   1      31.283  32.379  26.390  1.00  0.00     0.042 C 
ENDROOT
BRANCH   1   2
ATOM      2  C   UNL A   1      31.151  30.856  26.354  1.00  0.00     0.117 C 
BRANCH   2   3
ATOM      3  N   UNL A   1      31.851  30.295  25.215  1.00  0.00    -0.356 N 
ATOM      4  C   UNL A   1      32.881  29.402  25.164  1.00  0.00     0.227 C 
ATOM      5  O   UNL A   1      33.416  29.234  24.066  1.00  0.00    -0.274 OA
ATOM      6  H   UNL A   1      31.531  30.608  24.338  1.00  0.00     0.163 HD
BRANCH   4   7
ATOM      7  C   UNL A   1      33.317  28.653  26.437  1.00  0.00     0.105 C 
ATOM      8  C   UNL A   1      34.777  28.943  26.792  1.00  0.00     0.023 C 
BRANCH   7   9
ATOM      9  C   UNL A   1      33.018  27.167  26.280  1.00  0.00    -0.029 A 
ATOM     10  C   UNL A   1      34.038  26.275  25.758  1.00  0.00     0.023 A 
ATOM     11  C   UNL A   1      31.810  26.657  26.580  1.00  0.00     0.076 A 
ATOM     12  C   UNL A   1      33.778  24.977  25.571  1.00  0.00     0.095 A 
ATOM     13  C   UNL A   1      31.502  25.214  26.366  1.00  0.00     0.255 A 
ATOM     14  N   UNL A   1      32.538  24.444  25.868  1.00  0.00    -0.258 N 
ATOM     15  O   UNL A   1      30.372  24.811  26.638  1.00  0.00    -0.269 OA
BRANCH  14  16
ATOM     16  C   UNL A   1      32.261  23.056  25.610  1.00  0.00     0.451 C 
ATOM     17  F   UNL A   1      33.132  22.539  24.710  1.00  0.00    -0.185 F 
ATOM     18  F   UNL A   1      32.349  22.324  26.747  1.00  0.00    -0.185 F 
ENDBRANCH  14  16
ENDBRANCH   7   9
ENDBRANCH   4   7
ENDBRANCH   2   3
ENDBRANCH   1   2
BRANCH   1  19
ATOM     19  C   UNL A   1      32.460  32.886  27.220  1.00  0.00     0.118 C 
BRANCH  19  20
ATOM     20  N   UNL A   1      32.313  34.279  27.612  1.00  0.00    -0.352 N 
ATOM     21  C   UNL A   1      32.983  35.003  28.565  1.00  0.00     0.251 C 
ATOM     22  H   UNL A   1      31.626  34.780  27.117  1.00  0.00     0.163 HD
ATOM     23  O   UNL A   1      32.587  36.131  28.858  1.00  0.00    -0.269 OA
BRANCH  21  24
ATOM     24  C   UNL A   1      34.163  34.443  29.261  1.00  0.00     0.039 A 
ATOM     25  C   UNL A   1      33.967  33.762  30.467  1.00  0.00     0.014 A 
ATOM     26  C   UNL A   1      35.457  34.617  28.762  1.00  0.00     0.014 A 
ATOM     27  C   UNL A   1      35.057  33.203  31.138  1.00  0.00     0.010 A 
ATOM     28  C   UNL A   1      36.536  34.005  29.398  1.00  0.00     0.010 A 
ATOM     29  C   UNL A   1      36.348  33.292  30.592  1.00  0.00    -0.014 A 
BRANCH  29  30
ATOM     30  C   UNL A   1      37.508  32.642  31.253  1.00  0.00     0.031 A 
ATOM     31  C   UNL A   1      38.219  31.497  30.587  1.00  0.00     0.074 A 
ATOM     32  C   UNL A   1      37.882  33.039  32.485  1.00  0.00     0.049 A 
ATOM     33  N   UNL A   1      39.196  30.752  31.040  1.00  0.00    -0.248 NA
ATOM     34  C   UNL A   1      37.754  31.125  29.242  1.00  0.00     0.031 C 
ATOM     35  C   UNL A   1      37.249  34.111  33.254  1.00  0.00     0.029 A 
ATOM     36  N   UNL A   1      38.877  32.580  33.311  1.00  0.00    -0.354 N 
ATOM     37  C   UNL A   1      39.450  29.815  30.047  1.00  0.00     0.074 A 
ATOM     38  C   UNL A   1      38.495  30.056  28.985  1.00  0.00     0.031 C 
ATOM     39  C   UNL A   1      37.878  34.236  34.433  1.00  0.00     0.029 A 
ATOM     40  C   UNL A   1      38.935  33.233  34.518  1.00  0.00     0.049 A 
ATOM     41  H   UNL A   1      39.490  31.851  33.063  1.00  0.00     0.167 HD
ATOM     42  C   UNL A   1      40.404  28.854  30.015  1.00  0.00     0.037 A 
ATOM     43  C   UNL A   1      39.743  33.039  35.578  1.00  0.00     0.037 A 
ATOM     44  C   UNL A   1      41.370  28.632  31.058  1.00  0.00     0.049 A 
ATOM     45  C   UNL A   1      40.794  31.964  35.516  1.00  0.00     0.074 A 
ATOM     46  C   UNL A   1      42.412  27.722  31.092  1.00  0.00     0.029 A 
ATOM     47  N   UNL A   1      41.412  29.331  32.256  1.00  0.00    -0.354 N 
ATOM     48  N   UNL A   1      41.063  31.125  34.547  1.00  0.00    -0.248 NA
ATOM     49  C   UNL A   1      41.659  31.816  36.695  1.00  0.00     0.031 C 
ATOM     50  C   UNL A   1      43.062  27.843  32.326  1.00  0.00     0.029 A 
ATOM     51  C   UNL A   1      42.451  28.859  33.042  1.00  0.00     0.049 A 
ATOM     52  H   UNL A   1      40.794  30.054  32.510  1.00  0.00     0.167 HD
ATOM     53  C   UNL A   1      42.142  30.370  34.984  1.00  0.00     0.074 A 
ATOM     54  C   UNL A   1      42.487  30.858  36.303  1.00  0.00     0.031 C 
ATOM     55  C   UNL A   1      42.790  29.363  34.349  1.00  0.00     0.037 A 
BRANCH  42  56
ATOM     56  C   UNL A   1      40.453  27.964  28.807  1.00  0.00     0.064 A 
ATOM     57  C   UNL A   1      41.243  28.281  27.693  1.00  0.00     0.173 A 
ATOM     58  C   UNL A   1      39.733  26.759  28.779  1.00  0.00     0.173 A 
ATOM     59  F   UNL A   1      41.943  29.426  27.665  1.00  0.00    -0.203 F 
ATOM     60  C   UNL A   1      41.290  27.440  26.584  1.00  0.00     0.198 A 
ATOM     61  C   UNL A   1      39.805  25.907  27.681  1.00  0.00     0.198 A 
ATOM     62  F   UNL A   1      38.966  26.405  29.822  1.00  0.00    -0.203 F 
ATOM     63  F   UNL A   1      42.016  27.786  25.512  1.00  0.00    -0.200 F 
ATOM     64  C   UNL A   1      40.577  26.250  26.582  1.00  0.00     0.200 A 
ATOM     65  F   UNL A   1      39.125  24.751  27.685  1.00  0.00    -0.200 F 
ATOM     66  F   UNL A   1      40.629  25.438  25.516  1.00  0.00    -0.200 F 
ENDBRANCH  42  56
BRANCH  43  67
ATOM     67  C   UNL A   1      39.604  33.898  36.781  1.00  0.00     0.064 A 
ATOM     68  C   UNL A   1      38.820  33.489  37.869  1.00  0.00     0.173 A 
ATOM     69  C   UNL A   1      40.250  35.140  36.871  1.00  0.00     0.173 A 
ATOM     70  F   UNL A   1      38.169  32.318  37.822  1.00  0.00    -0.203 F 
ATOM     71  C   UNL A   1      38.672  34.299  38.993  1.00  0.00     0.198 A 
ATOM     72  C   UNL A   1      40.122  35.936  38.006  1.00  0.00     0.198 A 
ATOM     73  F   UNL A   1      41.015  35.573  35.858  1.00  0.00    -0.203 F 
ATOM     74  F   UNL A   1      37.883  33.903  40.001  1.00  0.00    -0.200 F 
ATOM     75  C   UNL A   1      39.327  35.519  39.063  1.00  0.00     0.200 A 
ATOM     76  F   UNL A   1      40.767  37.108  38.076  1.00  0.00    -0.200 F 
ATOM     77  F   UNL A   1      39.188  36.296  40.147  1.00  0.00    -0.200 F 
ENDBRANCH  43  67
BRANCH  55  78
ATOM     78  C   UNL A   1      43.960  28.744  35.054  1.00  0.00     0.064 A 
ATOM     79  C   UNL A   1      45.255  29.266  34.928  1.00  0.00     0.173 A 
ATOM     80  C   UNL A   1      43.775  27.638  35.898  1.00  0.00     0.173 A 
ATOM     81  F   UNL A   1      45.486  30.312  34.120  1.00  0.00    -0.203 F 
ATOM     82  C   UNL A   1      46.327  28.690  35.605  1.00  0.00     0.198 A 
ATOM     83  C   UNL A   1      44.844  27.083  36.596  1.00  0.00     0.198 A 
ATOM     84  F   UNL A   1      42.554  27.106  36.056  1.00  0.00    -0.203 F 
ATOM     85  F   UNL A   1      47.564  29.178  35.436  1.00  0.00    -0.200 F 
ATOM     86  C   UNL A   1      46.119  27.605  36.443  1.00  0.00     0.200 A 
ATOM     87  F   UNL A   1      44.640  26.041  37.413  1.00  0.00    -0.200 F 
ATOM     88  F   UNL A   1      47.151  27.057  37.100  1.00  0.00    -0.200 F 
ENDBRANCH  55  78
ENDBRANCH  29  30
ENDBRANCH  21  24
ENDBRANCH  19  20
ENDBRANCH   1  19
TORSDOF 12
ENDMDL
MODEL 3
REMARK VINA RESULT:     -11.8      2.645      3.580
REMARK SMILES C[C@@H](C(=O)NCCCNC(=O)c1ccc(-c2c3nc(c(-c4c(F)c(F)c(F)c(F)c4F)c4ccc([nH]4)c(-c4c(F)c(F)c(F)c(F)c4F)c4nc(c(-c5c(F)c(F)c(F)c(F)c5F)c5ccc2[nH]5)C=C4)C=C3)cc1)c1ccn(C(F)F)c(=O)c1
REMARK SMILES IDX 7 1 6 2 5 3 3 4 4 5 2 7 1 8 75 9 76 10 84 11 77 12 82 13
REMARK SMILES IDX 78 14 83 15 79 16 80 17 81 18 8 19 9 20 10 21 11 23 12 24
REMARK SMILES IDX 13 25 74 26 14 27 73 28 15 29 16 30 17 31 67 32 18 33 72 34
REMARK SMILES IDX 66 35 68 36 19 37 71 38 65 39 64 40 20 42 52 43 32 44 51 45
REMARK SMILES IDX 33 46 36 47 50 48 69 49 34 50 35 51 49 53 70 54 37 55 21 56
REMARK SMILES IDX 22 57 30 58 23 59 24 60 28 61 31 62 25 63 26 64 29 65 27 66
REMARK SMILES IDX 53 67 54 68 62 69 55 70 56 71 60 72 63 73 57 74 58 75 61 76
REMARK SMILES IDX 59 77 38 78 39 79 47 80 40 81 41 82 45 83 48 84 42 85 43 86
REMARK SMILES IDX 46 87 44 88
REMARK H PARENT 5 6 9 22 68 41 36 52
REMARK Flexibility Score: inf
ROOT
ATOM      1  C   UNL A   1      37.918  19.651  24.818  1.00  0.00     0.042 C 
ENDROOT
BRANCH   1   2
ATOM      2  C   UNL A   1      36.567  20.314  25.083  1.00  0.00     0.117 C 
BRANCH   2   3
ATOM      3  N   UNL A   1      36.727  21.566  25.797  1.00  0.00    -0.356 N 
ATOM      4  C   UNL A   1      36.193  22.797  25.551  1.00  0.00     0.227 C 
ATOM      5  O   UNL A   1      36.643  23.738  26.209  1.00  0.00    -0.274 OA
ATOM      6  H   UNL A   1      37.314  21.520  26.586  1.00  0.00     0.163 HD
BRANCH   4   7
ATOM      7  C   UNL A   1      35.078  22.960  24.502  1.00  0.00     0.105 C 
ATOM      8  C   UNL A   1      35.644  23.326  23.128  1.00  0.00     0.023 C 
BRANCH   7   9
ATOM      9  C   UNL A   1      34.041  23.953  25.012  1.00  0.00    -0.029 A 
ATOM     10  C   UNL A   1      34.092  25.338  24.580  1.00  0.00     0.023 A 
ATOM     11  C   UNL A   1      33.090  23.588  25.891  1.00  0.00     0.076 A 
ATOM     12  C   UNL A   1      33.218  26.233  25.053  1.00  0.00     0.095 A 
ATOM     13  C   UNL A   1      32.117  24.576  26.436  1.00  0.00     0.255 A 
ATOM     14  N   UNL A   1      32.242  25.870  25.962  1.00  0.00    -0.258 N 
ATOM     15  O   UNL A   1      31.284  24.187  27.253  1.00  0.00    -0.269 OA
BRANCH  14  16
ATOM     16  C   UNL A   1      31.345  26.858  26.500  1.00  0.00     0.451 C 
ATOM     17  F   UNL A   1      31.879  27.470  27.585  1.00  0.00    -0.185 F 
ATOM     18  F   UNL A   1      31.062  27.811  25.578  1.00  0.00    -0.185 F 
ENDBRANCH  14  16
ENDBRANCH   7   9
ENDBRANCH   4   7
ENDBRANCH   2   3
ENDBRANCH   1   2
BRANCH   1  19
ATOM     19  C   UNL A   1      39.040  20.125  25.741  1.00  0.00     0.118 C 
BRANCH  19  20
ATOM     20  N   UNL A   1      40.095  19.137  25.897  1.00  0.00    -0.352 N 
ATOM     21  C   UNL A   1      41.437  19.307  26.126  1.00  0.00     0.251 C 
ATOM     22  H   UNL A   1      39.801  18.200  25.828  1.00  0.00     0.163 HD
ATOM     23  O   UNL A   1      42.191  18.337  26.056  1.00  0.00    -0.269 OA
BRANCH  21  24
ATOM     24  C   UNL A   1      41.996  20.642  26.433  1.00  0.00     0.039 A 
ATOM     25  C   UNL A   1      42.284  21.508  25.373  1.00  0.00     0.014 A 
ATOM     26  C   UNL A   1      42.277  21.032  27.746  1.00  0.00     0.014 A 
ATOM     27  C   UNL A   1      42.794  22.783  25.631  1.00  0.00     0.010 A 
ATOM     28  C   UNL A   1      42.724  22.327  28.007  1.00  0.00     0.010 A 
ATOM     29  C   UNL A   1      42.987  23.215  26.953  1.00  0.00    -0.014 A 
BRANCH  29  30
ATOM     30  C   UNL A   1      43.457  24.592  27.250  1.00  0.00     0.031 A 
ATOM     31  C   UNL A   1      42.508  25.617  27.806  1.00  0.00     0.074 A 
ATOM     32  C   UNL A   1      44.725  24.941  26.957  1.00  0.00     0.049 A 
ATOM     33  N   UNL A   1      42.711  26.887  28.053  1.00  0.00    -0.248 NA
ATOM     34  C   UNL A   1      41.142  25.158  28.101  1.00  0.00     0.031 C 
ATOM     35  C   UNL A   1      45.733  24.051  26.378  1.00  0.00     0.029 A 
ATOM     36  N   UNL A   1      45.380  26.139  27.095  1.00  0.00    -0.354 N 
ATOM     37  C   UNL A   1      41.498  27.381  28.514  1.00  0.00     0.074 A 
ATOM     38  C   UNL A   1      40.552  26.286  28.472  1.00  0.00     0.031 C 
ATOM     39  C   UNL A   1      46.881  24.729  26.223  1.00  0.00     0.029 A 
ATOM     40  C   UNL A   1      46.683  26.108  26.658  1.00  0.00     0.049 A 
ATOM     41  H   UNL A   1      44.957  26.944  27.470  1.00  0.00     0.167 HD
ATOM     42  C   UNL A   1      41.205  28.629  28.951  1.00  0.00     0.037 A 
ATOM     43  C   UNL A   1      47.609  27.084  26.605  1.00  0.00     0.037 A 
ATOM     44  C   UNL A   1      42.153  29.711  29.018  1.00  0.00     0.049 A 
ATOM     45  C   UNL A   1      47.257  28.462  27.097  1.00  0.00     0.074 A 
ATOM     46  C   UNL A   1      41.966  30.995  29.501  1.00  0.00     0.029 A 
ATOM     47  N   UNL A   1      43.470  29.634  28.589  1.00  0.00    -0.354 N 
ATOM     48  N   UNL A   1      46.125  28.900  27.588  1.00  0.00    -0.248 NA
ATOM     49  C   UNL A   1      48.317  29.477  27.034  1.00  0.00     0.031 C 
ATOM     50  C   UNL A   1      43.159  31.706  29.329  1.00  0.00     0.029 A 
ATOM     51  C   UNL A   1      44.101  30.852  28.779  1.00  0.00     0.049 A 
ATOM     52  H   UNL A   1      43.893  28.832  28.205  1.00  0.00     0.167 HD
ATOM     53  C   UNL A   1      46.341  30.231  27.917  1.00  0.00     0.074 A 
ATOM     54  C   UNL A   1      47.719  30.526  27.582  1.00  0.00     0.031 C 
ATOM     55  C   UNL A   1      45.476  31.128  28.451  1.00  0.00     0.037 A 
BRANCH  42  56
ATOM     56  C   UNL A   1      39.796  28.897  29.394  1.00  0.00     0.064 A 
ATOM     57  C   UNL A   1      38.822  29.367  28.501  1.00  0.00     0.173 A 
ATOM     58  C   UNL A   1      39.405  28.643  30.717  1.00  0.00     0.173 A 
ATOM     59  F   UNL A   1      39.147  29.636  27.227  1.00  0.00    -0.203 F 
ATOM     60  C   UNL A   1      37.515  29.599  28.922  1.00  0.00     0.198 A 
ATOM     61  C   UNL A   1      38.090  28.849  31.128  1.00  0.00     0.198 A 
ATOM     62  F   UNL A   1      40.296  28.187  31.611  1.00  0.00    -0.203 F 
ATOM     63  F   UNL A   1      36.613  30.091  28.062  1.00  0.00    -0.200 F 
ATOM     64  C   UNL A   1      37.148  29.332  30.233  1.00  0.00     0.200 A 
ATOM     65  F   UNL A   1      37.734  28.579  32.392  1.00  0.00    -0.200 F 
ATOM     66  F   UNL A   1      35.888  29.549  30.635  1.00  0.00    -0.200 F 
ENDBRANCH  42  56
BRANCH  43  67
ATOM     67  C   UNL A   1      48.968  26.786  26.087  1.00  0.00     0.064 A 
ATOM     68  C   UNL A   1      49.968  26.291  26.936  1.00  0.00     0.173 A 
ATOM     69  C   UNL A   1      49.297  26.988  24.738  1.00  0.00     0.173 A 
ATOM     70  F   UNL A   1      49.706  26.100  28.237  1.00  0.00    -0.203 F 
ATOM     71  C   UNL A   1      51.250  26.027  26.460  1.00  0.00     0.198 A 
ATOM     72  C   UNL A   1      50.572  26.698  24.258  1.00  0.00     0.198 A 
ATOM     73  F   UNL A   1      48.374  27.456  23.885  1.00  0.00    -0.203 F 
ATOM     74  F   UNL A   1      52.198  25.594  27.302  1.00  0.00    -0.200 F 
ATOM     75  C   UNL A   1      51.550  26.225  25.120  1.00  0.00     0.200 A 
ATOM     76  F   UNL A   1      50.853  26.878  22.961  1.00  0.00    -0.200 F 
ATOM     77  F   UNL A   1      52.782  25.966  24.661  1.00  0.00    -0.200 F 
ENDBRANCH  43  67
BRANCH  55  78
ATOM     78  C   UNL A   1      46.002  32.502  28.740  1.00  0.00     0.064 A 
ATOM     79  C   UNL A   1      45.919  33.536  27.797  1.00  0.00     0.173 A 
ATOM     80  C   UNL A   1      46.561  32.798  29.994  1.00  0.00     0.173 A 
ATOM     81  F   UNL A   1      45.408  33.299  26.580  1.00  0.00    -0.203 F 
ATOM     82  C   UNL A   1      46.395  34.811  28.090  1.00  0.00     0.198 A 
ATOM     83  C   UNL A   1      47.010  34.081  30.293  1.00  0.00     0.198 A 
ATOM     84  F   UNL A   1      46.658  31.844  30.932  1.00  0.00    -0.203 F 
ATOM     85  F   UNL A   1      46.345  35.774  27.159  1.00  0.00    -0.200 F 
ATOM     86  C   UNL A   1      46.933  35.084  29.340  1.00  0.00     0.200 A 
ATOM     87  F   UNL A   1      47.520  34.345  31.504  1.00  0.00    -0.200 F 
ATOM     88  F   UNL A   1      47.384  36.314  29.622  1.00  0.00    -0.200 F 
ENDBRANCH  55  78
ENDBRANCH  29  30
ENDBRANCH  21  24
ENDBRANCH  19  20
ENDBRANCH   1  19
TORSDOF 12
ENDMDL
