MODEL 1
REMARK VINA RESULT:     -14.0      0.000      0.000
REMARK SMILES O=C(NCCCNC(=O)[C@H]1CCCC[C@H]1C(=O)N1CCN(S(=O)(=O)c2ccc(F)cc2)CC1)c1ccc(-c2c3nc(c(-c4c(F)c(F)c(F)c(F)c4F)c4ccc([nH]4)c(-c4c(F)c(F)c(F)c(F)c4F)c4nc(c(-c5c(F)c(F)c(F)c(F)c5F)c5ccc2[nH]5)C=C4)C=C3)cc1
REMARK SMILES IDX 5 1 4 2 3 3 1 4 2 5 34 7 35 8 96 9 36 10 95 11 37 12 38 13
REMARK SMILES IDX 39 14 89 15 40 16 94 17 88 18 90 19 41 20 93 21 87 22 86 23
REMARK SMILES IDX 42 25 74 26 54 27 73 28 55 29 58 30 72 31 91 32 56 33 57 34
REMARK SMILES IDX 71 36 92 37 59 38 43 39 44 40 52 41 45 42 46 43 50 44 53 45
REMARK SMILES IDX 47 46 48 47 51 48 49 49 75 50 76 51 84 52 77 53 78 54 82 55
REMARK SMILES IDX 85 56 79 57 80 58 83 59 81 60 60 61 61 62 69 63 62 64 63 65
REMARK SMILES IDX 67 66 70 67 64 68 65 69 68 70 66 71 6 72 7 73 8 74 9 76
REMARK SMILES IDX 10 77 11 78 15 79 12 80 14 81 13 82 16 83 17 84 18 85 19 86
REMARK SMILES IDX 33 87 20 88 32 89 21 90 22 91 23 92 24 93 25 94 26 95 31 96
REMARK SMILES IDX 27 97 30 98 28 99 29 100
REMARK H PARENT 3 6 90 24 58 35 7 75
REMARK Flexibility Score: inf
ROOT
ATOM      1  C   UNL A   1      31.828  31.791  27.198  1.00  0.00     0.042 C 
ENDROOT
BRANCH   1   2
ATOM      2  C   UNL A   1      32.617  33.042  26.801  1.00  0.00     0.118 C 
BRANCH   2   3
ATOM      3  N   UNL A   1      32.351  34.203  27.626  1.00  0.00    -0.352 N 
ATOM      4  O   UNL A   1      32.527  35.692  29.284  1.00  0.00    -0.269 OA
ATOM      5  C   UNL A   1      33.005  34.710  28.720  1.00  0.00     0.251 C 
ATOM      6  H   UNL A   1      31.560  34.721  27.352  1.00  0.00     0.163 HD
BRANCH   5   7
ATOM      7  C   UNL A   1      34.242  34.101  29.261  1.00  0.00     0.039 A 
ATOM      8  C   UNL A   1      35.522  34.544  28.911  1.00  0.00     0.014 A 
ATOM      9  C   UNL A   1      34.097  33.115  30.245  1.00  0.00     0.014 A 
ATOM     10  C   UNL A   1      36.651  33.947  29.489  1.00  0.00     0.010 A 
ATOM     11  C   UNL A   1      35.222  32.543  30.844  1.00  0.00     0.010 A 
ATOM     12  C   UNL A   1      36.511  32.940  30.459  1.00  0.00    -0.014 A 
BRANCH  12  13
ATOM     13  C   UNL A   1      37.693  32.303  31.098  1.00  0.00     0.031 A 
ATOM     14  C   UNL A   1      38.432  31.199  30.397  1.00  0.00     0.074 A 
ATOM     15  C   UNL A   1      38.066  32.669  32.339  1.00  0.00     0.049 A 
ATOM     16  N   UNL A   1      39.417  30.453  30.832  1.00  0.00    -0.248 NA
ATOM     17  C   UNL A   1      38.000  30.884  29.027  1.00  0.00     0.031 C 
ATOM     18  C   UNL A   1      37.428  33.717  33.133  1.00  0.00     0.029 A 
ATOM     19  N   UNL A   1      39.059  32.185  33.155  1.00  0.00    -0.354 N 
ATOM     20  C   UNL A   1      39.711  29.573  29.801  1.00  0.00     0.074 A 
ATOM     21  C   UNL A   1      38.785  29.860  28.725  1.00  0.00     0.031 C 
ATOM     22  C   UNL A   1      38.048  33.800  34.322  1.00  0.00     0.029 A 
ATOM     23  C   UNL A   1      39.097  32.785  34.389  1.00  0.00     0.049 A 
ATOM     24  H   UNL A   1      39.685  31.476  32.880  1.00  0.00     0.167 HD
ATOM     25  C   UNL A   1      40.670  28.617  29.753  1.00  0.00     0.037 A 
ATOM     26  C   UNL A   1      39.870  32.533  35.463  1.00  0.00     0.037 A 
ATOM     27  C   UNL A   1      41.605  28.346  30.813  1.00  0.00     0.049 A 
ATOM     28  C   UNL A   1      40.903  31.443  35.405  1.00  0.00     0.074 A 
ATOM     29  C   UNL A   1      42.657  27.445  30.822  1.00  0.00     0.029 A 
ATOM     30  N   UNL A   1      41.598  28.965  32.053  1.00  0.00    -0.354 N 
ATOM     31  N   UNL A   1      41.199  30.644  34.409  1.00  0.00    -0.248 NA
ATOM     32  C   UNL A   1      41.702  31.211  36.617  1.00  0.00     0.031 C 
ATOM     33  C   UNL A   1      43.257  27.486  32.084  1.00  0.00     0.029 A 
ATOM     34  C   UNL A   1      42.607  28.442  32.846  1.00  0.00     0.049 A 
ATOM     35  H   UNL A   1      40.970  29.670  32.329  1.00  0.00     0.167 HD
ATOM     36  C   UNL A   1      42.227  29.829  34.864  1.00  0.00     0.074 A 
ATOM     37  C   UNL A   1      42.506  30.228  36.228  1.00  0.00     0.031 C 
ATOM     38  C   UNL A   1      42.879  28.844  34.203  1.00  0.00     0.037 A 
BRANCH  25  39
ATOM     39  C   UNL A   1      40.758  27.779  28.513  1.00  0.00     0.064 A 
ATOM     40  C   UNL A   1      41.533  28.206  27.424  1.00  0.00     0.173 A 
ATOM     41  C   UNL A   1      40.032  26.588  28.378  1.00  0.00     0.173 A 
ATOM     42  F   UNL A   1      42.239  29.344  27.501  1.00  0.00    -0.203 F 
ATOM     43  C   UNL A   1      41.573  27.472  26.242  1.00  0.00     0.198 A 
ATOM     44  C   UNL A   1      40.093  25.843  27.203  1.00  0.00     0.198 A 
ATOM     45  F   UNL A   1      39.283  26.134  29.394  1.00  0.00    -0.203 F 
ATOM     46  F   UNL A   1      42.303  27.910  25.206  1.00  0.00    -0.200 F 
ATOM     47  C   UNL A   1      40.857  26.289  26.134  1.00  0.00     0.200 A 
ATOM     48  F   UNL A   1      39.418  24.690  27.106  1.00  0.00    -0.200 F 
ATOM     49  F   UNL A   1      40.909  25.576  25.001  1.00  0.00    -0.200 F 
ENDBRANCH  25  39
BRANCH  26  50
ATOM     50  C   UNL A   1      39.687  33.353  36.686  1.00  0.00     0.064 A 
ATOM     51  C   UNL A   1      38.763  32.987  37.675  1.00  0.00     0.173 A 
ATOM     52  C   UNL A   1      40.383  34.557  36.851  1.00  0.00     0.173 A 
ATOM     53  F   UNL A   1      38.074  31.842  37.558  1.00  0.00    -0.203 F 
ATOM     54  C   UNL A   1      38.519  33.811  38.770  1.00  0.00     0.198 A 
ATOM     55  C   UNL A   1      40.152  35.372  37.958  1.00  0.00     0.198 A 
ATOM     56  F   UNL A   1      41.291  34.936  35.941  1.00  0.00    -0.203 F 
ATOM     57  F   UNL A   1      37.602  33.459  39.682  1.00  0.00    -0.200 F 
ATOM     58  C   UNL A   1      39.213  35.004  38.910  1.00  0.00     0.200 A 
ATOM     59  F   UNL A   1      40.836  36.516  38.099  1.00  0.00    -0.200 F 
ATOM     60  F   UNL A   1      38.974  35.801  39.961  1.00  0.00    -0.200 F 
ENDBRANCH  26  50
BRANCH  38  61
ATOM     61  C   UNL A   1      43.979  28.122  34.923  1.00  0.00     0.064 A 
ATOM     62  C   UNL A   1      45.298  28.595  34.859  1.00  0.00     0.173 A 
ATOM     63  C   UNL A   1      43.745  26.905  35.577  1.00  0.00     0.173 A 
ATOM     64  F   UNL A   1      45.571  29.751  34.237  1.00  0.00    -0.203 F 
ATOM     65  C   UNL A   1      46.348  27.862  35.404  1.00  0.00     0.198 A 
ATOM     66  C   UNL A   1      44.795  26.184  36.138  1.00  0.00     0.198 A 
ATOM     67  F   UNL A   1      42.498  26.419  35.673  1.00  0.00    -0.203 F 
ATOM     68  F   UNL A   1      47.605  28.313  35.297  1.00  0.00    -0.200 F 
ATOM     69  C   UNL A   1      46.096  26.656  36.041  1.00  0.00     0.200 A 
ATOM     70  F   UNL A   1      44.550  25.025  36.768  1.00  0.00    -0.200 F 
ATOM     71  F   UNL A   1      47.108  25.947  36.560  1.00  0.00    -0.200 F 
ENDBRANCH  38  61
ENDBRANCH  12  13
ENDBRANCH   5   7
ENDBRANCH   2   3
ENDBRANCH   1   2
BRANCH   1  72
ATOM     72  C   UNL A   1      32.612  30.475  27.251  1.00  0.00     0.117 C 
BRANCH  72  73
ATOM     73  N   UNL A   1      33.202  30.076  25.984  1.00  0.00    -0.356 N 
ATOM     74  C   UNL A   1      32.685  29.365  24.936  1.00  0.00     0.223 C 
ATOM     75  H   UNL A   1      34.134  30.369  25.857  1.00  0.00     0.163 HD
ATOM     76  O   UNL A   1      33.449  29.118  24.002  1.00  0.00    -0.275 OA
BRANCH  74  77
ATOM     77  C   UNL A   1      31.238  28.877  24.969  1.00  0.00     0.091 C 
ATOM     78  C   UNL A   1      30.544  29.582  23.775  1.00  0.00     0.014 C 
ATOM     79  C   UNL A   1      30.994  27.350  24.873  1.00  0.00     0.091 C 
ATOM     80  C   UNL A   1      30.894  28.965  22.412  1.00  0.00     0.001 C 
ATOM     81  C   UNL A   1      31.371  26.741  23.516  1.00  0.00     0.014 C 
ATOM     82  C   UNL A   1      30.655  27.460  22.375  1.00  0.00     0.001 C 
BRANCH  79  83
ATOM     83  C   UNL A   1      31.355  26.378  26.022  1.00  0.00     0.226 C 
ATOM     84  O   UNL A   1      31.125  26.703  27.189  1.00  0.00    -0.275 OA
ATOM     85  N   UNL A   1      31.738  25.091  25.713  1.00  0.00    -0.340 N 
ATOM     86  C   UNL A   1      31.299  23.940  26.512  1.00  0.00     0.136 C 
ATOM     87  C   UNL A   1      32.915  24.799  24.938  1.00  0.00     0.136 C 
ATOM     88  C   UNL A   1      31.145  22.666  25.633  1.00  0.00     0.124 C 
ATOM     89  C   UNL A   1      32.630  23.679  23.953  1.00  0.00     0.124 C 
ATOM     90  N   UNL A   1      32.323  22.420  24.699  1.00  0.00    -0.194 NA
BRANCH  90  91
ATOM     91  S   UNL A   1      33.624  21.576  25.423  1.00  0.00     0.243 S 
ATOM     92  O   UNL A   1      34.862  22.233  25.063  1.00  0.00    -0.207 OA
ATOM     93  O   UNL A   1      33.282  21.378  26.815  1.00  0.00    -0.207 OA
BRANCH  91  94
ATOM     94  C   UNL A   1      33.653  19.974  24.632  1.00  0.00     0.082 A 
ATOM     95  C   UNL A   1      34.764  19.135  24.816  1.00  0.00     0.025 A 
ATOM     96  C   UNL A   1      32.527  19.504  23.949  1.00  0.00     0.025 A 
ATOM     97  C   UNL A   1      34.781  17.858  24.253  1.00  0.00     0.040 A 
ATOM     98  C   UNL A   1      32.536  18.210  23.416  1.00  0.00     0.040 A 
ATOM     99  C   UNL A   1      33.664  17.406  23.561  1.00  0.00     0.123 A 
ATOM    100  F   UNL A   1      33.668  16.172  23.043  1.00  0.00    -0.207 F 
ENDBRANCH  91  94
ENDBRANCH  90  91
ENDBRANCH  79  83
ENDBRANCH  74  77
ENDBRANCH  72  73
ENDBRANCH   1  72
TORSDOF 13
ENDMDL
MODEL 2
REMARK VINA RESULT:     -13.6      5.283     11.115
REMARK SMILES O=C(NCCCNC(=O)[C@H]1CCCC[C@H]1C(=O)N1CCN(S(=O)(=O)c2ccc(F)cc2)CC1)c1ccc(-c2c3nc(c(-c4c(F)c(F)c(F)c(F)c4F)c4ccc([nH]4)c(-c4c(F)c(F)c(F)c(F)c4F)c4nc(c(-c5c(F)c(F)c(F)c(F)c5F)c5ccc2[nH]5)C=C4)C=C3)cc1
REMARK SMILES IDX 5 1 4 2 3 3 1 4 2 5 34 7 35 8 96 9 36 10 95 11 37 12 38 13
REMARK SMILES IDX 39 14 89 15 40 16 94 17 88 18 90 19 41 20 93 21 87 22 86 23
REMARK SMILES IDX 42 25 74 26 54 27 73 28 55 29 58 30 72 31 91 32 56 33 57 34
REMARK SMILES IDX 71 36 92 37 59 38 43 39 44 40 52 41 45 42 46 43 50 44 53 45
REMARK SMILES IDX 47 46 48 47 51 48 49 49 75 50 76 51 84 52 77 53 78 54 82 55
REMARK SMILES IDX 85 56 79 57 80 58 83 59 81 60 60 61 61 62 69 63 62 64 63 65
REMARK SMILES IDX 67 66 70 67 64 68 65 69 68 70 66 71 6 72 7 73 8 74 9 76
REMARK SMILES IDX 10 77 11 78 15 79 12 80 14 81 13 82 16 83 17 84 18 85 19 86
REMARK SMILES IDX 33 87 20 88 32 89 21 90 22 91 23 92 24 93 25 94 26 95 31 96
REMARK SMILES IDX 27 97 30 98 28 99 29 100
REMARK H PARENT 3 6 90 24 58 35 7 75
REMARK Flexibility Score: inf
ROOT
ATOM      1  C   UNL A   1      38.372  20.361  24.979  1.00  0.00     0.042 C 
ENDROOT
BRANCH   1   2
ATOM      2  C   UNL A   1      38.977  19.620  26.174  1.00  0.00     0.118 C 
BRANCH   2   3
ATOM      3  N   UNL A   1      40.204  18.908  25.877  1.00  0.00    -0.352 N 
ATOM      4  O   UNL A   1      42.379  18.507  25.551  1.00  0.00    -0.269 OA
ATOM      5  C   UNL A   1      41.517  19.302  25.920  1.00  0.00     0.251 C 
ATOM      6  H   UNL A   1      40.072  17.974  25.594  1.00  0.00     0.163 HD
BRANCH   5   7
ATOM      7  C   UNL A   1      41.929  20.655  26.363  1.00  0.00     0.039 A 
ATOM      8  C   UNL A   1      42.277  20.947  27.685  1.00  0.00     0.014 A 
ATOM      9  C   UNL A   1      42.072  21.639  25.376  1.00  0.00     0.014 A 
ATOM     10  C   UNL A   1      42.693  22.241  28.029  1.00  0.00     0.010 A 
ATOM     11  C   UNL A   1      42.518  22.919  25.715  1.00  0.00     0.010 A 
ATOM     12  C   UNL A   1      42.815  23.238  27.048  1.00  0.00    -0.014 A 
BRANCH  12  13
ATOM     13  C   UNL A   1      43.270  24.613  27.385  1.00  0.00     0.031 A 
ATOM     14  C   UNL A   1      42.297  25.623  27.925  1.00  0.00     0.074 A 
ATOM     15  C   UNL A   1      44.543  24.979  27.145  1.00  0.00     0.049 A 
ATOM     16  N   UNL A   1      42.478  26.895  28.181  1.00  0.00    -0.248 NA
ATOM     17  C   UNL A   1      40.937  25.142  28.206  1.00  0.00     0.031 C 
ATOM     18  C   UNL A   1      45.583  24.101  26.613  1.00  0.00     0.029 A 
ATOM     19  N   UNL A   1      45.171  26.190  27.300  1.00  0.00    -0.354 N 
ATOM     20  C   UNL A   1      41.256  27.369  28.634  1.00  0.00     0.074 A 
ATOM     21  C   UNL A   1      40.333  26.255  28.599  1.00  0.00     0.031 C 
ATOM     22  C   UNL A   1      46.722  24.802  26.488  1.00  0.00     0.029 A 
ATOM     23  C   UNL A   1      46.482  26.186  26.891  1.00  0.00     0.049 A 
ATOM     24  H   UNL A   1      44.724  26.987  27.669  1.00  0.00     0.167 HD
ATOM     25  C   UNL A   1      40.936  28.618  29.050  1.00  0.00     0.037 A 
ATOM     26  C   UNL A   1      47.383  27.185  26.823  1.00  0.00     0.037 A 
ATOM     27  C   UNL A   1      41.858  29.721  29.108  1.00  0.00     0.049 A 
ATOM     28  C   UNL A   1      46.997  28.573  27.252  1.00  0.00     0.074 A 
ATOM     29  C   UNL A   1      41.639  31.003  29.584  1.00  0.00     0.029 A 
ATOM     30  N   UNL A   1      43.172  29.678  28.668  1.00  0.00    -0.354 N 
ATOM     31  N   UNL A   1      45.850  29.000  27.719  1.00  0.00    -0.248 NA
ATOM     32  C   UNL A   1      48.025  29.619  27.139  1.00  0.00     0.031 C 
ATOM     33  C   UNL A   1      42.805  31.748  29.390  1.00  0.00     0.029 A 
ATOM     34  C   UNL A   1      43.765  30.919  28.832  1.00  0.00     0.049 A 
ATOM     35  H   UNL A   1      43.618  28.884  28.295  1.00  0.00     0.167 HD
ATOM     36  C   UNL A   1      46.019  30.354  27.972  1.00  0.00     0.074 A 
ATOM     37  C   UNL A   1      47.382  30.682  27.607  1.00  0.00     0.031 C 
ATOM     38  C   UNL A   1      45.122  31.240  28.466  1.00  0.00     0.037 A 
BRANCH  25  39
ATOM     39  C   UNL A   1      39.519  28.870  29.473  1.00  0.00     0.064 A 
ATOM     40  C   UNL A   1      38.585  29.372  28.553  1.00  0.00     0.173 A 
ATOM     41  C   UNL A   1      39.101  28.674  30.796  1.00  0.00     0.173 A 
ATOM     42  F   UNL A   1      38.940  29.586  27.277  1.00  0.00    -0.203 F 
ATOM     43  C   UNL A   1      37.284  29.673  28.947  1.00  0.00     0.198 A 
ATOM     44  C   UNL A   1      37.792  28.953  31.180  1.00  0.00     0.198 A 
ATOM     45  F   UNL A   1      39.955  28.189  31.710  1.00  0.00    -0.203 F 
ATOM     46  F   UNL A   1      36.414  30.172  28.057  1.00  0.00    -0.200 F 
ATOM     47  C   UNL A   1      36.888  29.459  30.258  1.00  0.00     0.200 A 
ATOM     48  F   UNL A   1      37.403  28.726  32.442  1.00  0.00    -0.200 F 
ATOM     49  F   UNL A   1      35.631  29.734  30.631  1.00  0.00    -0.200 F 
ENDBRANCH  25  39
BRANCH  26  50
ATOM     50  C   UNL A   1      48.749  26.884  26.330  1.00  0.00     0.064 A 
ATOM     51  C   UNL A   1      49.077  27.011  24.972  1.00  0.00     0.173 A 
ATOM     52  C   UNL A   1      49.733  26.397  27.200  1.00  0.00     0.173 A 
ATOM     53  F   UNL A   1      48.165  27.473  24.103  1.00  0.00    -0.203 F 
ATOM     54  C   UNL A   1      50.329  26.630  24.497  1.00  0.00     0.198 A 
ATOM     55  C   UNL A   1      50.993  26.035  26.726  1.00  0.00     0.198 A 
ATOM     56  F   UNL A   1      49.471  26.281  28.509  1.00  0.00    -0.203 F 
ATOM     57  F   UNL A   1      50.605  26.722  23.189  1.00  0.00    -0.200 F 
ATOM     58  C   UNL A   1      51.286  26.140  25.374  1.00  0.00     0.200 A 
ATOM     59  F   UNL A   1      51.920  25.578  27.578  1.00  0.00    -0.200 F 
ATOM     60  F   UNL A   1      52.489  25.768  24.916  1.00  0.00    -0.200 F 
ENDBRANCH  26  50
BRANCH  38  61
ATOM     61  C   UNL A   1      45.569  32.657  28.668  1.00  0.00     0.064 A 
ATOM     62  C   UNL A   1      46.138  33.054  29.887  1.00  0.00     0.173 A 
ATOM     63  C   UNL A   1      45.329  33.640  27.699  1.00  0.00     0.173 A 
ATOM     64  F   UNL A   1      46.379  32.149  30.847  1.00  0.00    -0.203 F 
ATOM     65  C   UNL A   1      46.429  34.392  30.137  1.00  0.00     0.198 A 
ATOM     66  C   UNL A   1      45.640  34.975  27.946  1.00  0.00     0.198 A 
ATOM     67  F   UNL A   1      44.796  33.305  26.514  1.00  0.00    -0.203 F 
ATOM     68  F   UNL A   1      46.936  34.755  31.324  1.00  0.00    -0.200 F 
ATOM     69  C   UNL A   1      46.178  35.351  29.168  1.00  0.00     0.200 A 
ATOM     70  F   UNL A   1      45.411  35.901  27.003  1.00  0.00    -0.200 F 
ATOM     71  F   UNL A   1      46.452  36.640  29.413  1.00  0.00    -0.200 F 
ENDBRANCH  38  61
ENDBRANCH  12  13
ENDBRANCH   5   7
ENDBRANCH   2   3
ENDBRANCH   1   2
BRANCH   1  72
ATOM     72  C   UNL A   1      37.972  21.823  25.210  1.00  0.00     0.117 C 
BRANCH  72  73
ATOM     73  N   UNL A   1      36.853  22.002  26.122  1.00  0.00    -0.356 N 
ATOM     74  C   UNL A   1      35.513  21.797  25.949  1.00  0.00     0.223 C 
ATOM     75  H   UNL A   1      37.104  22.326  27.017  1.00  0.00     0.163 HD
ATOM     76  O   UNL A   1      34.779  22.100  26.892  1.00  0.00    -0.275 OA
BRANCH  74  77
ATOM     77  C   UNL A   1      34.975  21.257  24.626  1.00  0.00     0.091 C 
ATOM     78  C   UNL A   1      34.390  19.861  24.964  1.00  0.00     0.014 C 
ATOM     79  C   UNL A   1      33.899  22.097  23.893  1.00  0.00     0.091 C 
ATOM     80  C   UNL A   1      33.031  19.923  25.680  1.00  0.00     0.001 C 
ATOM     81  C   UNL A   1      32.555  22.173  24.629  1.00  0.00     0.014 C 
ATOM     82  C   UNL A   1      32.016  20.777  24.929  1.00  0.00     0.001 C 
BRANCH  79  83
ATOM     83  C   UNL A   1      34.223  23.452  23.216  1.00  0.00     0.226 C 
ATOM     84  O   UNL A   1      35.125  23.511  22.378  1.00  0.00    -0.275 OA
ATOM     85  N   UNL A   1      33.372  24.517  23.410  1.00  0.00    -0.340 N 
ATOM     86  C   UNL A   1      33.030  25.443  22.324  1.00  0.00     0.136 C 
ATOM     87  C   UNL A   1      33.132  25.088  24.709  1.00  0.00     0.136 C 
ATOM     88  C   UNL A   1      31.585  25.996  22.484  1.00  0.00     0.124 C 
ATOM     89  C   UNL A   1      31.658  25.416  24.874  1.00  0.00     0.124 C 
ATOM     90  N   UNL A   1      31.266  26.476  23.895  1.00  0.00    -0.194 NA
BRANCH  90  91
ATOM     91  S   UNL A   1      31.754  28.085  24.213  1.00  0.00     0.243 S 
ATOM     92  O   UNL A   1      31.923  28.246  25.641  1.00  0.00    -0.207 OA
ATOM     93  O   UNL A   1      32.845  28.386  23.310  1.00  0.00    -0.207 OA
BRANCH  91  94
ATOM     94  C   UNL A   1      30.362  29.106  23.750  1.00  0.00     0.082 A 
ATOM     95  C   UNL A   1      29.275  28.524  23.075  1.00  0.00     0.025 A 
ATOM     96  C   UNL A   1      30.292  30.437  24.170  1.00  0.00     0.025 A 
ATOM     97  C   UNL A   1      28.156  29.292  22.755  1.00  0.00     0.040 A 
ATOM     98  C   UNL A   1      29.153  31.193  23.876  1.00  0.00     0.040 A 
ATOM     99  C   UNL A   1      28.103  30.619  23.162  1.00  0.00     0.123 A 
ATOM    100  F   UNL A   1      27.019  31.351  22.879  1.00  0.00    -0.207 F 
ENDBRANCH  91  94
ENDBRANCH  90  91
ENDBRANCH  79  83
ENDBRANCH  74  77
ENDBRANCH  72  73
ENDBRANCH   1  72
TORSDOF 13
ENDMDL
MODEL 3
REMARK VINA RESULT:     -13.6      3.986      8.518
REMARK SMILES O=C(NCCCNC(=O)[C@H]1CCCC[C@H]1C(=O)N1CCN(S(=O)(=O)c2ccc(F)cc2)CC1)c1ccc(-c2c3nc(c(-c4c(F)c(F)c(F)c(F)c4F)c4ccc([nH]4)c(-c4c(F)c(F)c(F)c(F)c4F)c4nc(c(-c5c(F)c(F)c(F)c(F)c5F)c5ccc2[nH]5)C=C4)C=C3)cc1
REMARK SMILES IDX 5 1 4 2 3 3 1 4 2 5 34 7 35 8 96 9 36 10 95 11 37 12 38 13
REMARK SMILES IDX 39 14 89 15 40 16 94 17 88 18 90 19 41 20 93 21 87 22 86 23
REMARK SMILES IDX 42 25 74 26 54 27 73 28 55 29 58 30 72 31 91 32 56 33 57 34
REMARK SMILES IDX 71 36 92 37 59 38 43 39 44 40 52 41 45 42 46 43 50 44 53 45
REMARK SMILES IDX 47 46 48 47 51 48 49 49 75 50 76 51 84 52 77 53 78 54 82 55
REMARK SMILES IDX 85 56 79 57 80 58 83 59 81 60 60 61 61 62 69 63 62 64 63 65
REMARK SMILES IDX 67 66 70 67 64 68 65 69 68 70 66 71 6 72 7 73 8 74 9 76
REMARK SMILES IDX 10 77 11 78 15 79 12 80 14 81 13 82 16 83 17 84 18 85 19 86
REMARK SMILES IDX 33 87 20 88 32 89 21 90 22 91 23 92 24 93 25 94 26 95 31 96
REMARK SMILES IDX 27 97 30 98 28 99 29 100
REMARK H PARENT 3 6 90 24 58 35 7 75
REMARK Flexibility Score: inf
ROOT
ATOM      1  C   UNL A   1      35.906  23.922  26.097  1.00  0.00     0.042 C 
ENDROOT
BRANCH   1   2
ATOM      2  C   UNL A   1      37.039  23.860  25.068  1.00  0.00     0.118 C 
BRANCH   2   3
ATOM      3  N   UNL A   1      38.102  22.934  25.406  1.00  0.00    -0.352 N 
ATOM      4  O   UNL A   1      40.013  22.141  26.252  1.00  0.00    -0.269 OA
ATOM      5  C   UNL A   1      39.227  23.083  26.176  1.00  0.00     0.251 C 
ATOM      6  H   UNL A   1      37.998  22.038  25.012  1.00  0.00     0.163 HD
BRANCH   5   7
ATOM      7  C   UNL A   1      39.542  24.341  26.892  1.00  0.00     0.039 A 
ATOM      8  C   UNL A   1      39.210  24.555  28.233  1.00  0.00     0.014 A 
ATOM      9  C   UNL A   1      40.299  25.299  26.206  1.00  0.00     0.014 A 
ATOM     10  C   UNL A   1      39.571  25.756  28.861  1.00  0.00     0.010 A 
ATOM     11  C   UNL A   1      40.685  26.482  26.842  1.00  0.00     0.010 A 
ATOM     12  C   UNL A   1      40.309  26.731  28.169  1.00  0.00    -0.014 A 
BRANCH  12  13
ATOM     13  C   UNL A   1      40.717  28.005  28.818  1.00  0.00     0.031 A 
ATOM     14  C   UNL A   1      42.122  28.186  29.316  1.00  0.00     0.074 A 
ATOM     15  C   UNL A   1      39.809  28.978  29.021  1.00  0.00     0.049 A 
ATOM     16  N   UNL A   1      42.640  29.179  29.997  1.00  0.00    -0.248 NA
ATOM     17  C   UNL A   1      43.071  27.103  29.019  1.00  0.00     0.031 C 
ATOM     18  C   UNL A   1      38.412  28.925  28.598  1.00  0.00     0.029 A 
ATOM     19  N   UNL A   1      39.924  30.192  29.653  1.00  0.00    -0.354 N 
ATOM     20  C   UNL A   1      43.964  28.834  30.224  1.00  0.00     0.074 A 
ATOM     21  C   UNL A   1      44.168  27.530  29.628  1.00  0.00     0.031 C 
ATOM     22  C   UNL A   1      37.798  30.057  28.978  1.00  0.00     0.029 A 
ATOM     23  C   UNL A   1      38.746  30.896  29.708  1.00  0.00     0.049 A 
ATOM     24  H   UNL A   1      40.770  30.527  30.030  1.00  0.00     0.167 HD
ATOM     25  C   UNL A   1      44.925  29.544  30.864  1.00  0.00     0.037 A 
ATOM     26  C   UNL A   1      38.454  32.071  30.298  1.00  0.00     0.037 A 
ATOM     27  C   UNL A   1      44.730  30.850  31.436  1.00  0.00     0.049 A 
ATOM     28  C   UNL A   1      39.523  32.826  31.037  1.00  0.00     0.074 A 
ATOM     29  C   UNL A   1      45.665  31.674  32.039  1.00  0.00     0.029 A 
ATOM     30  N   UNL A   1      43.517  31.520  31.484  1.00  0.00    -0.354 N 
ATOM     31  N   UNL A   1      40.783  32.510  31.209  1.00  0.00    -0.248 NA
ATOM     32  C   UNL A   1      39.132  34.094  31.670  1.00  0.00     0.031 C 
ATOM     33  C   UNL A   1      45.010  32.822  32.494  1.00  0.00     0.029 A 
ATOM     34  C   UNL A   1      43.674  32.733  32.137  1.00  0.00     0.049 A 
ATOM     35  H   UNL A   1      42.670  31.185  31.112  1.00  0.00     0.167 HD
ATOM     36  C   UNL A   1      41.340  33.542  31.951  1.00  0.00     0.074 A 
ATOM     37  C   UNL A   1      40.281  34.499  32.199  1.00  0.00     0.031 C 
ATOM     38  C   UNL A   1      42.616  33.680  32.381  1.00  0.00     0.037 A 
BRANCH  25  39
ATOM     39  C   UNL A   1      46.284  28.923  30.990  1.00  0.00     0.064 A 
ATOM     40  C   UNL A   1      47.229  29.074  29.964  1.00  0.00     0.173 A 
ATOM     41  C   UNL A   1      46.629  28.131  32.093  1.00  0.00     0.173 A 
ATOM     42  F   UNL A   1      46.942  29.815  28.884  1.00  0.00    -0.203 F 
ATOM     43  C   UNL A   1      48.471  28.449  30.038  1.00  0.00     0.198 A 
ATOM     44  C   UNL A   1      47.882  27.527  32.175  1.00  0.00     0.198 A 
ATOM     45  F   UNL A   1      45.762  27.962  33.103  1.00  0.00    -0.203 F 
ATOM     46  F   UNL A   1      49.351  28.590  29.037  1.00  0.00    -0.200 F 
ATOM     47  C   UNL A   1      48.798  27.681  31.145  1.00  0.00     0.200 A 
ATOM     48  F   UNL A   1      48.205  26.801  33.254  1.00  0.00    -0.200 F 
ATOM     49  F   UNL A   1      49.999  27.092  31.221  1.00  0.00    -0.200 F 
ENDBRANCH  25  39
BRANCH  26  50
ATOM     50  C   UNL A   1      37.072  32.600  30.195  1.00  0.00     0.064 A 
ATOM     51  C   UNL A   1      36.688  33.434  29.135  1.00  0.00     0.173 A 
ATOM     52  C   UNL A   1      36.128  32.336  31.197  1.00  0.00     0.173 A 
ATOM     53  F   UNL A   1      37.559  33.713  28.154  1.00  0.00    -0.203 F 
ATOM     54  C   UNL A   1      35.422  34.011  29.097  1.00  0.00     0.198 A 
ATOM     55  C   UNL A   1      34.854  32.898  31.147  1.00  0.00     0.198 A 
ATOM     56  F   UNL A   1      36.444  31.526  32.218  1.00  0.00    -0.203 F 
ATOM     57  F   UNL A   1      35.093  34.836  28.094  1.00  0.00    -0.200 F 
ATOM     58  C   UNL A   1      34.506  33.744  30.104  1.00  0.00     0.200 A 
ATOM     59  F   UNL A   1      33.966  32.625  32.112  1.00  0.00    -0.200 F 
ATOM     60  F   UNL A   1      33.289  34.303  30.070  1.00  0.00    -0.200 F 
ENDBRANCH  26  50
BRANCH  38  61
ATOM     61  C   UNL A   1      42.969  34.915  33.155  1.00  0.00     0.064 A 
ATOM     62  C   UNL A   1      42.821  34.945  34.549  1.00  0.00     0.173 A 
ATOM     63  C   UNL A   1      43.342  36.099  32.505  1.00  0.00     0.173 A 
ATOM     64  F   UNL A   1      42.459  33.837  35.214  1.00  0.00    -0.203 F 
ATOM     65  C   UNL A   1      43.012  36.124  35.264  1.00  0.00     0.198 A 
ATOM     66  C   UNL A   1      43.550  37.273  33.226  1.00  0.00     0.198 A 
ATOM     67  F   UNL A   1      43.505  36.117  31.174  1.00  0.00    -0.203 F 
ATOM     68  F   UNL A   1      42.827  36.138  36.591  1.00  0.00    -0.200 F 
ATOM     69  C   UNL A   1      43.373  37.287  34.601  1.00  0.00     0.200 A 
ATOM     70  F   UNL A   1      43.914  38.394  32.587  1.00  0.00    -0.200 F 
ATOM     71  F   UNL A   1      43.549  38.423  35.289  1.00  0.00    -0.200 F 
ENDBRANCH  38  61
ENDBRANCH  12  13
ENDBRANCH   5   7
ENDBRANCH   2   3
ENDBRANCH   1   2
BRANCH   1  72
ATOM     72  C   UNL A   1      35.673  22.661  26.935  1.00  0.00     0.117 C 
BRANCH  72  73
ATOM     73  N   UNL A   1      34.296  22.194  26.948  1.00  0.00    -0.356 N 
ATOM     74  C   UNL A   1      33.586  21.468  26.033  1.00  0.00     0.223 C 
ATOM     75  H   UNL A   1      33.788  22.444  27.753  1.00  0.00     0.163 HD
ATOM     76  O   UNL A   1      32.396  21.271  26.284  1.00  0.00    -0.275 OA
BRANCH  74  77
ATOM     77  C   UNL A   1      34.250  20.974  24.750  1.00  0.00     0.091 C 
ATOM     78  C   UNL A   1      33.968  19.450  24.706  1.00  0.00     0.014 C 
ATOM     79  C   UNL A   1      33.797  21.615  23.414  1.00  0.00     0.091 C 
ATOM     80  C   UNL A   1      32.530  19.104  24.289  1.00  0.00     0.001 C 
ATOM     81  C   UNL A   1      32.351  21.284  23.020  1.00  0.00     0.014 C 
ATOM     82  C   UNL A   1      32.127  19.775  22.981  1.00  0.00     0.001 C 
BRANCH  79  83
ATOM     83  C   UNL A   1      34.140  23.077  23.037  1.00  0.00     0.226 C 
ATOM     84  O   UNL A   1      35.206  23.324  22.470  1.00  0.00    -0.275 OA
ATOM     85  N   UNL A   1      33.166  24.044  23.157  1.00  0.00    -0.340 N 
ATOM     86  C   UNL A   1      33.006  25.110  22.159  1.00  0.00     0.136 C 
ATOM     87  C   UNL A   1      32.567  24.386  24.419  1.00  0.00     0.136 C 
ATOM     88  C   UNL A   1      31.518  25.542  22.026  1.00  0.00     0.124 C 
ATOM     89  C   UNL A   1      31.071  24.594  24.251  1.00  0.00     0.124 C 
ATOM     90  N   UNL A   1      30.825  25.771  23.363  1.00  0.00    -0.194 NA
BRANCH  90  91
ATOM     91  S   UNL A   1      31.061  27.335  24.015  1.00  0.00     0.243 S 
ATOM     92  O   UNL A   1      30.568  27.352  25.375  1.00  0.00    -0.207 OA
ATOM     93  O   UNL A   1      32.430  27.713  23.730  1.00  0.00    -0.207 OA
BRANCH  91  94
ATOM     94  C   UNL A   1      29.989  28.412  23.074  1.00  0.00     0.082 A 
ATOM     95  C   UNL A   1      28.597  28.322  23.249  1.00  0.00     0.025 A 
ATOM     96  C   UNL A   1      30.529  29.423  22.275  1.00  0.00     0.025 A 
ATOM     97  C   UNL A   1      27.747  29.191  22.566  1.00  0.00     0.040 A 
ATOM     98  C   UNL A   1      29.673  30.314  21.619  1.00  0.00     0.040 A 
ATOM     99  C   UNL A   1      28.293  30.182  21.760  1.00  0.00     0.123 A 
ATOM    100  F   UNL A   1      27.480  31.034  21.124  1.00  0.00    -0.207 F 
ENDBRANCH  91  94
ENDBRANCH  90  91
ENDBRANCH  79  83
ENDBRANCH  74  77
ENDBRANCH  72  73
ENDBRANCH   1  72
TORSDOF 13
ENDMDL
