MODEL 1
REMARK VINA RESULT:     -13.2      0.000      0.000
REMARK SMILES C[C@@H]([C@H]1CC=CS1)n1nccc1NC(=O)CC1(CC(=O)NCCCNC(=O)c2ccc(-c3c4nc(c(-c5c(F)c(F)c(F)c(F)c5F)c5ccc([nH]5)c(-c5c(F)c(F)c(F)c(F)c5F)c5nc(c(-c6c(F)c(F)c(F)c(F)c6F)c6ccc3[nH]6)C=C5)C=C4)cc2)CCCCC1
REMARK SMILES IDX 19 1 20 2 21 3 18 5 17 6 91 7 95 8 92 9 94 10 93 11 16 12
REMARK SMILES IDX 14 13 13 14 15 16 12 17 8 18 9 19 10 20 11 21 2 22 1 23 3 24
REMARK SMILES IDX 4 25 7 26 5 27 6 28 22 29 23 30 24 31 25 32 26 33 27 35
REMARK SMILES IDX 28 36 29 37 90 38 30 39 89 40 31 41 32 42 33 43 83 44 34 45
REMARK SMILES IDX 88 46 82 47 84 48 35 49 87 50 81 51 80 52 36 54 68 55 48 56
REMARK SMILES IDX 67 57 49 58 52 59 66 60 85 61 50 62 51 63 65 65 86 66 53 67
REMARK SMILES IDX 37 68 38 69 46 70 39 71 40 72 44 73 47 74 41 75 42 76 45 77
REMARK SMILES IDX 43 78 69 79 70 80 78 81 71 82 72 83 76 84 79 85 73 86 74 87
REMARK SMILES IDX 77 88 75 89 54 90 55 91 63 92 56 93 57 94 61 95 64 96 58 97
REMARK SMILES IDX 59 98 62 99 60 100
REMARK H PARENT 21 4 13 15 25 34 84 53 52 64
REMARK Flexibility Score: inf
ROOT
ATOM      1  C   UNL A   1      35.019  23.949  24.473  1.00  0.00     0.220 C 
ATOM      2  O   UNL A   1      34.785  25.065  24.939  1.00  0.00    -0.275 OA
ATOM      3  N   UNL A   1      36.298  23.498  24.511  1.00  0.00    -0.356 N 
ATOM      4  H   UNL A   1      36.948  24.124  24.905  1.00  0.00     0.163 HD
ENDROOT
BRANCH   1   5
ATOM      5  C   UNL A   1      33.893  23.112  23.889  1.00  0.00     0.107 C 
BRANCH   5   6
ATOM      6  C   UNL A   1      32.689  22.732  24.802  1.00  0.00    -0.012 C 
ATOM      7  C   UNL A   1      33.264  22.381  26.196  1.00  0.00     0.008 C 
ATOM      8  C   UNL A   1      31.922  21.447  24.399  1.00  0.00     0.008 C 
ATOM      9  C   UNL A   1      34.078  21.083  26.290  1.00  0.00     0.001 C 
ATOM     10  C   UNL A   1      32.752  20.168  24.385  1.00  0.00     0.001 C 
ATOM     11  C   UNL A   1      33.288  19.885  25.775  1.00  0.00     0.000 C 
BRANCH   6  12
ATOM     12  C   UNL A   1      31.591  23.858  24.812  1.00  0.00     0.108 C 
BRANCH  12  13
ATOM     13  C   UNL A   1      31.108  24.482  26.104  1.00  0.00     0.226 C 
ATOM     14  N   UNL A   1      30.605  25.821  26.176  1.00  0.00    -0.311 N 
ATOM     15  H   UNL A   1      30.287  26.131  27.056  1.00  0.00     0.171 HD
ATOM     16  O   UNL A   1      31.127  23.906  27.181  1.00  0.00    -0.275 OA
BRANCH  14  17
ATOM     17  C   UNL A   1      30.523  26.716  25.136  1.00  0.00     0.131 A 
ATOM     18  N   UNL A   1      31.402  27.746  24.857  1.00  0.00    -0.246 N 
ATOM     19  N   UNL A   1      30.874  28.607  23.952  1.00  0.00    -0.179 NA
ATOM     20  C   UNL A   1      29.784  27.987  23.497  1.00  0.00     0.137 A 
ATOM     21  C   UNL A   1      29.541  26.779  24.172  1.00  0.00     0.068 A 
BRANCH  18  22
ATOM     22  C   UNL A   1      32.799  27.892  25.264  1.00  0.00     0.120 C 
ATOM     23  C   UNL A   1      33.669  28.396  24.094  1.00  0.00     0.034 C 
BRANCH  22  24
ATOM     24  C   UNL A   1      33.132  28.738  26.522  1.00  0.00     0.079 C 
ATOM     25  C   UNL A   1      34.620  28.946  26.850  1.00  0.00     0.045 C 
ATOM     26  S   UNL A   1      32.356  30.395  26.673  1.00  0.00    -0.128 SA
ATOM     27  C   UNL A   1      34.737  30.221  27.632  1.00  0.00    -0.019 C 
ATOM     28  C   UNL A   1      33.671  31.025  27.600  1.00  0.00     0.037 C 
ENDBRANCH  22  24
ENDBRANCH  18  22
ENDBRANCH  14  17
ENDBRANCH  12  13
ENDBRANCH   6  12
ENDBRANCH   5   6
ENDBRANCH   1   5
BRANCH   3  29
ATOM     29  C   UNL A   1      36.859  22.237  24.059  1.00  0.00     0.117 C 
BRANCH  29  30
ATOM     30  C   UNL A   1      37.698  21.575  25.154  1.00  0.00     0.042 C 
BRANCH  30  31
ATOM     31  C   UNL A   1      38.533  22.540  25.939  1.00  0.00     0.118 C 
BRANCH  31  32
ATOM     32  N   UNL A   1      39.702  21.956  26.597  1.00  0.00    -0.352 N 
ATOM     33  C   UNL A   1      40.835  22.643  27.048  1.00  0.00     0.251 C 
ATOM     34  H   UNL A   1      39.690  20.982  26.739  1.00  0.00     0.163 HD
ATOM     35  O   UNL A   1      41.881  22.080  27.275  1.00  0.00    -0.269 OA
BRANCH  33  36
ATOM     36  C   UNL A   1      40.685  24.102  27.247  1.00  0.00     0.039 A 
ATOM     37  C   UNL A   1      39.492  24.817  27.123  1.00  0.00     0.014 A 
ATOM     38  C   UNL A   1      41.800  24.708  27.777  1.00  0.00     0.014 A 
ATOM     39  C   UNL A   1      39.473  26.132  27.601  1.00  0.00     0.010 A 
ATOM     40  C   UNL A   1      41.556  25.669  28.696  1.00  0.00     0.010 A 
ATOM     41  C   UNL A   1      40.550  26.550  28.388  1.00  0.00    -0.014 A 
BRANCH  41  42
ATOM     42  C   UNL A   1      40.742  27.860  28.990  1.00  0.00     0.031 A 
ATOM     43  C   UNL A   1      41.855  28.639  28.410  1.00  0.00     0.074 A 
ATOM     44  C   UNL A   1      39.764  28.409  29.757  1.00  0.00     0.049 A 
ATOM     45  N   UNL A   1      42.946  29.008  28.989  1.00  0.00    -0.248 NA
ATOM     46  C   UNL A   1      41.822  28.916  26.963  1.00  0.00     0.031 C 
ATOM     47  C   UNL A   1      38.445  27.855  30.126  1.00  0.00     0.029 A 
ATOM     48  N   UNL A   1      39.701  29.657  30.294  1.00  0.00    -0.354 N 
ATOM     49  C   UNL A   1      43.641  29.750  28.041  1.00  0.00     0.074 A 
ATOM     50  C   UNL A   1      43.019  29.473  26.773  1.00  0.00     0.031 C 
ATOM     51  C   UNL A   1      37.646  28.831  30.614  1.00  0.00     0.029 A 
ATOM     52  C   UNL A   1      38.442  30.029  30.769  1.00  0.00     0.049 A 
ATOM     53  H   UNL A   1      40.483  30.254  30.344  1.00  0.00     0.167 HD
ATOM     54  C   UNL A   1      44.493  30.743  28.419  1.00  0.00     0.037 A 
ATOM     55  C   UNL A   1      38.094  31.254  31.237  1.00  0.00     0.037 A 
ATOM     56  C   UNL A   1      44.816  30.639  29.822  1.00  0.00     0.049 A 
ATOM     57  C   UNL A   1      39.363  31.945  31.591  1.00  0.00     0.074 A 
ATOM     58  C   UNL A   1      45.427  29.677  30.603  1.00  0.00     0.029 A 
ATOM     59  N   UNL A   1      44.123  31.440  30.698  1.00  0.00    -0.354 N 
ATOM     60  N   UNL A   1      40.157  31.535  32.546  1.00  0.00    -0.248 NA
ATOM     61  C   UNL A   1      39.994  32.744  30.551  1.00  0.00     0.031 C 
ATOM     62  C   UNL A   1      44.668  29.650  31.811  1.00  0.00     0.029 A 
ATOM     63  C   UNL A   1      43.696  30.648  31.736  1.00  0.00     0.049 A 
ATOM     64  H   UNL A   1      43.962  32.407  30.599  1.00  0.00     0.167 HD
ATOM     65  C   UNL A   1      41.438  31.666  32.027  1.00  0.00     0.074 A 
ATOM     66  C   UNL A   1      41.274  32.461  30.809  1.00  0.00     0.031 C 
ATOM     67  C   UNL A   1      42.461  30.866  32.456  1.00  0.00     0.037 A 
BRANCH  54  68
ATOM     68  C   UNL A   1      44.727  32.011  27.636  1.00  0.00     0.064 A 
ATOM     69  C   UNL A   1      45.945  32.172  26.947  1.00  0.00     0.173 A 
ATOM     70  C   UNL A   1      43.946  33.180  27.770  1.00  0.00     0.173 A 
ATOM     71  F   UNL A   1      46.772  31.130  26.773  1.00  0.00    -0.203 F 
ATOM     72  C   UNL A   1      46.381  33.422  26.501  1.00  0.00     0.198 A 
ATOM     73  C   UNL A   1      44.358  34.415  27.274  1.00  0.00     0.198 A 
ATOM     74  F   UNL A   1      42.812  33.208  28.478  1.00  0.00    -0.203 F 
ATOM     75  F   UNL A   1      47.602  33.547  25.964  1.00  0.00    -0.200 F 
ATOM     76  C   UNL A   1      45.591  34.543  26.670  1.00  0.00     0.200 A 
ATOM     77  F   UNL A   1      43.583  35.492  27.464  1.00  0.00    -0.200 F 
ATOM     78  F   UNL A   1      46.032  35.753  26.300  1.00  0.00    -0.200 F 
ENDBRANCH  54  68
BRANCH  55  79
ATOM     79  C   UNL A   1      36.808  31.968  31.031  1.00  0.00     0.064 A 
ATOM     80  C   UNL A   1      35.949  32.264  32.103  1.00  0.00     0.173 A 
ATOM     81  C   UNL A   1      36.527  32.618  29.812  1.00  0.00     0.173 A 
ATOM     82  F   UNL A   1      36.174  31.729  33.311  1.00  0.00    -0.203 F 
ATOM     83  C   UNL A   1      34.885  33.166  31.965  1.00  0.00     0.198 A 
ATOM     84  C   UNL A   1      35.465  33.514  29.675  1.00  0.00     0.198 A 
ATOM     85  F   UNL A   1      37.335  32.466  28.752  1.00  0.00    -0.203 F 
ATOM     86  F   UNL A   1      34.118  33.464  33.024  1.00  0.00    -0.200 F 
ATOM     87  C   UNL A   1      34.650  33.797  30.754  1.00  0.00     0.200 A 
ATOM     88  F   UNL A   1      35.277  34.149  28.510  1.00  0.00    -0.200 F 
ATOM     89  F   UNL A   1      33.671  34.706  30.638  1.00  0.00    -0.200 F 
ENDBRANCH  55  79
BRANCH  67  90
ATOM     90  C   UNL A   1      42.205  29.972  33.643  1.00  0.00     0.064 A 
ATOM     91  C   UNL A   1      41.782  28.634  33.542  1.00  0.00     0.173 A 
ATOM     92  C   UNL A   1      42.562  30.431  34.915  1.00  0.00     0.173 A 
ATOM     93  F   UNL A   1      41.517  28.085  32.355  1.00  0.00    -0.203 F 
ATOM     94  C   UNL A   1      41.688  27.809  34.663  1.00  0.00     0.198 A 
ATOM     95  C   UNL A   1      42.498  29.597  36.030  1.00  0.00     0.198 A 
ATOM     96  F   UNL A   1      43.031  31.678  35.068  1.00  0.00    -0.203 F 
ATOM     97  F   UNL A   1      41.280  26.537  34.531  1.00  0.00    -0.200 F 
ATOM     98  C   UNL A   1      42.053  28.290  35.907  1.00  0.00     0.200 A 
ATOM     99  F   UNL A   1      42.902  30.052  37.224  1.00  0.00    -0.200 F 
ATOM    100  F   UNL A   1      42.007  27.488  36.980  1.00  0.00    -0.200 F 
ENDBRANCH  67  90
ENDBRANCH  41  42
ENDBRANCH  33  36
ENDBRANCH  31  32
ENDBRANCH  30  31
ENDBRANCH  29  30
ENDBRANCH   3  29
TORSDOF 16
ENDMDL
MODEL 2
REMARK VINA RESULT:     -13.2      4.892      9.669
REMARK SMILES C[C@@H]([C@H]1CC=CS1)n1nccc1NC(=O)CC1(CC(=O)NCCCNC(=O)c2ccc(-c3c4nc(c(-c5c(F)c(F)c(F)c(F)c5F)c5ccc([nH]5)c(-c5c(F)c(F)c(F)c(F)c5F)c5nc(c(-c6c(F)c(F)c(F)c(F)c6F)c6ccc3[nH]6)C=C5)C=C4)cc2)CCCCC1
REMARK SMILES IDX 19 1 20 2 21 3 18 5 17 6 91 7 95 8 92 9 94 10 93 11 16 12
REMARK SMILES IDX 14 13 13 14 15 16 12 17 8 18 9 19 10 20 11 21 2 22 1 23 3 24
REMARK SMILES IDX 4 25 7 26 5 27 6 28 22 29 23 30 24 31 25 32 26 33 27 35
REMARK SMILES IDX 28 36 29 37 90 38 30 39 89 40 31 41 32 42 33 43 83 44 34 45
REMARK SMILES IDX 88 46 82 47 84 48 35 49 87 50 81 51 80 52 36 54 68 55 48 56
REMARK SMILES IDX 67 57 49 58 52 59 66 60 85 61 50 62 51 63 65 65 86 66 53 67
REMARK SMILES IDX 37 68 38 69 46 70 39 71 40 72 44 73 47 74 41 75 42 76 45 77
REMARK SMILES IDX 43 78 69 79 70 80 78 81 71 82 72 83 76 84 79 85 73 86 74 87
REMARK SMILES IDX 77 88 75 89 54 90 55 91 63 92 56 93 57 94 61 95 64 96 58 97
REMARK SMILES IDX 59 98 62 99 60 100
REMARK H PARENT 21 4 13 15 25 34 84 53 52 64
REMARK Flexibility Score: inf
ROOT
ATOM      1  C   UNL A   1      45.877  30.485  26.349  1.00  0.00     0.220 C 
ATOM      2  O   UNL A   1      46.912  29.992  25.898  1.00  0.00    -0.275 OA
ATOM      3  N   UNL A   1      45.425  31.637  25.791  1.00  0.00    -0.356 N 
ATOM      4  H   UNL A   1      45.985  31.995  25.065  1.00  0.00     0.163 HD
ENDROOT
BRANCH   1   5
ATOM      5  C   UNL A   1      45.137  29.804  27.487  1.00  0.00     0.107 C 
BRANCH   5   6
ATOM      6  C   UNL A   1      44.601  28.356  27.273  1.00  0.00    -0.012 C 
ATOM      7  C   UNL A   1      43.222  28.270  27.974  1.00  0.00     0.008 C 
ATOM      8  C   UNL A   1      45.419  27.231  27.958  1.00  0.00     0.008 C 
ATOM      9  C   UNL A   1      43.233  28.316  29.508  1.00  0.00     0.001 C 
ATOM     10  C   UNL A   1      45.525  27.331  29.476  1.00  0.00     0.001 C 
ATOM     11  C   UNL A   1      44.145  27.245  30.097  1.00  0.00     0.000 C 
BRANCH   6  12
ATOM     12  C   UNL A   1      44.587  27.962  25.752  1.00  0.00     0.108 C 
BRANCH  12  13
ATOM     13  C   UNL A   1      43.379  27.309  25.113  1.00  0.00     0.226 C 
ATOM     14  N   UNL A   1      43.205  25.887  25.059  1.00  0.00    -0.311 N 
ATOM     15  H   UNL A   1      42.374  25.556  24.648  1.00  0.00     0.171 HD
ATOM     16  O   UNL A   1      42.476  27.933  24.580  1.00  0.00    -0.275 OA
BRANCH  14  17
ATOM     17  C   UNL A   1      44.088  24.942  25.525  1.00  0.00     0.131 A 
ATOM     18  N   UNL A   1      43.931  24.137  26.638  1.00  0.00    -0.246 N 
ATOM     19  N   UNL A   1      45.100  23.540  26.978  1.00  0.00    -0.179 NA
ATOM     20  C   UNL A   1      45.911  23.782  25.948  1.00  0.00     0.137 A 
ATOM     21  C   UNL A   1      45.314  24.618  24.988  1.00  0.00     0.068 A 
BRANCH  18  22
ATOM     22  C   UNL A   1      42.696  23.751  27.321  1.00  0.00     0.120 C 
ATOM     23  C   UNL A   1      42.128  24.924  28.146  1.00  0.00     0.034 C 
BRANCH  22  24
ATOM     24  C   UNL A   1      41.540  23.130  26.493  1.00  0.00     0.079 C 
ATOM     25  C   UNL A   1      41.525  21.599  26.355  1.00  0.00     0.045 C 
ATOM     26  S   UNL A   1      39.821  23.604  26.928  1.00  0.00    -0.128 SA
ATOM     27  C   UNL A   1      40.105  21.179  26.116  1.00  0.00    -0.019 C 
ATOM     28  C   UNL A   1      39.173  22.098  26.383  1.00  0.00     0.037 C 
ENDBRANCH  22  24
ENDBRANCH  18  22
ENDBRANCH  14  17
ENDBRANCH  12  13
ENDBRANCH   6  12
ENDBRANCH   5   6
ENDBRANCH   1   5
BRANCH   3  29
ATOM     29  C   UNL A   1      44.244  32.425  26.099  1.00  0.00     0.117 C 
BRANCH  29  30
ATOM     30  C   UNL A   1      43.924  33.414  24.977  1.00  0.00     0.042 C 
BRANCH  30  31
ATOM     31  C   UNL A   1      43.737  34.823  25.452  1.00  0.00     0.118 C 
BRANCH  31  32
ATOM     32  N   UNL A   1      44.959  35.496  25.893  1.00  0.00    -0.352 N 
ATOM     33  C   UNL A   1      45.128  36.223  27.077  1.00  0.00     0.251 C 
ATOM     34  H   UNL A   1      45.740  35.430  25.299  1.00  0.00     0.163 HD
ATOM     35  O   UNL A   1      46.032  37.014  27.223  1.00  0.00    -0.269 OA
BRANCH  33  36
ATOM     36  C   UNL A   1      44.146  35.967  28.154  1.00  0.00     0.039 A 
ATOM     37  C   UNL A   1      42.948  36.661  28.339  1.00  0.00     0.014 A 
ATOM     38  C   UNL A   1      44.399  34.824  28.876  1.00  0.00     0.014 A 
ATOM     39  C   UNL A   1      42.019  36.121  29.234  1.00  0.00     0.010 A 
ATOM     40  C   UNL A   1      43.310  34.098  29.215  1.00  0.00     0.010 A 
ATOM     41  C   UNL A   1      42.236  34.815  29.684  1.00  0.00    -0.014 A 
BRANCH  41  42
ATOM     42  C   UNL A   1      41.410  34.054  30.607  1.00  0.00     0.031 A 
ATOM     43  C   UNL A   1      42.035  33.811  31.924  1.00  0.00     0.074 A 
ATOM     44  C   UNL A   1      40.080  33.906  30.371  1.00  0.00     0.049 A 
ATOM     45  N   UNL A   1      42.385  32.680  32.434  1.00  0.00    -0.248 NA
ATOM     46  C   UNL A   1      42.460  34.981  32.711  1.00  0.00     0.031 C 
ATOM     47  C   UNL A   1      39.271  34.410  29.242  1.00  0.00     0.029 A 
ATOM     48  N   UNL A   1      39.129  33.349  31.168  1.00  0.00    -0.354 N 
ATOM     49  C   UNL A   1      42.879  32.977  33.700  1.00  0.00     0.074 A 
ATOM     50  C   UNL A   1      43.104  34.398  33.724  1.00  0.00     0.031 C 
ATOM     51  C   UNL A   1      37.954  34.338  29.540  1.00  0.00     0.029 A 
ATOM     52  C   UNL A   1      37.813  33.619  30.787  1.00  0.00     0.049 A 
ATOM     53  H   UNL A   1      39.351  32.797  31.953  1.00  0.00     0.167 HD
ATOM     54  C   UNL A   1      42.798  32.069  34.711  1.00  0.00     0.037 A 
ATOM     55  C   UNL A   1      36.696  33.281  31.480  1.00  0.00     0.037 A 
ATOM     56  C   UNL A   1      42.507  30.752  34.200  1.00  0.00     0.049 A 
ATOM     57  C   UNL A   1      37.093  32.196  32.416  1.00  0.00     0.074 A 
ATOM     58  C   UNL A   1      43.153  29.886  33.337  1.00  0.00     0.029 A 
ATOM     59  N   UNL A   1      41.201  30.324  34.242  1.00  0.00    -0.354 N 
ATOM     60  N   UNL A   1      37.498  31.019  32.015  1.00  0.00    -0.248 NA
ATOM     61  C   UNL A   1      37.548  32.598  33.739  1.00  0.00     0.031 C 
ATOM     62  C   UNL A   1      42.114  29.325  32.536  1.00  0.00     0.029 A 
ATOM     63  C   UNL A   1      40.893  29.809  33.007  1.00  0.00     0.049 A 
ATOM     64  H   UNL A   1      40.597  30.377  35.018  1.00  0.00     0.167 HD
ATOM     65  C   UNL A   1      38.574  30.711  32.837  1.00  0.00     0.074 A 
ATOM     66  C   UNL A   1      38.525  31.704  33.912  1.00  0.00     0.031 C 
ATOM     67  C   UNL A   1      39.577  29.884  32.413  1.00  0.00     0.037 A 
BRANCH  54  68
ATOM     68  C   UNL A   1      42.601  32.426  36.164  1.00  0.00     0.064 A 
ATOM     69  C   UNL A   1      43.516  31.938  37.116  1.00  0.00     0.173 A 
ATOM     70  C   UNL A   1      41.408  32.968  36.691  1.00  0.00     0.173 A 
ATOM     71  F   UNL A   1      44.677  31.389  36.726  1.00  0.00    -0.203 F 
ATOM     72  C   UNL A   1      43.223  31.923  38.482  1.00  0.00     0.198 A 
ATOM     73  C   UNL A   1      41.143  33.003  38.059  1.00  0.00     0.198 A 
ATOM     74  F   UNL A   1      40.403  33.383  35.912  1.00  0.00    -0.203 F 
ATOM     75  F   UNL A   1      44.071  31.335  39.337  1.00  0.00    -0.200 F 
ATOM     76  C   UNL A   1      42.034  32.449  38.951  1.00  0.00     0.200 A 
ATOM     77  F   UNL A   1      39.976  33.503  38.490  1.00  0.00    -0.200 F 
ATOM     78  F   UNL A   1      41.723  32.380  40.252  1.00  0.00    -0.200 F 
ENDBRANCH  54  68
BRANCH  55  79
ATOM     79  C   UNL A   1      35.456  34.083  31.642  1.00  0.00     0.064 A 
ATOM     80  C   UNL A   1      35.322  35.035  32.665  1.00  0.00     0.173 A 
ATOM     81  C   UNL A   1      34.481  34.121  30.624  1.00  0.00     0.173 A 
ATOM     82  F   UNL A   1      36.234  35.101  33.645  1.00  0.00    -0.203 F 
ATOM     83  C   UNL A   1      34.284  35.978  32.661  1.00  0.00     0.198 A 
ATOM     84  C   UNL A   1      33.446  35.060  30.623  1.00  0.00     0.198 A 
ATOM     85  F   UNL A   1      34.567  33.308  29.561  1.00  0.00    -0.203 F 
ATOM     86  F   UNL A   1      34.219  36.907  33.627  1.00  0.00    -0.200 F 
ATOM     87  C   UNL A   1      33.354  35.995  31.634  1.00  0.00     0.200 A 
ATOM     88  F   UNL A   1      32.580  35.091  29.601  1.00  0.00    -0.200 F 
ATOM     89  F   UNL A   1      32.398  36.935  31.597  1.00  0.00    -0.200 F 
ENDBRANCH  55  79
BRANCH  67  90
ATOM     90  C   UNL A   1      39.386  29.164  31.101  1.00  0.00     0.064 A 
ATOM     91  C   UNL A   1      39.769  29.689  29.853  1.00  0.00     0.173 A 
ATOM     92  C   UNL A   1      38.959  27.832  31.125  1.00  0.00     0.173 A 
ATOM     93  F   UNL A   1      40.282  30.917  29.753  1.00  0.00    -0.203 F 
ATOM     94  C   UNL A   1      39.694  28.930  28.685  1.00  0.00     0.198 A 
ATOM     95  C   UNL A   1      38.915  27.064  29.963  1.00  0.00     0.198 A 
ATOM     96  F   UNL A   1      38.639  27.254  32.293  1.00  0.00    -0.203 F 
ATOM     97  F   UNL A   1      40.067  29.462  27.511  1.00  0.00    -0.200 F 
ATOM     98  C   UNL A   1      39.274  27.615  28.742  1.00  0.00     0.200 A 
ATOM     99  F   UNL A   1      38.556  25.775  30.032  1.00  0.00    -0.200 F 
ATOM    100  F   UNL A   1      39.243  26.868  27.629  1.00  0.00    -0.200 F 
ENDBRANCH  67  90
ENDBRANCH  41  42
ENDBRANCH  33  36
ENDBRANCH  31  32
ENDBRANCH  30  31
ENDBRANCH  29  30
ENDBRANCH   3  29
TORSDOF 16
ENDMDL
MODEL 3
REMARK VINA RESULT:     -13.1      3.188      8.731
REMARK SMILES C[C@@H]([C@H]1CC=CS1)n1nccc1NC(=O)CC1(CC(=O)NCCCNC(=O)c2ccc(-c3c4nc(c(-c5c(F)c(F)c(F)c(F)c5F)c5ccc([nH]5)c(-c5c(F)c(F)c(F)c(F)c5F)c5nc(c(-c6c(F)c(F)c(F)c(F)c6F)c6ccc3[nH]6)C=C5)C=C4)cc2)CCCCC1
REMARK SMILES IDX 19 1 20 2 21 3 18 5 17 6 91 7 95 8 92 9 94 10 93 11 16 12
REMARK SMILES IDX 14 13 13 14 15 16 12 17 8 18 9 19 10 20 11 21 2 22 1 23 3 24
REMARK SMILES IDX 4 25 7 26 5 27 6 28 22 29 23 30 24 31 25 32 26 33 27 35
REMARK SMILES IDX 28 36 29 37 90 38 30 39 89 40 31 41 32 42 33 43 83 44 34 45
REMARK SMILES IDX 88 46 82 47 84 48 35 49 87 50 81 51 80 52 36 54 68 55 48 56
REMARK SMILES IDX 67 57 49 58 52 59 66 60 85 61 50 62 51 63 65 65 86 66 53 67
REMARK SMILES IDX 37 68 38 69 46 70 39 71 40 72 44 73 47 74 41 75 42 76 45 77
REMARK SMILES IDX 43 78 69 79 70 80 78 81 71 82 72 83 76 84 79 85 73 86 74 87
REMARK SMILES IDX 77 88 75 89 54 90 55 91 63 92 56 93 57 94 61 95 64 96 58 97
REMARK SMILES IDX 59 98 62 99 60 100
REMARK H PARENT 21 4 13 15 25 34 84 53 52 64
REMARK Flexibility Score: inf
ROOT
ATOM      1  C   UNL A   1      33.407  28.805  23.652  1.00  0.00     0.220 C 
ATOM      2  O   UNL A   1      34.297  28.824  22.801  1.00  0.00    -0.275 OA
ATOM      3  N   UNL A   1      33.507  29.663  24.698  1.00  0.00    -0.356 N 
ATOM      4  H   UNL A   1      34.310  30.232  24.694  1.00  0.00     0.163 HD
ENDROOT
BRANCH   1   5
ATOM      5  C   UNL A   1      32.233  27.850  23.511  1.00  0.00     0.107 C 
BRANCH   5   6
ATOM      6  C   UNL A   1      32.435  26.352  23.890  1.00  0.00    -0.012 C 
ATOM      7  C   UNL A   1      31.118  25.612  23.550  1.00  0.00     0.008 C 
ATOM      8  C   UNL A   1      32.625  26.063  25.401  1.00  0.00     0.008 C 
ATOM      9  C   UNL A   1      29.905  25.939  24.431  1.00  0.00     0.001 C 
ATOM     10  C   UNL A   1      31.467  26.485  26.298  1.00  0.00     0.001 C 
ATOM     11  C   UNL A   1      30.211  25.730  25.911  1.00  0.00     0.000 C 
BRANCH   6  12
ATOM     12  C   UNL A   1      33.718  25.749  23.210  1.00  0.00     0.108 C 
BRANCH  12  13
ATOM     13  C   UNL A   1      33.689  24.405  22.513  1.00  0.00     0.226 C 
ATOM     14  N   UNL A   1      34.202  23.210  23.114  1.00  0.00    -0.311 N 
ATOM     15  H   UNL A   1      34.114  22.378  22.595  1.00  0.00     0.171 HD
ATOM     16  O   UNL A   1      33.250  24.238  21.387  1.00  0.00    -0.275 OA
BRANCH  14  17
ATOM     17  C   UNL A   1      34.805  23.114  24.345  1.00  0.00     0.131 A 
ATOM     18  N   UNL A   1      34.271  22.551  25.490  1.00  0.00    -0.246 N 
ATOM     19  N   UNL A   1      35.000  22.885  26.584  1.00  0.00    -0.179 NA
ATOM     20  C   UNL A   1      36.106  23.444  26.091  1.00  0.00     0.137 A 
ATOM     21  C   UNL A   1      36.057  23.572  24.693  1.00  0.00     0.068 A 
BRANCH  18  22
ATOM     22  C   UNL A   1      33.196  21.567  25.609  1.00  0.00     0.120 C 
ATOM     23  C   UNL A   1      31.823  22.205  25.313  1.00  0.00     0.034 C 
BRANCH  22  24
ATOM     24  C   UNL A   1      33.300  20.238  24.815  1.00  0.00     0.079 C 
ATOM     25  C   UNL A   1      32.997  18.940  25.582  1.00  0.00     0.045 C 
ATOM     26  S   UNL A   1      32.374  20.107  23.236  1.00  0.00    -0.128 SA
ATOM     27  C   UNL A   1      32.535  17.921  24.582  1.00  0.00    -0.019 C 
ATOM     28  C   UNL A   1      32.187  18.396  23.383  1.00  0.00     0.037 C 
ENDBRANCH  22  24
ENDBRANCH  18  22
ENDBRANCH  14  17
ENDBRANCH  12  13
ENDBRANCH   6  12
ENDBRANCH   5   6
ENDBRANCH   1   5
BRANCH   3  29
ATOM     29  C   UNL A   1      32.614  29.873  25.825  1.00  0.00     0.117 C 
BRANCH  29  30
ATOM     30  C   UNL A   1      33.355  29.744  27.156  1.00  0.00     0.042 C 
BRANCH  30  31
ATOM     31  C   UNL A   1      34.358  30.831  27.396  1.00  0.00     0.118 C 
BRANCH  31  32
ATOM     32  N   UNL A   1      34.077  31.691  28.545  1.00  0.00    -0.352 N 
ATOM     33  C   UNL A   1      34.918  31.919  29.640  1.00  0.00     0.251 C 
ATOM     34  H   UNL A   1      33.210  32.157  28.548  1.00  0.00     0.163 HD
ATOM     35  O   UNL A   1      34.505  32.362  30.688  1.00  0.00    -0.269 OA
BRANCH  33  36
ATOM     36  C   UNL A   1      36.350  31.601  29.449  1.00  0.00     0.039 A 
ATOM     37  C   UNL A   1      37.399  32.521  29.511  1.00  0.00     0.014 A 
ATOM     38  C   UNL A   1      36.617  30.253  29.399  1.00  0.00     0.014 A 
ATOM     39  C   UNL A   1      38.701  32.014  29.572  1.00  0.00     0.010 A 
ATOM     40  C   UNL A   1      37.747  29.861  30.030  1.00  0.00     0.010 A 
ATOM     41  C   UNL A   1      38.853  30.646  29.819  1.00  0.00    -0.014 A 
BRANCH  41  42
ATOM     42  C   UNL A   1      40.100  29.905  29.926  1.00  0.00     0.031 A 
ATOM     43  C   UNL A   1      40.576  29.713  31.312  1.00  0.00     0.074 A 
ATOM     44  C   UNL A   1      40.558  29.184  28.870  1.00  0.00     0.049 A 
ATOM     45  N   UNL A   1      41.648  30.187  31.851  1.00  0.00    -0.248 NA
ATOM     46  C   UNL A   1      39.678  29.034  32.262  1.00  0.00     0.031 C 
ATOM     47  C   UNL A   1      39.971  29.023  27.524  1.00  0.00     0.029 A 
ATOM     48  N   UNL A   1      41.619  28.334  28.814  1.00  0.00    -0.354 N 
ATOM     49  C   UNL A   1      41.667  29.686  33.147  1.00  0.00     0.074 A 
ATOM     50  C   UNL A   1      40.346  29.181  33.407  1.00  0.00     0.031 C 
ATOM     51  C   UNL A   1      40.542  27.977  26.885  1.00  0.00     0.029 A 
ATOM     52  C   UNL A   1      41.652  27.511  27.686  1.00  0.00     0.049 A 
ATOM     53  H   UNL A   1      42.310  28.300  29.514  1.00  0.00     0.167 HD
ATOM     54  C   UNL A   1      42.846  29.480  33.798  1.00  0.00     0.037 A 
ATOM     55  C   UNL A   1      42.533  26.505  27.457  1.00  0.00     0.037 A 
ATOM     56  C   UNL A   1      43.928  30.165  33.133  1.00  0.00     0.049 A 
ATOM     57  C   UNL A   1      43.696  26.753  28.351  1.00  0.00     0.074 A 
ATOM     58  C   UNL A   1      44.201  31.489  32.846  1.00  0.00     0.029 A 
ATOM     59  N   UNL A   1      44.724  29.432  32.285  1.00  0.00    -0.354 N 
ATOM     60  N   UNL A   1      44.478  27.794  28.234  1.00  0.00    -0.248 NA
ATOM     61  C   UNL A   1      43.655  26.145  29.673  1.00  0.00     0.031 C 
ATOM     62  C   UNL A   1      44.743  31.473  31.526  1.00  0.00     0.029 A 
ATOM     63  C   UNL A   1      44.851  30.143  31.117  1.00  0.00     0.049 A 
ATOM     64  H   UNL A   1      45.129  28.556  32.480  1.00  0.00     0.167 HD
ATOM     65  C   UNL A   1      44.704  28.220  29.536  1.00  0.00     0.074 A 
ATOM     66  C   UNL A   1      44.208  27.134  30.381  1.00  0.00     0.031 C 
ATOM     67  C   UNL A   1      44.984  29.529  29.815  1.00  0.00     0.037 A 
BRANCH  54  68
ATOM     68  C   UNL A   1      43.090  28.369  34.789  1.00  0.00     0.064 A 
ATOM     69  C   UNL A   1      43.547  28.696  36.080  1.00  0.00     0.173 A 
ATOM     70  C   UNL A   1      43.178  27.002  34.441  1.00  0.00     0.173 A 
ATOM     71  F   UNL A   1      43.523  29.966  36.510  1.00  0.00    -0.203 F 
ATOM     72  C   UNL A   1      44.121  27.741  36.924  1.00  0.00     0.198 A 
ATOM     73  C   UNL A   1      43.699  26.043  35.307  1.00  0.00     0.198 A 
ATOM     74  F   UNL A   1      42.872  26.552  33.219  1.00  0.00    -0.203 F 
ATOM     75  F   UNL A   1      44.656  28.122  38.092  1.00  0.00    -0.200 F 
ATOM     76  C   UNL A   1      44.202  26.417  36.534  1.00  0.00     0.200 A 
ATOM     77  F   UNL A   1      43.783  24.768  34.901  1.00  0.00    -0.200 F 
ATOM     78  F   UNL A   1      44.807  25.511  37.313  1.00  0.00    -0.200 F 
ENDBRANCH  54  68
BRANCH  55  79
ATOM     79  C   UNL A   1      42.259  25.190  26.824  1.00  0.00     0.064 A 
ATOM     80  C   UNL A   1      42.942  24.770  25.671  1.00  0.00     0.173 A 
ATOM     81  C   UNL A   1      41.513  24.202  27.499  1.00  0.00     0.173 A 
ATOM     82  F   UNL A   1      43.716  25.633  24.997  1.00  0.00    -0.203 F 
ATOM     83  C   UNL A   1      42.894  23.440  25.231  1.00  0.00     0.198 A 
ATOM     84  C   UNL A   1      41.464  22.878  27.058  1.00  0.00     0.198 A 
ATOM     85  F   UNL A   1      40.891  24.483  28.654  1.00  0.00    -0.203 F 
ATOM     86  F   UNL A   1      43.603  23.063  24.156  1.00  0.00    -0.200 F 
ATOM     87  C   UNL A   1      42.163  22.493  25.931  1.00  0.00     0.200 A 
ATOM     88  F   UNL A   1      40.787  21.966  27.770  1.00  0.00    -0.200 F 
ATOM     89  F   UNL A   1      42.166  21.209  25.546  1.00  0.00    -0.200 F 
ENDBRANCH  55  79
BRANCH  67  90
ATOM     90  C   UNL A   1      45.230  30.459  28.652  1.00  0.00     0.064 A 
ATOM     91  C   UNL A   1      44.246  31.291  28.088  1.00  0.00     0.173 A 
ATOM     92  C   UNL A   1      46.544  30.638  28.206  1.00  0.00     0.173 A 
ATOM     93  F   UNL A   1      42.985  31.256  28.526  1.00  0.00    -0.203 F 
ATOM     94  C   UNL A   1      44.555  32.229  27.103  1.00  0.00     0.198 A 
ATOM     95  C   UNL A   1      46.858  31.597  27.245  1.00  0.00     0.198 A 
ATOM     96  F   UNL A   1      47.538  29.918  28.748  1.00  0.00    -0.203 F 
ATOM     97  F   UNL A   1      43.591  33.006  26.587  1.00  0.00    -0.200 F 
ATOM     98  C   UNL A   1      45.864  32.386  26.687  1.00  0.00     0.200 A 
ATOM     99  F   UNL A   1      48.135  31.780  26.883  1.00  0.00    -0.200 F 
ATOM    100  F   UNL A   1      46.173  33.317  25.774  1.00  0.00    -0.200 F 
ENDBRANCH  67  90
ENDBRANCH  41  42
ENDBRANCH  33  36
ENDBRANCH  31  32
ENDBRANCH  30  31
ENDBRANCH  29  30
ENDBRANCH   3  29
TORSDOF 16
ENDMDL
