MODEL 1
REMARK VINA RESULT:     -13.0      0.000      0.000
REMARK SMILES Cc1cc(C)c2c(c1)C=C(C(=O)NCCCNC(=O)c1ccc(-c3c4nc(c(-c5c(F)c(F)c(F)c(F)c5F)c5ccc([nH]5)c(-c5c(F)c(F)c(F)c(F)c5F)c5nc(c(-c6c(F)c(F)c(F)c(F)c6F)c6ccc3[nH]6)C=C5)C=C4)cc1)[C@@H](C(F)(F)F)O2
REMARK SMILES IDX 15 1 14 2 13 3 11 4 12 5 10 7 1 8 2 9 3 10 8 11 4 12 7 13
REMARK SMILES IDX 5 14 6 15 9 16 88 17 83 18 84 19 85 20 86 21 87 22 16 23
REMARK SMILES IDX 17 24 18 25 19 27 20 28 21 29 82 30 22 31 81 32 23 33 24 34
REMARK SMILES IDX 25 35 75 36 26 37 80 38 74 39 76 40 27 41 79 42 73 43 72 44
REMARK SMILES IDX 28 46 60 47 40 48 59 49 41 50 44 51 58 52 77 53 42 54 43 55
REMARK SMILES IDX 57 57 78 58 45 59 29 60 30 61 38 62 31 63 32 64 36 65 39 66
REMARK SMILES IDX 33 67 34 68 37 69 35 70 61 71 62 72 70 73 63 74 64 75 68 76
REMARK SMILES IDX 71 77 65 78 66 79 69 80 67 81 46 82 47 83 55 84 48 85 49 86
REMARK SMILES IDX 53 87 56 88 50 89 51 90 54 91 52 92
REMARK H PARENT 13 6 17 26 76 45 44 56
REMARK Flexibility Score: inf
ROOT
ATOM      1  C   UNL A   1      37.924  19.634  25.001  1.00  0.00     0.042 C 
ENDROOT
BRANCH   1   2
ATOM      2  C   UNL A   1      36.876  20.698  24.714  1.00  0.00     0.118 C 
BRANCH   2   3
ATOM      3  N   UNL A   1      35.820  20.703  25.715  1.00  0.00    -0.352 N 
ATOM      4  C   UNL A   1      34.728  21.448  26.002  1.00  0.00     0.251 C 
ATOM      5  O   UNL A   1      34.085  21.079  26.990  1.00  0.00    -0.270 OA
ATOM      6  H   UNL A   1      35.929  19.964  26.356  1.00  0.00     0.163 HD
BRANCH   4   7
ATOM      7  C   UNL A   1      34.280  22.643  25.229  1.00  0.00     0.067 C 
ATOM      8  C   UNL A   1      33.653  28.784  25.707  1.00  0.00     0.044 C 
ATOM      9  C   UNL A   1      33.653  27.438  25.045  1.00  0.00    -0.050 A 
ATOM     10  C   UNL A   1      33.285  27.330  23.696  1.00  0.00     0.010 A 
ATOM     11  C   UNL A   1      34.026  26.286  25.751  1.00  0.00     0.015 A 
ATOM     12  C   UNL A   1      33.297  26.091  23.046  1.00  0.00    -0.008 A 
ATOM     13  C   UNL A   1      34.038  25.041  25.117  1.00  0.00     0.018 A 
ATOM     14  C   UNL A   1      32.903  25.978  21.601  1.00  0.00     0.048 C 
ATOM     15  C   UNL A   1      33.674  24.955  23.770  1.00  0.00     0.130 A 
ATOM     16  C   UNL A   1      34.463  23.837  25.822  1.00  0.00     0.025 C 
ATOM     17  O   UNL A   1      33.721  23.775  23.082  1.00  0.00    -0.475 OA
ATOM     18  C   UNL A   1      33.637  22.567  23.876  1.00  0.00     0.314 C 
BRANCH  18  19
ATOM     19  C   UNL A   1      32.170  22.098  23.935  1.00  0.00     0.429 C 
ATOM     20  F   UNL A   1      32.111  20.742  23.948  1.00  0.00    -0.167 F 
ATOM     21  F   UNL A   1      31.534  22.516  25.057  1.00  0.00    -0.167 F 
ATOM     22  F   UNL A   1      31.434  22.528  22.887  1.00  0.00    -0.167 F 
ENDBRANCH  18  19
ENDBRANCH   4   7
ENDBRANCH   2   3
ENDBRANCH   1   2
BRANCH   1  23
ATOM     23  C   UNL A   1      39.120  20.204  25.751  1.00  0.00     0.118 C 
BRANCH  23  24
ATOM     24  N   UNL A   1      40.170  19.204  25.934  1.00  0.00    -0.352 N 
ATOM     25  C   UNL A   1      41.524  19.359  26.083  1.00  0.00     0.251 C 
ATOM     26  H   UNL A   1      39.856  18.272  25.953  1.00  0.00     0.163 HD
ATOM     27  O   UNL A   1      42.274  18.396  25.941  1.00  0.00    -0.269 OA
BRANCH  25  28
ATOM     28  C   UNL A   1      42.080  20.684  26.413  1.00  0.00     0.039 A 
ATOM     29  C   UNL A   1      42.467  21.543  25.382  1.00  0.00     0.014 A 
ATOM     30  C   UNL A   1      42.235  21.068  27.746  1.00  0.00     0.014 A 
ATOM     31  C   UNL A   1      42.947  22.815  25.694  1.00  0.00     0.010 A 
ATOM     32  C   UNL A   1      42.610  22.367  28.052  1.00  0.00     0.010 A 
ATOM     33  C   UNL A   1      42.986  23.249  27.029  1.00  0.00    -0.014 A 
BRANCH  33  34
ATOM     34  C   UNL A   1      43.447  24.610  27.385  1.00  0.00     0.031 A 
ATOM     35  C   UNL A   1      42.442  25.667  27.749  1.00  0.00     0.074 A 
ATOM     36  C   UNL A   1      44.760  24.903  27.328  1.00  0.00     0.049 A 
ATOM     37  N   UNL A   1      42.638  26.928  28.039  1.00  0.00    -0.248 NA
ATOM     38  C   UNL A   1      41.025  25.265  27.759  1.00  0.00     0.031 C 
ATOM     39  C   UNL A   1      45.817  23.968  26.939  1.00  0.00     0.029 A 
ATOM     40  N   UNL A   1      45.430  26.069  27.595  1.00  0.00    -0.354 N 
ATOM     41  C   UNL A   1      41.376  27.462  28.258  1.00  0.00     0.074 A 
ATOM     42  C   UNL A   1      40.415  26.415  27.998  1.00  0.00     0.031 C 
ATOM     43  C   UNL A   1      47.006  24.584  27.035  1.00  0.00     0.029 A 
ATOM     44  C   UNL A   1      46.792  25.967  27.451  1.00  0.00     0.049 A 
ATOM     45  H   UNL A   1      44.978  26.902  27.865  1.00  0.00     0.167 HD
ATOM     46  C   UNL A   1      41.051  28.705  28.681  1.00  0.00     0.037 A 
ATOM     47  C   UNL A   1      47.758  26.888  27.638  1.00  0.00     0.037 A 
ATOM     48  C   UNL A   1      42.015  29.731  28.970  1.00  0.00     0.049 A 
ATOM     49  C   UNL A   1      47.368  28.270  28.087  1.00  0.00     0.074 A 
ATOM     50  C   UNL A   1      41.795  31.009  29.449  1.00  0.00     0.029 A 
ATOM     51  N   UNL A   1      43.386  29.591  28.809  1.00  0.00    -0.354 N 
ATOM     52  N   UNL A   1      46.175  28.745  28.354  1.00  0.00    -0.248 NA
ATOM     53  C   UNL A   1      48.455  29.242  28.263  1.00  0.00     0.031 C 
ATOM     54  C   UNL A   1      43.029  31.659  29.534  1.00  0.00     0.029 A 
ATOM     55  C   UNL A   1      44.023  30.768  29.159  1.00  0.00     0.049 A 
ATOM     56  H   UNL A   1      43.838  28.775  28.494  1.00  0.00     0.167 HD
ATOM     57  C   UNL A   1      46.369  30.061  28.752  1.00  0.00     0.074 A 
ATOM     58  C   UNL A   1      47.795  30.304  28.707  1.00  0.00     0.031 C 
ATOM     59  C   UNL A   1      45.447  30.984  29.120  1.00  0.00     0.037 A 
BRANCH  46  60
ATOM     60  C   UNL A   1      39.598  29.020  28.884  1.00  0.00     0.064 A 
ATOM     61  C   UNL A   1      38.780  29.418  27.813  1.00  0.00     0.173 A 
ATOM     62  C   UNL A   1      39.000  28.863  30.143  1.00  0.00     0.173 A 
ATOM     63  F   UNL A   1      39.306  29.597  26.593  1.00  0.00    -0.203 F 
ATOM     64  C   UNL A   1      37.423  29.662  28.001  1.00  0.00     0.198 A 
ATOM     65  C   UNL A   1      37.635  29.077  30.319  1.00  0.00     0.198 A 
ATOM     66  F   UNL A   1      39.735  28.481  31.198  1.00  0.00    -0.203 F 
ATOM     67  F   UNL A   1      36.671  30.078  26.973  1.00  0.00    -0.200 F 
ATOM     68  C   UNL A   1      36.849  29.480  29.250  1.00  0.00     0.200 A 
ATOM     69  F   UNL A   1      37.079  28.888  31.524  1.00  0.00    -0.200 F 
ATOM     70  F   UNL A   1      35.538  29.697  29.425  1.00  0.00    -0.200 F 
ENDBRANCH  46  60
BRANCH  47  71
ATOM     71  C   UNL A   1      49.184  26.513  27.447  1.00  0.00     0.064 A 
ATOM     72  C   UNL A   1      49.733  26.417  26.161  1.00  0.00     0.173 A 
ATOM     73  C   UNL A   1      50.032  26.267  28.537  1.00  0.00     0.173 A 
ATOM     74  F   UNL A   1      48.959  26.627  25.087  1.00  0.00    -0.203 F 
ATOM     75  C   UNL A   1      51.071  26.077  25.972  1.00  0.00     0.198 A 
ATOM     76  C   UNL A   1      51.376  25.954  28.348  1.00  0.00     0.198 A 
ATOM     77  F   UNL A   1      49.558  26.352  29.789  1.00  0.00    -0.203 F 
ATOM     78  F   UNL A   1      51.560  25.958  24.730  1.00  0.00    -0.200 F 
ATOM     79  C   UNL A   1      51.894  25.854  27.065  1.00  0.00     0.200 A 
ATOM     80  F   UNL A   1      52.172  25.757  29.408  1.00  0.00    -0.200 F 
ATOM     81  F   UNL A   1      53.183  25.539  26.884  1.00  0.00    -0.200 F 
ENDBRANCH  47  71
BRANCH  59  82
ATOM     82  C   UNL A   1      45.941  32.341  29.524  1.00  0.00     0.064 A 
ATOM     83  C   UNL A   1      46.352  32.607  30.837  1.00  0.00     0.173 A 
ATOM     84  C   UNL A   1      46.103  33.352  28.564  1.00  0.00     0.173 A 
ATOM     85  F   UNL A   1      46.208  31.676  31.792  1.00  0.00    -0.203 F 
ATOM     86  C   UNL A   1      46.902  33.840  31.178  1.00  0.00     0.198 A 
ATOM     87  C   UNL A   1      46.680  34.572  28.901  1.00  0.00     0.198 A 
ATOM     88  F   UNL A   1      45.733  33.142  27.292  1.00  0.00    -0.203 F 
ATOM     89  F   UNL A   1      47.264  34.082  32.445  1.00  0.00    -0.200 F 
ATOM     90  C   UNL A   1      47.077  34.816  30.207  1.00  0.00     0.200 A 
ATOM     91  F   UNL A   1      46.867  35.507  27.959  1.00  0.00    -0.200 F 
ATOM     92  F   UNL A   1      47.630  35.993  30.531  1.00  0.00    -0.200 F 
ENDBRANCH  59  82
ENDBRANCH  33  34
ENDBRANCH  25  28
ENDBRANCH  23  24
ENDBRANCH   1  23
TORSDOF 11
ENDMDL
MODEL 2
REMARK VINA RESULT:     -13.0      5.893     10.847
REMARK SMILES Cc1cc(C)c2c(c1)C=C(C(=O)NCCCNC(=O)c1ccc(-c3c4nc(c(-c5c(F)c(F)c(F)c(F)c5F)c5ccc([nH]5)c(-c5c(F)c(F)c(F)c(F)c5F)c5nc(c(-c6c(F)c(F)c(F)c(F)c6F)c6ccc3[nH]6)C=C5)C=C4)cc1)[C@@H](C(F)(F)F)O2
REMARK SMILES IDX 15 1 14 2 13 3 11 4 12 5 10 7 1 8 2 9 3 10 8 11 4 12 7 13
REMARK SMILES IDX 5 14 6 15 9 16 88 17 83 18 84 19 85 20 86 21 87 22 16 23
REMARK SMILES IDX 17 24 18 25 19 27 20 28 21 29 82 30 22 31 81 32 23 33 24 34
REMARK SMILES IDX 25 35 75 36 26 37 80 38 74 39 76 40 27 41 79 42 73 43 72 44
REMARK SMILES IDX 28 46 60 47 40 48 59 49 41 50 44 51 58 52 77 53 42 54 43 55
REMARK SMILES IDX 57 57 78 58 45 59 29 60 30 61 38 62 31 63 32 64 36 65 39 66
REMARK SMILES IDX 33 67 34 68 37 69 35 70 61 71 62 72 70 73 63 74 64 75 68 76
REMARK SMILES IDX 71 77 65 78 66 79 69 80 67 81 46 82 47 83 55 84 48 85 49 86
REMARK SMILES IDX 53 87 56 88 50 89 51 90 54 91 52 92
REMARK H PARENT 13 6 17 26 76 45 44 56
REMARK Flexibility Score: inf
ROOT
ATOM      1  C   UNL A   1      31.406  32.224  26.667  1.00  0.00     0.042 C 
ENDROOT
BRANCH   1   2
ATOM      2  C   UNL A   1      31.532  30.733  26.398  1.00  0.00     0.118 C 
BRANCH   2   3
ATOM      3  N   UNL A   1      31.284  30.411  25.001  1.00  0.00    -0.352 N 
ATOM      4  C   UNL A   1      31.248  29.299  24.230  1.00  0.00     0.251 C 
ATOM      5  O   UNL A   1      30.988  29.496  23.038  1.00  0.00    -0.270 OA
ATOM      6  H   UNL A   1      31.091  31.219  24.475  1.00  0.00     0.163 HD
BRANCH   4   7
ATOM      7  C   UNL A   1      31.500  27.912  24.716  1.00  0.00     0.067 C 
ATOM      8  C   UNL A   1      36.085  23.878  25.736  1.00  0.00     0.044 C 
ATOM      9  C   UNL A   1      34.685  24.420  25.751  1.00  0.00    -0.050 A 
ATOM     10  C   UNL A   1      33.646  23.636  26.271  1.00  0.00     0.010 A 
ATOM     11  C   UNL A   1      34.403  25.703  25.263  1.00  0.00     0.015 A 
ATOM     12  C   UNL A   1      32.335  24.122  26.318  1.00  0.00    -0.008 A 
ATOM     13  C   UNL A   1      33.098  26.201  25.299  1.00  0.00     0.018 A 
ATOM     14  C   UNL A   1      31.223  23.282  26.876  1.00  0.00     0.048 C 
ATOM     15  C   UNL A   1      32.077  25.407  25.827  1.00  0.00     0.130 A 
ATOM     16  C   UNL A   1      32.790  27.549  24.834  1.00  0.00     0.025 C 
ATOM     17  O   UNL A   1      30.792  25.861  25.940  1.00  0.00    -0.475 OA
ATOM     18  C   UNL A   1      30.412  26.934  25.044  1.00  0.00     0.314 C 
BRANCH  18  19
ATOM     19  C   UNL A   1      29.744  26.336  23.790  1.00  0.00     0.429 C 
ATOM     20  F   UNL A   1      29.528  25.007  23.962  1.00  0.00    -0.167 F 
ATOM     21  F   UNL A   1      28.532  26.887  23.533  1.00  0.00    -0.167 F 
ATOM     22  F   UNL A   1      30.486  26.488  22.672  1.00  0.00    -0.167 F 
ENDBRANCH  18  19
ENDBRANCH   4   7
ENDBRANCH   2   3
ENDBRANCH   1   2
BRANCH   1  23
ATOM     23  C   UNL A   1      32.688  32.805  27.248  1.00  0.00     0.118 C 
BRANCH  23  24
ATOM     24  N   UNL A   1      32.520  34.204  27.638  1.00  0.00    -0.352 N 
ATOM     25  C   UNL A   1      33.030  34.892  28.708  1.00  0.00     0.251 C 
ATOM     26  H   UNL A   1      31.950  34.736  27.037  1.00  0.00     0.163 HD
ATOM     27  O   UNL A   1      32.553  35.980  29.025  1.00  0.00    -0.269 OA
BRANCH  25  28
ATOM     28  C   UNL A   1      34.150  34.325  29.480  1.00  0.00     0.039 A 
ATOM     29  C   UNL A   1      33.889  33.638  30.667  1.00  0.00     0.014 A 
ATOM     30  C   UNL A   1      35.464  34.492  29.036  1.00  0.00     0.014 A 
ATOM     31  C   UNL A   1      34.946  33.059  31.372  1.00  0.00     0.010 A 
ATOM     32  C   UNL A   1      36.499  33.828  29.677  1.00  0.00     0.010 A 
ATOM     33  C   UNL A   1      36.252  33.119  30.860  1.00  0.00    -0.014 A 
BRANCH  33  34
ATOM     34  C   UNL A   1      37.386  32.474  31.563  1.00  0.00     0.031 A 
ATOM     35  C   UNL A   1      38.104  31.322  30.919  1.00  0.00     0.074 A 
ATOM     36  C   UNL A   1      37.727  32.893  32.796  1.00  0.00     0.049 A 
ATOM     37  N   UNL A   1      39.082  30.591  31.391  1.00  0.00    -0.248 NA
ATOM     38  C   UNL A   1      37.645  30.913  29.581  1.00  0.00     0.031 C 
ATOM     39  C   UNL A   1      37.066  33.970  33.536  1.00  0.00     0.029 A 
ATOM     40  N   UNL A   1      38.714  32.464  33.646  1.00  0.00    -0.354 N 
ATOM     41  C   UNL A   1      39.345  29.642  30.413  1.00  0.00     0.074 A 
ATOM     42  C   UNL A   1      38.382  29.837  29.355  1.00  0.00     0.031 C 
ATOM     43  C   UNL A   1      37.693  34.146  34.709  1.00  0.00     0.029 A 
ATOM     44  C   UNL A   1      38.772  33.170  34.824  1.00  0.00     0.049 A 
ATOM     45  H   UNL A   1      39.324  31.721  33.434  1.00  0.00     0.167 HD
ATOM     46  C   UNL A   1      40.332  28.717  30.384  1.00  0.00     0.037 A 
ATOM     47  C   UNL A   1      39.606  33.042  35.874  1.00  0.00     0.037 A 
ATOM     48  C   UNL A   1      41.307  28.552  31.426  1.00  0.00     0.049 A 
ATOM     49  C   UNL A   1      40.680  31.990  35.825  1.00  0.00     0.074 A 
ATOM     50  C   UNL A   1      42.377  27.678  31.474  1.00  0.00     0.029 A 
ATOM     51  N   UNL A   1      41.332  29.284  32.605  1.00  0.00    -0.354 N 
ATOM     52  N   UNL A   1      40.962  31.141  34.867  1.00  0.00    -0.248 NA
ATOM     53  C   UNL A   1      41.556  31.880  37.000  1.00  0.00     0.031 C 
ATOM     54  C   UNL A   1      43.022  27.847  32.701  1.00  0.00     0.029 A 
ATOM     55  C   UNL A   1      42.386  28.864  33.397  1.00  0.00     0.049 A 
ATOM     56  H   UNL A   1      40.694  29.996  32.842  1.00  0.00     0.167 HD
ATOM     57  C   UNL A   1      42.057  30.413  35.310  1.00  0.00     0.074 A 
ATOM     58  C   UNL A   1      42.401  30.932  36.617  1.00  0.00     0.031 C 
ATOM     59  C   UNL A   1      42.718  29.405  34.690  1.00  0.00     0.037 A 
BRANCH  46  60
ATOM     60  C   UNL A   1      40.426  27.830  29.177  1.00  0.00     0.064 A 
ATOM     61  C   UNL A   1      39.672  26.650  29.077  1.00  0.00     0.173 A 
ATOM     62  C   UNL A   1      41.226  28.192  28.083  1.00  0.00     0.173 A 
ATOM     63  F   UNL A   1      38.903  26.252  30.102  1.00  0.00    -0.203 F 
ATOM     64  C   UNL A   1      39.730  25.857  27.934  1.00  0.00     0.198 A 
ATOM     65  C   UNL A   1      41.256  27.413  26.929  1.00  0.00     0.198 A 
ATOM     66  F   UNL A   1      41.963  29.312  28.125  1.00  0.00    -0.203 F 
ATOM     67  F   UNL A   1      39.031  24.715  27.879  1.00  0.00    -0.200 F 
ATOM     68  C   UNL A   1      40.511  26.245  26.857  1.00  0.00     0.200 A 
ATOM     69  F   UNL A   1      42.001  27.796  25.883  1.00  0.00    -0.200 F 
ATOM     70  F   UNL A   1      40.550  25.490  25.750  1.00  0.00    -0.200 F 
ENDBRANCH  46  60
BRANCH  47  71
ATOM     71  C   UNL A   1      39.483  33.966  37.032  1.00  0.00     0.064 A 
ATOM     72  C   UNL A   1      38.720  33.610  38.153  1.00  0.00     0.173 A 
ATOM     73  C   UNL A   1      40.138  35.205  37.057  1.00  0.00     0.173 A 
ATOM     74  F   UNL A   1      38.061  32.443  38.171  1.00  0.00    -0.203 F 
ATOM     75  C   UNL A   1      38.608  34.464  39.249  1.00  0.00     0.198 A 
ATOM     76  C   UNL A   1      40.048  36.046  38.165  1.00  0.00     0.198 A 
ATOM     77  F   UNL A   1      40.887  35.590  36.013  1.00  0.00    -0.203 F 
ATOM     78  F   UNL A   1      37.843  34.114  40.292  1.00  0.00    -0.200 F 
ATOM     79  C   UNL A   1      39.278  35.678  39.257  1.00  0.00     0.200 A 
ATOM     80  F   UNL A   1      40.711  37.210  38.176  1.00  0.00    -0.200 F 
ATOM     81  F   UNL A   1      39.179  36.494  40.316  1.00  0.00    -0.200 F 
ENDBRANCH  47  71
BRANCH  59  82
ATOM     82  C   UNL A   1      43.893  28.801  35.399  1.00  0.00     0.064 A 
ATOM     83  C   UNL A   1      43.744  27.697  36.251  1.00  0.00     0.173 A 
ATOM     84  C   UNL A   1      45.192  29.265  35.142  1.00  0.00     0.173 A 
ATOM     85  F   UNL A   1      42.521  27.225  36.536  1.00  0.00    -0.203 F 
ATOM     86  C   UNL A   1      44.853  27.084  36.826  1.00  0.00     0.198 A 
ATOM     87  C   UNL A   1      46.301  28.631  35.694  1.00  0.00     0.198 A 
ATOM     88  F   UNL A   1      45.387  30.312  34.326  1.00  0.00    -0.203 F 
ATOM     89  F   UNL A   1      44.687  26.047  37.657  1.00  0.00    -0.200 F 
ATOM     90  C   UNL A   1      46.131  27.543  36.536  1.00  0.00     0.200 A 
ATOM     91  F   UNL A   1      47.535  29.062  35.398  1.00  0.00    -0.200 F 
ATOM     92  F   UNL A   1      47.199  26.934  37.070  1.00  0.00    -0.200 F 
ENDBRANCH  59  82
ENDBRANCH  33  34
ENDBRANCH  25  28
ENDBRANCH  23  24
ENDBRANCH   1  23
TORSDOF 11
ENDMDL
MODEL 3
REMARK VINA RESULT:     -13.0      5.826     10.900
REMARK SMILES Cc1cc(C)c2c(c1)C=C(C(=O)NCCCNC(=O)c1ccc(-c3c4nc(c(-c5c(F)c(F)c(F)c(F)c5F)c5ccc([nH]5)c(-c5c(F)c(F)c(F)c(F)c5F)c5nc(c(-c6c(F)c(F)c(F)c(F)c6F)c6ccc3[nH]6)C=C5)C=C4)cc1)[C@@H](C(F)(F)F)O2
REMARK SMILES IDX 15 1 14 2 13 3 11 4 12 5 10 7 1 8 2 9 3 10 8 11 4 12 7 13
REMARK SMILES IDX 5 14 6 15 9 16 88 17 83 18 84 19 85 20 86 21 87 22 16 23
REMARK SMILES IDX 17 24 18 25 19 27 20 28 21 29 82 30 22 31 81 32 23 33 24 34
REMARK SMILES IDX 25 35 75 36 26 37 80 38 74 39 76 40 27 41 79 42 73 43 72 44
REMARK SMILES IDX 28 46 60 47 40 48 59 49 41 50 44 51 58 52 77 53 42 54 43 55
REMARK SMILES IDX 57 57 78 58 45 59 29 60 30 61 38 62 31 63 32 64 36 65 39 66
REMARK SMILES IDX 33 67 34 68 37 69 35 70 61 71 62 72 70 73 63 74 64 75 68 76
REMARK SMILES IDX 71 77 65 78 66 79 69 80 67 81 46 82 47 83 55 84 48 85 49 86
REMARK SMILES IDX 53 87 56 88 50 89 51 90 54 91 52 92
REMARK H PARENT 13 6 17 26 76 45 44 56
REMARK Flexibility Score: inf
ROOT
ATOM      1  C   UNL A   1      31.394  32.373  26.502  1.00  0.00     0.042 C 
ENDROOT
BRANCH   1   2
ATOM      2  C   UNL A   1      31.396  30.857  26.378  1.00  0.00     0.118 C 
BRANCH   2   3
ATOM      3  N   UNL A   1      31.195  30.426  25.002  1.00  0.00    -0.352 N 
ATOM      4  C   UNL A   1      31.308  29.278  24.296  1.00  0.00     0.251 C 
ATOM      5  O   UNL A   1      31.026  29.370  23.097  1.00  0.00    -0.270 OA
ATOM      6  H   UNL A   1      30.898  31.171  24.432  1.00  0.00     0.163 HD
BRANCH   4   7
ATOM      7  C   UNL A   1      31.740  27.966  24.859  1.00  0.00     0.067 C 
ATOM      8  C   UNL A   1      29.476  22.710  27.224  1.00  0.00     0.044 C 
ATOM      9  C   UNL A   1      30.511  23.664  26.703  1.00  0.00    -0.050 A 
ATOM     10  C   UNL A   1      31.861  23.287  26.704  1.00  0.00     0.010 A 
ATOM     11  C   UNL A   1      30.147  24.923  26.207  1.00  0.00     0.015 A 
ATOM     12  C   UNL A   1      32.846  24.146  26.205  1.00  0.00    -0.008 A 
ATOM     13  C   UNL A   1      31.120  25.795  25.710  1.00  0.00     0.018 A 
ATOM     14  C   UNL A   1      34.292  23.740  26.205  1.00  0.00     0.048 C 
ATOM     15  C   UNL A   1      32.460  25.398  25.712  1.00  0.00     0.130 A 
ATOM     16  C   UNL A   1      30.759  27.092  25.150  1.00  0.00     0.025 C 
ATOM     17  O   UNL A   1      33.448  26.183  25.188  1.00  0.00    -0.475 OA
ATOM     18  C   UNL A   1      33.171  27.603  25.123  1.00  0.00     0.314 C 
BRANCH  18  19
ATOM     19  C   UNL A   1      33.741  28.290  26.380  1.00  0.00     0.429 C 
ATOM     20  F   UNL A   1      34.851  27.636  26.809  1.00  0.00    -0.167 F 
ATOM     21  F   UNL A   1      34.122  29.570  26.146  1.00  0.00    -0.167 F 
ATOM     22  F   UNL A   1      32.866  28.326  27.407  1.00  0.00    -0.167 F 
ENDBRANCH  18  19
ENDBRANCH   4   7
ENDBRANCH   2   3
ENDBRANCH   1   2
BRANCH   1  23
ATOM     23  C   UNL A   1      32.614  32.880  27.259  1.00  0.00     0.118 C 
BRANCH  23  24
ATOM     24  N   UNL A   1      32.476  34.289  27.625  1.00  0.00    -0.352 N 
ATOM     25  C   UNL A   1      33.026  34.990  28.666  1.00  0.00     0.251 C 
ATOM     26  H   UNL A   1      31.898  34.817  27.029  1.00  0.00     0.163 HD
ATOM     27  O   UNL A   1      32.573  36.091  28.975  1.00  0.00    -0.269 OA
BRANCH  25  28
ATOM     28  C   UNL A   1      34.159  34.423  29.419  1.00  0.00     0.039 A 
ATOM     29  C   UNL A   1      33.921  33.766  30.628  1.00  0.00     0.014 A 
ATOM     30  C   UNL A   1      35.461  34.558  28.934  1.00  0.00     0.014 A 
ATOM     31  C   UNL A   1      34.989  33.187  31.315  1.00  0.00     0.010 A 
ATOM     32  C   UNL A   1      36.504  33.892  29.560  1.00  0.00     0.010 A 
ATOM     33  C   UNL A   1      36.281  33.213  30.765  1.00  0.00    -0.014 A 
BRANCH  33  34
ATOM     34  C   UNL A   1      37.424  32.566  31.450  1.00  0.00     0.031 A 
ATOM     35  C   UNL A   1      38.156  31.440  30.776  1.00  0.00     0.074 A 
ATOM     36  C   UNL A   1      37.762  32.958  32.693  1.00  0.00     0.049 A 
ATOM     37  N   UNL A   1      39.144  30.711  31.227  1.00  0.00    -0.248 NA
ATOM     38  C   UNL A   1      37.700  31.060  29.428  1.00  0.00     0.031 C 
ATOM     39  C   UNL A   1      37.087  34.006  33.461  1.00  0.00     0.029 A 
ATOM     40  N   UNL A   1      38.755  32.521  33.531  1.00  0.00    -0.354 N 
ATOM     41  C   UNL A   1      39.419  29.791  30.225  1.00  0.00     0.074 A 
ATOM     42  C   UNL A   1      38.452  30.000  29.174  1.00  0.00     0.031 C 
ATOM     43  C   UNL A   1      37.714  34.161  34.638  1.00  0.00     0.029 A 
ATOM     44  C   UNL A   1      38.806  33.196  34.726  1.00  0.00     0.049 A 
ATOM     45  H   UNL A   1      39.375  31.791  33.298  1.00  0.00     0.167 HD
ATOM     46  C   UNL A   1      40.418  28.880  30.171  1.00  0.00     0.037 A 
ATOM     47  C   UNL A   1      39.643  33.053  35.771  1.00  0.00     0.037 A 
ATOM     48  C   UNL A   1      41.397  28.702  31.208  1.00  0.00     0.049 A 
ATOM     49  C   UNL A   1      40.732  32.018  35.694  1.00  0.00     0.074 A 
ATOM     50  C   UNL A   1      42.478  27.841  31.231  1.00  0.00     0.029 A 
ATOM     51  N   UNL A   1      41.414  29.403  32.405  1.00  0.00    -0.354 N 
ATOM     52  N   UNL A   1      41.023  31.197  34.714  1.00  0.00    -0.248 NA
ATOM     53  C   UNL A   1      41.610  31.889  36.865  1.00  0.00     0.031 C 
ATOM     54  C   UNL A   1      43.123  27.987  32.462  1.00  0.00     0.029 A 
ATOM     55  C   UNL A   1      42.475  28.978  33.184  1.00  0.00     0.049 A 
ATOM     56  H   UNL A   1      40.767  30.100  32.661  1.00  0.00     0.167 HD
ATOM     57  C   UNL A   1      42.129  30.472  35.137  1.00  0.00     0.074 A 
ATOM     58  C   UNL A   1      42.467  30.962  36.457  1.00  0.00     0.031 C 
ATOM     59  C   UNL A   1      42.802  29.489  34.490  1.00  0.00     0.037 A 
BRANCH  46  60
ATOM     60  C   UNL A   1      40.522  28.026  28.941  1.00  0.00     0.064 A 
ATOM     61  C   UNL A   1      39.806  26.824  28.825  1.00  0.00     0.173 A 
ATOM     62  C   UNL A   1      41.292  28.440  27.844  1.00  0.00     0.173 A 
ATOM     63  F   UNL A   1      39.066  26.377  29.851  1.00  0.00    -0.203 F 
ATOM     64  C   UNL A   1      39.871  26.061  27.662  1.00  0.00     0.198 A 
ATOM     65  C   UNL A   1      41.329  27.690  26.672  1.00  0.00     0.198 A 
ATOM     66  F   UNL A   1      41.993  29.582  27.902  1.00  0.00    -0.203 F 
ATOM     67  F   UNL A   1      39.209  24.898  27.590  1.00  0.00    -0.200 F 
ATOM     68  C   UNL A   1      40.622  26.500  26.583  1.00  0.00     0.200 A 
ATOM     69  F   UNL A   1      42.045  28.122  25.624  1.00  0.00    -0.200 F 
ATOM     70  F   UNL A   1      40.669  25.774  25.458  1.00  0.00    -0.200 F 
ENDBRANCH  46  60
BRANCH  47  71
ATOM     71  C   UNL A   1      39.510  33.945  36.953  1.00  0.00     0.064 A 
ATOM     72  C   UNL A   1      38.770  33.543  38.073  1.00  0.00     0.173 A 
ATOM     73  C   UNL A   1      40.133  35.200  37.001  1.00  0.00     0.173 A 
ATOM     74  F   UNL A   1      38.142  32.359  38.070  1.00  0.00    -0.203 F 
ATOM     75  C   UNL A   1      38.648  34.367  39.191  1.00  0.00     0.198 A 
ATOM     76  C   UNL A   1      40.034  36.012  38.129  1.00  0.00     0.198 A 
ATOM     77  F   UNL A   1      40.860  35.630  35.958  1.00  0.00    -0.203 F 
ATOM     78  F   UNL A   1      37.905  33.972  40.233  1.00  0.00    -0.200 F 
ATOM     79  C   UNL A   1      39.287  35.597  39.221  1.00  0.00     0.200 A 
ATOM     80  F   UNL A   1      40.667  37.192  38.161  1.00  0.00    -0.200 F 
ATOM     81  F   UNL A   1      39.179  36.384  40.300  1.00  0.00    -0.200 F 
ENDBRANCH  47  71
BRANCH  59  82
ATOM     82  C   UNL A   1      43.986  28.883  35.182  1.00  0.00     0.064 A 
ATOM     83  C   UNL A   1      43.849  27.771  36.024  1.00  0.00     0.173 A 
ATOM     84  C   UNL A   1      45.280  29.355  34.917  1.00  0.00     0.173 A 
ATOM     85  F   UNL A   1      42.632  27.291  36.316  1.00  0.00    -0.203 F 
ATOM     86  C   UNL A   1      44.967  27.157  36.583  1.00  0.00     0.198 A 
ATOM     87  C   UNL A   1      46.397  28.720  35.452  1.00  0.00     0.198 A 
ATOM     88  F   UNL A   1      45.464  30.410  34.109  1.00  0.00    -0.203 F 
ATOM     89  F   UNL A   1      44.812  26.111  37.406  1.00  0.00    -0.200 F 
ATOM     90  C   UNL A   1      46.240  27.624  36.285  1.00  0.00     0.200 A 
ATOM     91  F   UNL A   1      47.626  29.159  35.148  1.00  0.00    -0.200 F 
ATOM     92  F   UNL A   1      47.315  27.014  36.802  1.00  0.00    -0.200 F 
ENDBRANCH  59  82
ENDBRANCH  33  34
ENDBRANCH  25  28
ENDBRANCH  23  24
ENDBRANCH   1  23
TORSDOF 11
ENDMDL
