MODEL 1
REMARK VINA RESULT:     -12.0      0.000      0.000
REMARK SMILES CC(C)Cc1ccc([C@H](C)C(=O)NCCCNC(=O)c2ccc(-c3c4nc(c(-c5c(F)c(F)c(F)c(F)c5F)c5ccc([nH]5)c(-c5c(F)c(F)c(F)c(F)c5F)c5nc(c(-c6c(F)c(F)c(F)c(F)c6F)c6ccc3[nH]6)C=C5)C=C4)cc2)cc1
REMARK SMILES IDX 14 1 13 2 11 3 12 4 9 6 10 7 8 8 5 9 6 10 84 11 7 12 83 13
REMARK SMILES IDX 4 14 2 15 1 16 3 17 15 18 16 19 17 20 18 21 19 23 20 24
REMARK SMILES IDX 21 25 82 26 22 27 81 28 23 29 24 30 25 31 75 32 26 33 80 34
REMARK SMILES IDX 74 35 76 36 27 37 79 38 73 39 72 40 28 42 60 43 40 44 59 45
REMARK SMILES IDX 41 46 44 47 58 48 77 49 42 50 43 51 57 53 78 54 45 55 29 56
REMARK SMILES IDX 30 57 38 58 31 59 32 60 36 61 39 62 33 63 34 64 37 65 35 66
REMARK SMILES IDX 61 67 62 68 70 69 63 70 64 71 68 72 71 73 65 74 66 75 69 76
REMARK SMILES IDX 67 77 46 78 47 79 55 80 48 81 49 82 53 83 56 84 50 85 51 86
REMARK SMILES IDX 54 87 52 88
REMARK H PARENT 13 5 17 22 76 41 44 52
REMARK Flexibility Score: inf
ROOT
ATOM      1  C   UNL A   1      32.441  27.273  26.605  1.00  0.00     0.117 C 
ENDROOT
BRANCH   1   2
ATOM      2  N   UNL A   1      31.375  26.327  26.875  1.00  0.00    -0.356 N 
ATOM      3  C   UNL A   1      30.646  25.552  26.026  1.00  0.00     0.227 C 
ATOM      4  O   UNL A   1      29.824  24.785  26.537  1.00  0.00    -0.274 OA
ATOM      5  H   UNL A   1      31.142  26.230  27.827  1.00  0.00     0.163 HD
BRANCH   3   6
ATOM      6  C   UNL A   1      30.817  25.624  24.510  1.00  0.00     0.105 C 
ATOM      7  C   UNL A   1      30.660  24.245  23.857  1.00  0.00     0.023 C 
BRANCH   6   8
ATOM      8  C   UNL A   1      30.049  26.732  23.797  1.00  0.00    -0.036 A 
ATOM      9  C   UNL A   1      28.736  28.903  22.539  1.00  0.00    -0.048 A 
ATOM     10  C   UNL A   1      30.125  28.763  22.453  1.00  0.00     0.004 A 
ATOM     11  C   UNL A   1      28.003  27.939  23.233  1.00  0.00     0.004 A 
ATOM     12  C   UNL A   1      30.771  27.697  23.079  1.00  0.00     0.005 A 
ATOM     13  C   UNL A   1      28.654  26.876  23.866  1.00  0.00     0.005 A 
BRANCH   9  14
ATOM     14  C   UNL A   1      28.059  30.127  21.976  1.00  0.00     0.038 C 
BRANCH  14  15
ATOM     15  C   UNL A   1      28.351  31.406  22.791  1.00  0.00    -0.013 C 
ATOM     16  C   UNL A   1      28.406  32.667  21.922  1.00  0.00     0.008 C 
ATOM     17  C   UNL A   1      27.284  31.581  23.874  1.00  0.00     0.008 C 
ENDBRANCH  14  15
ENDBRANCH   9  14
ENDBRANCH   6   8
ENDBRANCH   3   6
ENDBRANCH   1   2
BRANCH   1  18
ATOM     18  C   UNL A   1      31.917  28.693  26.462  1.00  0.00     0.042 C 
BRANCH  18  19
ATOM     19  C   UNL A   1      32.932  29.665  25.872  1.00  0.00     0.118 C 
BRANCH  19  20
ATOM     20  N   UNL A   1      32.710  31.041  26.296  1.00  0.00    -0.352 N 
ATOM     21  C   UNL A   1      33.352  31.786  27.251  1.00  0.00     0.251 C 
ATOM     22  H   UNL A   1      31.985  31.509  25.824  1.00  0.00     0.163 HD
ATOM     23  O   UNL A   1      32.888  32.875  27.592  1.00  0.00    -0.269 OA
BRANCH  21  24
ATOM     24  C   UNL A   1      34.585  31.283  27.888  1.00  0.00     0.039 A 
ATOM     25  C   UNL A   1      35.654  32.162  28.077  1.00  0.00     0.014 A 
ATOM     26  C   UNL A   1      34.697  29.948  28.286  1.00  0.00     0.014 A 
ATOM     27  C   UNL A   1      36.808  31.718  28.725  1.00  0.00     0.010 A 
ATOM     28  C   UNL A   1      35.809  29.532  29.010  1.00  0.00     0.010 A 
ATOM     29  C   UNL A   1      36.879  30.410  29.231  1.00  0.00    -0.014 A 
BRANCH  29  30
ATOM     30  C   UNL A   1      38.065  29.941  29.991  1.00  0.00     0.031 A 
ATOM     31  C   UNL A   1      38.298  30.422  31.396  1.00  0.00     0.074 A 
ATOM     32  C   UNL A   1      38.963  29.135  29.392  1.00  0.00     0.049 A 
ATOM     33  N   UNL A   1      39.307  30.182  32.197  1.00  0.00    -0.248 NA
ATOM     34  C   UNL A   1      37.281  31.317  31.970  1.00  0.00     0.031 C 
ATOM     35  C   UNL A   1      38.873  28.647  28.014  1.00  0.00     0.029 A 
ATOM     36  N   UNL A   1      40.133  28.594  29.860  1.00  0.00    -0.354 N 
ATOM     37  C   UNL A   1      39.052  30.905  33.354  1.00  0.00     0.074 A 
ATOM     38  C   UNL A   1      37.825  31.639  33.133  1.00  0.00     0.031 C 
ATOM     39  C   UNL A   1      39.929  27.859  27.758  1.00  0.00     0.029 A 
ATOM     40  C   UNL A   1      40.789  27.818  28.936  1.00  0.00     0.049 A 
ATOM     41  H   UNL A   1      40.471  28.747  30.772  1.00  0.00     0.167 HD
ATOM     42  C   UNL A   1      39.763  30.935  34.506  1.00  0.00     0.037 A 
ATOM     43  C   UNL A   1      41.958  27.153  29.028  1.00  0.00     0.037 A 
ATOM     44  C   UNL A   1      40.967  30.180  34.731  1.00  0.00     0.049 A 
ATOM     45  C   UNL A   1      42.725  27.200  30.322  1.00  0.00     0.074 A 
ATOM     46  C   UNL A   1      41.726  30.090  35.884  1.00  0.00     0.029 A 
ATOM     47  N   UNL A   1      41.589  29.384  33.779  1.00  0.00    -0.354 N 
ATOM     48  N   UNL A   1      42.434  27.828  31.435  1.00  0.00    -0.248 NA
ATOM     49  C   UNL A   1      43.979  26.437  30.374  1.00  0.00     0.031 C 
ATOM     50  C   UNL A   1      42.833  29.278  35.616  1.00  0.00     0.029 A 
ATOM     51  C   UNL A   1      42.734  28.818  34.314  1.00  0.00     0.049 A 
ATOM     52  H   UNL A   1      41.263  29.243  32.861  1.00  0.00     0.167 HD
ATOM     53  C   UNL A   1      43.451  27.514  32.327  1.00  0.00     0.074 A 
ATOM     54  C   UNL A   1      44.356  26.625  31.630  1.00  0.00     0.031 C 
ATOM     55  C   UNL A   1      43.620  27.926  33.608  1.00  0.00     0.037 A 
BRANCH  42  56
ATOM     56  C   UNL A   1      39.254  31.808  35.617  1.00  0.00     0.064 A 
ATOM     57  C   UNL A   1      38.344  31.330  36.572  1.00  0.00     0.173 A 
ATOM     58  C   UNL A   1      39.715  33.127  35.754  1.00  0.00     0.173 A 
ATOM     59  F   UNL A   1      37.863  30.080  36.480  1.00  0.00    -0.203 F 
ATOM     60  C   UNL A   1      37.892  32.146  37.605  1.00  0.00     0.198 A 
ATOM     61  C   UNL A   1      39.285  33.930  36.807  1.00  0.00     0.198 A 
ATOM     62  F   UNL A   1      40.588  33.634  34.872  1.00  0.00    -0.203 F 
ATOM     63  F   UNL A   1      36.986  31.682  38.477  1.00  0.00    -0.200 F 
ATOM     64  C   UNL A   1      38.370  33.442  37.728  1.00  0.00     0.200 A 
ATOM     65  F   UNL A   1      39.757  35.178  36.932  1.00  0.00    -0.200 F 
ATOM     66  F   UNL A   1      37.942  34.224  38.729  1.00  0.00    -0.200 F 
ENDBRANCH  42  56
BRANCH  43  67
ATOM     67  C   UNL A   1      42.461  26.368  27.871  1.00  0.00     0.064 A 
ATOM     68  C   UNL A   1      43.373  26.925  26.964  1.00  0.00     0.173 A 
ATOM     69  C   UNL A   1      42.037  25.051  27.643  1.00  0.00     0.173 A 
ATOM     70  F   UNL A   1      43.794  28.187  27.130  1.00  0.00    -0.203 F 
ATOM     71  C   UNL A   1      43.820  26.206  25.858  1.00  0.00     0.198 A 
ATOM     72  C   UNL A   1      42.508  24.322  26.553  1.00  0.00     0.198 A 
ATOM     73  F   UNL A   1      41.171  24.468  28.484  1.00  0.00    -0.203 F 
ATOM     74  F   UNL A   1      44.652  26.782  24.979  1.00  0.00    -0.200 F 
ATOM     75  C   UNL A   1      43.392  24.903  25.656  1.00  0.00     0.200 A 
ATOM     76  F   UNL A   1      42.103  23.057  26.369  1.00  0.00    -0.200 F 
ATOM     77  F   UNL A   1      43.823  24.211  24.593  1.00  0.00    -0.200 F 
ENDBRANCH  43  67
BRANCH  55  78
ATOM     78  C   UNL A   1      44.809  27.390  34.351  1.00  0.00     0.064 A 
ATOM     79  C   UNL A   1      46.038  28.067  34.363  1.00  0.00     0.173 A 
ATOM     80  C   UNL A   1      44.705  26.201  35.089  1.00  0.00     0.173 A 
ATOM     81  F   UNL A   1      46.192  29.200  33.661  1.00  0.00    -0.203 F 
ATOM     82  C   UNL A   1      47.127  27.557  35.064  1.00  0.00     0.198 A 
ATOM     83  C   UNL A   1      45.787  25.712  35.815  1.00  0.00     0.198 A 
ATOM     84  F   UNL A   1      43.550  25.519  35.115  1.00  0.00    -0.203 F 
ATOM     85  F   UNL A   1      48.306  28.193  35.021  1.00  0.00    -0.200 F 
ATOM     86  C   UNL A   1      46.999  26.385  35.795  1.00  0.00     0.200 A 
ATOM     87  F   UNL A   1      45.657  24.587  36.531  1.00  0.00    -0.200 F 
ATOM     88  F   UNL A   1      48.047  25.901  36.475  1.00  0.00    -0.200 F 
ENDBRANCH  55  78
ENDBRANCH  29  30
ENDBRANCH  21  24
ENDBRANCH  19  20
ENDBRANCH  18  19
ENDBRANCH   1  18
TORSDOF 13
ENDMDL
MODEL 2
REMARK VINA RESULT:     -11.8      4.896      9.655
REMARK SMILES CC(C)Cc1ccc([C@H](C)C(=O)NCCCNC(=O)c2ccc(-c3c4nc(c(-c5c(F)c(F)c(F)c(F)c5F)c5ccc([nH]5)c(-c5c(F)c(F)c(F)c(F)c5F)c5nc(c(-c6c(F)c(F)c(F)c(F)c6F)c6ccc3[nH]6)C=C5)C=C4)cc2)cc1
REMARK SMILES IDX 14 1 13 2 11 3 12 4 9 6 10 7 8 8 5 9 6 10 84 11 7 12 83 13
REMARK SMILES IDX 4 14 2 15 1 16 3 17 15 18 16 19 17 20 18 21 19 23 20 24
REMARK SMILES IDX 21 25 82 26 22 27 81 28 23 29 24 30 25 31 75 32 26 33 80 34
REMARK SMILES IDX 74 35 76 36 27 37 79 38 73 39 72 40 28 42 60 43 40 44 59 45
REMARK SMILES IDX 41 46 44 47 58 48 77 49 42 50 43 51 57 53 78 54 45 55 29 56
REMARK SMILES IDX 30 57 38 58 31 59 32 60 36 61 39 62 33 63 34 64 37 65 35 66
REMARK SMILES IDX 61 67 62 68 70 69 63 70 64 71 68 72 71 73 65 74 66 75 69 76
REMARK SMILES IDX 67 77 46 78 47 79 55 80 48 81 49 82 53 83 56 84 50 85 51 86
REMARK SMILES IDX 54 87 52 88
REMARK H PARENT 13 5 17 22 76 41 44 52
REMARK Flexibility Score: inf
ROOT
ATOM      1  C   UNL A   1      34.728  24.245  25.474  1.00  0.00     0.117 C 
ENDROOT
BRANCH   1   2
ATOM      2  N   UNL A   1      34.702  24.101  24.030  1.00  0.00    -0.356 N 
ATOM      3  C   UNL A   1      33.817  23.454  23.223  1.00  0.00     0.227 C 
ATOM      4  O   UNL A   1      34.008  23.539  22.006  1.00  0.00    -0.274 OA
ATOM      5  H   UNL A   1      35.444  24.545  23.559  1.00  0.00     0.163 HD
BRANCH   3   6
ATOM      6  C   UNL A   1      32.645  22.649  23.782  1.00  0.00     0.105 C 
ATOM      7  C   UNL A   1      31.308  23.111  23.189  1.00  0.00     0.023 C 
BRANCH   6   8
ATOM      8  C   UNL A   1      32.818  21.134  23.803  1.00  0.00    -0.036 A 
ATOM      9  C   UNL A   1      33.311  18.346  23.834  1.00  0.00    -0.048 A 
ATOM     10  C   UNL A   1      34.018  19.204  24.681  1.00  0.00     0.004 A 
ATOM     11  C   UNL A   1      32.337  18.883  22.990  1.00  0.00     0.004 A 
ATOM     12  C   UNL A   1      33.779  20.578  24.661  1.00  0.00     0.005 A 
ATOM     13  C   UNL A   1      32.106  20.261  22.965  1.00  0.00     0.005 A 
BRANCH   9  14
ATOM     14  C   UNL A   1      33.666  16.882  23.764  1.00  0.00     0.038 C 
BRANCH  14  15
ATOM     15  C   UNL A   1      33.846  16.238  25.155  1.00  0.00    -0.013 C 
ATOM     16  C   UNL A   1      32.882  15.071  25.401  1.00  0.00     0.008 C 
ATOM     17  C   UNL A   1      35.286  15.749  25.315  1.00  0.00     0.008 C 
ENDBRANCH  14  15
ENDBRANCH   9  14
ENDBRANCH   6   8
ENDBRANCH   3   6
ENDBRANCH   1   2
BRANCH   1  18
ATOM     18  C   UNL A   1      36.098  23.922  26.051  1.00  0.00     0.042 C 
BRANCH  18  19
ATOM     19  C   UNL A   1      37.116  23.489  25.003  1.00  0.00     0.118 C 
BRANCH  19  20
ATOM     20  N   UNL A   1      38.091  22.537  25.522  1.00  0.00    -0.352 N 
ATOM     21  C   UNL A   1      39.238  22.751  26.241  1.00  0.00     0.251 C 
ATOM     22  H   UNL A   1      37.895  21.593  25.326  1.00  0.00     0.163 HD
ATOM     23  O   UNL A   1      40.028  21.824  26.423  1.00  0.00    -0.269 OA
BRANCH  21  24
ATOM     24  C   UNL A   1      39.544  24.091  26.780  1.00  0.00     0.039 A 
ATOM     25  C   UNL A   1      39.178  24.389  28.095  1.00  0.00     0.014 A 
ATOM     26  C   UNL A   1      40.177  25.057  25.993  1.00  0.00     0.014 A 
ATOM     27  C   UNL A   1      39.506  25.632  28.640  1.00  0.00     0.010 A 
ATOM     28  C   UNL A   1      40.583  26.258  26.564  1.00  0.00     0.010 A 
ATOM     29  C   UNL A   1      40.246  26.562  27.891  1.00  0.00    -0.014 A 
BRANCH  29  30
ATOM     30  C   UNL A   1      40.672  27.858  28.476  1.00  0.00     0.031 A 
ATOM     31  C   UNL A   1      42.107  28.070  28.872  1.00  0.00     0.074 A 
ATOM     32  C   UNL A   1      39.755  28.817  28.708  1.00  0.00     0.049 A 
ATOM     33  N   UNL A   1      42.660  29.102  29.459  1.00  0.00    -0.248 NA
ATOM     34  C   UNL A   1      43.040  26.964  28.604  1.00  0.00     0.031 C 
ATOM     35  C   UNL A   1      38.324  28.706  28.417  1.00  0.00     0.029 A 
ATOM     36  N   UNL A   1      39.887  30.068  29.254  1.00  0.00    -0.354 N 
ATOM     37  C   UNL A   1      43.993  28.763  29.642  1.00  0.00     0.074 A 
ATOM     38  C   UNL A   1      44.157  27.410  29.158  1.00  0.00     0.031 C 
ATOM     39  C   UNL A   1      37.716  29.852  28.763  1.00  0.00     0.029 A 
ATOM     40  C   UNL A   1      38.703  30.760  29.336  1.00  0.00     0.049 A 
ATOM     41  H   UNL A   1      40.748  30.436  29.557  1.00  0.00     0.167 HD
ATOM     42  C   UNL A   1      44.997  29.521  30.145  1.00  0.00     0.037 A 
ATOM     43  C   UNL A   1      38.444  31.988  29.826  1.00  0.00     0.037 A 
ATOM     44  C   UNL A   1      44.834  30.877  30.599  1.00  0.00     0.049 A 
ATOM     45  C   UNL A   1      39.579  32.811  30.375  1.00  0.00     0.074 A 
ATOM     46  C   UNL A   1      45.798  31.753  31.063  1.00  0.00     0.029 A 
ATOM     47  N   UNL A   1      43.624  31.554  30.644  1.00  0.00    -0.354 N 
ATOM     48  N   UNL A   1      40.849  32.507  30.473  1.00  0.00    -0.248 NA
ATOM     49  C   UNL A   1      39.242  34.151  30.872  1.00  0.00     0.031 C 
ATOM     50  C   UNL A   1      45.165  32.944  31.436  1.00  0.00     0.029 A 
ATOM     51  C   UNL A   1      43.815  32.829  31.150  1.00  0.00     0.049 A 
ATOM     52  H   UNL A   1      42.758  31.183  30.357  1.00  0.00     0.167 HD
ATOM     53  C   UNL A   1      41.469  33.626  31.015  1.00  0.00     0.074 A 
ATOM     54  C   UNL A   1      40.435  34.621  31.208  1.00  0.00     0.031 C 
ATOM     55  C   UNL A   1      42.775  33.811  31.326  1.00  0.00     0.037 A 
BRANCH  42  56
ATOM     56  C   UNL A   1      46.363  28.904  30.227  1.00  0.00     0.064 A 
ATOM     57  C   UNL A   1      46.797  28.224  31.375  1.00  0.00     0.173 A 
ATOM     58  C   UNL A   1      47.234  28.955  29.127  1.00  0.00     0.173 A 
ATOM     59  F   UNL A   1      46.008  28.156  32.458  1.00  0.00    -0.203 F 
ATOM     60  C   UNL A   1      48.061  27.643  31.431  1.00  0.00     0.198 A 
ATOM     61  C   UNL A   1      48.485  28.346  29.176  1.00  0.00     0.198 A 
ATOM     62  F   UNL A   1      46.869  29.588  28.003  1.00  0.00    -0.203 F 
ATOM     63  F   UNL A   1      48.471  27.042  32.556  1.00  0.00    -0.200 F 
ATOM     64  C   UNL A   1      48.900  27.697  30.329  1.00  0.00     0.200 A 
ATOM     65  F   UNL A   1      49.290  28.386  28.105  1.00  0.00    -0.200 F 
ATOM     66  F   UNL A   1      50.114  27.129  30.380  1.00  0.00    -0.200 F 
ENDBRANCH  42  56
BRANCH  43  67
ATOM     67  C   UNL A   1      37.058  32.524  29.798  1.00  0.00     0.064 A 
ATOM     68  C   UNL A   1      36.592  33.259  28.698  1.00  0.00     0.173 A 
ATOM     69  C   UNL A   1      36.175  32.323  30.868  1.00  0.00     0.173 A 
ATOM     70  F   UNL A   1      37.405  33.493  27.658  1.00  0.00    -0.203 F 
ATOM     71  C   UNL A   1      35.306  33.794  28.682  1.00  0.00     0.198 A 
ATOM     72  C   UNL A   1      34.879  32.832  30.838  1.00  0.00     0.198 A 
ATOM     73  F   UNL A   1      36.567  31.621  31.941  1.00  0.00    -0.203 F 
ATOM     74  F   UNL A   1      34.905  34.536  27.640  1.00  0.00    -0.200 F 
ATOM     75  C   UNL A   1      34.449  33.576  29.749  1.00  0.00     0.200 A 
ATOM     76  F   UNL A   1      34.047  32.607  31.865  1.00  0.00    -0.200 F 
ATOM     77  F   UNL A   1      33.211  34.090  29.732  1.00  0.00    -0.200 F 
ENDBRANCH  43  67
BRANCH  55  78
ATOM     78  C   UNL A   1      43.167  35.154  31.872  1.00  0.00     0.064 A 
ATOM     79  C   UNL A   1      43.645  36.177  31.040  1.00  0.00     0.173 A 
ATOM     80  C   UNL A   1      43.028  35.430  33.241  1.00  0.00     0.173 A 
ATOM     81  F   UNL A   1      43.810  35.958  29.727  1.00  0.00    -0.203 F 
ATOM     82  C   UNL A   1      43.998  37.418  31.564  1.00  0.00     0.198 A 
ATOM     83  C   UNL A   1      43.351  36.682  33.755  1.00  0.00     0.198 A 
ATOM     84  F   UNL A   1      42.569  34.488  34.078  1.00  0.00    -0.203 F 
ATOM     85  F   UNL A   1      44.501  38.364  30.759  1.00  0.00    -0.200 F 
ATOM     86  C   UNL A   1      43.843  37.671  32.918  1.00  0.00     0.200 A 
ATOM     87  F   UNL A   1      43.187  36.930  35.062  1.00  0.00    -0.200 F 
ATOM     88  F   UNL A   1      44.175  38.869  33.419  1.00  0.00    -0.200 F 
ENDBRANCH  55  78
ENDBRANCH  29  30
ENDBRANCH  21  24
ENDBRANCH  19  20
ENDBRANCH  18  19
ENDBRANCH   1  18
TORSDOF 13
ENDMDL
MODEL 3
REMARK VINA RESULT:     -11.8      1.767      3.740
REMARK SMILES CC(C)Cc1ccc([C@H](C)C(=O)NCCCNC(=O)c2ccc(-c3c4nc(c(-c5c(F)c(F)c(F)c(F)c5F)c5ccc([nH]5)c(-c5c(F)c(F)c(F)c(F)c5F)c5nc(c(-c6c(F)c(F)c(F)c(F)c6F)c6ccc3[nH]6)C=C5)C=C4)cc2)cc1
REMARK SMILES IDX 14 1 13 2 11 3 12 4 9 6 10 7 8 8 5 9 6 10 84 11 7 12 83 13
REMARK SMILES IDX 4 14 2 15 1 16 3 17 15 18 16 19 17 20 18 21 19 23 20 24
REMARK SMILES IDX 21 25 82 26 22 27 81 28 23 29 24 30 25 31 75 32 26 33 80 34
REMARK SMILES IDX 74 35 76 36 27 37 79 38 73 39 72 40 28 42 60 43 40 44 59 45
REMARK SMILES IDX 41 46 44 47 58 48 77 49 42 50 43 51 57 53 78 54 45 55 29 56
REMARK SMILES IDX 30 57 38 58 31 59 32 60 36 61 39 62 33 63 34 64 37 65 35 66
REMARK SMILES IDX 61 67 62 68 70 69 63 70 64 71 68 72 71 73 65 74 66 75 69 76
REMARK SMILES IDX 67 77 46 78 47 79 55 80 48 81 49 82 53 83 56 84 50 85 51 86
REMARK SMILES IDX 54 87 52 88
REMARK H PARENT 13 5 17 22 76 41 44 52
REMARK Flexibility Score: inf
ROOT
ATOM      1  C   UNL A   1      31.124  29.343  24.099  1.00  0.00     0.117 C 
ENDROOT
BRANCH   1   2
ATOM      2  N   UNL A   1      32.320  29.279  23.279  1.00  0.00    -0.356 N 
ATOM      3  C   UNL A   1      32.953  28.210  22.722  1.00  0.00     0.227 C 
ATOM      4  O   UNL A   1      33.935  28.451  22.014  1.00  0.00    -0.274 OA
ATOM      5  H   UNL A   1      32.739  30.150  23.095  1.00  0.00     0.163 HD
BRANCH   3   6
ATOM      6  C   UNL A   1      32.487  26.775  22.962  1.00  0.00     0.105 C 
ATOM      7  C   UNL A   1      31.918  26.144  21.685  1.00  0.00     0.023 C 
BRANCH   6   8
ATOM      8  C   UNL A   1      33.457  25.870  23.714  1.00  0.00    -0.036 A 
ATOM      9  C   UNL A   1      35.171  24.052  25.048  1.00  0.00    -0.048 A 
ATOM     10  C   UNL A   1      34.853  23.873  23.698  1.00  0.00     0.004 A 
ATOM     11  C   UNL A   1      34.651  25.159  25.722  1.00  0.00     0.004 A 
ATOM     12  C   UNL A   1      34.003  24.764  23.044  1.00  0.00     0.005 A 
ATOM     13  C   UNL A   1      33.793  26.046  25.066  1.00  0.00     0.005 A 
BRANCH   9  14
ATOM     14  C   UNL A   1      35.979  23.013  25.785  1.00  0.00     0.038 C 
BRANCH  14  15
ATOM     15  C   UNL A   1      37.492  23.110  25.495  1.00  0.00    -0.013 C 
ATOM     16  C   UNL A   1      38.219  24.075  26.439  1.00  0.00     0.008 C 
ATOM     17  C   UNL A   1      38.127  21.723  25.600  1.00  0.00     0.008 C 
ENDBRANCH  14  15
ENDBRANCH   9  14
ENDBRANCH   6   8
ENDBRANCH   3   6
ENDBRANCH   1   2
BRANCH   1  18
ATOM     18  C   UNL A   1      31.438  29.138  25.573  1.00  0.00     0.042 C 
BRANCH  18  19
ATOM     19  C   UNL A   1      32.747  29.781  26.016  1.00  0.00     0.118 C 
BRANCH  19  20
ATOM     20  N   UNL A   1      32.593  31.183  26.382  1.00  0.00    -0.352 N 
ATOM     21  C   UNL A   1      33.296  31.943  27.280  1.00  0.00     0.251 C 
ATOM     22  H   UNL A   1      31.872  31.659  25.912  1.00  0.00     0.163 HD
ATOM     23  O   UNL A   1      32.888  33.065  27.584  1.00  0.00    -0.269 OA
BRANCH  21  24
ATOM     24  C   UNL A   1      34.530  31.420  27.900  1.00  0.00     0.039 A 
ATOM     25  C   UNL A   1      35.605  32.288  28.101  1.00  0.00     0.014 A 
ATOM     26  C   UNL A   1      34.635  30.077  28.270  1.00  0.00     0.014 A 
ATOM     27  C   UNL A   1      36.760  31.824  28.734  1.00  0.00     0.010 A 
ATOM     28  C   UNL A   1      35.747  29.639  28.980  1.00  0.00     0.010 A 
ATOM     29  C   UNL A   1      36.825  30.506  29.213  1.00  0.00    -0.014 A 
BRANCH  29  30
ATOM     30  C   UNL A   1      38.012  30.013  29.957  1.00  0.00     0.031 A 
ATOM     31  C   UNL A   1      38.283  30.503  31.352  1.00  0.00     0.074 A 
ATOM     32  C   UNL A   1      38.877  29.178  29.351  1.00  0.00     0.049 A 
ATOM     33  N   UNL A   1      39.298  30.245  32.138  1.00  0.00    -0.248 NA
ATOM     34  C   UNL A   1      37.299  31.430  31.934  1.00  0.00     0.031 C 
ATOM     35  C   UNL A   1      38.750  28.678  27.980  1.00  0.00     0.029 A 
ATOM     36  N   UNL A   1      40.041  28.611  29.804  1.00  0.00    -0.354 N 
ATOM     37  C   UNL A   1      39.083  30.987  33.291  1.00  0.00     0.074 A 
ATOM     38  C   UNL A   1      37.872  31.750  33.083  1.00  0.00     0.031 C 
ATOM     39  C   UNL A   1      39.781  27.860  27.714  1.00  0.00     0.029 A 
ATOM     40  C   UNL A   1      40.660  27.809  28.877  1.00  0.00     0.049 A 
ATOM     41  H   UNL A   1      40.400  28.765  30.708  1.00  0.00     0.167 HD
ATOM     42  C   UNL A   1      39.815  31.010  34.430  1.00  0.00     0.037 A 
ATOM     43  C   UNL A   1      41.813  27.115  28.955  1.00  0.00     0.037 A 
ATOM     44  C   UNL A   1      41.003  30.226  34.641  1.00  0.00     0.049 A 
ATOM     45  C   UNL A   1      42.604  27.155  30.235  1.00  0.00     0.074 A 
ATOM     46  C   UNL A   1      41.781  30.128  35.782  1.00  0.00     0.029 A 
ATOM     47  N   UNL A   1      41.587  29.405  33.688  1.00  0.00    -0.354 N 
ATOM     48  N   UNL A   1      42.350  27.802  31.346  1.00  0.00    -0.248 NA
ATOM     49  C   UNL A   1      43.839  26.360  30.273  1.00  0.00     0.031 C 
ATOM     50  C   UNL A   1      42.862  29.285  35.503  1.00  0.00     0.029 A 
ATOM     51  C   UNL A   1      42.727  28.814  34.208  1.00  0.00     0.049 A 
ATOM     52  H   UNL A   1      41.242  29.262  32.777  1.00  0.00     0.167 HD
ATOM     53  C   UNL A   1      43.374  27.472  32.224  1.00  0.00     0.074 A 
ATOM     54  C   UNL A   1      44.244  26.552  31.520  1.00  0.00     0.031 C 
ATOM     55  C   UNL A   1      43.577  27.892  33.496  1.00  0.00     0.037 A 
BRANCH  42  56
ATOM     56  C   UNL A   1      39.349  31.908  35.540  1.00  0.00     0.064 A 
ATOM     57  C   UNL A   1      38.489  31.446  36.548  1.00  0.00     0.173 A 
ATOM     58  C   UNL A   1      39.803  33.233  35.621  1.00  0.00     0.173 A 
ATOM     59  F   UNL A   1      38.017  30.191  36.510  1.00  0.00    -0.203 F 
ATOM     60  C   UNL A   1      38.077  32.286  37.579  1.00  0.00     0.198 A 
ATOM     61  C   UNL A   1      39.414  34.060  36.672  1.00  0.00     0.198 A 
ATOM     62  F   UNL A   1      40.631  33.725  34.687  1.00  0.00    -0.203 F 
ATOM     63  F   UNL A   1      37.216  31.837  38.503  1.00  0.00    -0.200 F 
ATOM     64  C   UNL A   1      38.547  33.588  37.646  1.00  0.00     0.200 A 
ATOM     65  F   UNL A   1      39.879  35.315  36.743  1.00  0.00    -0.200 F 
ATOM     66  F   UNL A   1      38.158  34.393  38.645  1.00  0.00    -0.200 F 
ENDBRANCH  42  56
BRANCH  43  67
ATOM     67  C   UNL A   1      42.275  26.305  27.799  1.00  0.00     0.064 A 
ATOM     68  C   UNL A   1      43.260  26.790  26.927  1.00  0.00     0.173 A 
ATOM     69  C   UNL A   1      41.738  25.036  27.534  1.00  0.00     0.173 A 
ATOM     70  F   UNL A   1      43.791  28.004  27.128  1.00  0.00    -0.203 F 
ATOM     71  C   UNL A   1      43.670  26.050  25.820  1.00  0.00     0.198 A 
ATOM     72  C   UNL A   1      42.171  24.284  26.445  1.00  0.00     0.198 A 
ATOM     73  F   UNL A   1      40.798  24.523  28.340  1.00  0.00    -0.203 F 
ATOM     74  F   UNL A   1      44.577  26.560  24.975  1.00  0.00    -0.200 F 
ATOM     75  C   UNL A   1      43.130  24.796  25.583  1.00  0.00     0.200 A 
ATOM     76  F   UNL A   1      41.657  23.066  26.227  1.00  0.00    -0.200 F 
ATOM     77  F   UNL A   1      43.527  24.083  24.519  1.00  0.00    -0.200 F 
ENDBRANCH  43  67
BRANCH  55  78
ATOM     78  C   UNL A   1      44.764  27.333  34.224  1.00  0.00     0.064 A 
ATOM     79  C   UNL A   1      44.682  26.143  34.963  1.00  0.00     0.173 A 
ATOM     80  C   UNL A   1      46.008  27.977  34.150  1.00  0.00     0.173 A 
ATOM     81  F   UNL A   1      43.512  25.497  35.076  1.00  0.00    -0.203 F 
ATOM     82  C   UNL A   1      45.796  25.636  35.626  1.00  0.00     0.198 A 
ATOM     83  C   UNL A   1      47.127  27.449  34.788  1.00  0.00     0.198 A 
ATOM     84  F   UNL A   1      46.141  29.114  33.451  1.00  0.00    -0.203 F 
ATOM     85  F   UNL A   1      45.683  24.525  36.369  1.00  0.00    -0.200 F 
ATOM     86  C   UNL A   1      47.018  26.284  35.531  1.00  0.00     0.200 A 
ATOM     87  F   UNL A   1      48.311  28.069  34.684  1.00  0.00    -0.200 F 
ATOM     88  F   UNL A   1      48.091  25.789  36.164  1.00  0.00    -0.200 F 
ENDBRANCH  55  78
ENDBRANCH  29  30
ENDBRANCH  21  24
ENDBRANCH  19  20
ENDBRANCH  18  19
ENDBRANCH   1  18
TORSDOF 13
ENDMDL
