MODEL 1
REMARK VINA RESULT:     -10.7      0.000      0.000
REMARK SMILES C#CCN(CC(=O)NCCCNC(=O)c1ccc(-c2c3nc(c(-c4c(F)c(F)c(F)c(F)c4F)c4ccc([nH]4)c(-c4c(F)c(F)c(F)c(F)c4F)c4nc(c(-c5c(F)c(F)c(F)c(F)c5F)c5ccc2[nH]5)C=C4)C=C3)cc1)C(=O)c1cc(C)c(C)s1
REMARK SMILES IDX 9 1 8 2 6 3 7 4 5 6 4 7 3 8 2 9 1 10 78 11 79 12 80 13 81 14
REMARK SMILES IDX 86 15 82 16 84 17 83 18 85 19 10 20 11 21 12 22 13 23 14 25
REMARK SMILES IDX 15 26 16 27 77 28 17 29 76 30 18 31 19 32 20 33 70 34 21 35
REMARK SMILES IDX 75 36 69 37 71 38 22 39 74 40 68 41 67 42 23 44 55 45 35 46
REMARK SMILES IDX 54 47 36 48 39 49 53 50 72 51 37 52 38 53 52 55 73 56 40 57
REMARK SMILES IDX 24 58 25 59 33 60 26 61 27 62 31 63 34 64 28 65 29 66 32 67
REMARK SMILES IDX 30 68 56 69 57 70 65 71 58 72 59 73 63 74 66 75 60 76 61 77
REMARK SMILES IDX 64 78 62 79 41 80 42 81 50 82 43 83 44 84 48 85 51 86 45 87
REMARK SMILES IDX 46 88 49 89 47 90
REMARK H PARENT 8 5 12 24 71 43 39 54
REMARK Flexibility Score: inf
ROOT
ATOM      1  C   UNL A   1      31.908  26.790  25.946  1.00  0.00     0.117 C 
ENDROOT
BRANCH   1   2
ATOM      2  N   UNL A   1      31.039  25.681  26.285  1.00  0.00    -0.354 N 
ATOM      3  C   UNL A   1      31.323  24.401  26.664  1.00  0.00     0.239 C 
ATOM      4  O   UNL A   1      30.416  23.788  27.237  1.00  0.00    -0.273 OA
ATOM      5  H   UNL A   1      30.078  25.886  26.235  1.00  0.00     0.163 HD
BRANCH   3   6
ATOM      6  C   UNL A   1      32.723  23.771  26.533  1.00  0.00     0.220 C 
BRANCH   6   7
ATOM      7  N   UNL A   1      33.146  23.451  25.169  1.00  0.00    -0.318 N 
BRANCH   7   8
ATOM      8  C   UNL A   1      32.214  22.746  24.311  1.00  0.00     0.210 C 
BRANCH   8   9
ATOM      9  C   UNL A   1      32.284  21.237  24.478  1.00  0.00    -0.085 C 
ATOM     10  C   UNL A   1      32.344  19.942  24.621  1.00  0.00     0.006 C 
ENDBRANCH   8   9
ENDBRANCH   7   8
BRANCH   7  11
ATOM     11  C   UNL A   1      34.357  23.875  24.607  1.00  0.00     0.265 C 
ATOM     12  O   UNL A   1      34.408  24.890  23.911  1.00  0.00    -0.268 OA
BRANCH  11  13
ATOM     13  C   UNL A   1      35.536  23.076  24.865  1.00  0.00     0.093 A 
ATOM     14  C   UNL A   1      35.817  21.780  24.490  1.00  0.00     0.029 A 
ATOM     15  S   UNL A   1      36.839  23.784  25.707  1.00  0.00    -0.135 S 
ATOM     16  C   UNL A   1      37.090  21.327  24.971  1.00  0.00    -0.037 A 
ATOM     17  C   UNL A   1      37.760  22.344  25.634  1.00  0.00     0.005 A 
ATOM     18  C   UNL A   1      37.613  19.943  24.771  1.00  0.00     0.045 C 
ATOM     19  C   UNL A   1      39.116  22.303  26.262  1.00  0.00     0.056 C 
ENDBRANCH  11  13
ENDBRANCH   7  11
ENDBRANCH   6   7
ENDBRANCH   3   6
ENDBRANCH   1   2
BRANCH   1  20
ATOM     20  C   UNL A   1      32.129  27.792  27.078  1.00  0.00     0.042 C 
BRANCH  20  21
ATOM     21  C   UNL A   1      33.549  28.333  27.221  1.00  0.00     0.118 C 
BRANCH  21  22
ATOM     22  N   UNL A   1      33.586  29.731  27.612  1.00  0.00    -0.352 N 
ATOM     23  C   UNL A   1      34.571  30.493  28.186  1.00  0.00     0.251 C 
ATOM     24  H   UNL A   1      32.751  30.221  27.432  1.00  0.00     0.163 HD
ATOM     25  O   UNL A   1      34.280  31.626  28.567  1.00  0.00    -0.269 OA
BRANCH  23  26
ATOM     26  C   UNL A   1      35.964  30.010  28.372  1.00  0.00     0.039 A 
ATOM     27  C   UNL A   1      36.301  29.454  29.613  1.00  0.00     0.014 A 
ATOM     28  C   UNL A   1      36.968  30.202  27.417  1.00  0.00     0.014 A 
ATOM     29  C   UNL A   1      37.617  29.069  29.889  1.00  0.00     0.010 A 
ATOM     30  C   UNL A   1      38.277  29.776  27.676  1.00  0.00     0.010 A 
ATOM     31  C   UNL A   1      38.616  29.221  28.919  1.00  0.00    -0.014 A 
BRANCH  31  32
ATOM     32  C   UNL A   1      40.024  28.855  29.221  1.00  0.00     0.031 A 
ATOM     33  C   UNL A   1      40.879  29.761  30.063  1.00  0.00     0.074 A 
ATOM     34  C   UNL A   1      40.548  27.715  28.733  1.00  0.00     0.049 A 
ATOM     35  N   UNL A   1      42.147  29.651  30.374  1.00  0.00    -0.248 NA
ATOM     36  C   UNL A   1      40.226  30.956  30.619  1.00  0.00     0.031 C 
ATOM     37  C   UNL A   1      39.842  26.748  27.896  1.00  0.00     0.029 A 
ATOM     38  N   UNL A   1      41.805  27.181  28.877  1.00  0.00    -0.354 N 
ATOM     39  C   UNL A   1      42.452  30.777  31.125  1.00  0.00     0.074 A 
ATOM     40  C   UNL A   1      41.236  31.556  31.234  1.00  0.00     0.031 C 
ATOM     41  C   UNL A   1      40.669  25.726  27.616  1.00  0.00     0.029 A 
ATOM     42  C   UNL A   1      41.966  25.978  28.237  1.00  0.00     0.049 A 
ATOM     43  H   UNL A   1      42.522  27.618  29.391  1.00  0.00     0.167 HD
ATOM     44  C   UNL A   1      43.638  31.134  31.671  1.00  0.00     0.037 A 
ATOM     45  C   UNL A   1      43.041  25.171  28.157  1.00  0.00     0.037 A 
ATOM     46  C   UNL A   1      44.841  30.350  31.620  1.00  0.00     0.049 A 
ATOM     47  C   UNL A   1      44.325  25.555  28.834  1.00  0.00     0.074 A 
ATOM     48  C   UNL A   1      46.083  30.632  32.165  1.00  0.00     0.029 A 
ATOM     49  N   UNL A   1      44.948  29.117  30.998  1.00  0.00    -0.354 N 
ATOM     50  N   UNL A   1      44.603  26.631  29.524  1.00  0.00    -0.248 NA
ATOM     51  C   UNL A   1      45.445  24.608  28.715  1.00  0.00     0.031 C 
ATOM     52  C   UNL A   1      46.942  29.565  31.876  1.00  0.00     0.029 A 
ATOM     53  C   UNL A   1      46.232  28.620  31.154  1.00  0.00     0.049 A 
ATOM     54  H   UNL A   1      44.220  28.661  30.517  1.00  0.00     0.167 HD
ATOM     55  C   UNL A   1      45.924  26.496  29.922  1.00  0.00     0.074 A 
ATOM     56  C   UNL A   1      46.394  25.227  29.406  1.00  0.00     0.031 C 
ATOM     57  C   UNL A   1      46.681  27.354  30.644  1.00  0.00     0.037 A 
BRANCH  44  58
ATOM     58  C   UNL A   1      43.694  32.454  32.370  1.00  0.00     0.064 A 
ATOM     59  C   UNL A   1      43.451  32.560  33.745  1.00  0.00     0.173 A 
ATOM     60  C   UNL A   1      44.027  33.616  31.661  1.00  0.00     0.173 A 
ATOM     61  F   UNL A   1      43.118  31.473  34.457  1.00  0.00    -0.203 F 
ATOM     62  C   UNL A   1      43.531  33.792  34.388  1.00  0.00     0.198 A 
ATOM     63  C   UNL A   1      44.114  34.844  32.309  1.00  0.00     0.198 A 
ATOM     64  F   UNL A   1      44.264  33.559  30.342  1.00  0.00    -0.203 F 
ATOM     65  F   UNL A   1      43.278  33.878  35.701  1.00  0.00    -0.200 F 
ATOM     66  C   UNL A   1      43.865  34.932  33.670  1.00  0.00     0.200 A 
ATOM     67  F   UNL A   1      44.434  35.946  31.615  1.00  0.00    -0.200 F 
ATOM     68  F   UNL A   1      43.941  36.117  34.291  1.00  0.00    -0.200 F 
ENDBRANCH  44  58
BRANCH  45  69
ATOM     69  C   UNL A   1      42.940  23.897  27.411  1.00  0.00     0.064 A 
ATOM     70  C   UNL A   1      43.230  23.847  26.043  1.00  0.00     0.173 A 
ATOM     71  C   UNL A   1      42.557  22.712  28.052  1.00  0.00     0.173 A 
ATOM     72  F   UNL A   1      43.580  24.965  25.391  1.00  0.00    -0.203 F 
ATOM     73  C   UNL A   1      43.141  22.650  25.337  1.00  0.00     0.198 A 
ATOM     74  C   UNL A   1      42.474  21.515  27.346  1.00  0.00     0.198 A 
ATOM     75  F   UNL A   1      42.262  22.722  29.359  1.00  0.00    -0.203 F 
ATOM     76  F   UNL A   1      43.406  22.627  24.024  1.00  0.00    -0.200 F 
ATOM     77  C   UNL A   1      42.764  21.485  25.990  1.00  0.00     0.200 A 
ATOM     78  F   UNL A   1      42.109  20.391  27.977  1.00  0.00    -0.200 F 
ATOM     79  F   UNL A   1      42.675  20.334  25.310  1.00  0.00    -0.200 F 
ENDBRANCH  45  69
BRANCH  57  80
ATOM     80  C   UNL A   1      48.091  26.947  30.928  1.00  0.00     0.064 A 
ATOM     81  C   UNL A   1      48.398  26.125  32.020  1.00  0.00     0.173 A 
ATOM     82  C   UNL A   1      49.135  27.349  30.084  1.00  0.00     0.173 A 
ATOM     83  F   UNL A   1      47.429  25.729  32.859  1.00  0.00    -0.203 F 
ATOM     84  C   UNL A   1      49.707  25.721  32.261  1.00  0.00     0.198 A 
ATOM     85  C   UNL A   1      50.443  26.939  30.325  1.00  0.00     0.198 A 
ATOM     86  F   UNL A   1      48.885  28.141  29.031  1.00  0.00    -0.203 F 
ATOM     87  F   UNL A   1      49.985  24.945  33.319  1.00  0.00    -0.200 F 
ATOM     88  C   UNL A   1      50.728  26.126  31.413  1.00  0.00     0.200 A 
ATOM     89  F   UNL A   1      51.431  27.334  29.509  1.00  0.00    -0.200 F 
ATOM     90  F   UNL A   1      51.989  25.737  31.649  1.00  0.00    -0.200 F 
ENDBRANCH  57  80
ENDBRANCH  31  32
ENDBRANCH  23  26
ENDBRANCH  21  22
ENDBRANCH  20  21
ENDBRANCH   1  20
TORSDOF 15
ENDMDL
MODEL 2
REMARK VINA RESULT:     -10.6      3.205      8.137
REMARK SMILES C#CCN(CC(=O)NCCCNC(=O)c1ccc(-c2c3nc(c(-c4c(F)c(F)c(F)c(F)c4F)c4ccc([nH]4)c(-c4c(F)c(F)c(F)c(F)c4F)c4nc(c(-c5c(F)c(F)c(F)c(F)c5F)c5ccc2[nH]5)C=C4)C=C3)cc1)C(=O)c1cc(C)c(C)s1
REMARK SMILES IDX 9 1 8 2 6 3 7 4 5 6 4 7 3 8 2 9 1 10 78 11 79 12 80 13 81 14
REMARK SMILES IDX 86 15 82 16 84 17 83 18 85 19 10 20 11 21 12 22 13 23 14 25
REMARK SMILES IDX 15 26 16 27 77 28 17 29 76 30 18 31 19 32 20 33 70 34 21 35
REMARK SMILES IDX 75 36 69 37 71 38 22 39 74 40 68 41 67 42 23 44 55 45 35 46
REMARK SMILES IDX 54 47 36 48 39 49 53 50 72 51 37 52 38 53 52 55 73 56 40 57
REMARK SMILES IDX 24 58 25 59 33 60 26 61 27 62 31 63 34 64 28 65 29 66 32 67
REMARK SMILES IDX 30 68 56 69 57 70 65 71 58 72 59 73 63 74 66 75 60 76 61 77
REMARK SMILES IDX 64 78 62 79 41 80 42 81 50 82 43 83 44 84 48 85 51 86 45 87
REMARK SMILES IDX 46 88 49 89 47 90
REMARK H PARENT 8 5 12 24 71 43 39 54
REMARK Flexibility Score: inf
ROOT
ATOM      1  C   UNL A   1      32.510  26.777  26.516  1.00  0.00     0.117 C 
ENDROOT
BRANCH   1   2
ATOM      2  N   UNL A   1      31.547  25.718  26.742  1.00  0.00    -0.354 N 
ATOM      3  C   UNL A   1      31.659  24.363  26.627  1.00  0.00     0.239 C 
ATOM      4  O   UNL A   1      30.809  23.694  27.225  1.00  0.00    -0.273 OA
ATOM      5  H   UNL A   1      30.659  26.030  27.029  1.00  0.00     0.163 HD
BRANCH   3   6
ATOM      6  C   UNL A   1      32.841  23.669  25.925  1.00  0.00     0.220 C 
BRANCH   6   7
ATOM      7  N   UNL A   1      32.647  23.374  24.505  1.00  0.00    -0.318 N 
BRANCH   7   8
ATOM      8  C   UNL A   1      33.444  22.320  23.909  1.00  0.00     0.210 C 
BRANCH   8   9
ATOM      9  C   UNL A   1      34.878  22.746  23.640  1.00  0.00    -0.085 C 
ATOM     10  C   UNL A   1      36.108  23.111  23.408  1.00  0.00     0.006 C 
ENDBRANCH   8   9
ENDBRANCH   7   8
BRANCH   7  11
ATOM     11  C   UNL A   1      31.663  23.976  23.710  1.00  0.00     0.265 C 
ATOM     12  O   UNL A   1      30.649  23.356  23.383  1.00  0.00    -0.268 OA
BRANCH  11  13
ATOM     13  C   UNL A   1      31.884  25.341  23.283  1.00  0.00     0.093 A 
ATOM     14  C   UNL A   1      33.051  25.957  22.881  1.00  0.00     0.029 A 
ATOM     15  S   UNL A   1      30.550  26.397  23.185  1.00  0.00    -0.135 S 
ATOM     16  C   UNL A   1      32.865  27.343  22.564  1.00  0.00    -0.037 A 
ATOM     17  C   UNL A   1      31.530  27.702  22.668  1.00  0.00     0.005 A 
ATOM     18  C   UNL A   1      33.973  28.263  22.170  1.00  0.00     0.045 C 
ATOM     19  C   UNL A   1      30.907  29.034  22.403  1.00  0.00     0.056 C 
ENDBRANCH  11  13
ENDBRANCH   7  11
ENDBRANCH   6   7
ENDBRANCH   3   6
ENDBRANCH   1   2
BRANCH   1  20
ATOM     20  C   UNL A   1      31.895  28.159  26.297  1.00  0.00     0.042 C 
BRANCH  20  21
ATOM     21  C   UNL A   1      32.814  29.207  25.675  1.00  0.00     0.118 C 
BRANCH  21  22
ATOM     22  N   UNL A   1      32.484  30.561  26.081  1.00  0.00    -0.352 N 
ATOM     23  C   UNL A   1      33.070  31.413  26.981  1.00  0.00     0.251 C 
ATOM     24  H   UNL A   1      31.695  30.936  25.626  1.00  0.00     0.163 HD
ATOM     25  O   UNL A   1      32.484  32.460  27.256  1.00  0.00    -0.269 OA
BRANCH  23  26
ATOM     26  C   UNL A   1      34.371  31.128  27.638  1.00  0.00     0.039 A 
ATOM     27  C   UNL A   1      34.605  29.818  28.079  1.00  0.00     0.014 A 
ATOM     28  C   UNL A   1      35.304  32.124  27.942  1.00  0.00     0.014 A 
ATOM     29  C   UNL A   1      35.766  29.501  28.790  1.00  0.00     0.010 A 
ATOM     30  C   UNL A   1      36.488  31.800  28.616  1.00  0.00     0.010 A 
ATOM     31  C   UNL A   1      36.723  30.489  29.060  1.00  0.00    -0.014 A 
BRANCH  31  32
ATOM     32  C   UNL A   1      37.937  30.170  29.853  1.00  0.00     0.031 A 
ATOM     33  C   UNL A   1      39.010  29.289  29.275  1.00  0.00     0.074 A 
ATOM     34  C   UNL A   1      38.081  30.658  31.099  1.00  0.00     0.049 A 
ATOM     35  N   UNL A   1      40.105  28.839  29.837  1.00  0.00    -0.248 NA
ATOM     36  C   UNL A   1      38.823  28.845  27.886  1.00  0.00     0.031 C 
ATOM     37  C   UNL A   1      37.120  31.514  31.790  1.00  0.00     0.029 A 
ATOM     38  N   UNL A   1      39.101  30.499  32.005  1.00  0.00    -0.354 N 
ATOM     39  C   UNL A   1      40.713  28.030  28.889  1.00  0.00     0.074 A 
ATOM     40  C   UNL A   1      39.874  28.056  27.708  1.00  0.00     0.031 C 
ATOM     41  C   UNL A   1      37.603  31.823  33.005  1.00  0.00     0.029 A 
ATOM     42  C   UNL A   1      38.897  31.169  33.184  1.00  0.00     0.049 A 
ATOM     43  H   UNL A   1      39.902  29.955  31.826  1.00  0.00     0.167 HD
ATOM     44  C   UNL A   1      41.865  27.326  28.991  1.00  0.00     0.037 A 
ATOM     45  C   UNL A   1      39.666  31.247  34.286  1.00  0.00     0.037 A 
ATOM     46  C   UNL A   1      42.738  27.329  30.132  1.00  0.00     0.049 A 
ATOM     47  C   UNL A   1      40.975  30.514  34.347  1.00  0.00     0.074 A 
ATOM     48  C   UNL A   1      43.936  26.656  30.308  1.00  0.00     0.029 A 
ATOM     49  N   UNL A   1      42.515  28.058  31.288  1.00  0.00    -0.354 N 
ATOM     50  N   UNL A   1      41.527  29.738  33.449  1.00  0.00    -0.248 NA
ATOM     51  C   UNL A   1      41.764  30.666  35.580  1.00  0.00     0.031 C 
ATOM     52  C   UNL A   1      44.440  26.981  31.573  1.00  0.00     0.029 A 
ATOM     53  C   UNL A   1      43.557  27.859  32.179  1.00  0.00     0.049 A 
ATOM     54  H   UNL A   1      41.732  28.633  31.452  1.00  0.00     0.167 HD
ATOM     55  C   UNL A   1      42.724  29.310  34.003  1.00  0.00     0.074 A 
ATOM     56  C   UNL A   1      42.827  29.919  35.312  1.00  0.00     0.031 C 
ATOM     57  C   UNL A   1      43.650  28.478  33.472  1.00  0.00     0.037 A 
BRANCH  44  58
ATOM     58  C   UNL A   1      42.243  26.470  27.825  1.00  0.00     0.064 A 
ATOM     59  C   UNL A   1      41.692  25.194  27.650  1.00  0.00     0.173 A 
ATOM     60  C   UNL A   1      43.139  26.946  26.859  1.00  0.00     0.173 A 
ATOM     61  F   UNL A   1      40.839  24.697  28.559  1.00  0.00    -0.203 F 
ATOM     62  C   UNL A   1      42.034  24.418  26.547  1.00  0.00     0.198 A 
ATOM     63  C   UNL A   1      43.472  26.170  25.753  1.00  0.00     0.198 A 
ATOM     64  F   UNL A   1      43.692  28.161  26.990  1.00  0.00    -0.203 F 
ATOM     65  F   UNL A   1      41.511  23.192  26.404  1.00  0.00    -0.200 F 
ATOM     66  C   UNL A   1      42.921  24.907  25.598  1.00  0.00     0.200 A 
ATOM     67  F   UNL A   1      44.330  26.642  24.838  1.00  0.00    -0.200 F 
ATOM     68  F   UNL A   1      43.250  24.157  24.537  1.00  0.00    -0.200 F 
ENDBRANCH  44  58
BRANCH  45  69
ATOM     69  C   UNL A   1      39.218  32.073  35.430  1.00  0.00     0.064 A 
ATOM     70  C   UNL A   1      39.582  33.422  35.521  1.00  0.00     0.173 A 
ATOM     71  C   UNL A   1      38.418  31.532  36.444  1.00  0.00     0.173 A 
ATOM     72  F   UNL A   1      40.364  33.969  34.580  1.00  0.00    -0.203 F 
ATOM     73  C   UNL A   1      39.160  34.204  36.593  1.00  0.00     0.198 A 
ATOM     74  C   UNL A   1      37.992  32.317  37.512  1.00  0.00     0.198 A 
ATOM     75  F   UNL A   1      38.057  30.242  36.395  1.00  0.00    -0.203 F 
ATOM     76  F   UNL A   1      39.534  35.488  36.671  1.00  0.00    -0.200 F 
ATOM     77  C   UNL A   1      38.364  33.651  37.586  1.00  0.00     0.200 A 
ATOM     78  F   UNL A   1      37.226  31.782  38.470  1.00  0.00    -0.200 F 
ATOM     79  F   UNL A   1      37.961  34.404  38.618  1.00  0.00    -0.200 F 
ENDBRANCH  45  69
BRANCH  57  80
ATOM     80  C   UNL A   1      44.858  28.185  34.302  1.00  0.00     0.064 A 
ATOM     81  C   UNL A   1      44.884  27.090  35.176  1.00  0.00     0.173 A 
ATOM     82  C   UNL A   1      46.007  28.981  34.198  1.00  0.00     0.173 A 
ATOM     83  F   UNL A   1      43.800  26.312  35.313  1.00  0.00    -0.203 F 
ATOM     84  C   UNL A   1      46.023  26.802  35.923  1.00  0.00     0.198 A 
ATOM     85  C   UNL A   1      47.145  28.687  34.943  1.00  0.00     0.198 A 
ATOM     86  F   UNL A   1      46.021  30.042  33.379  1.00  0.00    -0.203 F 
ATOM     87  F   UNL A   1      46.025  25.758  36.763  1.00  0.00    -0.200 F 
ATOM     88  C   UNL A   1      47.152  27.599  35.804  1.00  0.00     0.200 A 
ATOM     89  F   UNL A   1      48.236  29.459  34.833  1.00  0.00    -0.200 F 
ATOM     90  F   UNL A   1      48.247  27.321  36.526  1.00  0.00    -0.200 F 
ENDBRANCH  57  80
ENDBRANCH  31  32
ENDBRANCH  23  26
ENDBRANCH  21  22
ENDBRANCH  20  21
ENDBRANCH   1  20
TORSDOF 15
ENDMDL
MODEL 3
REMARK VINA RESULT:     -10.6      4.169      9.623
REMARK SMILES C#CCN(CC(=O)NCCCNC(=O)c1ccc(-c2c3nc(c(-c4c(F)c(F)c(F)c(F)c4F)c4ccc([nH]4)c(-c4c(F)c(F)c(F)c(F)c4F)c4nc(c(-c5c(F)c(F)c(F)c(F)c5F)c5ccc2[nH]5)C=C4)C=C3)cc1)C(=O)c1cc(C)c(C)s1
REMARK SMILES IDX 9 1 8 2 6 3 7 4 5 6 4 7 3 8 2 9 1 10 78 11 79 12 80 13 81 14
REMARK SMILES IDX 86 15 82 16 84 17 83 18 85 19 10 20 11 21 12 22 13 23 14 25
REMARK SMILES IDX 15 26 16 27 77 28 17 29 76 30 18 31 19 32 20 33 70 34 21 35
REMARK SMILES IDX 75 36 69 37 71 38 22 39 74 40 68 41 67 42 23 44 55 45 35 46
REMARK SMILES IDX 54 47 36 48 39 49 53 50 72 51 37 52 38 53 52 55 73 56 40 57
REMARK SMILES IDX 24 58 25 59 33 60 26 61 27 62 31 63 34 64 28 65 29 66 32 67
REMARK SMILES IDX 30 68 56 69 57 70 65 71 58 72 59 73 63 74 66 75 60 76 61 77
REMARK SMILES IDX 64 78 62 79 41 80 42 81 50 82 43 83 44 84 48 85 51 86 45 87
REMARK SMILES IDX 46 88 49 89 47 90
REMARK H PARENT 8 5 12 24 71 43 39 54
REMARK Flexibility Score: inf
ROOT
ATOM      1  C   UNL A   1      31.408  30.814  25.947  1.00  0.00     0.117 C 
ENDROOT
BRANCH   1   2
ATOM      2  N   UNL A   1      32.213  29.923  26.758  1.00  0.00    -0.354 N 
ATOM      3  C   UNL A   1      33.229  29.076  26.425  1.00  0.00     0.239 C 
ATOM      4  O   UNL A   1      33.968  28.719  27.349  1.00  0.00    -0.273 OA
ATOM      5  H   UNL A   1      31.988  29.930  27.716  1.00  0.00     0.163 HD
BRANCH   3   6
ATOM      6  C   UNL A   1      33.558  28.682  24.972  1.00  0.00     0.220 C 
BRANCH   6   7
ATOM      7  N   UNL A   1      32.890  27.477  24.478  1.00  0.00    -0.318 N 
BRANCH   7   8
ATOM      8  C   UNL A   1      32.744  26.356  25.384  1.00  0.00     0.210 C 
BRANCH   8   9
ATOM      9  C   UNL A   1      33.940  25.417  25.360  1.00  0.00    -0.085 C 
ATOM     10  C   UNL A   1      34.965  24.612  25.340  1.00  0.00     0.006 C 
ENDBRANCH   8   9
ENDBRANCH   7   8
BRANCH   7  11
ATOM     11  C   UNL A   1      32.290  27.379  23.216  1.00  0.00     0.265 C 
ATOM     12  O   UNL A   1      32.801  26.701  22.325  1.00  0.00    -0.268 OA
BRANCH  11  13
ATOM     13  C   UNL A   1      31.059  28.109  22.998  1.00  0.00     0.093 A 
ATOM     14  C   UNL A   1      30.859  29.331  22.392  1.00  0.00     0.029 A 
ATOM     15  S   UNL A   1      29.587  27.400  23.485  1.00  0.00    -0.135 S 
ATOM     16  C   UNL A   1      29.482  29.735  22.400  1.00  0.00    -0.037 A 
ATOM     17  C   UNL A   1      28.679  28.749  22.951  1.00  0.00     0.005 A 
ATOM     18  C   UNL A   1      28.994  31.044  21.874  1.00  0.00     0.045 C 
ATOM     19  C   UNL A   1      27.195  28.755  23.125  1.00  0.00     0.056 C 
ENDBRANCH  11  13
ENDBRANCH   7  11
ENDBRANCH   6   7
ENDBRANCH   3   6
ENDBRANCH   1   2
BRANCH   1  20
ATOM     20  C   UNL A   1      31.306  32.242  26.483  1.00  0.00     0.042 C 
BRANCH  20  21
ATOM     21  C   UNL A   1      32.546  32.777  27.195  1.00  0.00     0.118 C 
BRANCH  21  22
ATOM     22  N   UNL A   1      32.414  34.166  27.594  1.00  0.00    -0.352 N 
ATOM     23  C   UNL A   1      33.007  34.888  28.598  1.00  0.00     0.251 C 
ATOM     24  H   UNL A   1      31.784  34.685  27.043  1.00  0.00     0.163 HD
ATOM     25  O   UNL A   1      32.589  36.024  28.821  1.00  0.00    -0.269 OA
BRANCH  23  26
ATOM     26  C   UNL A   1      34.122  34.360  29.426  1.00  0.00     0.039 A 
ATOM     27  C   UNL A   1      35.425  34.494  28.927  1.00  0.00     0.014 A 
ATOM     28  C   UNL A   1      33.916  33.634  30.604  1.00  0.00     0.014 A 
ATOM     29  C   UNL A   1      36.511  33.935  29.607  1.00  0.00     0.010 A 
ATOM     30  C   UNL A   1      35.008  33.111  31.309  1.00  0.00     0.010 A 
ATOM     31  C   UNL A   1      36.312  33.243  30.809  1.00  0.00    -0.014 A 
BRANCH  31  32
ATOM     32  C   UNL A   1      37.456  32.608  31.515  1.00  0.00     0.031 A 
ATOM     33  C   UNL A   1      38.231  31.501  30.857  1.00  0.00     0.074 A 
ATOM     34  C   UNL A   1      37.799  33.013  32.751  1.00  0.00     0.049 A 
ATOM     35  N   UNL A   1      39.210  30.776  31.338  1.00  0.00    -0.248 NA
ATOM     36  C   UNL A   1      37.847  31.153  29.480  1.00  0.00     0.031 C 
ATOM     37  C   UNL A   1      37.132  34.067  33.514  1.00  0.00     0.029 A 
ATOM     38  N   UNL A   1      38.801  32.580  33.583  1.00  0.00    -0.354 N 
ATOM     39  C   UNL A   1      39.531  29.863  30.344  1.00  0.00     0.074 A 
ATOM     40  C   UNL A   1      38.651  30.129  29.225  1.00  0.00     0.031 C 
ATOM     41  C   UNL A   1      37.756  34.213  34.695  1.00  0.00     0.029 A 
ATOM     42  C   UNL A   1      38.851  33.251  34.779  1.00  0.00     0.049 A 
ATOM     43  H   UNL A   1      39.426  31.856  33.345  1.00  0.00     0.167 HD
ATOM     44  C   UNL A   1      40.470  28.889  30.361  1.00  0.00     0.037 A 
ATOM     45  C   UNL A   1      39.685  33.105  35.826  1.00  0.00     0.037 A 
ATOM     46  C   UNL A   1      41.388  28.643  31.439  1.00  0.00     0.049 A 
ATOM     47  C   UNL A   1      40.766  32.064  35.790  1.00  0.00     0.074 A 
ATOM     48  C   UNL A   1      42.385  27.686  31.526  1.00  0.00     0.029 A 
ATOM     49  N   UNL A   1      41.433  29.376  32.613  1.00  0.00    -0.354 N 
ATOM     50  N   UNL A   1      41.045  31.197  34.850  1.00  0.00    -0.248 NA
ATOM     51  C   UNL A   1      41.647  31.982  36.966  1.00  0.00     0.031 C 
ATOM     52  C   UNL A   1      43.037  27.842  32.756  1.00  0.00     0.029 A 
ATOM     53  C   UNL A   1      42.446  28.899  33.429  1.00  0.00     0.049 A 
ATOM     54  H   UNL A   1      40.833  30.125  32.836  1.00  0.00     0.167 HD
ATOM     55  C   UNL A   1      42.128  30.467  35.316  1.00  0.00     0.074 A 
ATOM     56  C   UNL A   1      42.466  30.998  36.621  1.00  0.00     0.031 C 
ATOM     57  C   UNL A   1      42.777  29.442  34.717  1.00  0.00     0.037 A 
BRANCH  44  58
ATOM     58  C   UNL A   1      40.543  27.995  29.165  1.00  0.00     0.064 A 
ATOM     59  C   UNL A   1      41.431  28.256  28.115  1.00  0.00     0.173 A 
ATOM     60  C   UNL A   1      39.738  26.850  29.087  1.00  0.00     0.173 A 
ATOM     61  F   UNL A   1      42.210  29.347  28.145  1.00  0.00    -0.203 F 
ATOM     62  C   UNL A   1      41.507  27.401  27.019  1.00  0.00     0.198 A 
ATOM     63  C   UNL A   1      39.822  25.994  27.994  1.00  0.00     0.198 A 
ATOM     64  F   UNL A   1      38.871  26.566  30.070  1.00  0.00    -0.203 F 
ATOM     65  F   UNL A   1      42.350  27.675  26.014  1.00  0.00    -0.200 F 
ATOM     66  C   UNL A   1      40.704  26.270  26.960  1.00  0.00     0.200 A 
ATOM     67  F   UNL A   1      39.045  24.903  27.937  1.00  0.00    -0.200 F 
ATOM     68  F   UNL A   1      40.777  25.449  25.904  1.00  0.00    -0.200 F 
ENDBRANCH  44  58
BRANCH  45  69
ATOM     69  C   UNL A   1      39.536  33.988  37.004  1.00  0.00     0.064 A 
ATOM     70  C   UNL A   1      38.783  33.580  38.111  1.00  0.00     0.173 A 
ATOM     71  C   UNL A   1      40.143  35.249  37.044  1.00  0.00     0.173 A 
ATOM     72  F   UNL A   1      38.169  32.387  38.100  1.00  0.00    -0.203 F 
ATOM     73  C   UNL A   1      38.642  34.405  39.223  1.00  0.00     0.198 A 
ATOM     74  C   UNL A   1      40.007  36.072  38.159  1.00  0.00     0.198 A 
ATOM     75  F   UNL A   1      40.864  35.679  35.998  1.00  0.00    -0.203 F 
ATOM     76  F   UNL A   1      37.904  34.003  40.266  1.00  0.00    -0.200 F 
ATOM     77  C   UNL A   1      39.256  35.650  39.247  1.00  0.00     0.200 A 
ATOM     78  F   UNL A   1      40.598  37.273  38.179  1.00  0.00    -0.200 F 
ATOM     79  F   UNL A   1      39.118  36.445  40.315  1.00  0.00    -0.200 F 
ENDBRANCH  45  69
BRANCH  57  80
ATOM     80  C   UNL A   1      43.922  28.834  35.459  1.00  0.00     0.064 A 
ATOM     81  C   UNL A   1      45.233  29.285  35.255  1.00  0.00     0.173 A 
ATOM     82  C   UNL A   1      43.706  27.822  36.403  1.00  0.00     0.173 A 
ATOM     83  F   UNL A   1      45.484  30.244  34.351  1.00  0.00    -0.203 F 
ATOM     84  C   UNL A   1      46.294  28.739  35.973  1.00  0.00     0.198 A 
ATOM     85  C   UNL A   1      44.768  27.281  37.122  1.00  0.00     0.198 A 
ATOM     86  F   UNL A   1      42.468  27.357  36.623  1.00  0.00    -0.203 F 
ATOM     87  F   UNL A   1      47.543  29.174  35.756  1.00  0.00    -0.200 F 
ATOM     88  C   UNL A   1      46.060  27.739  36.906  1.00  0.00     0.200 A 
ATOM     89  F   UNL A   1      44.545  26.311  38.021  1.00  0.00    -0.200 F 
ATOM     90  F   UNL A   1      47.083  27.213  37.595  1.00  0.00    -0.200 F 
ENDBRANCH  57  80
ENDBRANCH  31  32
ENDBRANCH  23  26
ENDBRANCH  21  22
ENDBRANCH  20  21
ENDBRANCH   1  20
TORSDOF 15
ENDMDL
