MODEL 1
REMARK VINA RESULT:     -11.6      0.000      0.000
REMARK SMILES CC[NH2+][C@H](CC[N@@H+](C)C1CCC(C)(C)CC1)C(=O)NCCCNC(=O)c1ccc(-c2c3nc(c(-c4c(F)c(F)c(F)c(F)c4F)c4ccc([nH]4)c(-c4c(F)c(F)c(F)c(F)c4F)c4nc(c(-c5c(F)c(F)c(F)c(F)c5F)c5ccc2[nH]5)C=C4)C=C3)cc1
REMARK SMILES IDX 20 1 19 2 17 3 18 4 4 6 3 7 2 10 1 11 5 12 6 13 7 14 8 15
REMARK SMILES IDX 9 17 10 18 16 19 11 20 15 21 12 22 13 23 14 24 21 25 22 26
REMARK SMILES IDX 23 27 24 28 25 30 26 31 27 32 88 33 28 34 87 35 29 36 30 37
REMARK SMILES IDX 31 38 81 39 32 40 86 41 80 42 82 43 33 44 85 45 79 46 78 47
REMARK SMILES IDX 34 49 66 50 46 51 65 52 47 53 50 54 64 55 83 56 48 57 49 58
REMARK SMILES IDX 63 60 84 61 51 62 35 63 36 64 44 65 37 66 38 67 42 68 45 69
REMARK SMILES IDX 39 70 40 71 43 72 41 73 67 74 68 75 76 76 69 77 70 78 74 79
REMARK SMILES IDX 77 80 71 81 72 82 75 83 73 84 52 85 53 86 61 87 54 88 55 89
REMARK SMILES IDX 59 90 62 91 56 92 57 93 60 94 58 95
REMARK H PARENT 19 5 3 8 3 9 7 16 23 29 82 48 50 59
REMARK Flexibility Score: inf
ROOT
ATOM      1  C   UNL A   1      31.786  30.633  26.103  1.00  0.00     0.118 C 
ENDROOT
BRANCH   1   2
ATOM      2  N   UNL A   1      31.679  29.675  27.195  1.00  0.00    -0.351 N 
ATOM      3  C   UNL A   1      31.616  28.308  27.148  1.00  0.00     0.278 C 
ATOM      4  O   UNL A   1      31.484  27.694  28.210  1.00  0.00    -0.268 OA
ATOM      5  H   UNL A   1      31.648  30.066  28.097  1.00  0.00     0.163 HD
BRANCH   3   6
ATOM      6  C   UNL A   1      31.723  27.565  25.784  1.00  0.00     0.278 C 
BRANCH   6   7
ATOM      7  N   UNL A   1      30.587  26.599  25.752  1.00  0.00    -0.336 N 
ATOM      8  H   UNL A   1      30.946  25.684  26.025  1.00  0.00     0.346 HD
ATOM      9  H   UNL A   1      29.885  26.977  26.389  1.00  0.00     0.346 HD
BRANCH   7  10
ATOM     10  C   UNL A   1      29.916  26.449  24.471  1.00  0.00     0.257 C 
ATOM     11  C   UNL A   1      30.217  25.107  23.825  1.00  0.00     0.071 C 
ENDBRANCH   7  10
ENDBRANCH   6   7
BRANCH   6  12
ATOM     12  C   UNL A   1      33.202  27.086  25.678  1.00  0.00     0.137 C 
BRANCH  12  13
ATOM     13  C   UNL A   1      33.925  26.944  24.327  1.00  0.00     0.269 C 
BRANCH  13  14
ATOM     14  N   UNL A   1      33.682  25.729  23.516  1.00  0.00    -0.335 N 
ATOM     15  C   UNL A   1      33.369  26.103  22.138  1.00  0.00     0.332 C 
ATOM     16  H   UNL A   1      32.853  25.299  23.926  1.00  0.00     0.348 HD
BRANCH  14  17
ATOM     17  C   UNL A   1      34.576  24.559  23.694  1.00  0.00     0.183 C 
ATOM     18  C   UNL A   1      34.857  24.041  25.132  1.00  0.00     0.065 C 
ATOM     19  C   UNL A   1      34.227  23.312  22.888  1.00  0.00     0.065 C 
ATOM     20  C   UNL A   1      33.749  23.160  25.748  1.00  0.00     0.012 C 
ATOM     21  C   UNL A   1      32.972  22.623  23.396  1.00  0.00     0.012 C 
ATOM     22  C   UNL A   1      33.158  22.073  24.814  1.00  0.00    -0.035 C 
ATOM     23  C   UNL A   1      31.777  21.632  25.334  1.00  0.00     0.011 C 
ATOM     24  C   UNL A   1      34.068  20.831  24.756  1.00  0.00     0.011 C 
ENDBRANCH  14  17
ENDBRANCH  13  14
ENDBRANCH  12  13
ENDBRANCH   6  12
ENDBRANCH   3   6
ENDBRANCH   1   2
BRANCH   1  25
ATOM     25  C   UNL A   1      31.482  32.053  26.557  1.00  0.00     0.042 C 
BRANCH  25  26
ATOM     26  C   UNL A   1      32.614  32.686  27.343  1.00  0.00     0.118 C 
BRANCH  26  27
ATOM     27  N   UNL A   1      32.381  34.102  27.595  1.00  0.00    -0.352 N 
ATOM     28  C   UNL A   1      32.948  34.929  28.529  1.00  0.00     0.251 C 
ATOM     29  H   UNL A   1      31.716  34.528  27.007  1.00  0.00     0.163 HD
ATOM     30  O   UNL A   1      32.447  36.027  28.764  1.00  0.00    -0.269 OA
BRANCH  28  31
ATOM     31  C   UNL A   1      34.146  34.490  29.270  1.00  0.00     0.039 A 
ATOM     32  C   UNL A   1      33.989  33.925  30.537  1.00  0.00     0.014 A 
ATOM     33  C   UNL A   1      35.421  34.624  28.712  1.00  0.00     0.014 A 
ATOM     34  C   UNL A   1      35.102  33.416  31.208  1.00  0.00     0.010 A 
ATOM     35  C   UNL A   1      36.515  34.038  29.340  1.00  0.00     0.010 A 
ATOM     36  C   UNL A   1      36.364  33.421  30.589  1.00  0.00    -0.014 A 
BRANCH  36  37
ATOM     37  C   UNL A   1      37.527  32.742  31.213  1.00  0.00     0.031 A 
ATOM     38  C   UNL A   1      38.177  31.569  30.535  1.00  0.00     0.074 A 
ATOM     39  C   UNL A   1      37.941  33.140  32.433  1.00  0.00     0.049 A 
ATOM     40  N   UNL A   1      39.148  30.804  30.964  1.00  0.00    -0.248 NA
ATOM     41  C   UNL A   1      37.658  31.193  29.211  1.00  0.00     0.031 C 
ATOM     42  C   UNL A   1      37.351  34.233  33.211  1.00  0.00     0.029 A 
ATOM     43  N   UNL A   1      38.941  32.663  33.243  1.00  0.00    -0.354 N 
ATOM     44  C   UNL A   1      39.343  29.850  29.974  1.00  0.00     0.074 A 
ATOM     45  C   UNL A   1      38.367  30.106  28.939  1.00  0.00     0.031 C 
ATOM     46  C   UNL A   1      38.009  34.352  34.374  1.00  0.00     0.029 A 
ATOM     47  C   UNL A   1      39.032  33.316  34.449  1.00  0.00     0.049 A 
ATOM     48  H   UNL A   1      39.538  31.924  32.984  1.00  0.00     0.167 HD
ATOM     49  C   UNL A   1      40.269  28.864  29.930  1.00  0.00     0.037 A 
ATOM     50  C   UNL A   1      39.834  33.087  35.508  1.00  0.00     0.037 A 
ATOM     51  C   UNL A   1      41.256  28.634  30.953  1.00  0.00     0.049 A 
ATOM     52  C   UNL A   1      40.834  31.963  35.433  1.00  0.00     0.074 A 
ATOM     53  C   UNL A   1      42.293  27.718  30.956  1.00  0.00     0.029 A 
ATOM     54  N   UNL A   1      41.322  29.318  32.157  1.00  0.00    -0.354 N 
ATOM     55  N   UNL A   1      41.078  31.135  34.447  1.00  0.00    -0.248 NA
ATOM     56  C   UNL A   1      41.673  31.743  36.621  1.00  0.00     0.031 C 
ATOM     57  C   UNL A   1      42.945  27.800  32.189  1.00  0.00     0.029 A 
ATOM     58  C   UNL A   1      42.354  28.810  32.931  1.00  0.00     0.049 A 
ATOM     59  H   UNL A   1      40.725  30.054  32.423  1.00  0.00     0.167 HD
ATOM     60  C   UNL A   1      42.106  30.312  34.886  1.00  0.00     0.074 A 
ATOM     61  C   UNL A   1      42.463  30.761  36.215  1.00  0.00     0.031 C 
ATOM     62  C   UNL A   1      42.697  29.271  34.251  1.00  0.00     0.037 A 
BRANCH  49  63
ATOM     63  C   UNL A   1      40.274  27.947  28.742  1.00  0.00     0.064 A 
ATOM     64  C   UNL A   1      40.997  28.252  27.580  1.00  0.00     0.173 A 
ATOM     65  C   UNL A   1      39.631  26.701  28.808  1.00  0.00     0.173 A 
ATOM     66  F   UNL A   1      41.622  29.433  27.464  1.00  0.00    -0.203 F 
ATOM     67  C   UNL A   1      41.069  27.346  26.525  1.00  0.00     0.198 A 
ATOM     68  C   UNL A   1      39.729  25.788  27.763  1.00  0.00     0.198 A 
ATOM     69  F   UNL A   1      38.930  26.359  29.900  1.00  0.00    -0.203 F 
ATOM     70  F   UNL A   1      41.747  27.668  25.414  1.00  0.00    -0.200 F 
ATOM     71  C   UNL A   1      40.447  26.111  26.622  1.00  0.00     0.200 A 
ATOM     72  F   UNL A   1      39.140  24.588  27.866  1.00  0.00    -0.200 F 
ATOM     73  F   UNL A   1      40.540  25.231  25.616  1.00  0.00    -0.200 F 
ENDBRANCH  49  63
BRANCH  50  74
ATOM     74  C   UNL A   1      39.717  33.916  36.738  1.00  0.00     0.064 A 
ATOM     75  C   UNL A   1      38.903  33.513  37.806  1.00  0.00     0.173 A 
ATOM     76  C   UNL A   1      40.376  35.149  36.851  1.00  0.00     0.173 A 
ATOM     77  F   UNL A   1      38.236  32.352  37.740  1.00  0.00    -0.203 F 
ATOM     78  C   UNL A   1      38.722  34.330  38.921  1.00  0.00     0.198 A 
ATOM     79  C   UNL A   1      40.222  35.947  37.983  1.00  0.00     0.198 A 
ATOM     80  F   UNL A   1      41.171  35.581  35.861  1.00  0.00    -0.203 F 
ATOM     81  F   UNL A   1      37.881  33.952  39.895  1.00  0.00    -0.200 F 
ATOM     82  C   UNL A   1      39.383  35.545  39.010  1.00  0.00     0.200 A 
ATOM     83  F   UNL A   1      40.879  37.112  38.072  1.00  0.00    -0.200 F 
ATOM     84  F   UNL A   1      39.203  36.333  40.078  1.00  0.00    -0.200 F 
ENDBRANCH  50  74
BRANCH  62  85
ATOM     85  C   UNL A   1      43.800  28.557  34.977  1.00  0.00     0.064 A 
ATOM     86  C   UNL A   1      43.544  27.427  35.768  1.00  0.00     0.173 A 
ATOM     87  C   UNL A   1      45.131  28.983  34.849  1.00  0.00     0.173 A 
ATOM     88  F   UNL A   1      42.287  26.991  35.936  1.00  0.00    -0.203 F 
ATOM     89  C   UNL A   1      44.577  26.765  36.425  1.00  0.00     0.198 A 
ATOM     90  C   UNL A   1      46.166  28.297  35.479  1.00  0.00     0.198 A 
ATOM     91  F   UNL A   1      45.430  30.053  34.099  1.00  0.00    -0.203 F 
ATOM     92  F   UNL A   1      44.303  25.719  37.217  1.00  0.00    -0.200 F 
ATOM     93  C   UNL A   1      45.887  27.194  36.272  1.00  0.00     0.200 A 
ATOM     94  F   UNL A   1      47.432  28.702  35.315  1.00  0.00    -0.200 F 
ATOM     95  F   UNL A   1      46.882  26.548  36.895  1.00  0.00    -0.200 F 
ENDBRANCH  62  85
ENDBRANCH  36  37
ENDBRANCH  28  31
ENDBRANCH  26  27
ENDBRANCH  25  26
ENDBRANCH   1  25
TORSDOF 16
ENDMDL
MODEL 2
REMARK VINA RESULT:     -11.5      5.782     11.190
REMARK SMILES CC[NH2+][C@H](CC[N@@H+](C)C1CCC(C)(C)CC1)C(=O)NCCCNC(=O)c1ccc(-c2c3nc(c(-c4c(F)c(F)c(F)c(F)c4F)c4ccc([nH]4)c(-c4c(F)c(F)c(F)c(F)c4F)c4nc(c(-c5c(F)c(F)c(F)c(F)c5F)c5ccc2[nH]5)C=C4)C=C3)cc1
REMARK SMILES IDX 20 1 19 2 17 3 18 4 4 6 3 7 2 10 1 11 5 12 6 13 7 14 8 15
REMARK SMILES IDX 9 17 10 18 16 19 11 20 15 21 12 22 13 23 14 24 21 25 22 26
REMARK SMILES IDX 23 27 24 28 25 30 26 31 27 32 88 33 28 34 87 35 29 36 30 37
REMARK SMILES IDX 31 38 81 39 32 40 86 41 80 42 82 43 33 44 85 45 79 46 78 47
REMARK SMILES IDX 34 49 66 50 46 51 65 52 47 53 50 54 64 55 83 56 48 57 49 58
REMARK SMILES IDX 63 60 84 61 51 62 35 63 36 64 44 65 37 66 38 67 42 68 45 69
REMARK SMILES IDX 39 70 40 71 43 72 41 73 67 74 68 75 76 76 69 77 70 78 74 79
REMARK SMILES IDX 77 80 71 81 72 82 75 83 73 84 52 85 53 86 61 87 54 88 55 89
REMARK SMILES IDX 59 90 62 91 56 92 57 93 60 94 58 95
REMARK H PARENT 19 5 3 8 3 9 7 16 23 29 82 48 50 59
REMARK Flexibility Score: inf
ROOT
ATOM      1  C   UNL A   1      36.632  20.670  25.244  1.00  0.00     0.118 C 
ENDROOT
BRANCH   1   2
ATOM      2  N   UNL A   1      35.455  19.851  24.989  1.00  0.00    -0.351 N 
ATOM      3  C   UNL A   1      34.132  20.206  24.995  1.00  0.00     0.278 C 
ATOM      4  O   UNL A   1      33.293  19.326  24.789  1.00  0.00    -0.268 OA
ATOM      5  H   UNL A   1      35.636  18.907  24.783  1.00  0.00     0.163 HD
BRANCH   3   6
ATOM      6  C   UNL A   1      33.719  21.687  25.242  1.00  0.00     0.278 C 
BRANCH   6   7
ATOM      7  N   UNL A   1      32.676  21.649  26.308  1.00  0.00    -0.336 N 
ATOM      8  H   UNL A   1      31.983  22.367  26.094  1.00  0.00     0.346 HD
ATOM      9  H   UNL A   1      32.306  20.699  26.300  1.00  0.00     0.346 HD
BRANCH   7  10
ATOM     10  C   UNL A   1      33.147  21.877  27.665  1.00  0.00     0.257 C 
ATOM     11  C   UNL A   1      34.495  22.579  27.689  1.00  0.00     0.071 C 
ENDBRANCH   7  10
ENDBRANCH   6   7
BRANCH   6  12
ATOM     12  C   UNL A   1      33.421  22.284  23.833  1.00  0.00     0.137 C 
BRANCH  12  13
ATOM     13  C   UNL A   1      33.241  23.794  23.603  1.00  0.00     0.269 C 
BRANCH  13  14
ATOM     14  N   UNL A   1      31.972  24.430  24.026  1.00  0.00    -0.335 N 
ATOM     15  C   UNL A   1      30.836  23.679  23.496  1.00  0.00     0.332 C 
ATOM     16  H   UNL A   1      31.978  25.351  23.587  1.00  0.00     0.348 HD
BRANCH  14  17
ATOM     17  C   UNL A   1      31.847  24.917  25.421  1.00  0.00     0.183 C 
ATOM     18  C   UNL A   1      33.100  25.507  26.126  1.00  0.00     0.065 C 
ATOM     19  C   UNL A   1      30.734  25.927  25.688  1.00  0.00     0.065 C 
ATOM     20  C   UNL A   1      33.444  26.965  25.755  1.00  0.00     0.012 C 
ATOM     21  C   UNL A   1      31.024  27.287  25.077  1.00  0.00     0.012 C 
ATOM     22  C   UNL A   1      32.247  27.950  25.717  1.00  0.00    -0.035 C 
ATOM     23  C   UNL A   1      32.613  29.184  24.870  1.00  0.00     0.011 C 
ATOM     24  C   UNL A   1      31.876  28.432  27.132  1.00  0.00     0.011 C 
ENDBRANCH  14  17
ENDBRANCH  13  14
ENDBRANCH  12  13
ENDBRANCH   6  12
ENDBRANCH   3   6
ENDBRANCH   1   2
BRANCH   1  25
ATOM     25  C   UNL A   1      37.921  19.946  24.885  1.00  0.00     0.042 C 
BRANCH  25  26
ATOM     26  C   UNL A   1      39.082  20.305  25.793  1.00  0.00     0.118 C 
BRANCH  26  27
ATOM     27  N   UNL A   1      40.028  19.205  25.931  1.00  0.00    -0.352 N 
ATOM     28  C   UNL A   1      41.390  19.237  26.079  1.00  0.00     0.251 C 
ATOM     29  H   UNL A   1      39.630  18.306  25.915  1.00  0.00     0.163 HD
ATOM     30  O   UNL A   1      42.051  18.212  25.925  1.00  0.00    -0.269 OA
BRANCH  28  31
ATOM     31  C   UNL A   1      42.066  20.510  26.400  1.00  0.00     0.039 A 
ATOM     32  C   UNL A   1      42.575  21.288  25.359  1.00  0.00     0.014 A 
ATOM     33  C   UNL A   1      42.187  20.941  27.725  1.00  0.00     0.014 A 
ATOM     34  C   UNL A   1      43.128  22.538  25.639  1.00  0.00     0.010 A 
ATOM     35  C   UNL A   1      42.656  22.222  27.995  1.00  0.00     0.010 A 
ATOM     36  C   UNL A   1      43.122  23.036  26.953  1.00  0.00    -0.014 A 
BRANCH  36  37
ATOM     37  C   UNL A   1      43.556  24.424  27.249  1.00  0.00     0.031 A 
ATOM     38  C   UNL A   1      42.565  25.444  27.732  1.00  0.00     0.074 A 
ATOM     39  C   UNL A   1      44.834  24.778  27.004  1.00  0.00     0.049 A 
ATOM     40  N   UNL A   1      42.742  26.720  27.964  1.00  0.00    -0.248 NA
ATOM     41  C   UNL A   1      41.188  24.979  27.964  1.00  0.00     0.031 C 
ATOM     42  C   UNL A   1      45.873  23.885  26.484  1.00  0.00     0.029 A 
ATOM     43  N   UNL A   1      45.475  25.983  27.140  1.00  0.00    -0.354 N 
ATOM     44  C   UNL A   1      41.502  27.209  28.354  1.00  0.00     0.074 A 
ATOM     45  C   UNL A   1      40.570  26.105  28.289  1.00  0.00     0.031 C 
ATOM     46  C   UNL A   1      47.021  24.568  26.361  1.00  0.00     0.029 A 
ATOM     47  C   UNL A   1      46.791  25.956  26.744  1.00  0.00     0.049 A 
ATOM     48  H   UNL A   1      45.034  26.792  27.489  1.00  0.00     0.167 HD
ATOM     49  C   UNL A   1      41.181  28.464  28.747  1.00  0.00     0.037 A 
ATOM     50  C   UNL A   1      47.702  26.946  26.672  1.00  0.00     0.037 A 
ATOM     51  C   UNL A   1      42.122  29.551  28.835  1.00  0.00     0.049 A 
ATOM     52  C   UNL A   1      47.301  28.336  27.094  1.00  0.00     0.074 A 
ATOM     53  C   UNL A   1      41.911  30.833  29.309  1.00  0.00     0.029 A 
ATOM     54  N   UNL A   1      43.447  29.484  28.432  1.00  0.00    -0.354 N 
ATOM     55  N   UNL A   1      46.152  28.761  27.559  1.00  0.00    -0.248 NA
ATOM     56  C   UNL A   1      48.326  29.384  26.979  1.00  0.00     0.031 C 
ATOM     57  C   UNL A   1      43.089  31.563  29.130  1.00  0.00     0.029 A 
ATOM     58  C   UNL A   1      44.053  30.719  28.602  1.00  0.00     0.049 A 
ATOM     59  H   UNL A   1      43.891  28.681  28.077  1.00  0.00     0.167 HD
ATOM     60  C   UNL A   1      46.322  30.116  27.810  1.00  0.00     0.074 A 
ATOM     61  C   UNL A   1      47.693  30.435  27.477  1.00  0.00     0.031 C 
ATOM     62  C   UNL A   1      45.420  31.018  28.267  1.00  0.00     0.037 A 
BRANCH  49  63
ATOM     63  C   UNL A   1      39.755  28.749  29.117  1.00  0.00     0.064 A 
ATOM     64  C   UNL A   1      39.288  28.585  30.429  1.00  0.00     0.173 A 
ATOM     65  C   UNL A   1      38.873  29.290  28.168  1.00  0.00     0.173 A 
ATOM     66  F   UNL A   1      40.089  28.064  31.371  1.00  0.00    -0.203 F 
ATOM     67  C   UNL A   1      37.988  28.946  30.776  1.00  0.00     0.198 A 
ATOM     68  C   UNL A   1      37.585  29.676  28.525  1.00  0.00     0.198 A 
ATOM     69  F   UNL A   1      39.273  29.472  26.900  1.00  0.00    -0.203 F 
ATOM     70  F   UNL A   1      37.556  28.759  32.030  1.00  0.00    -0.200 F 
ATOM     71  C   UNL A   1      37.143  29.503  29.828  1.00  0.00     0.200 A 
ATOM     72  F   UNL A   1      36.774  30.228  27.612  1.00  0.00    -0.200 F 
ATOM     73  F   UNL A   1      35.901  29.873  30.171  1.00  0.00    -0.200 F 
ENDBRANCH  49  63
BRANCH  50  74
ATOM     74  C   UNL A   1      49.074  26.675  26.165  1.00  0.00     0.064 A 
ATOM     75  C   UNL A   1      50.086  26.221  27.023  1.00  0.00     0.173 A 
ATOM     76  C   UNL A   1      49.415  26.910  24.824  1.00  0.00     0.173 A 
ATOM     77  F   UNL A   1      49.817  26.000  28.318  1.00  0.00    -0.203 F 
ATOM     78  C   UNL A   1      51.393  26.052  26.569  1.00  0.00     0.198 A 
ATOM     79  C   UNL A   1      50.715  26.705  24.364  1.00  0.00     0.198 A 
ATOM     80  F   UNL A   1      48.486  27.340  23.959  1.00  0.00    -0.203 F 
ATOM     81  F   UNL A   1      52.355  25.687  27.429  1.00  0.00    -0.200 F 
ATOM     82  C   UNL A   1      51.706  26.291  25.240  1.00  0.00     0.200 A 
ATOM     83  F   UNL A   1      51.007  26.919  23.075  1.00  0.00    -0.200 F 
ATOM     84  F   UNL A   1      52.964  26.136  24.807  1.00  0.00    -0.200 F 
ENDBRANCH  50  74
BRANCH  62  85
ATOM     85  C   UNL A   1      45.892  32.432  28.449  1.00  0.00     0.064 A 
ATOM     86  C   UNL A   1      45.756  33.386  27.429  1.00  0.00     0.173 A 
ATOM     87  C   UNL A   1      46.449  32.847  29.668  1.00  0.00     0.173 A 
ATOM     88  F   UNL A   1      45.245  33.035  26.240  1.00  0.00    -0.203 F 
ATOM     89  C   UNL A   1      46.184  34.697  27.615  1.00  0.00     0.198 A 
ATOM     90  C   UNL A   1      46.844  34.168  29.862  1.00  0.00     0.198 A 
ATOM     91  F   UNL A   1      46.596  31.976  30.677  1.00  0.00    -0.203 F 
ATOM     92  F   UNL A   1      46.091  35.579  26.610  1.00  0.00    -0.200 F 
ATOM     93  C   UNL A   1      46.718  35.089  28.834  1.00  0.00     0.200 A 
ATOM     94  F   UNL A   1      47.343  34.548  31.046  1.00  0.00    -0.200 F 
ATOM     95  F   UNL A   1      47.119  36.355  29.015  1.00  0.00    -0.200 F 
ENDBRANCH  62  85
ENDBRANCH  36  37
ENDBRANCH  28  31
ENDBRANCH  26  27
ENDBRANCH  25  26
ENDBRANCH   1  25
TORSDOF 16
ENDMDL
MODEL 3
REMARK VINA RESULT:     -11.5      0.292      1.626
REMARK SMILES CC[NH2+][C@H](CC[N@@H+](C)C1CCC(C)(C)CC1)C(=O)NCCCNC(=O)c1ccc(-c2c3nc(c(-c4c(F)c(F)c(F)c(F)c4F)c4ccc([nH]4)c(-c4c(F)c(F)c(F)c(F)c4F)c4nc(c(-c5c(F)c(F)c(F)c(F)c5F)c5ccc2[nH]5)C=C4)C=C3)cc1
REMARK SMILES IDX 20 1 19 2 17 3 18 4 4 6 3 7 2 10 1 11 5 12 6 13 7 14 8 15
REMARK SMILES IDX 9 17 10 18 16 19 11 20 15 21 12 22 13 23 14 24 21 25 22 26
REMARK SMILES IDX 23 27 24 28 25 30 26 31 27 32 88 33 28 34 87 35 29 36 30 37
REMARK SMILES IDX 31 38 81 39 32 40 86 41 80 42 82 43 33 44 85 45 79 46 78 47
REMARK SMILES IDX 34 49 66 50 46 51 65 52 47 53 50 54 64 55 83 56 48 57 49 58
REMARK SMILES IDX 63 60 84 61 51 62 35 63 36 64 44 65 37 66 38 67 42 68 45 69
REMARK SMILES IDX 39 70 40 71 43 72 41 73 67 74 68 75 76 76 69 77 70 78 74 79
REMARK SMILES IDX 77 80 71 81 72 82 75 83 73 84 52 85 53 86 61 87 54 88 55 89
REMARK SMILES IDX 59 90 62 91 56 92 57 93 60 94 58 95
REMARK H PARENT 19 5 3 8 3 9 7 16 23 29 82 48 50 59
REMARK Flexibility Score: inf
ROOT
ATOM      1  C   UNL A   1      31.788  30.674  26.135  1.00  0.00     0.118 C 
ENDROOT
BRANCH   1   2
ATOM      2  N   UNL A   1      31.717  29.730  27.243  1.00  0.00    -0.351 N 
ATOM      3  C   UNL A   1      31.677  28.362  27.217  1.00  0.00     0.278 C 
ATOM      4  O   UNL A   1      31.575  27.762  28.289  1.00  0.00    -0.268 OA
ATOM      5  H   UNL A   1      31.694  30.134  28.139  1.00  0.00     0.163 HD
BRANCH   3   6
ATOM      6  C   UNL A   1      31.773  27.600  25.861  1.00  0.00     0.278 C 
BRANCH   6   7
ATOM      7  N   UNL A   1      30.528  26.785  25.759  1.00  0.00    -0.336 N 
ATOM      8  H   UNL A   1      30.529  26.114  26.527  1.00  0.00     0.346 HD
ATOM      9  H   UNL A   1      29.757  27.453  25.792  1.00  0.00     0.346 HD
BRANCH   7  10
ATOM     10  C   UNL A   1      30.354  26.044  24.521  1.00  0.00     0.257 C 
ATOM     11  C   UNL A   1      30.594  24.555  24.710  1.00  0.00     0.071 C 
ENDBRANCH   7  10
ENDBRANCH   6   7
BRANCH   6  12
ATOM     12  C   UNL A   1      33.184  26.938  25.847  1.00  0.00     0.137 C 
BRANCH  12  13
ATOM     13  C   UNL A   1      33.992  26.755  24.551  1.00  0.00     0.269 C 
BRANCH  13  14
ATOM     14  N   UNL A   1      33.829  25.499  23.784  1.00  0.00    -0.335 N 
ATOM     15  C   UNL A   1      33.489  25.802  22.396  1.00  0.00     0.332 C 
ATOM     16  H   UNL A   1      33.032  25.028  24.213  1.00  0.00     0.348 HD
BRANCH  14  17
ATOM     17  C   UNL A   1      34.800  24.398  23.999  1.00  0.00     0.183 C 
ATOM     18  C   UNL A   1      34.987  23.831  25.434  1.00  0.00     0.065 C 
ATOM     19  C   UNL A   1      34.639  23.169  23.109  1.00  0.00     0.065 C 
ATOM     20  C   UNL A   1      33.906  22.832  25.898  1.00  0.00     0.012 C 
ATOM     21  C   UNL A   1      33.406  22.355  23.460  1.00  0.00     0.012 C 
ATOM     22  C   UNL A   1      33.503  21.750  24.864  1.00  0.00    -0.035 C 
ATOM     23  C   UNL A   1      32.122  21.171  25.225  1.00  0.00     0.011 C 
ATOM     24  C   UNL A   1      34.518  20.592  24.843  1.00  0.00     0.011 C 
ENDBRANCH  14  17
ENDBRANCH  13  14
ENDBRANCH  12  13
ENDBRANCH   6  12
ENDBRANCH   3   6
ENDBRANCH   1   2
BRANCH   1  25
ATOM     25  C   UNL A   1      31.480  32.097  26.576  1.00  0.00     0.042 C 
BRANCH  25  26
ATOM     26  C   UNL A   1      32.614  32.743  27.349  1.00  0.00     0.118 C 
BRANCH  26  27
ATOM     27  N   UNL A   1      32.364  34.154  27.610  1.00  0.00    -0.352 N 
ATOM     28  C   UNL A   1      32.918  34.981  28.552  1.00  0.00     0.251 C 
ATOM     29  H   UNL A   1      31.696  34.577  27.022  1.00  0.00     0.163 HD
ATOM     30  O   UNL A   1      32.405  36.072  28.794  1.00  0.00    -0.269 OA
BRANCH  28  31
ATOM     31  C   UNL A   1      34.119  34.550  29.294  1.00  0.00     0.039 A 
ATOM     32  C   UNL A   1      33.972  34.061  30.594  1.00  0.00     0.014 A 
ATOM     33  C   UNL A   1      35.386  34.616  28.706  1.00  0.00     0.014 A 
ATOM     34  C   UNL A   1      35.084  33.558  31.271  1.00  0.00     0.010 A 
ATOM     35  C   UNL A   1      36.475  34.036  29.345  1.00  0.00     0.010 A 
ATOM     36  C   UNL A   1      36.333  33.493  30.629  1.00  0.00    -0.014 A 
BRANCH  36  37
ATOM     37  C   UNL A   1      37.489  32.817  31.269  1.00  0.00     0.031 A 
ATOM     38  C   UNL A   1      38.123  31.619  30.622  1.00  0.00     0.074 A 
ATOM     39  C   UNL A   1      37.911  33.243  32.477  1.00  0.00     0.049 A 
ATOM     40  N   UNL A   1      39.085  30.853  31.069  1.00  0.00    -0.248 NA
ATOM     41  C   UNL A   1      37.595  31.212  29.310  1.00  0.00     0.031 C 
ATOM     42  C   UNL A   1      37.336  34.364  33.226  1.00  0.00     0.029 A 
ATOM     43  N   UNL A   1      38.907  32.776  33.297  1.00  0.00    -0.354 N 
ATOM     44  C   UNL A   1      39.267  29.870  30.105  1.00  0.00     0.074 A 
ATOM     45  C   UNL A   1      38.290  30.110  29.066  1.00  0.00     0.031 C 
ATOM     46  C   UNL A   1      37.999  34.507  34.384  1.00  0.00     0.029 A 
ATOM     47  C   UNL A   1      39.010  33.460  34.485  1.00  0.00     0.049 A 
ATOM     48  H   UNL A   1      39.494  32.023  33.057  1.00  0.00     0.167 HD
ATOM     49  C   UNL A   1      40.180  28.872  30.086  1.00  0.00     0.037 A 
ATOM     50  C   UNL A   1      39.812  33.250  35.547  1.00  0.00     0.037 A 
ATOM     51  C   UNL A   1      41.167  28.658  31.112  1.00  0.00     0.049 A 
ATOM     52  C   UNL A   1      40.798  32.113  35.500  1.00  0.00     0.074 A 
ATOM     53  C   UNL A   1      42.192  27.729  31.138  1.00  0.00     0.029 A 
ATOM     54  N   UNL A   1      41.244  29.374  32.297  1.00  0.00    -0.354 N 
ATOM     55  N   UNL A   1      41.029  31.255  34.537  1.00  0.00    -0.248 NA
ATOM     56  C   UNL A   1      41.637  31.915  36.692  1.00  0.00     0.031 C 
ATOM     57  C   UNL A   1      42.849  27.838  32.366  1.00  0.00     0.029 A 
ATOM     58  C   UNL A   1      42.273  28.875  33.082  1.00  0.00     0.049 A 
ATOM     59  H   UNL A   1      40.658  30.124  32.545  1.00  0.00     0.167 HD
ATOM     60  C   UNL A   1      42.048  30.432  34.996  1.00  0.00     0.074 A 
ATOM     61  C   UNL A   1      42.414  30.913  36.311  1.00  0.00     0.031 C 
ATOM     62  C   UNL A   1      42.624  29.367  34.388  1.00  0.00     0.037 A 
BRANCH  49  63
ATOM     63  C   UNL A   1      40.171  27.923  28.923  1.00  0.00     0.064 A 
ATOM     64  C   UNL A   1      40.894  28.187  27.752  1.00  0.00     0.173 A 
ATOM     65  C   UNL A   1      39.512  26.688  29.025  1.00  0.00     0.173 A 
ATOM     66  F   UNL A   1      41.533  29.358  27.602  1.00  0.00    -0.203 F 
ATOM     67  C   UNL A   1      40.952  27.253  26.721  1.00  0.00     0.198 A 
ATOM     68  C   UNL A   1      39.596  25.745  28.005  1.00  0.00     0.198 A 
ATOM     69  F   UNL A   1      38.811  26.384  30.127  1.00  0.00    -0.203 F 
ATOM     70  F   UNL A   1      41.630  27.536  25.600  1.00  0.00    -0.200 F 
ATOM     71  C   UNL A   1      40.315  26.028  26.854  1.00  0.00     0.200 A 
ATOM     72  F   UNL A   1      38.993  24.556  28.141  1.00  0.00    -0.200 F 
ATOM     73  F   UNL A   1      40.395  25.120  25.871  1.00  0.00    -0.200 F 
ENDBRANCH  49  63
BRANCH  50  74
ATOM     74  C   UNL A   1      39.708  34.114  36.754  1.00  0.00     0.064 A 
ATOM     75  C   UNL A   1      40.470  35.285  36.873  1.00  0.00     0.173 A 
ATOM     76  C   UNL A   1      38.883  33.762  37.834  1.00  0.00     0.173 A 
ATOM     77  F   UNL A   1      41.289  35.655  35.878  1.00  0.00    -0.203 F 
ATOM     78  C   UNL A   1      40.442  36.048  38.040  1.00  0.00     0.198 A 
ATOM     79  C   UNL A   1      38.829  34.546  38.985  1.00  0.00     0.198 A 
ATOM     80  F   UNL A   1      38.130  32.655  37.772  1.00  0.00    -0.203 F 
ATOM     81  F   UNL A   1      41.235  37.123  38.153  1.00  0.00    -0.200 F 
ATOM     82  C   UNL A   1      39.619  35.679  39.093  1.00  0.00     0.200 A 
ATOM     83  F   UNL A   1      38.018  34.196  39.992  1.00  0.00    -0.200 F 
ATOM     84  F   UNL A   1      39.598  36.408  40.216  1.00  0.00    -0.200 F 
ENDBRANCH  50  74
BRANCH  62  85
ATOM     85  C   UNL A   1      43.720  28.660  35.131  1.00  0.00     0.064 A 
ATOM     86  C   UNL A   1      45.063  29.044  34.996  1.00  0.00     0.173 A 
ATOM     87  C   UNL A   1      43.421  27.615  36.018  1.00  0.00     0.173 A 
ATOM     88  F   UNL A   1      45.402  30.027  34.148  1.00  0.00    -0.203 F 
ATOM     89  C   UNL A   1      46.068  28.390  35.702  1.00  0.00     0.198 A 
ATOM     90  C   UNL A   1      44.426  26.986  36.749  1.00  0.00     0.198 A 
ATOM     91  F   UNL A   1      42.153  27.213  36.189  1.00  0.00    -0.203 F 
ATOM     92  F   UNL A   1      47.349  28.740  35.518  1.00  0.00    -0.200 F 
ATOM     93  C   UNL A   1      45.748  27.369  36.584  1.00  0.00     0.200 A 
ATOM     94  F   UNL A   1      44.113  26.012  37.614  1.00  0.00    -0.200 F 
ATOM     95  F   UNL A   1      46.716  26.748  37.272  1.00  0.00    -0.200 F 
ENDBRANCH  62  85
ENDBRANCH  36  37
ENDBRANCH  28  31
ENDBRANCH  26  27
ENDBRANCH  25  26
ENDBRANCH   1  25
TORSDOF 16
ENDMDL
