MODEL 1
REMARK VINA RESULT:     -14.1      0.000      0.000
REMARK SMILES Cn1cc(/C=C2\SC(=S)N(c3cccc(C(=O)NCCCNC(=O)c4ccc(-c5c6nc(c(-c7c(F)c(F)c(F)c(F)c7F)c7ccc([nH]7)c(-c7c(F)c(F)c(F)c(F)c7F)c7nc(c(-c8c(F)c(F)c(F)c(F)c8F)c8ccc5[nH]8)C=C7)C=C6)cc4)c3)C2=O)c2ccccc21
REMARK SMILES IDX 20 1 19 2 18 3 16 4 17 5 15 7 11 8 12 9 88 10 13 11 14 12
REMARK SMILES IDX 10 13 5 14 6 15 7 16 89 17 8 18 90 19 9 20 4 21 1 22 2 23
REMARK SMILES IDX 3 24 96 25 91 26 95 27 92 28 94 29 93 30 21 31 22 32 23 33
REMARK SMILES IDX 24 35 25 36 26 37 87 38 27 39 86 40 28 41 29 42 30 43 80 44
REMARK SMILES IDX 31 45 85 46 79 47 81 48 32 49 84 50 78 51 77 52 33 54 65 55
REMARK SMILES IDX 45 56 64 57 46 58 49 59 63 60 82 61 47 62 48 63 62 65 83 66
REMARK SMILES IDX 50 67 34 68 35 69 43 70 36 71 37 72 41 73 44 74 38 75 39 76
REMARK SMILES IDX 42 77 40 78 66 79 67 80 75 81 68 82 69 83 73 84 76 85 70 86
REMARK SMILES IDX 71 87 74 88 72 89 51 90 52 91 60 92 53 93 54 94 58 95 61 96
REMARK SMILES IDX 55 97 56 98 59 99 57 100
REMARK H PARENT 18 6 22 34 81 53 49 64
REMARK Flexibility Score: inf
ROOT
ATOM      1  C   UNL A   1      31.403  31.705  26.865  1.00  0.00     0.042 C 
ENDROOT
BRANCH   1   2
ATOM      2  C   UNL A   1      31.584  30.663  25.762  1.00  0.00     0.118 C 
BRANCH   2   3
ATOM      3  N   UNL A   1      30.660  30.884  24.664  1.00  0.00    -0.352 N 
ATOM      4  C   UNL A   1      29.912  30.077  23.848  1.00  0.00     0.251 C 
ATOM      5  O   UNL A   1      29.180  30.657  23.042  1.00  0.00    -0.269 OA
ATOM      6  H   UNL A   1      30.543  31.840  24.458  1.00  0.00     0.163 HD
BRANCH   4   7
ATOM      7  C   UNL A   1      29.917  28.582  23.859  1.00  0.00     0.041 A 
ATOM      8  C   UNL A   1      30.981  26.384  23.865  1.00  0.00     0.051 A 
ATOM      9  C   UNL A   1      29.736  25.761  23.785  1.00  0.00     0.027 A 
ATOM     10  C   UNL A   1      31.058  27.786  23.857  1.00  0.00     0.040 A 
ATOM     11  C   UNL A   1      28.579  26.539  23.770  1.00  0.00     0.003 A 
ATOM     12  C   UNL A   1      28.671  27.934  23.819  1.00  0.00     0.014 A 
BRANCH   8  13
ATOM     13  N   UNL A   1      32.188  25.634  23.872  1.00  0.00    -0.261 N 
ATOM     14  C   UNL A   1      34.457  23.626  25.841  1.00  0.00     0.031 C 
ATOM     15  C   UNL A   1      33.845  24.275  24.840  1.00  0.00     0.081 C 
ATOM     16  S   UNL A   1      34.123  24.092  23.154  1.00  0.00    -0.054 SA
ATOM     17  C   UNL A   1      32.731  25.228  25.085  1.00  0.00     0.270 C 
ATOM     18  C   UNL A   1      32.817  25.180  22.719  1.00  0.00     0.152 C 
ATOM     19  O   UNL A   1      32.351  25.529  26.209  1.00  0.00    -0.268 OA
ATOM     20  S   UNL A   1      32.528  25.579  21.119  1.00  0.00    -0.051 S 
BRANCH  14  21
ATOM     21  C   UNL A   1      35.536  22.703  25.712  1.00  0.00     0.001 A 
ATOM     22  C   UNL A   1      39.037  21.828  25.882  1.00  0.00     0.149 C 
ATOM     23  N   UNL A   1      37.601  21.893  25.735  1.00  0.00    -0.350 N 
ATOM     24  C   UNL A   1      36.852  23.012  25.975  1.00  0.00     0.094 A 
ATOM     25  C   UNL A   1      36.790  20.848  25.344  1.00  0.00     0.048 A 
ATOM     26  C   UNL A   1      35.475  21.330  25.333  1.00  0.00     0.007 A 
ATOM     27  C   UNL A   1      37.102  19.523  25.001  1.00  0.00     0.027 A 
ATOM     28  C   UNL A   1      34.436  20.449  24.963  1.00  0.00     0.011 A 
ATOM     29  C   UNL A   1      36.054  18.670  24.645  1.00  0.00     0.002 A 
ATOM     30  C   UNL A   1      34.738  19.125  24.626  1.00  0.00     0.001 A 
ENDBRANCH  14  21
ENDBRANCH   8  13
ENDBRANCH   4   7
ENDBRANCH   2   3
ENDBRANCH   1   2
BRANCH   1  31
ATOM     31  C   UNL A   1      32.712  32.417  27.206  1.00  0.00     0.118 C 
BRANCH  31  32
ATOM     32  N   UNL A   1      32.496  33.833  27.499  1.00  0.00    -0.352 N 
ATOM     33  C   UNL A   1      33.027  34.628  28.484  1.00  0.00     0.251 C 
ATOM     34  H   UNL A   1      31.870  34.290  26.893  1.00  0.00     0.163 HD
ATOM     35  O   UNL A   1      32.528  35.718  28.734  1.00  0.00    -0.269 OA
BRANCH  33  36
ATOM     36  C   UNL A   1      34.205  34.165  29.241  1.00  0.00     0.039 A 
ATOM     37  C   UNL A   1      34.025  33.387  30.389  1.00  0.00     0.014 A 
ATOM     38  C   UNL A   1      35.487  34.519  28.821  1.00  0.00     0.014 A 
ATOM     39  C   UNL A   1      35.140  32.899  31.072  1.00  0.00     0.010 A 
ATOM     40  C   UNL A   1      36.591  33.961  29.447  1.00  0.00     0.010 A 
ATOM     41  C   UNL A   1      36.430  33.148  30.580  1.00  0.00    -0.014 A 
BRANCH  41  42
ATOM     42  C   UNL A   1      37.646  32.594  31.221  1.00  0.00     0.031 A 
ATOM     43  C   UNL A   1      38.380  31.467  30.551  1.00  0.00     0.074 A 
ATOM     44  C   UNL A   1      38.009  33.013  32.448  1.00  0.00     0.049 A 
ATOM     45  N   UNL A   1      39.329  30.699  31.020  1.00  0.00    -0.248 NA
ATOM     46  C   UNL A   1      37.959  31.134  29.179  1.00  0.00     0.031 C 
ATOM     47  C   UNL A   1      37.355  34.080  33.207  1.00  0.00     0.029 A 
ATOM     48  N   UNL A   1      39.000  32.569  33.287  1.00  0.00    -0.354 N 
ATOM     49  C   UNL A   1      39.594  29.777  30.017  1.00  0.00     0.074 A 
ATOM     50  C   UNL A   1      38.672  30.046  28.936  1.00  0.00     0.031 C 
ATOM     51  C   UNL A   1      37.966  34.214  34.395  1.00  0.00     0.029 A 
ATOM     52  C   UNL A   1      39.016  33.206  34.504  1.00  0.00     0.049 A 
ATOM     53  H   UNL A   1      39.639  31.862  33.041  1.00  0.00     0.167 HD
ATOM     54  C   UNL A   1      40.536  28.804  29.996  1.00  0.00     0.037 A 
ATOM     55  C   UNL A   1      39.775  32.982  35.595  1.00  0.00     0.037 A 
ATOM     56  C   UNL A   1      41.464  28.567  31.067  1.00  0.00     0.049 A 
ATOM     57  C   UNL A   1      40.800  31.879  35.555  1.00  0.00     0.074 A 
ATOM     58  C   UNL A   1      42.495  27.646  31.127  1.00  0.00     0.029 A 
ATOM     59  N   UNL A   1      41.471  29.257  32.271  1.00  0.00    -0.354 N 
ATOM     60  N   UNL A   1      41.080  31.045  34.583  1.00  0.00    -0.248 NA
ATOM     61  C   UNL A   1      41.615  31.685  36.762  1.00  0.00     0.031 C 
ATOM     62  C   UNL A   1      43.090  27.741  32.388  1.00  0.00     0.029 A 
ATOM     63  C   UNL A   1      42.476  28.767  33.089  1.00  0.00     0.049 A 
ATOM     64  H   UNL A   1      40.854  29.987  32.508  1.00  0.00     0.167 HD
ATOM     65  C   UNL A   1      42.129  30.260  35.042  1.00  0.00     0.074 A 
ATOM     66  C   UNL A   1      42.435  30.715  36.383  1.00  0.00     0.031 C 
ATOM     67  C   UNL A   1      42.785  29.258  34.408  1.00  0.00     0.037 A 
BRANCH  54  68
ATOM     68  C   UNL A   1      40.606  27.926  28.779  1.00  0.00     0.064 A 
ATOM     69  C   UNL A   1      39.874  26.732  28.687  1.00  0.00     0.173 A 
ATOM     70  C   UNL A   1      41.390  28.300  27.677  1.00  0.00     0.173 A 
ATOM     71  F   UNL A   1      39.116  26.323  29.715  1.00  0.00    -0.203 F 
ATOM     72  C   UNL A   1      39.952  25.930  27.551  1.00  0.00     0.198 A 
ATOM     73  C   UNL A   1      41.437  27.513  26.529  1.00  0.00     0.198 A 
ATOM     74  F   UNL A   1      42.106  29.434  27.709  1.00  0.00    -0.203 F 
ATOM     75  F   UNL A   1      39.288  24.766  27.510  1.00  0.00    -0.200 F 
ATOM     76  C   UNL A   1      40.725  26.324  26.471  1.00  0.00     0.200 A 
ATOM     77  F   UNL A   1      42.173  27.905  25.480  1.00  0.00    -0.200 F 
ATOM     78  F   UNL A   1      40.792  25.555  25.376  1.00  0.00    -0.200 F 
ENDBRANCH  54  68
BRANCH  55  79
ATOM     79  C   UNL A   1      39.604  33.827  36.806  1.00  0.00     0.064 A 
ATOM     80  C   UNL A   1      38.784  33.409  37.863  1.00  0.00     0.173 A 
ATOM     81  C   UNL A   1      40.254  35.063  36.937  1.00  0.00     0.173 A 
ATOM     82  F   UNL A   1      38.128  32.241  37.779  1.00  0.00    -0.203 F 
ATOM     83  C   UNL A   1      38.601  34.202  38.994  1.00  0.00     0.198 A 
ATOM     84  C   UNL A   1      40.097  35.842  38.084  1.00  0.00     0.198 A 
ATOM     85  F   UNL A   1      41.057  35.509  35.960  1.00  0.00    -0.203 F 
ATOM     86  F   UNL A   1      37.774  33.799  39.967  1.00  0.00    -0.200 F 
ATOM     87  C   UNL A   1      39.264  35.415  39.106  1.00  0.00     0.200 A 
ATOM     88  F   UNL A   1      40.757  37.003  38.197  1.00  0.00    -0.200 F 
ATOM     89  F   UNL A   1      39.096  36.175  40.197  1.00  0.00    -0.200 F 
ENDBRANCH  55  79
BRANCH  67  90
ATOM     90  C   UNL A   1      43.946  28.623  35.114  1.00  0.00     0.064 A 
ATOM     91  C   UNL A   1      45.243  29.147  35.025  1.00  0.00     0.173 A 
ATOM     92  C   UNL A   1      43.732  27.530  35.969  1.00  0.00     0.173 A 
ATOM     93  F   UNL A   1      45.501  30.181  34.211  1.00  0.00    -0.203 F 
ATOM     94  C   UNL A   1      46.287  28.595  35.765  1.00  0.00     0.198 A 
ATOM     95  C   UNL A   1      44.771  27.002  36.730  1.00  0.00     0.198 A 
ATOM     96  F   UNL A   1      42.507  26.998  36.093  1.00  0.00    -0.203 F 
ATOM     97  F   UNL A   1      47.525  29.092  35.645  1.00  0.00    -0.200 F 
ATOM     98  C   UNL A   1      46.047  27.533  36.625  1.00  0.00     0.200 A 
ATOM     99  F   UNL A   1      44.533  25.988  37.574  1.00  0.00    -0.200 F 
ATOM    100  F   UNL A   1      47.048  27.022  37.355  1.00  0.00    -0.200 F 
ENDBRANCH  67  90
ENDBRANCH  41  42
ENDBRANCH  33  36
ENDBRANCH  31  32
ENDBRANCH   1  31
TORSDOF 12
ENDMDL
MODEL 2
REMARK VINA RESULT:     -13.9      5.176     11.200
REMARK SMILES Cn1cc(/C=C2\SC(=S)N(c3cccc(C(=O)NCCCNC(=O)c4ccc(-c5c6nc(c(-c7c(F)c(F)c(F)c(F)c7F)c7ccc([nH]7)c(-c7c(F)c(F)c(F)c(F)c7F)c7nc(c(-c8c(F)c(F)c(F)c(F)c8F)c8ccc5[nH]8)C=C7)C=C6)cc4)c3)C2=O)c2ccccc21
REMARK SMILES IDX 20 1 19 2 18 3 16 4 17 5 15 7 11 8 12 9 88 10 13 11 14 12
REMARK SMILES IDX 10 13 5 14 6 15 7 16 89 17 8 18 90 19 9 20 4 21 1 22 2 23
REMARK SMILES IDX 3 24 96 25 91 26 95 27 92 28 94 29 93 30 21 31 22 32 23 33
REMARK SMILES IDX 24 35 25 36 26 37 87 38 27 39 86 40 28 41 29 42 30 43 80 44
REMARK SMILES IDX 31 45 85 46 79 47 81 48 32 49 84 50 78 51 77 52 33 54 65 55
REMARK SMILES IDX 45 56 64 57 46 58 49 59 63 60 82 61 47 62 48 63 62 65 83 66
REMARK SMILES IDX 50 67 34 68 35 69 43 70 36 71 37 72 41 73 44 74 38 75 39 76
REMARK SMILES IDX 42 77 40 78 66 79 67 80 75 81 68 82 69 83 73 84 76 85 70 86
REMARK SMILES IDX 71 87 74 88 72 89 51 90 52 91 60 92 53 93 54 94 58 95 61 96
REMARK SMILES IDX 55 97 56 98 59 99 57 100
REMARK H PARENT 18 6 22 34 81 53 49 64
REMARK Flexibility Score: inf
ROOT
ATOM      1  C   UNL A   1      38.037  19.898  24.694  1.00  0.00     0.042 C 
ENDROOT
BRANCH   1   2
ATOM      2  C   UNL A   1      36.647  20.428  25.041  1.00  0.00     0.118 C 
BRANCH   2   3
ATOM      3  N   UNL A   1      35.662  19.361  25.065  1.00  0.00    -0.352 N 
ATOM      4  C   UNL A   1      34.344  19.249  24.708  1.00  0.00     0.251 C 
ATOM      5  O   UNL A   1      33.848  18.125  24.828  1.00  0.00    -0.269 OA
ATOM      6  H   UNL A   1      36.029  18.520  25.423  1.00  0.00     0.163 HD
BRANCH   4   7
ATOM      7  C   UNL A   1      33.483  20.358  24.198  1.00  0.00     0.041 A 
ATOM      8  C   UNL A   1      32.512  22.598  24.260  1.00  0.00     0.051 A 
ATOM      9  C   UNL A   1      31.729  22.309  23.142  1.00  0.00     0.027 A 
ATOM     10  C   UNL A   1      33.345  21.606  24.800  1.00  0.00     0.040 A 
ATOM     11  C   UNL A   1      31.837  21.061  22.533  1.00  0.00     0.003 A 
ATOM     12  C   UNL A   1      32.715  20.102  23.050  1.00  0.00     0.014 A 
BRANCH   8  13
ATOM     13  N   UNL A   1      32.428  23.853  24.922  1.00  0.00    -0.261 N 
ATOM     14  C   UNL A   1      33.434  27.323  24.904  1.00  0.00     0.031 C 
ATOM     15  C   UNL A   1      32.861  26.147  25.200  1.00  0.00     0.081 C 
ATOM     16  S   UNL A   1      31.536  25.868  26.257  1.00  0.00    -0.054 SA
ATOM     17  C   UNL A   1      33.282  24.882  24.544  1.00  0.00     0.270 C 
ATOM     18  C   UNL A   1      31.456  24.159  25.867  1.00  0.00     0.152 C 
ATOM     19  O   UNL A   1      34.213  24.823  23.752  1.00  0.00    -0.268 OA
ATOM     20  S   UNL A   1      30.371  23.151  26.646  1.00  0.00    -0.051 S 
BRANCH  14  21
ATOM     21  C   UNL A   1      33.110  28.586  25.481  1.00  0.00     0.001 A 
ATOM     22  C   UNL A   1      33.719  31.306  27.780  1.00  0.00     0.149 C 
ATOM     23  N   UNL A   1      33.242  30.383  26.776  1.00  0.00    -0.350 N 
ATOM     24  C   UNL A   1      33.856  29.202  26.462  1.00  0.00     0.094 A 
ATOM     25  C   UNL A   1      32.120  30.563  25.994  1.00  0.00     0.048 A 
ATOM     26  C   UNL A   1      32.019  29.445  25.156  1.00  0.00     0.007 A 
ATOM     27  C   UNL A   1      31.188  31.612  25.954  1.00  0.00     0.027 A 
ATOM     28  C   UNL A   1      30.943  29.379  24.245  1.00  0.00     0.011 A 
ATOM     29  C   UNL A   1      30.136  31.525  25.038  1.00  0.00     0.002 A 
ATOM     30  C   UNL A   1      30.014  30.424  24.194  1.00  0.00     0.001 A 
ENDBRANCH  14  21
ENDBRANCH   8  13
ENDBRANCH   4   7
ENDBRANCH   2   3
ENDBRANCH   1   2
BRANCH   1  31
ATOM     31  C   UNL A   1      39.072  20.251  25.762  1.00  0.00     0.118 C 
BRANCH  31  32
ATOM     32  N   UNL A   1      40.071  19.195  25.918  1.00  0.00    -0.352 N 
ATOM     33  C   UNL A   1      41.435  19.273  26.052  1.00  0.00     0.251 C 
ATOM     34  H   UNL A   1      39.707  18.281  25.928  1.00  0.00     0.163 HD
ATOM     35  O   UNL A   1      42.128  18.275  25.904  1.00  0.00    -0.269 OA
BRANCH  33  36
ATOM     36  C   UNL A   1      42.064  20.567  26.377  1.00  0.00     0.039 A 
ATOM     37  C   UNL A   1      42.442  21.429  25.344  1.00  0.00     0.014 A 
ATOM     38  C   UNL A   1      42.295  20.914  27.708  1.00  0.00     0.014 A 
ATOM     39  C   UNL A   1      42.983  22.678  25.652  1.00  0.00     0.010 A 
ATOM     40  C   UNL A   1      42.748  22.189  28.014  1.00  0.00     0.010 A 
ATOM     41  C   UNL A   1      43.100  23.082  26.991  1.00  0.00    -0.014 A 
BRANCH  41  42
ATOM     42  C   UNL A   1      43.597  24.424  27.375  1.00  0.00     0.031 A 
ATOM     43  C   UNL A   1      42.629  25.439  27.913  1.00  0.00     0.074 A 
ATOM     44  C   UNL A   1      44.876  24.764  27.125  1.00  0.00     0.049 A 
ATOM     45  N   UNL A   1      42.795  26.721  28.115  1.00  0.00    -0.248 NA
ATOM     46  C   UNL A   1      41.275  24.952  28.229  1.00  0.00     0.031 C 
ATOM     47  C   UNL A   1      45.898  23.871  26.579  1.00  0.00     0.029 A 
ATOM     48  N   UNL A   1      45.526  25.965  27.268  1.00  0.00    -0.354 N 
ATOM     49  C   UNL A   1      41.564  27.194  28.549  1.00  0.00     0.074 A 
ATOM     50  C   UNL A   1      40.647  26.077  28.531  1.00  0.00     0.031 C 
ATOM     51  C   UNL A   1      47.048  24.551  26.440  1.00  0.00     0.029 A 
ATOM     52  C   UNL A   1      46.829  25.939  26.833  1.00  0.00     0.049 A 
ATOM     53  H   UNL A   1      45.099  26.767  27.646  1.00  0.00     0.167 HD
ATOM     54  C   UNL A   1      41.237  28.448  28.943  1.00  0.00     0.037 A 
ATOM     55  C   UNL A   1      47.734  26.932  26.737  1.00  0.00     0.037 A 
ATOM     56  C   UNL A   1      42.167  29.543  28.982  1.00  0.00     0.049 A 
ATOM     57  C   UNL A   1      47.339  28.323  27.160  1.00  0.00     0.074 A 
ATOM     58  C   UNL A   1      41.956  30.839  29.417  1.00  0.00     0.029 A 
ATOM     59  N   UNL A   1      43.489  29.468  28.566  1.00  0.00    -0.354 N 
ATOM     60  N   UNL A   1      46.188  28.752  27.618  1.00  0.00    -0.248 NA
ATOM     61  C   UNL A   1      48.367  29.367  27.053  1.00  0.00     0.031 C 
ATOM     62  C   UNL A   1      43.134  31.563  29.213  1.00  0.00     0.029 A 
ATOM     63  C   UNL A   1      44.100  30.702  28.715  1.00  0.00     0.049 A 
ATOM     64  H   UNL A   1      43.928  28.658  28.218  1.00  0.00     0.167 HD
ATOM     65  C   UNL A   1      46.365  30.100  27.896  1.00  0.00     0.074 A 
ATOM     66  C   UNL A   1      47.735  30.421  27.552  1.00  0.00     0.031 C 
ATOM     67  C   UNL A   1      45.475  30.991  28.397  1.00  0.00     0.037 A 
BRANCH  54  68
ATOM     68  C   UNL A   1      39.816  28.700  29.360  1.00  0.00     0.064 A 
ATOM     69  C   UNL A   1      39.385  28.490  30.679  1.00  0.00     0.173 A 
ATOM     70  C   UNL A   1      38.880  29.189  28.436  1.00  0.00     0.173 A 
ATOM     71  F   UNL A   1      40.236  28.014  31.601  1.00  0.00    -0.203 F 
ATOM     72  C   UNL A   1      38.064  28.728  31.049  1.00  0.00     0.198 A 
ATOM     73  C   UNL A   1      37.569  29.461  28.818  1.00  0.00     0.198 A 
ATOM     74  F   UNL A   1      39.238  29.413  27.163  1.00  0.00    -0.203 F 
ATOM     75  F   UNL A   1      37.663  28.466  32.300  1.00  0.00    -0.200 F 
ATOM     76  C   UNL A   1      37.160  29.221  30.121  1.00  0.00     0.200 A 
ATOM     77  F   UNL A   1      36.700  29.952  27.923  1.00  0.00    -0.200 F 
ATOM     78  F   UNL A   1      35.891  29.458  30.480  1.00  0.00    -0.200 F 
ENDBRANCH  54  68
BRANCH  55  79
ATOM     79  C   UNL A   1      49.104  26.643  26.235  1.00  0.00     0.064 A 
ATOM     80  C   UNL A   1      50.076  26.089  27.080  1.00  0.00     0.173 A 
ATOM     81  C   UNL A   1      49.471  26.910  24.908  1.00  0.00     0.173 A 
ATOM     82  F   UNL A   1      49.779  25.831  28.363  1.00  0.00    -0.203 F 
ATOM     83  C   UNL A   1      51.368  25.834  26.625  1.00  0.00     0.198 A 
ATOM     84  C   UNL A   1      50.755  26.624  24.444  1.00  0.00     0.198 A 
ATOM     85  F   UNL A   1      48.579  27.432  24.054  1.00  0.00    -0.203 F 
ATOM     86  F   UNL A   1      52.289  25.349  27.467  1.00  0.00    -0.200 F 
ATOM     87  C   UNL A   1      51.704  26.095  25.305  1.00  0.00     0.200 A 
ATOM     88  F   UNL A   1      51.069  26.857  23.163  1.00  0.00    -0.200 F 
ATOM     89  F   UNL A   1      52.944  25.842  24.865  1.00  0.00    -0.200 F 
ENDBRANCH  55  79
BRANCH  67  90
ATOM     90  C   UNL A   1      45.959  32.383  28.677  1.00  0.00     0.064 A 
ATOM     91  C   UNL A   1      45.850  33.410  27.730  1.00  0.00     0.173 A 
ATOM     92  C   UNL A   1      46.449  32.710  29.952  1.00  0.00     0.173 A 
ATOM     93  F   UNL A   1      45.401  33.145  26.494  1.00  0.00    -0.203 F 
ATOM     94  C   UNL A   1      46.220  34.715  28.047  1.00  0.00     0.198 A 
ATOM     95  C   UNL A   1      46.788  34.021  30.275  1.00  0.00     0.198 A 
ATOM     96  F   UNL A   1      46.566  31.763  30.894  1.00  0.00    -0.203 F 
ATOM     97  F   UNL A   1      46.134  35.678  27.119  1.00  0.00    -0.200 F 
ATOM     98  C   UNL A   1      46.675  35.021  29.322  1.00  0.00     0.200 A 
ATOM     99  F   UNL A   1      47.210  34.316  31.512  1.00  0.00    -0.200 F 
ATOM    100  F   UNL A   1      47.005  36.282  29.632  1.00  0.00    -0.200 F 
ENDBRANCH  67  90
ENDBRANCH  41  42
ENDBRANCH  33  36
ENDBRANCH  31  32
ENDBRANCH   1  31
TORSDOF 12
ENDMDL
MODEL 3
REMARK VINA RESULT:     -13.6      5.079     10.847
REMARK SMILES Cn1cc(/C=C2\SC(=S)N(c3cccc(C(=O)NCCCNC(=O)c4ccc(-c5c6nc(c(-c7c(F)c(F)c(F)c(F)c7F)c7ccc([nH]7)c(-c7c(F)c(F)c(F)c(F)c7F)c7nc(c(-c8c(F)c(F)c(F)c(F)c8F)c8ccc5[nH]8)C=C7)C=C6)cc4)c3)C2=O)c2ccccc21
REMARK SMILES IDX 20 1 19 2 18 3 16 4 17 5 15 7 11 8 12 9 88 10 13 11 14 12
REMARK SMILES IDX 10 13 5 14 6 15 7 16 89 17 8 18 90 19 9 20 4 21 1 22 2 23
REMARK SMILES IDX 3 24 96 25 91 26 95 27 92 28 94 29 93 30 21 31 22 32 23 33
REMARK SMILES IDX 24 35 25 36 26 37 87 38 27 39 86 40 28 41 29 42 30 43 80 44
REMARK SMILES IDX 31 45 85 46 79 47 81 48 32 49 84 50 78 51 77 52 33 54 65 55
REMARK SMILES IDX 45 56 64 57 46 58 49 59 63 60 82 61 47 62 48 63 62 65 83 66
REMARK SMILES IDX 50 67 34 68 35 69 43 70 36 71 37 72 41 73 44 74 38 75 39 76
REMARK SMILES IDX 42 77 40 78 66 79 67 80 75 81 68 82 69 83 73 84 76 85 70 86
REMARK SMILES IDX 71 87 74 88 72 89 51 90 52 91 60 92 53 93 54 94 58 95 61 96
REMARK SMILES IDX 55 97 56 98 59 99 57 100
REMARK H PARENT 18 6 22 34 81 53 49 64
REMARK Flexibility Score: inf
ROOT
ATOM      1  C   UNL A   1      37.922  20.346  24.713  1.00  0.00     0.042 C 
ENDROOT
BRANCH   1   2
ATOM      2  C   UNL A   1      36.502  20.805  25.038  1.00  0.00     0.118 C 
BRANCH   2   3
ATOM      3  N   UNL A   1      35.598  19.677  25.182  1.00  0.00    -0.352 N 
ATOM      4  C   UNL A   1      34.309  19.412  24.799  1.00  0.00     0.251 C 
ATOM      5  O   UNL A   1      33.892  18.280  25.062  1.00  0.00    -0.269 OA
ATOM      6  H   UNL A   1      36.009  18.926  25.669  1.00  0.00     0.163 HD
BRANCH   4   7
ATOM      7  C   UNL A   1      33.393  20.366  24.105  1.00  0.00     0.041 A 
ATOM      8  C   UNL A   1      32.213  22.488  23.841  1.00  0.00     0.051 A 
ATOM      9  C   UNL A   1      31.557  22.004  22.710  1.00  0.00     0.027 A 
ATOM     10  C   UNL A   1      33.088  21.649  24.550  1.00  0.00     0.040 A 
ATOM     11  C   UNL A   1      31.834  20.716  22.255  1.00  0.00     0.003 A 
ATOM     12  C   UNL A   1      32.752  19.913  22.940  1.00  0.00     0.014 A 
BRANCH   8  13
ATOM     13  N   UNL A   1      31.955  23.790  24.350  1.00  0.00    -0.261 N 
ATOM     14  C   UNL A   1      32.120  27.343  23.710  1.00  0.00     0.031 C 
ATOM     15  C   UNL A   1      31.890  26.139  24.254  1.00  0.00     0.081 C 
ATOM     16  S   UNL A   1      30.861  25.772  25.580  1.00  0.00    -0.054 SA
ATOM     17  C   UNL A   1      32.475  24.896  23.687  1.00  0.00     0.270 C 
ATOM     18  C   UNL A   1      31.112  24.042  25.424  1.00  0.00     0.152 C 
ATOM     19  O   UNL A   1      33.248  24.899  22.738  1.00  0.00    -0.268 OA
ATOM     20  S   UNL A   1      30.432  22.974  26.520  1.00  0.00    -0.051 S 
BRANCH  14  21
ATOM     21  C   UNL A   1      31.616  28.590  24.182  1.00  0.00     0.001 A 
ATOM     22  C   UNL A   1      29.329  31.383  24.028  1.00  0.00     0.149 C 
ATOM     23  N   UNL A   1      30.354  30.409  24.326  1.00  0.00    -0.350 N 
ATOM     24  C   UNL A   1      30.543  29.250  23.624  1.00  0.00     0.094 A 
ATOM     25  C   UNL A   1      31.270  30.503  25.353  1.00  0.00     0.048 A 
ATOM     26  C   UNL A   1      32.074  29.358  25.293  1.00  0.00     0.007 A 
ATOM     27  C   UNL A   1      31.457  31.496  26.327  1.00  0.00     0.027 A 
ATOM     28  C   UNL A   1      33.105  29.205  26.245  1.00  0.00     0.011 A 
ATOM     29  C   UNL A   1      32.481  31.317  27.262  1.00  0.00     0.002 A 
ATOM     30  C   UNL A   1      33.294  30.187  27.224  1.00  0.00     0.001 A 
ENDBRANCH  14  21
ENDBRANCH   8  13
ENDBRANCH   4   7
ENDBRANCH   2   3
ENDBRANCH   1   2
BRANCH   1  31
ATOM     31  C   UNL A   1      38.868  20.507  25.903  1.00  0.00     0.118 C 
BRANCH  31  32
ATOM     32  N   UNL A   1      39.894  19.466  25.923  1.00  0.00    -0.352 N 
ATOM     33  C   UNL A   1      41.260  19.565  26.023  1.00  0.00     0.251 C 
ATOM     34  H   UNL A   1      39.551  18.546  25.854  1.00  0.00     0.163 HD
ATOM     35  O   UNL A   1      41.969  18.604  25.756  1.00  0.00    -0.269 OA
BRANCH  33  36
ATOM     36  C   UNL A   1      41.870  20.836  26.454  1.00  0.00     0.039 A 
ATOM     37  C   UNL A   1      42.123  21.835  25.510  1.00  0.00     0.014 A 
ATOM     38  C   UNL A   1      42.208  21.027  27.795  1.00  0.00     0.014 A 
ATOM     39  C   UNL A   1      42.646  23.061  25.927  1.00  0.00     0.010 A 
ATOM     40  C   UNL A   1      42.642  22.274  28.219  1.00  0.00     0.010 A 
ATOM     41  C   UNL A   1      42.869  23.302  27.291  1.00  0.00    -0.014 A 
BRANCH  41  42
ATOM     42  C   UNL A   1      43.352  24.608  27.799  1.00  0.00     0.031 A 
ATOM     43  C   UNL A   1      42.353  25.670  28.159  1.00  0.00     0.074 A 
ATOM     44  C   UNL A   1      44.671  24.876  27.815  1.00  0.00     0.049 A 
ATOM     45  N   UNL A   1      42.545  26.937  28.420  1.00  0.00    -0.248 NA
ATOM     46  C   UNL A   1      40.939  25.258  28.189  1.00  0.00     0.031 C 
ATOM     47  C   UNL A   1      45.732  23.932  27.460  1.00  0.00     0.029 A 
ATOM     48  N   UNL A   1      45.344  26.035  28.112  1.00  0.00    -0.354 N 
ATOM     49  C   UNL A   1      41.280  27.475  28.613  1.00  0.00     0.074 A 
ATOM     50  C   UNL A   1      40.325  26.414  28.387  1.00  0.00     0.031 C 
ATOM     51  C   UNL A   1      46.921  24.546  27.568  1.00  0.00     0.029 A 
ATOM     52  C   UNL A   1      46.704  25.940  27.943  1.00  0.00     0.049 A 
ATOM     53  H   UNL A   1      44.896  26.856  28.418  1.00  0.00     0.167 HD
ATOM     54  C   UNL A   1      40.949  28.741  28.965  1.00  0.00     0.037 A 
ATOM     55  C   UNL A   1      47.664  26.879  28.052  1.00  0.00     0.037 A 
ATOM     56  C   UNL A   1      41.911  29.779  29.213  1.00  0.00     0.049 A 
ATOM     57  C   UNL A   1      47.268  28.285  28.422  1.00  0.00     0.074 A 
ATOM     58  C   UNL A   1      41.689  31.080  29.630  1.00  0.00     0.029 A 
ATOM     59  N   UNL A   1      43.283  29.634  29.066  1.00  0.00    -0.354 N 
ATOM     60  N   UNL A   1      46.074  28.774  28.654  1.00  0.00    -0.248 NA
ATOM     61  C   UNL A   1      48.352  29.270  28.546  1.00  0.00     0.031 C 
ATOM     62  C   UNL A   1      42.921  31.737  29.680  1.00  0.00     0.029 A 
ATOM     63  C   UNL A   1      43.918  30.828  29.362  1.00  0.00     0.049 A 
ATOM     64  H   UNL A   1      43.738  28.804  28.792  1.00  0.00     0.167 HD
ATOM     65  C   UNL A   1      46.265  30.107  28.993  1.00  0.00     0.074 A 
ATOM     66  C   UNL A   1      47.691  30.351  28.935  1.00  0.00     0.031 C 
ATOM     67  C   UNL A   1      45.343  31.041  29.330  1.00  0.00     0.037 A 
BRANCH  54  68
ATOM     68  C   UNL A   1      39.490  29.069  29.099  1.00  0.00     0.064 A 
ATOM     69  C   UNL A   1      38.709  29.432  27.990  1.00  0.00     0.173 A 
ATOM     70  C   UNL A   1      38.854  28.989  30.348  1.00  0.00     0.173 A 
ATOM     71  F   UNL A   1      39.268  29.534  26.774  1.00  0.00    -0.203 F 
ATOM     72  C   UNL A   1      37.358  29.734  28.132  1.00  0.00     0.198 A 
ATOM     73  C   UNL A   1      37.494  29.257  30.480  1.00  0.00     0.198 A 
ATOM     74  F   UNL A   1      39.551  28.642  31.440  1.00  0.00    -0.203 F 
ATOM     75  F   UNL A   1      36.647  30.133  27.068  1.00  0.00    -0.200 F 
ATOM     76  C   UNL A   1      36.750  29.638  29.374  1.00  0.00     0.200 A 
ATOM     77  F   UNL A   1      36.905  29.148  31.679  1.00  0.00    -0.200 F 
ATOM     78  F   UNL A   1      35.447  29.921  29.508  1.00  0.00    -0.200 F 
ENDBRANCH  54  68
BRANCH  55  79
ATOM     79  C   UNL A   1      49.088  26.518  27.824  1.00  0.00     0.064 A 
ATOM     80  C   UNL A   1      49.950  26.281  28.905  1.00  0.00     0.173 A 
ATOM     81  C   UNL A   1      49.618  26.401  26.531  1.00  0.00     0.173 A 
ATOM     82  F   UNL A   1      49.494  26.396  30.161  1.00  0.00    -0.203 F 
ATOM     83  C   UNL A   1      51.290  25.962  28.702  1.00  0.00     0.198 A 
ATOM     84  C   UNL A   1      50.953  26.049  26.329  1.00  0.00     0.198 A 
ATOM     85  F   UNL A   1      48.837  26.609  25.461  1.00  0.00    -0.203 F 
ATOM     86  F   UNL A   1      52.102  25.786  29.753  1.00  0.00    -0.200 F 
ATOM     87  C   UNL A   1      51.789  25.839  27.413  1.00  0.00     0.200 A 
ATOM     88  F   UNL A   1      51.424  25.910  25.082  1.00  0.00    -0.200 F 
ATOM     89  F   UNL A   1      53.076  25.524  27.218  1.00  0.00    -0.200 F 
ENDBRANCH  55  79
BRANCH  67  90
ATOM     90  C   UNL A   1      45.836  32.399  29.734  1.00  0.00     0.064 A 
ATOM     91  C   UNL A   1      46.219  32.687  31.051  1.00  0.00     0.173 A 
ATOM     92  C   UNL A   1      46.019  33.394  28.760  1.00  0.00     0.173 A 
ATOM     93  F   UNL A   1      46.050  31.774  32.019  1.00  0.00    -0.203 F 
ATOM     94  C   UNL A   1      46.761  33.927  31.381  1.00  0.00     0.198 A 
ATOM     95  C   UNL A   1      46.591  34.620  29.088  1.00  0.00     0.198 A 
ATOM     96  F   UNL A   1      45.676  33.164  27.485  1.00  0.00    -0.203 F 
ATOM     97  F   UNL A   1      47.095  34.193  32.651  1.00  0.00    -0.200 F 
ATOM     98  C   UNL A   1      46.959  34.886  30.397  1.00  0.00     0.200 A 
ATOM     99  F   UNL A   1      46.798  35.538  28.133  1.00  0.00    -0.200 F 
ATOM    100  F   UNL A   1      47.507  36.067  30.713  1.00  0.00    -0.200 F 
ENDBRANCH  67  90
ENDBRANCH  41  42
ENDBRANCH  33  36
ENDBRANCH  31  32
ENDBRANCH   1  31
TORSDOF 12
ENDMDL
