MODEL 1
REMARK VINA RESULT:     -13.6      0.000      0.000
REMARK SMILES O=C(COc1ccccc1Br)Nc1cccc(C(=O)Nc2ccc(C(=O)NCCCNC(=O)c3ccc(-c4c5nc(c(-c6c(F)c(F)c(F)c(F)c6F)c6ccc([nH]6)c(-c6c(F)c(F)c(F)c(F)c6F)c6nc(c(-c7c(F)c(F)c(F)c(F)c7F)c7ccc4[nH]7)C=C6)C=C5)cc3)cc2)c1
REMARK SMILES IDX 25 1 26 2 27 3 24 5 21 6 22 7 98 8 23 9 97 10 20 11 18 12
REMARK SMILES IDX 19 13 17 15 13 16 14 17 99 18 15 19 16 20 12 21 1 22 2 23
REMARK SMILES IDX 3 25 4 26 5 27 6 28 10 29 7 30 9 31 11 32 8 33 28 34 29 35
REMARK SMILES IDX 30 36 31 37 32 38 33 40 34 41 35 42 96 43 36 44 95 45 37 46
REMARK SMILES IDX 38 47 39 48 89 49 40 50 94 51 88 52 90 53 41 54 93 55 87 56
REMARK SMILES IDX 86 57 42 59 74 60 54 61 73 62 55 63 58 64 72 65 91 66 56 67
REMARK SMILES IDX 57 68 71 70 92 71 59 72 43 73 44 74 52 75 45 76 46 77 50 78
REMARK SMILES IDX 53 79 47 80 48 81 51 82 49 83 75 84 76 85 84 86 77 87 78 88
REMARK SMILES IDX 82 89 85 90 79 91 80 92 83 93 81 94 60 95 61 96 69 97 62 98
REMARK SMILES IDX 63 99 67 100 70 101 64 102 65 103 68 104 66 105
REMARK H PARENT 27 4 20 14 12 24 31 39 90 58 58 69
REMARK Flexibility Score: inf
ROOT
ATOM      1  C   UNL A   1      32.935  28.521  24.862  1.00  0.00     0.251 C 
ATOM      2  O   UNL A   1      33.574  28.492  23.810  1.00  0.00    -0.269 OA
ATOM      3  N   UNL A   1      32.756  29.745  25.458  1.00  0.00    -0.352 N 
ATOM      4  H   UNL A   1      33.189  30.484  24.973  1.00  0.00     0.163 HD
ENDROOT
BRANCH   1   5
ATOM      5  C   UNL A   1      32.330  27.270  25.384  1.00  0.00     0.039 A 
ATOM      6  C   UNL A   1      31.513  24.677  26.011  1.00  0.00     0.041 A 
ATOM      7  C   UNL A   1      32.741  25.139  26.484  1.00  0.00     0.027 A 
ATOM      8  C   UNL A   1      30.620  25.564  25.404  1.00  0.00     0.027 A 
ATOM      9  C   UNL A   1      33.161  26.425  26.136  1.00  0.00     0.016 A 
ATOM     10  C   UNL A   1      31.017  26.875  25.127  1.00  0.00     0.016 A 
BRANCH   6  11
ATOM     11  N   UNL A   1      31.269  23.298  26.059  1.00  0.00    -0.322 N 
ATOM     12  C   UNL A   1      31.879  22.292  25.329  1.00  0.00     0.255 C 
ATOM     13  O   UNL A   1      31.391  21.162  25.329  1.00  0.00    -0.269 OA
ATOM     14  H   UNL A   1      30.574  23.007  26.694  1.00  0.00     0.170 HD
BRANCH  12  15
ATOM     15  C   UNL A   1      33.186  22.511  24.627  1.00  0.00     0.042 A 
ATOM     16  C   UNL A   1      35.592  22.156  24.423  1.00  0.00     0.042 A 
ATOM     17  C   UNL A   1      35.600  22.962  23.283  1.00  0.00     0.026 A 
ATOM     18  C   UNL A   1      34.373  21.893  25.047  1.00  0.00     0.040 A 
ATOM     19  C   UNL A   1      34.409  23.500  22.787  1.00  0.00     0.003 A 
ATOM     20  C   UNL A   1      33.206  23.285  23.463  1.00  0.00     0.014 A 
BRANCH  16  21
ATOM     21  N   UNL A   1      36.824  21.635  24.873  1.00  0.00    -0.323 N 
ATOM     22  O   UNL A   1      37.875  23.512  25.782  1.00  0.00    -0.271 OA
ATOM     23  C   UNL A   1      37.837  22.311  25.534  1.00  0.00     0.262 C 
ATOM     24  H   UNL A   1      36.981  20.679  24.698  1.00  0.00     0.170 HD
BRANCH  23  25
ATOM     25  C   UNL A   1      39.009  21.413  25.916  1.00  0.00     0.329 C 
BRANCH  25  26
ATOM     26  O   UNL A   1      40.211  22.163  26.120  1.00  0.00    -0.483 OA
BRANCH  26  27
ATOM     27  C   UNL A   1      41.279  21.306  26.067  1.00  0.00     0.134 A 
ATOM     28  C   UNL A   1      41.046  19.947  26.292  1.00  0.00     0.047 A 
ATOM     29  C   UNL A   1      42.563  21.764  25.761  1.00  0.00     0.060 A 
ATOM     30  C   UNL A   1      42.084  19.034  26.128  1.00  0.00     0.004 A 
ATOM     31  C   UNL A   1      43.594  20.846  25.583  1.00  0.00     0.019 A 
ATOM     32  Br  UNL A   1      42.969  23.605  25.577  1.00  0.00    -0.047 Br
ATOM     33  C   UNL A   1      43.351  19.482  25.754  1.00  0.00     0.001 A 
ENDBRANCH  26  27
ENDBRANCH  25  26
ENDBRANCH  23  25
ENDBRANCH  16  21
ENDBRANCH  12  15
ENDBRANCH   6  11
ENDBRANCH   1   5
BRANCH   3  34
ATOM     34  C   UNL A   1      32.056  30.173  26.659  1.00  0.00     0.118 C 
BRANCH  34  35
ATOM     35  C   UNL A   1      31.796  31.672  26.637  1.00  0.00     0.042 C 
BRANCH  35  36
ATOM     36  C   UNL A   1      32.844  32.459  27.424  1.00  0.00     0.118 C 
BRANCH  36  37
ATOM     37  N   UNL A   1      32.470  33.855  27.630  1.00  0.00    -0.352 N 
ATOM     38  C   UNL A   1      32.966  34.783  28.521  1.00  0.00     0.251 C 
ATOM     39  H   UNL A   1      31.752  34.186  27.043  1.00  0.00     0.163 HD
ATOM     40  O   UNL A   1      32.409  35.857  28.668  1.00  0.00    -0.269 OA
BRANCH  38  41
ATOM     41  C   UNL A   1      34.160  34.447  29.323  1.00  0.00     0.039 A 
ATOM     42  C   UNL A   1      33.992  33.922  30.607  1.00  0.00     0.014 A 
ATOM     43  C   UNL A   1      35.440  34.615  28.791  1.00  0.00     0.014 A 
ATOM     44  C   UNL A   1      35.107  33.462  31.314  1.00  0.00     0.010 A 
ATOM     45  C   UNL A   1      36.536  34.080  29.457  1.00  0.00     0.010 A 
ATOM     46  C   UNL A   1      36.378  33.482  30.718  1.00  0.00    -0.014 A 
BRANCH  46  47
ATOM     47  C   UNL A   1      37.555  32.850  31.364  1.00  0.00     0.031 A 
ATOM     48  C   UNL A   1      38.222  31.667  30.722  1.00  0.00     0.074 A 
ATOM     49  C   UNL A   1      37.942  33.265  32.587  1.00  0.00     0.049 A 
ATOM     50  N   UNL A   1      39.156  30.883  31.197  1.00  0.00    -0.248 NA
ATOM     51  C   UNL A   1      37.748  31.291  29.380  1.00  0.00     0.031 C 
ATOM     52  C   UNL A   1      37.333  34.362  33.342  1.00  0.00     0.029 A 
ATOM     53  N   UNL A   1      38.924  32.794  33.425  1.00  0.00    -0.354 N 
ATOM     54  C   UNL A   1      39.357  29.908  30.230  1.00  0.00     0.074 A 
ATOM     55  C   UNL A   1      38.423  30.173  29.158  1.00  0.00     0.031 C 
ATOM     56  C   UNL A   1      37.958  34.485  34.524  1.00  0.00     0.029 A 
ATOM     57  C   UNL A   1      38.980  33.450  34.630  1.00  0.00     0.049 A 
ATOM     58  H   UNL A   1      39.530  32.056  33.184  1.00  0.00     0.167 HD
ATOM     59  C   UNL A   1      40.255  28.894  30.232  1.00  0.00     0.037 A 
ATOM     60  C   UNL A   1      39.754  33.227  35.710  1.00  0.00     0.037 A 
ATOM     61  C   UNL A   1      41.216  28.667  31.278  1.00  0.00     0.049 A 
ATOM     62  C   UNL A   1      40.754  32.104  35.677  1.00  0.00     0.074 A 
ATOM     63  C   UNL A   1      42.240  27.738  31.321  1.00  0.00     0.029 A 
ATOM     64  N   UNL A   1      41.268  29.377  32.468  1.00  0.00    -0.354 N 
ATOM     65  N   UNL A   1      40.997  31.244  34.719  1.00  0.00    -0.248 NA
ATOM     66  C   UNL A   1      41.586  31.920  36.875  1.00  0.00     0.031 C 
ATOM     67  C   UNL A   1      42.882  27.853  32.558  1.00  0.00     0.029 A 
ATOM     68  C   UNL A   1      42.287  28.885  33.266  1.00  0.00     0.049 A 
ATOM     69  H   UNL A   1      40.669  30.121  32.710  1.00  0.00     0.167 HD
ATOM     70  C   UNL A   1      42.019  30.431  35.188  1.00  0.00     0.074 A 
ATOM     71  C   UNL A   1      42.364  30.911  36.510  1.00  0.00     0.031 C 
ATOM     72  C   UNL A   1      42.616  29.378  34.579  1.00  0.00     0.037 A 
BRANCH  59  73
ATOM     73  C   UNL A   1      40.251  27.955  29.061  1.00  0.00     0.064 A 
ATOM     74  C   UNL A   1      40.979  28.229  27.894  1.00  0.00     0.173 A 
ATOM     75  C   UNL A   1      39.551  26.740  29.130  1.00  0.00     0.173 A 
ATOM     76  F   UNL A   1      41.656  29.381  27.775  1.00  0.00    -0.203 F 
ATOM     77  C   UNL A   1      40.986  27.332  26.829  1.00  0.00     0.198 A 
ATOM     78  C   UNL A   1      39.584  25.834  28.075  1.00  0.00     0.198 A 
ATOM     79  F   UNL A   1      38.844  26.428  30.227  1.00  0.00    -0.203 F 
ATOM     80  F   UNL A   1      41.653  27.634  25.706  1.00  0.00    -0.200 F 
ATOM     81  C   UNL A   1      40.296  26.133  26.923  1.00  0.00     0.200 A 
ATOM     82  F   UNL A   1      38.927  24.669  28.171  1.00  0.00    -0.200 F 
ATOM     83  F   UNL A   1      40.312  25.267  25.899  1.00  0.00    -0.200 F 
ENDBRANCH  59  73
BRANCH  60  84
ATOM     84  C   UNL A   1      39.615  34.088  36.915  1.00  0.00     0.064 A 
ATOM     85  C   UNL A   1      38.828  33.683  38.001  1.00  0.00     0.173 A 
ATOM     86  C   UNL A   1      40.258  35.331  37.003  1.00  0.00     0.173 A 
ATOM     87  F   UNL A   1      38.177  32.512  37.955  1.00  0.00    -0.203 F 
ATOM     88  C   UNL A   1      38.672  34.497  39.121  1.00  0.00     0.198 A 
ATOM     89  C   UNL A   1      40.124  36.133  38.135  1.00  0.00     0.198 A 
ATOM     90  F   UNL A   1      41.029  35.763  35.994  1.00  0.00    -0.203 F 
ATOM     91  F   UNL A   1      37.877  34.105  40.126  1.00  0.00    -0.200 F 
ATOM     92  C   UNL A   1      39.324  35.718  39.190  1.00  0.00     0.200 A 
ATOM     93  F   UNL A   1      40.769  37.306  38.204  1.00  0.00    -0.200 F 
ATOM     94  F   UNL A   1      39.177  36.499  40.269  1.00  0.00    -0.200 F 
ENDBRANCH  60  84
BRANCH  72  95
ATOM     95  C   UNL A   1      43.714  28.682  35.327  1.00  0.00     0.064 A 
ATOM     96  C   UNL A   1      45.056  29.054  35.169  1.00  0.00     0.173 A 
ATOM     97  C   UNL A   1      43.414  27.671  36.254  1.00  0.00     0.173 A 
ATOM     98  F   UNL A   1      45.393  30.003  34.282  1.00  0.00    -0.203 F 
ATOM     99  C   UNL A   1      46.061  28.430  35.902  1.00  0.00     0.198 A 
ATOM    100  C   UNL A   1      44.418  27.068  37.004  1.00  0.00     0.198 A 
ATOM    101  F   UNL A   1      42.143  27.283  36.443  1.00  0.00    -0.203 F 
ATOM    102  F   UNL A   1      47.341  28.777  35.710  1.00  0.00    -0.200 F 
ATOM    103  C   UNL A   1      45.741  27.445  36.825  1.00  0.00     0.200 A 
ATOM    104  F   UNL A   1      44.107  26.126  37.904  1.00  0.00    -0.200 F 
ATOM    105  F   UNL A   1      46.709  26.855  37.539  1.00  0.00    -0.200 F 
ENDBRANCH  72  95
ENDBRANCH  46  47
ENDBRANCH  38  41
ENDBRANCH  36  37
ENDBRANCH  35  36
ENDBRANCH  34  35
ENDBRANCH   3  34
TORSDOF 16
ENDMDL
MODEL 2
REMARK VINA RESULT:     -13.6      5.175     11.655
REMARK SMILES O=C(COc1ccccc1Br)Nc1cccc(C(=O)Nc2ccc(C(=O)NCCCNC(=O)c3ccc(-c4c5nc(c(-c6c(F)c(F)c(F)c(F)c6F)c6ccc([nH]6)c(-c6c(F)c(F)c(F)c(F)c6F)c6nc(c(-c7c(F)c(F)c(F)c(F)c7F)c7ccc4[nH]7)C=C6)C=C5)cc3)cc2)c1
REMARK SMILES IDX 25 1 26 2 27 3 24 5 21 6 22 7 98 8 23 9 97 10 20 11 18 12
REMARK SMILES IDX 19 13 17 15 13 16 14 17 99 18 15 19 16 20 12 21 1 22 2 23
REMARK SMILES IDX 3 25 4 26 5 27 6 28 10 29 7 30 9 31 11 32 8 33 28 34 29 35
REMARK SMILES IDX 30 36 31 37 32 38 33 40 34 41 35 42 96 43 36 44 95 45 37 46
REMARK SMILES IDX 38 47 39 48 89 49 40 50 94 51 88 52 90 53 41 54 93 55 87 56
REMARK SMILES IDX 86 57 42 59 74 60 54 61 73 62 55 63 58 64 72 65 91 66 56 67
REMARK SMILES IDX 57 68 71 70 92 71 59 72 43 73 44 74 52 75 45 76 46 77 50 78
REMARK SMILES IDX 53 79 47 80 48 81 51 82 49 83 75 84 76 85 84 86 77 87 78 88
REMARK SMILES IDX 82 89 85 90 79 91 80 92 83 93 81 94 60 95 61 96 69 97 62 98
REMARK SMILES IDX 63 99 67 100 70 101 64 102 65 103 68 104 66 105
REMARK H PARENT 27 4 20 14 12 24 31 39 90 58 58 69
REMARK Flexibility Score: inf
ROOT
ATOM      1  C   UNL A   1      37.036  23.557  25.763  1.00  0.00     0.251 C 
ATOM      2  O   UNL A   1      37.617  24.463  26.360  1.00  0.00    -0.269 OA
ATOM      3  N   UNL A   1      37.814  22.600  25.158  1.00  0.00    -0.352 N 
ATOM      4  H   UNL A   1      38.780  22.763  25.255  1.00  0.00     0.163 HD
ENDROOT
BRANCH   1   5
ATOM      5  C   UNL A   1      35.553  23.492  25.794  1.00  0.00     0.039 A 
ATOM      6  C   UNL A   1      32.796  23.906  25.877  1.00  0.00     0.041 A 
ATOM      7  C   UNL A   1      33.485  24.142  24.688  1.00  0.00     0.027 A 
ATOM      8  C   UNL A   1      33.442  23.283  26.948  1.00  0.00     0.027 A 
ATOM      9  C   UNL A   1      34.871  23.968  24.663  1.00  0.00     0.016 A 
ATOM     10  C   UNL A   1      34.817  23.040  26.888  1.00  0.00     0.016 A 
BRANCH   6  11
ATOM     11  N   UNL A   1      31.496  24.417  25.993  1.00  0.00    -0.322 N 
ATOM     12  C   UNL A   1      31.085  25.739  25.945  1.00  0.00     0.255 C 
ATOM     13  O   UNL A   1      29.941  26.030  26.289  1.00  0.00    -0.269 OA
ATOM     14  H   UNL A   1      30.783  23.751  26.126  1.00  0.00     0.170 HD
BRANCH  12  15
ATOM     15  C   UNL A   1      31.962  26.814  25.375  1.00  0.00     0.042 A 
ATOM     16  C   UNL A   1      33.443  28.736  25.646  1.00  0.00     0.042 A 
ATOM     17  C   UNL A   1      33.579  28.808  24.257  1.00  0.00     0.026 A 
ATOM     18  C   UNL A   1      32.681  27.701  26.190  1.00  0.00     0.040 A 
ATOM     19  C   UNL A   1      32.956  27.866  23.434  1.00  0.00     0.003 A 
ATOM     20  C   UNL A   1      32.140  26.877  23.990  1.00  0.00     0.014 A 
BRANCH  16  21
ATOM     21  N   UNL A   1      34.101  29.709  26.426  1.00  0.00    -0.323 N 
ATOM     22  O   UNL A   1      32.334  31.021  27.209  1.00  0.00    -0.271 OA
ATOM     23  C   UNL A   1      33.526  30.732  27.163  1.00  0.00     0.262 C 
ATOM     24  H   UNL A   1      35.084  29.655  26.451  1.00  0.00     0.170 HD
BRANCH  23  25
ATOM     25  C   UNL A   1      34.546  31.569  27.929  1.00  0.00     0.329 C 
BRANCH  25  26
ATOM     26  O   UNL A   1      34.071  32.896  28.174  1.00  0.00    -0.483 OA
BRANCH  26  27
ATOM     27  C   UNL A   1      34.285  33.204  29.492  1.00  0.00     0.134 A 
ATOM     28  C   UNL A   1      34.823  32.217  30.321  1.00  0.00     0.047 A 
ATOM     29  C   UNL A   1      34.010  34.479  29.993  1.00  0.00     0.060 A 
ATOM     30  C   UNL A   1      35.164  32.531  31.634  1.00  0.00     0.004 A 
ATOM     31  C   UNL A   1      34.368  34.793  31.302  1.00  0.00     0.019 A 
ATOM     32  Br  UNL A   1      33.159  35.817  28.958  1.00  0.00    -0.047 Br
ATOM     33  C   UNL A   1      34.955  33.823  32.116  1.00  0.00     0.001 A 
ENDBRANCH  26  27
ENDBRANCH  25  26
ENDBRANCH  23  25
ENDBRANCH  16  21
ENDBRANCH  12  15
ENDBRANCH   6  11
ENDBRANCH   1   5
BRANCH   3  34
ATOM     34  C   UNL A   1      37.503  21.397  24.404  1.00  0.00     0.118 C 
BRANCH  34  35
ATOM     35  C   UNL A   1      38.068  20.160  25.088  1.00  0.00     0.042 C 
BRANCH  35  36
ATOM     36  C   UNL A   1      39.371  20.449  25.834  1.00  0.00     0.118 C 
BRANCH  36  37
ATOM     37  N   UNL A   1      40.253  19.287  25.908  1.00  0.00    -0.352 N 
ATOM     38  C   UNL A   1      41.614  19.221  26.116  1.00  0.00     0.251 C 
ATOM     39  H   UNL A   1      39.807  18.417  25.791  1.00  0.00     0.163 HD
ATOM     40  O   UNL A   1      42.209  18.166  25.973  1.00  0.00    -0.269 OA
BRANCH  38  41
ATOM     41  C   UNL A   1      42.350  20.449  26.479  1.00  0.00     0.039 A 
ATOM     42  C   UNL A   1      43.057  21.136  25.489  1.00  0.00     0.014 A 
ATOM     43  C   UNL A   1      42.309  20.938  27.786  1.00  0.00     0.014 A 
ATOM     44  C   UNL A   1      43.630  22.375  25.787  1.00  0.00     0.010 A 
ATOM     45  C   UNL A   1      42.804  22.207  28.059  1.00  0.00     0.010 A 
ATOM     46  C   UNL A   1      43.454  22.946  27.058  1.00  0.00    -0.014 A 
BRANCH  46  47
ATOM     47  C   UNL A   1      43.900  24.329  27.362  1.00  0.00     0.031 A 
ATOM     48  C   UNL A   1      42.908  25.352  27.841  1.00  0.00     0.074 A 
ATOM     49  C   UNL A   1      45.168  24.693  27.089  1.00  0.00     0.049 A 
ATOM     50  N   UNL A   1      43.062  26.639  28.011  1.00  0.00    -0.248 NA
ATOM     51  C   UNL A   1      41.548  24.866  28.131  1.00  0.00     0.031 C 
ATOM     52  C   UNL A   1      46.208  23.807  26.560  1.00  0.00     0.029 A 
ATOM     53  N   UNL A   1      45.794  25.911  27.190  1.00  0.00    -0.354 N 
ATOM     54  C   UNL A   1      41.817  27.120  28.396  1.00  0.00     0.074 A 
ATOM     55  C   UNL A   1      40.909  25.995  28.396  1.00  0.00     0.031 C 
ATOM     56  C   UNL A   1      47.341  24.508  26.392  1.00  0.00     0.029 A 
ATOM     57  C   UNL A   1      47.098  25.899  26.757  1.00  0.00     0.049 A 
ATOM     58  H   UNL A   1      45.350  26.718  27.539  1.00  0.00     0.167 HD
ATOM     59  C   UNL A   1      41.473  28.385  28.734  1.00  0.00     0.037 A 
ATOM     60  C   UNL A   1      47.990  26.901  26.645  1.00  0.00     0.037 A 
ATOM     61  C   UNL A   1      42.394  29.489  28.781  1.00  0.00     0.049 A 
ATOM     62  C   UNL A   1      47.584  28.293  27.044  1.00  0.00     0.074 A 
ATOM     63  C   UNL A   1      42.168  30.782  29.218  1.00  0.00     0.029 A 
ATOM     64  N   UNL A   1      43.718  29.429  28.371  1.00  0.00    -0.354 N 
ATOM     65  N   UNL A   1      46.428  28.719  27.493  1.00  0.00    -0.248 NA
ATOM     66  C   UNL A   1      48.604  29.345  26.921  1.00  0.00     0.031 C 
ATOM     67  C   UNL A   1      43.342  31.518  29.029  1.00  0.00     0.029 A 
ATOM     68  C   UNL A   1      44.312  30.672  28.516  1.00  0.00     0.049 A 
ATOM     69  H   UNL A   1      44.168  28.623  28.029  1.00  0.00     0.167 HD
ATOM     70  C   UNL A   1      46.586  30.078  27.723  1.00  0.00     0.074 A 
ATOM     71  C   UNL A   1      47.955  30.405  27.382  1.00  0.00     0.031 C 
ATOM     72  C   UNL A   1      45.677  30.977  28.173  1.00  0.00     0.037 A 
BRANCH  59  73
ATOM     73  C   UNL A   1      40.039  28.646  29.093  1.00  0.00     0.064 A 
ATOM     74  C   UNL A   1      39.107  29.078  28.138  1.00  0.00     0.173 A 
ATOM     75  C   UNL A   1      39.581  28.409  30.399  1.00  0.00     0.173 A 
ATOM     76  F   UNL A   1      39.497  29.328  26.879  1.00  0.00    -0.203 F 
ATOM     77  C   UNL A   1      37.774  29.288  28.483  1.00  0.00     0.198 A 
ATOM     78  C   UNL A   1      38.242  28.593  30.732  1.00  0.00     0.198 A 
ATOM     79  F   UNL A   1      40.431  27.989  31.348  1.00  0.00    -0.203 F 
ATOM     80  F   UNL A   1      36.910  29.743  27.564  1.00  0.00    -0.200 F 
ATOM     81  C   UNL A   1      37.342  29.038  29.776  1.00  0.00     0.200 A 
ATOM     82  F   UNL A   1      37.822  28.339  31.980  1.00  0.00    -0.200 F 
ATOM     83  F   UNL A   1      36.056  29.232  30.103  1.00  0.00    -0.200 F 
ENDBRANCH  59  73
BRANCH  60  84
ATOM     84  C   UNL A   1      49.359  26.625  26.134  1.00  0.00     0.064 A 
ATOM     85  C   UNL A   1      49.692  26.878  24.796  1.00  0.00     0.173 A 
ATOM     86  C   UNL A   1      50.358  26.098  26.966  1.00  0.00     0.173 A 
ATOM     87  F   UNL A   1      48.765  27.362  23.957  1.00  0.00    -0.203 F 
ATOM     88  C   UNL A   1      50.964  26.596  24.305  1.00  0.00     0.198 A 
ATOM     89  C   UNL A   1      51.638  25.842  26.480  1.00  0.00     0.198 A 
ATOM     90  F   UNL A   1      50.093  25.844  28.256  1.00  0.00    -0.203 F 
ATOM     91  F   UNL A   1      51.242  26.805  23.010  1.00  0.00    -0.200 F 
ATOM     92  C   UNL A   1      51.938  26.084  25.148  1.00  0.00     0.200 A 
ATOM     93  F   UNL A   1      52.581  25.361  27.303  1.00  0.00    -0.200 F 
ATOM     94  F   UNL A   1      53.163  25.815  24.676  1.00  0.00    -0.200 F 
ENDBRANCH  60  84
BRANCH  72  95
ATOM     95  C   UNL A   1      46.134  32.395  28.338  1.00  0.00     0.064 A 
ATOM     96  C   UNL A   1      45.981  33.338  27.311  1.00  0.00     0.173 A 
ATOM     97  C   UNL A   1      46.678  32.830  29.557  1.00  0.00     0.173 A 
ATOM     98  F   UNL A   1      45.482  32.965  26.123  1.00  0.00    -0.203 F 
ATOM     99  C   UNL A   1      46.369  34.661  27.494  1.00  0.00     0.198 A 
ATOM    100  C   UNL A   1      47.040  34.160  29.745  1.00  0.00     0.198 A 
ATOM    101  F   UNL A   1      46.840  31.966  30.571  1.00  0.00    -0.203 F 
ATOM    102  F   UNL A   1      46.246  35.538  26.487  1.00  0.00    -0.200 F 
ATOM    103  C   UNL A   1      46.889  35.074  28.712  1.00  0.00     0.200 A 
ATOM    104  F   UNL A   1      47.530  34.560  30.925  1.00  0.00    -0.200 F 
ATOM    105  F   UNL A   1      47.250  36.352  28.889  1.00  0.00    -0.200 F 
ENDBRANCH  72  95
ENDBRANCH  46  47
ENDBRANCH  38  41
ENDBRANCH  36  37
ENDBRANCH  35  36
ENDBRANCH  34  35
ENDBRANCH   3  34
TORSDOF 16
ENDMDL
MODEL 3
REMARK VINA RESULT:     -13.5      0.938      7.008
REMARK SMILES O=C(COc1ccccc1Br)Nc1cccc(C(=O)Nc2ccc(C(=O)NCCCNC(=O)c3ccc(-c4c5nc(c(-c6c(F)c(F)c(F)c(F)c6F)c6ccc([nH]6)c(-c6c(F)c(F)c(F)c(F)c6F)c6nc(c(-c7c(F)c(F)c(F)c(F)c7F)c7ccc4[nH]7)C=C6)C=C5)cc3)cc2)c1
REMARK SMILES IDX 25 1 26 2 27 3 24 5 21 6 22 7 98 8 23 9 97 10 20 11 18 12
REMARK SMILES IDX 19 13 17 15 13 16 14 17 99 18 15 19 16 20 12 21 1 22 2 23
REMARK SMILES IDX 3 25 4 26 5 27 6 28 10 29 7 30 9 31 11 32 8 33 28 34 29 35
REMARK SMILES IDX 30 36 31 37 32 38 33 40 34 41 35 42 96 43 36 44 95 45 37 46
REMARK SMILES IDX 38 47 39 48 89 49 40 50 94 51 88 52 90 53 41 54 93 55 87 56
REMARK SMILES IDX 86 57 42 59 74 60 54 61 73 62 55 63 58 64 72 65 91 66 56 67
REMARK SMILES IDX 57 68 71 70 92 71 59 72 43 73 44 74 52 75 45 76 46 77 50 78
REMARK SMILES IDX 53 79 47 80 48 81 51 82 49 83 75 84 76 85 84 86 77 87 78 88
REMARK SMILES IDX 82 89 85 90 79 91 80 92 83 93 81 94 60 95 61 96 69 97 62 98
REMARK SMILES IDX 63 99 67 100 70 101 64 102 65 103 68 104 66 105
REMARK H PARENT 27 4 20 14 12 24 31 39 90 58 58 69
REMARK Flexibility Score: inf
ROOT
ATOM      1  C   UNL A   1      31.071  29.256  24.279  1.00  0.00     0.251 C 
ATOM      2  O   UNL A   1      30.547  29.336  23.168  1.00  0.00    -0.269 OA
ATOM      3  N   UNL A   1      31.229  30.422  24.988  1.00  0.00    -0.352 N 
ATOM      4  H   UNL A   1      30.912  31.219  24.506  1.00  0.00     0.163 HD
ENDROOT
BRANCH   1   5
ATOM      5  C   UNL A   1      31.428  27.922  24.825  1.00  0.00     0.039 A 
ATOM      6  C   UNL A   1      31.772  25.552  26.255  1.00  0.00     0.041 A 
ATOM      7  C   UNL A   1      30.598  25.746  25.530  1.00  0.00     0.027 A 
ATOM      8  C   UNL A   1      32.841  26.440  26.105  1.00  0.00     0.027 A 
ATOM      9  C   UNL A   1      30.415  26.951  24.846  1.00  0.00     0.016 A 
ATOM     10  C   UNL A   1      32.679  27.608  25.355  1.00  0.00     0.016 A 
BRANCH   6  11
ATOM     11  N   UNL A   1      31.792  24.524  27.207  1.00  0.00    -0.322 N 
ATOM     12  C   UNL A   1      32.422  23.293  27.129  1.00  0.00     0.255 C 
ATOM     13  O   UNL A   1      32.151  22.421  27.954  1.00  0.00    -0.269 OA
ATOM     14  H   UNL A   1      31.293  24.699  28.038  1.00  0.00     0.170 HD
BRANCH  12  15
ATOM     15  C   UNL A   1      33.511  23.029  26.132  1.00  0.00     0.042 A 
ATOM     16  C   UNL A   1      35.870  22.792  25.552  1.00  0.00     0.042 A 
ATOM     17  C   UNL A   1      35.504  22.538  24.229  1.00  0.00     0.026 A 
ATOM     18  C   UNL A   1      34.863  22.976  26.500  1.00  0.00     0.040 A 
ATOM     19  C   UNL A   1      34.156  22.480  23.864  1.00  0.00     0.003 A 
ATOM     20  C   UNL A   1      33.161  22.735  24.811  1.00  0.00     0.014 A 
BRANCH  16  21
ATOM     21  N   UNL A   1      37.245  22.832  25.862  1.00  0.00    -0.323 N 
ATOM     22  O   UNL A   1      37.933  20.643  25.426  1.00  0.00    -0.271 OA
ATOM     23  C   UNL A   1      38.167  21.803  25.749  1.00  0.00     0.262 C 
ATOM     24  H   UNL A   1      37.591  23.690  26.198  1.00  0.00     0.170 HD
BRANCH  23  25
ATOM     25  C   UNL A   1      39.584  22.221  26.128  1.00  0.00     0.329 C 
BRANCH  25  26
ATOM     26  O   UNL A   1      40.127  21.393  27.162  1.00  0.00    -0.483 OA
BRANCH  26  27
ATOM     27  C   UNL A   1      41.255  20.778  26.686  1.00  0.00     0.134 A 
ATOM     28  C   UNL A   1      41.176  19.424  26.348  1.00  0.00     0.047 A 
ATOM     29  C   UNL A   1      42.447  21.485  26.508  1.00  0.00     0.060 A 
ATOM     30  C   UNL A   1      42.266  18.799  25.751  1.00  0.00     0.004 A 
ATOM     31  C   UNL A   1      43.530  20.859  25.897  1.00  0.00     0.019 A 
ATOM     32  Br  UNL A   1      42.658  23.281  27.071  1.00  0.00    -0.047 Br
ATOM     33  C   UNL A   1      43.435  19.522  25.508  1.00  0.00     0.001 A 
ENDBRANCH  26  27
ENDBRANCH  25  26
ENDBRANCH  23  25
ENDBRANCH  16  21
ENDBRANCH  12  15
ENDBRANCH   6  11
ENDBRANCH   1   5
BRANCH   3  34
ATOM     34  C   UNL A   1      31.766  30.719  26.306  1.00  0.00     0.118 C 
BRANCH  34  35
ATOM     35  C   UNL A   1      31.475  32.158  26.705  1.00  0.00     0.042 C 
BRANCH  35  36
ATOM     36  C   UNL A   1      32.688  32.850  27.327  1.00  0.00     0.118 C 
BRANCH  36  37
ATOM     37  N   UNL A   1      32.441  34.254  27.645  1.00  0.00    -0.352 N 
ATOM     38  C   UNL A   1      32.988  35.048  28.630  1.00  0.00     0.251 C 
ATOM     39  H   UNL A   1      31.781  34.702  27.068  1.00  0.00     0.163 HD
ATOM     40  O   UNL A   1      32.531  36.155  28.855  1.00  0.00    -0.269 OA
BRANCH  38  41
ATOM     41  C   UNL A   1      34.113  34.529  29.435  1.00  0.00     0.039 A 
ATOM     42  C   UNL A   1      33.852  33.977  30.692  1.00  0.00     0.014 A 
ATOM     43  C   UNL A   1      35.414  34.553  28.931  1.00  0.00     0.014 A 
ATOM     44  C   UNL A   1      34.884  33.349  31.395  1.00  0.00     0.010 A 
ATOM     45  C   UNL A   1      36.419  33.855  29.589  1.00  0.00     0.010 A 
ATOM     46  C   UNL A   1      36.160  33.231  30.820  1.00  0.00    -0.014 A 
BRANCH  46  47
ATOM     47  C   UNL A   1      37.233  32.427  31.457  1.00  0.00     0.031 A 
ATOM     48  C   UNL A   1      37.749  32.803  32.817  1.00  0.00     0.074 A 
ATOM     49  C   UNL A   1      37.824  31.438  30.757  1.00  0.00     0.049 A 
ATOM     50  N   UNL A   1      38.777  32.329  33.473  1.00  0.00    -0.248 NA
ATOM     51  C   UNL A   1      37.036  33.883  33.518  1.00  0.00     0.031 C 
ATOM     52  C   UNL A   1      37.455  31.020  29.403  1.00  0.00     0.029 A 
ATOM     53  N   UNL A   1      38.881  30.621  31.077  1.00  0.00    -0.354 N 
ATOM     54  C   UNL A   1      38.852  33.072  34.643  1.00  0.00     0.074 A 
ATOM     55  C   UNL A   1      37.791  34.054  34.591  1.00  0.00     0.031 C 
ATOM     56  C   UNL A   1      38.264  30.023  29.013  1.00  0.00     0.029 A 
ATOM     57  C   UNL A   1      39.237  29.760  30.068  1.00  0.00     0.049 A 
ATOM     58  H   UNL A   1      39.340  30.650  31.948  1.00  0.00     0.167 HD
ATOM     59  C   UNL A   1      39.719  32.933  35.674  1.00  0.00     0.037 A 
ATOM     60  C   UNL A   1      40.248  28.873  29.992  1.00  0.00     0.037 A 
ATOM     61  C   UNL A   1      40.739  31.921  35.741  1.00  0.00     0.049 A 
ATOM     62  C   UNL A   1      41.185  28.728  31.159  1.00  0.00     0.074 A 
ATOM     63  C   UNL A   1      41.593  31.626  36.789  1.00  0.00     0.029 A 
ATOM     64  N   UNL A   1      41.045  31.040  34.714  1.00  0.00    -0.354 N 
ATOM     65  N   UNL A   1      41.190  29.375  32.299  1.00  0.00    -0.248 NA
ATOM     66  C   UNL A   1      42.259  27.732  31.031  1.00  0.00     0.031 C 
ATOM     67  C   UNL A   1      42.447  30.598  36.379  1.00  0.00     0.029 A 
ATOM     68  C   UNL A   1      42.096  30.222  35.093  1.00  0.00     0.049 A 
ATOM     69  H   UNL A   1      40.583  31.002  33.845  1.00  0.00     0.167 HD
ATOM     70  C   UNL A   1      42.249  28.854  33.029  1.00  0.00     0.074 A 
ATOM     71  C   UNL A   1      42.854  27.824  32.211  1.00  0.00     0.031 C 
ATOM     72  C   UNL A   1      42.684  29.200  34.265  1.00  0.00     0.037 A 
BRANCH  59  73
ATOM     73  C   UNL A   1      39.598  33.891  36.823  1.00  0.00     0.064 A 
ATOM     74  C   UNL A   1      40.231  35.142  36.809  1.00  0.00     0.173 A 
ATOM     75  C   UNL A   1      38.794  33.573  37.929  1.00  0.00     0.173 A 
ATOM     76  F   UNL A   1      41.018  35.489  35.780  1.00  0.00    -0.203 F 
ATOM     77  C   UNL A   1      40.085  36.030  37.872  1.00  0.00     0.198 A 
ATOM     78  C   UNL A   1      38.627  34.475  38.976  1.00  0.00     0.198 A 
ATOM     79  F   UNL A   1      38.162  32.391  37.988  1.00  0.00    -0.203 F 
ATOM     80  F   UNL A   1      40.735  37.202  37.857  1.00  0.00    -0.200 F 
ATOM     81  C   UNL A   1      39.278  35.699  38.949  1.00  0.00     0.200 A 
ATOM     82  F   UNL A   1      37.837  34.159  40.012  1.00  0.00    -0.200 F 
ATOM     83  F   UNL A   1      39.131  36.559  39.967  1.00  0.00    -0.200 F 
ENDBRANCH  59  73
BRANCH  60  84
ATOM     84  C   UNL A   1      40.427  28.051  28.766  1.00  0.00     0.064 A 
ATOM     85  C   UNL A   1      39.789  26.811  28.632  1.00  0.00     0.173 A 
ATOM     86  C   UNL A   1      41.243  28.482  27.709  1.00  0.00     0.173 A 
ATOM     87  F   UNL A   1      39.015  26.347  29.625  1.00  0.00    -0.203 F 
ATOM     88  C   UNL A   1      39.974  26.024  27.498  1.00  0.00     0.198 A 
ATOM     89  C   UNL A   1      41.406  27.707  26.563  1.00  0.00     0.198 A 
ATOM     90  F   UNL A   1      41.872  29.665  27.784  1.00  0.00    -0.203 F 
ATOM     91  F   UNL A   1      39.387  24.822  27.416  1.00  0.00    -0.200 F 
ATOM     92  C   UNL A   1      40.777  26.474  26.462  1.00  0.00     0.200 A 
ATOM     93  F   UNL A   1      42.172  28.153  25.558  1.00  0.00    -0.200 F 
ATOM     94  F   UNL A   1      40.953  25.718  25.370  1.00  0.00    -0.200 F 
ENDBRANCH  60  84
BRANCH  72  95
ATOM     95  C   UNL A   1      43.859  28.451  34.817  1.00  0.00     0.064 A 
ATOM     96  C   UNL A   1      43.698  27.233  35.493  1.00  0.00     0.173 A 
ATOM     97  C   UNL A   1      45.164  28.926  34.617  1.00  0.00     0.173 A 
ATOM     98  F   UNL A   1      42.468  26.747  35.722  1.00  0.00    -0.203 F 
ATOM     99  C   UNL A   1      44.800  26.525  35.961  1.00  0.00     0.198 A 
ATOM    100  C   UNL A   1      46.266  28.202  35.063  1.00  0.00     0.198 A 
ATOM    101  F   UNL A   1      45.370  30.085  33.971  1.00  0.00    -0.203 F 
ATOM    102  F   UNL A   1      44.621  25.380  36.635  1.00  0.00    -0.200 F 
ATOM    103  C   UNL A   1      46.083  27.005  35.738  1.00  0.00     0.200 A 
ATOM    104  F   UNL A   1      47.503  28.661  34.836  1.00  0.00    -0.200 F 
ATOM    105  F   UNL A   1      47.143  26.315  36.178  1.00  0.00    -0.200 F 
ENDBRANCH  72  95
ENDBRANCH  46  47
ENDBRANCH  38  41
ENDBRANCH  36  37
ENDBRANCH  35  36
ENDBRANCH  34  35
ENDBRANCH   3  34
TORSDOF 16
ENDMDL
