MODEL 1
REMARK VINA RESULT:     -14.1      0.000      0.000
REMARK SMILES Cc1cc(C)cc(Oc2nc3ccccn3c(=O)c2/C=C2\SC(=S)N(CCC(=O)NCCCNC(=O)c3ccc(-c4c5nc(c(-c6c(F)c(F)c(F)c(F)c6F)c6ccc([nH]6)c(-c6c(F)c(F)c(F)c(F)c6F)c6nc(c(-c7c(F)c(F)c(F)c(F)c7F)c7ccc4[nH]7)C=C6)C=C5)cc3)C2=O)c1
REMARK SMILES IDX 28 1 29 2 30 3 27 5 26 6 25 7 20 8 21 9 22 10 100 11 23 12
REMARK SMILES IDX 101 13 24 14 19 15 9 16 10 17 11 18 17 19 12 20 16 21 18 22
REMARK SMILES IDX 13 23 15 24 14 25 8 26 7 27 1 28 2 29 3 30 102 31 4 32 5 33
REMARK SMILES IDX 6 34 31 35 32 36 33 37 34 38 35 39 36 41 37 42 38 43 99 44
REMARK SMILES IDX 39 45 98 46 40 47 41 48 42 49 92 50 43 51 97 52 91 53 93 54
REMARK SMILES IDX 44 55 96 56 90 57 89 58 45 60 77 61 57 62 76 63 58 64 61 65
REMARK SMILES IDX 75 66 94 67 59 68 60 69 74 71 95 72 62 73 46 74 47 75 55 76
REMARK SMILES IDX 48 77 49 78 53 79 56 80 50 81 51 82 54 83 52 84 78 85 79 86
REMARK SMILES IDX 87 87 80 88 81 89 85 90 88 91 82 92 83 93 86 94 84 95 63 96
REMARK SMILES IDX 64 97 72 98 65 99 66 100 70 101 73 102 67 103 68 104 71 105
REMARK SMILES IDX 69 106
REMARK H PARENT 30 4 34 40 93 59 61 70
REMARK Flexibility Score: inf
ROOT
ATOM      1  C   UNL A   1      30.918  29.127  22.791  1.00  0.00     0.221 C 
ATOM      2  O   UNL A   1      30.239  29.455  21.814  1.00  0.00    -0.275 OA
ATOM      3  N   UNL A   1      30.740  29.820  23.952  1.00  0.00    -0.356 N 
ATOM      4  H   UNL A   1      29.993  30.461  23.933  1.00  0.00     0.163 HD
ENDROOT
BRANCH   1   5
ATOM      5  C   UNL A   1      31.888  27.966  22.687  1.00  0.00     0.122 C 
BRANCH   5   6
ATOM      6  C   UNL A   1      31.220  26.614  22.979  1.00  0.00     0.137 C 
BRANCH   6   7
ATOM      7  N   UNL A   1      32.211  25.531  23.054  1.00  0.00    -0.292 N 
ATOM      8  C   UNL A   1      33.348  22.926  25.194  1.00  0.00     0.041 C 
ATOM      9  C   UNL A   1      33.300  23.782  24.164  1.00  0.00     0.081 C 
ATOM     10  S   UNL A   1      33.734  23.515  22.527  1.00  0.00    -0.054 SA
ATOM     11  C   UNL A   1      32.674  25.122  24.287  1.00  0.00     0.266 C 
ATOM     12  C   UNL A   1      32.737  24.860  21.968  1.00  0.00     0.148 C 
ATOM     13  O   UNL A   1      32.573  25.735  25.342  1.00  0.00    -0.268 OA
ATOM     14  S   UNL A   1      32.495  25.170  20.348  1.00  0.00    -0.052 S 
BRANCH   8  15
ATOM     15  C   UNL A   1      33.897  21.580  25.202  1.00  0.00     0.104 A 
ATOM     16  C   UNL A   1      35.184  21.231  24.968  1.00  0.00     0.234 A 
ATOM     17  N   UNL A   1      35.579  19.939  24.724  1.00  0.00    -0.194 NA
ATOM     18  C   UNL A   1      34.682  19.009  24.698  1.00  0.00     0.143 A 
ATOM     19  C   UNL A   1      32.906  20.473  25.333  1.00  0.00     0.269 A 
ATOM     20  C   UNL A   1      35.070  17.640  24.253  1.00  0.00     0.048 A 
ATOM     21  N   UNL A   1      33.355  19.204  25.028  1.00  0.00    -0.267 N 
ATOM     22  O   UNL A   1      31.733  20.733  25.616  1.00  0.00    -0.268 OA
ATOM     23  C   UNL A   1      34.146  16.674  24.189  1.00  0.00     0.005 A 
ATOM     24  C   UNL A   1      32.453  18.151  25.026  1.00  0.00     0.096 A 
ATOM     25  C   UNL A   1      32.796  16.927  24.613  1.00  0.00     0.019 A 
BRANCH  16  26
ATOM     26  O   UNL A   1      36.167  22.169  24.660  1.00  0.00    -0.438 OA
BRANCH  26  27
ATOM     27  C   UNL A   1      37.205  22.461  25.517  1.00  0.00     0.130 A 
ATOM     28  C   UNL A   1      38.911  25.362  27.268  1.00  0.00     0.044 C 
ATOM     29  C   UNL A   1      38.627  23.984  26.748  1.00  0.00    -0.047 A 
ATOM     30  C   UNL A   1      39.626  23.003  26.807  1.00  0.00     0.007 A 
ATOM     31  C   UNL A   1      37.401  23.691  26.134  1.00  0.00     0.050 A 
ATOM     32  C   UNL A   1      39.414  21.733  26.260  1.00  0.00    -0.047 A 
ATOM     33  C   UNL A   1      40.512  20.711  26.313  1.00  0.00     0.044 C 
ATOM     34  C   UNL A   1      38.196  21.471  25.619  1.00  0.00     0.050 A 
ENDBRANCH  26  27
ENDBRANCH  16  26
ENDBRANCH   8  15
ENDBRANCH   6   7
ENDBRANCH   5   6
ENDBRANCH   1   5
BRANCH   3  35
ATOM     35  C   UNL A   1      31.464  29.775  25.212  1.00  0.00     0.117 C 
BRANCH  35  36
ATOM     36  C   UNL A   1      31.325  31.086  25.980  1.00  0.00     0.042 C 
BRANCH  36  37
ATOM     37  C   UNL A   1      32.219  31.324  27.190  1.00  0.00     0.118 C 
BRANCH  37  38
ATOM     38  N   UNL A   1      32.654  32.707  27.329  1.00  0.00    -0.352 N 
ATOM     39  C   UNL A   1      33.798  33.337  27.764  1.00  0.00     0.251 C 
ATOM     40  H   UNL A   1      31.962  33.346  27.044  1.00  0.00     0.163 HD
ATOM     41  O   UNL A   1      33.760  34.570  27.796  1.00  0.00    -0.269 OA
BRANCH  39  42
ATOM     42  C   UNL A   1      35.064  32.669  28.203  1.00  0.00     0.039 A 
ATOM     43  C   UNL A   1      34.983  31.305  28.554  1.00  0.00     0.014 A 
ATOM     44  C   UNL A   1      36.276  33.321  28.426  1.00  0.00     0.014 A 
ATOM     45  C   UNL A   1      36.077  30.612  29.101  1.00  0.00     0.010 A 
ATOM     46  C   UNL A   1      37.382  32.625  28.957  1.00  0.00     0.010 A 
ATOM     47  C   UNL A   1      37.287  31.273  29.325  1.00  0.00    -0.014 A 
BRANCH  47  48
ATOM     48  C   UNL A   1      38.396  30.612  30.075  1.00  0.00     0.031 A 
ATOM     49  C   UNL A   1      38.563  30.903  31.541  1.00  0.00     0.074 A 
ATOM     50  C   UNL A   1      39.270  29.786  29.469  1.00  0.00     0.049 A 
ATOM     51  N   UNL A   1      39.503  30.512  32.364  1.00  0.00    -0.248 NA
ATOM     52  C   UNL A   1      37.551  31.776  32.154  1.00  0.00     0.031 C 
ATOM     53  C   UNL A   1      39.247  29.459  28.052  1.00  0.00     0.029 A 
ATOM     54  N   UNL A   1      40.352  29.085  29.952  1.00  0.00    -0.354 N 
ATOM     55  C   UNL A   1      39.225  31.129  33.575  1.00  0.00     0.074 A 
ATOM     56  C   UNL A   1      38.024  31.914  33.385  1.00  0.00     0.031 C 
ATOM     57  C   UNL A   1      40.240  28.596  27.779  1.00  0.00     0.029 A 
ATOM     58  C   UNL A   1      41.009  28.346  28.993  1.00  0.00     0.049 A 
ATOM     59  H   UNL A   1      40.631  29.109  30.895  1.00  0.00     0.167 HD
ATOM     60  C   UNL A   1      39.922  31.060  34.735  1.00  0.00     0.037 A 
ATOM     61  C   UNL A   1      42.119  27.581  29.073  1.00  0.00     0.037 A 
ATOM     62  C   UNL A   1      41.110  30.269  34.927  1.00  0.00     0.049 A 
ATOM     63  C   UNL A   1      42.859  27.511  30.387  1.00  0.00     0.074 A 
ATOM     64  C   UNL A   1      41.858  30.108  36.080  1.00  0.00     0.029 A 
ATOM     65  N   UNL A   1      41.728  29.515  33.941  1.00  0.00    -0.354 N 
ATOM     66  N   UNL A   1      42.559  28.062  31.537  1.00  0.00    -0.248 NA
ATOM     67  C   UNL A   1      44.109  26.734  30.407  1.00  0.00     0.031 C 
ATOM     68  C   UNL A   1      42.963  29.306  35.778  1.00  0.00     0.029 A 
ATOM     69  C   UNL A   1      42.867  28.911  34.454  1.00  0.00     0.049 A 
ATOM     70  H   UNL A   1      41.407  29.422  33.015  1.00  0.00     0.167 HD
ATOM     71  C   UNL A   1      43.571  27.694  32.413  1.00  0.00     0.074 A 
ATOM     72  C   UNL A   1      44.474  26.838  31.676  1.00  0.00     0.031 C 
ATOM     73  C   UNL A   1      43.748  28.050  33.710  1.00  0.00     0.037 A 
BRANCH  60  74
ATOM     74  C   UNL A   1      39.450  31.905  35.882  1.00  0.00     0.064 A 
ATOM     75  C   UNL A   1      39.931  33.203  36.098  1.00  0.00     0.173 A 
ATOM     76  C   UNL A   1      38.460  31.417  36.750  1.00  0.00     0.173 A 
ATOM     77  F   UNL A   1      40.887  33.710  35.305  1.00  0.00    -0.203 F 
ATOM     78  C   UNL A   1      39.452  33.977  37.152  1.00  0.00     0.198 A 
ATOM     79  C   UNL A   1      37.963  32.203  37.785  1.00  0.00     0.198 A 
ATOM     80  F   UNL A   1      37.965  30.181  36.586  1.00  0.00    -0.203 F 
ATOM     81  F   UNL A   1      39.954  35.201  37.366  1.00  0.00    -0.200 F 
ATOM     82  C   UNL A   1      38.462  33.481  37.989  1.00  0.00     0.200 A 
ATOM     83  F   UNL A   1      36.997  31.726  38.582  1.00  0.00    -0.200 F 
ATOM     84  F   UNL A   1      37.992  34.232  38.994  1.00  0.00    -0.200 F 
ENDBRANCH  60  74
BRANCH  61  85
ATOM     85  C   UNL A   1      42.635  26.837  27.885  1.00  0.00     0.064 A 
ATOM     86  C   UNL A   1      42.454  25.449  27.767  1.00  0.00     0.173 A 
ATOM     87  C   UNL A   1      43.377  27.474  26.879  1.00  0.00     0.173 A 
ATOM     88  F   UNL A   1      41.777  24.780  28.712  1.00  0.00    -0.203 F 
ATOM     89  C   UNL A   1      43.021  24.729  26.716  1.00  0.00     0.198 A 
ATOM     90  C   UNL A   1      43.906  26.760  25.803  1.00  0.00     0.198 A 
ATOM     91  F   UNL A   1      43.594  28.796  26.939  1.00  0.00    -0.203 F 
ATOM     92  F   UNL A   1      42.894  23.395  26.675  1.00  0.00    -0.200 F 
ATOM     93  C   UNL A   1      43.741  25.386  25.731  1.00  0.00     0.200 A 
ATOM     94  F   UNL A   1      44.588  27.402  24.846  1.00  0.00    -0.200 F 
ATOM     95  F   UNL A   1      44.288  24.694  24.723  1.00  0.00    -0.200 F 
ENDBRANCH  61  85
BRANCH  73  96
ATOM     96  C   UNL A   1      44.942  27.482  34.425  1.00  0.00     0.064 A 
ATOM     97  C   UNL A   1      46.163  28.172  34.489  1.00  0.00     0.173 A 
ATOM     98  C   UNL A   1      44.850  26.250  35.089  1.00  0.00     0.173 A 
ATOM     99  F   UNL A   1      46.307  29.348  33.858  1.00  0.00    -0.203 F 
ATOM    100  C   UNL A   1      47.254  27.635  35.167  1.00  0.00     0.198 A 
ATOM    101  C   UNL A   1      45.933  25.732  35.794  1.00  0.00     0.198 A 
ATOM    102  F   UNL A   1      43.705  25.552  35.065  1.00  0.00    -0.203 F 
ATOM    103  F   UNL A   1      48.426  28.286  35.169  1.00  0.00    -0.200 F 
ATOM    104  C   UNL A   1      47.136  26.420  35.824  1.00  0.00     0.200 A 
ATOM    105  F   UNL A   1      45.812  24.566  36.443  1.00  0.00    -0.200 F 
ATOM    106  F   UNL A   1      48.185  25.909  36.485  1.00  0.00    -0.200 F 
ENDBRANCH  73  96
ENDBRANCH  47  48
ENDBRANCH  39  42
ENDBRANCH  37  38
ENDBRANCH  36  37
ENDBRANCH  35  36
ENDBRANCH   3  35
TORSDOF 15
ENDMDL
MODEL 2
REMARK VINA RESULT:     -12.5      3.481      8.084
REMARK SMILES Cc1cc(C)cc(Oc2nc3ccccn3c(=O)c2/C=C2\SC(=S)N(CCC(=O)NCCCNC(=O)c3ccc(-c4c5nc(c(-c6c(F)c(F)c(F)c(F)c6F)c6ccc([nH]6)c(-c6c(F)c(F)c(F)c(F)c6F)c6nc(c(-c7c(F)c(F)c(F)c(F)c7F)c7ccc4[nH]7)C=C6)C=C5)cc3)C2=O)c1
REMARK SMILES IDX 28 1 29 2 30 3 27 5 26 6 25 7 20 8 21 9 22 10 100 11 23 12
REMARK SMILES IDX 101 13 24 14 19 15 9 16 10 17 11 18 17 19 12 20 16 21 18 22
REMARK SMILES IDX 13 23 15 24 14 25 8 26 7 27 1 28 2 29 3 30 102 31 4 32 5 33
REMARK SMILES IDX 6 34 31 35 32 36 33 37 34 38 35 39 36 41 37 42 38 43 99 44
REMARK SMILES IDX 39 45 98 46 40 47 41 48 42 49 92 50 43 51 97 52 91 53 93 54
REMARK SMILES IDX 44 55 96 56 90 57 89 58 45 60 77 61 57 62 76 63 58 64 61 65
REMARK SMILES IDX 75 66 94 67 59 68 60 69 74 71 95 72 62 73 46 74 47 75 55 76
REMARK SMILES IDX 48 77 49 78 53 79 56 80 50 81 51 82 54 83 52 84 78 85 79 86
REMARK SMILES IDX 87 87 80 88 81 89 85 90 88 91 82 92 83 93 86 94 84 95 63 96
REMARK SMILES IDX 64 97 72 98 65 99 66 100 70 101 73 102 67 103 68 104 71 105
REMARK SMILES IDX 69 106
REMARK H PARENT 30 4 34 40 93 59 61 70
REMARK Flexibility Score: inf
ROOT
ATOM      1  C   UNL A   1      31.767  29.227  24.391  1.00  0.00     0.221 C 
ATOM      2  O   UNL A   1      30.656  29.763  24.371  1.00  0.00    -0.275 OA
ATOM      3  N   UNL A   1      32.563  29.451  25.474  1.00  0.00    -0.356 N 
ATOM      4  H   UNL A   1      32.126  29.943  26.206  1.00  0.00     0.163 HD
ENDROOT
BRANCH   1   5
ATOM      5  C   UNL A   1      32.196  28.325  23.249  1.00  0.00     0.122 C 
BRANCH   5   6
ATOM      6  C   UNL A   1      31.451  26.982  23.248  1.00  0.00     0.137 C 
BRANCH   6   7
ATOM      7  N   UNL A   1      32.386  25.849  23.260  1.00  0.00    -0.292 N 
ATOM      8  C   UNL A   1      33.522  23.185  25.326  1.00  0.00     0.041 C 
ATOM      9  C   UNL A   1      33.452  24.044  24.300  1.00  0.00     0.081 C 
ATOM     10  S   UNL A   1      33.764  23.757  22.639  1.00  0.00    -0.054 SA
ATOM     11  C   UNL A   1      32.906  25.415  24.461  1.00  0.00     0.266 C 
ATOM     12  C   UNL A   1      32.805  25.153  22.144  1.00  0.00     0.148 C 
ATOM     13  O   UNL A   1      32.906  26.031  25.519  1.00  0.00    -0.268 OA
ATOM     14  S   UNL A   1      32.475  25.478  20.542  1.00  0.00    -0.052 S 
BRANCH   8  15
ATOM     15  C   UNL A   1      34.000  21.812  25.302  1.00  0.00     0.104 A 
ATOM     16  C   UNL A   1      35.263  21.401  25.043  1.00  0.00     0.234 A 
ATOM     17  N   UNL A   1      35.585  20.095  24.769  1.00  0.00    -0.194 NA
ATOM     18  C   UNL A   1      34.641  19.214  24.739  1.00  0.00     0.143 A 
ATOM     19  C   UNL A   1      32.953  20.757  25.427  1.00  0.00     0.269 A 
ATOM     20  C   UNL A   1      34.949  17.835  24.263  1.00  0.00     0.048 A 
ATOM     21  N   UNL A   1      33.330  19.471  25.092  1.00  0.00    -0.267 N 
ATOM     22  O   UNL A   1      31.800  21.072  25.732  1.00  0.00    -0.268 OA
ATOM     23  C   UNL A   1      33.975  16.920  24.195  1.00  0.00     0.005 A 
ATOM     24  C   UNL A   1      32.374  18.467  25.084  1.00  0.00     0.096 A 
ATOM     25  C   UNL A   1      32.646  17.236  24.644  1.00  0.00     0.019 A 
BRANCH  16  26
ATOM     26  O   UNL A   1      36.290  22.292  24.736  1.00  0.00    -0.438 OA
BRANCH  26  27
ATOM     27  C   UNL A   1      37.315  22.567  25.614  1.00  0.00     0.130 A 
ATOM     28  C   UNL A   1      38.964  25.426  27.485  1.00  0.00     0.044 C 
ATOM     29  C   UNL A   1      38.704  24.064  26.912  1.00  0.00    -0.047 A 
ATOM     30  C   UNL A   1      39.716  23.095  26.947  1.00  0.00     0.007 A 
ATOM     31  C   UNL A   1      37.489  23.776  26.277  1.00  0.00     0.050 A 
ATOM     32  C   UNL A   1      39.527  21.843  26.352  1.00  0.00    -0.047 A 
ATOM     33  C   UNL A   1      40.638  20.834  26.379  1.00  0.00     0.044 C 
ATOM     34  C   UNL A   1      38.318  21.587  25.690  1.00  0.00     0.050 A 
ENDBRANCH  26  27
ENDBRANCH  16  26
ENDBRANCH   8  15
ENDBRANCH   6   7
ENDBRANCH   5   6
ENDBRANCH   1   5
BRANCH   3  35
ATOM     35  C   UNL A   1      33.948  29.088  25.735  1.00  0.00     0.117 C 
BRANCH  35  36
ATOM     36  C   UNL A   1      34.234  29.031  27.233  1.00  0.00     0.042 C 
BRANCH  36  37
ATOM     37  C   UNL A   1      35.495  29.703  27.762  1.00  0.00     0.118 C 
BRANCH  37  38
ATOM     38  N   UNL A   1      35.563  29.751  29.215  1.00  0.00    -0.352 N 
ATOM     39  C   UNL A   1      36.539  29.535  30.161  1.00  0.00     0.251 C 
ATOM     40  H   UNL A   1      34.700  29.997  29.621  1.00  0.00     0.163 HD
ATOM     41  O   UNL A   1      36.181  29.611  31.339  1.00  0.00    -0.269 OA
BRANCH  39  42
ATOM     42  C   UNL A   1      37.975  29.212  29.890  1.00  0.00     0.039 A 
ATOM     43  C   UNL A   1      38.556  28.177  30.653  1.00  0.00     0.014 A 
ATOM     44  C   UNL A   1      38.815  29.944  29.052  1.00  0.00     0.014 A 
ATOM     45  C   UNL A   1      39.927  27.875  30.574  1.00  0.00     0.010 A 
ATOM     46  C   UNL A   1      40.188  29.633  28.955  1.00  0.00     0.010 A 
ATOM     47  C   UNL A   1      40.763  28.615  29.734  1.00  0.00    -0.014 A 
BRANCH  47  48
ATOM     48  C   UNL A   1      42.245  28.439  29.776  1.00  0.00     0.031 A 
ATOM     49  C   UNL A   1      42.884  27.396  28.901  1.00  0.00     0.074 A 
ATOM     50  C   UNL A   1      43.024  29.168  30.599  1.00  0.00     0.049 A 
ATOM     51  N   UNL A   1      44.134  27.015  28.841  1.00  0.00    -0.248 NA
ATOM     52  C   UNL A   1      41.987  26.666  27.993  1.00  0.00     0.031 C 
ATOM     53  C   UNL A   1      42.528  30.174  31.525  1.00  0.00     0.029 A 
ATOM     54  N   UNL A   1      44.385  29.171  30.806  1.00  0.00    -0.354 N 
ATOM     55  C   UNL A   1      44.167  25.969  27.930  1.00  0.00     0.074 A 
ATOM     56  C   UNL A   1      42.812  25.781  27.453  1.00  0.00     0.031 C 
ATOM     57  C   UNL A   1      43.564  30.725  32.179  1.00  0.00     0.029 A 
ATOM     58  C   UNL A   1      44.800  30.075  31.758  1.00  0.00     0.049 A 
ATOM     59  H   UNL A   1      45.004  28.582  30.319  1.00  0.00     0.167 HD
ATOM     60  C   UNL A   1      45.228  25.222  27.542  1.00  0.00     0.037 A 
ATOM     61  C   UNL A   1      46.029  30.331  32.257  1.00  0.00     0.037 A 
ATOM     62  C   UNL A   1      46.577  25.418  28.007  1.00  0.00     0.049 A 
ATOM     63  C   UNL A   1      47.193  29.493  31.787  1.00  0.00     0.074 A 
ATOM     64  C   UNL A   1      47.722  24.734  27.636  1.00  0.00     0.029 A 
ATOM     65  N   UNL A   1      46.961  26.359  28.949  1.00  0.00    -0.354 N 
ATOM     66  N   UNL A   1      47.217  28.538  30.890  1.00  0.00    -0.248 NA
ATOM     67  C   UNL A   1      48.497  29.749  32.419  1.00  0.00     0.031 C 
ATOM     68  C   UNL A   1      48.788  25.219  28.398  1.00  0.00     0.029 A 
ATOM     69  C   UNL A   1      48.322  26.252  29.194  1.00  0.00     0.049 A 
ATOM     70  H   UNL A   1      46.359  27.006  29.381  1.00  0.00     0.167 HD
ATOM     71  C   UNL A   1      48.530  28.088  30.845  1.00  0.00     0.074 A 
ATOM     72  C   UNL A   1      49.284  28.901  31.774  1.00  0.00     0.031 C 
ATOM     73  C   UNL A   1      49.061  27.078  30.113  1.00  0.00     0.037 A 
BRANCH  60  74
ATOM     74  C   UNL A   1      44.971  24.082  26.601  1.00  0.00     0.064 A 
ATOM     75  C   UNL A   1      45.339  24.134  25.250  1.00  0.00     0.173 A 
ATOM     76  C   UNL A   1      44.387  22.897  27.078  1.00  0.00     0.173 A 
ATOM     77  F   UNL A   1      45.887  25.248  24.741  1.00  0.00    -0.203 F 
ATOM     78  C   UNL A   1      45.118  23.048  24.405  1.00  0.00     0.198 A 
ATOM     79  C   UNL A   1      44.195  21.804  26.239  1.00  0.00     0.198 A 
ATOM     80  F   UNL A   1      44.018  22.794  28.364  1.00  0.00    -0.203 F 
ATOM     81  F   UNL A   1      45.441  23.133  23.107  1.00  0.00    -0.200 F 
ATOM     82  C   UNL A   1      44.555  21.881  24.902  1.00  0.00     0.200 A 
ATOM     83  F   UNL A   1      43.664  20.673  26.725  1.00  0.00    -0.200 F 
ATOM     84  F   UNL A   1      44.355  20.833  24.092  1.00  0.00    -0.200 F 
ENDBRANCH  60  74
BRANCH  61  85
ATOM     85  C   UNL A   1      46.243  31.398  33.280  1.00  0.00     0.064 A 
ATOM     86  C   UNL A   1      46.115  31.119  34.652  1.00  0.00     0.173 A 
ATOM     87  C   UNL A   1      46.512  32.727  32.919  1.00  0.00     0.173 A 
ATOM     88  F   UNL A   1      45.830  29.873  35.058  1.00  0.00    -0.203 F 
ATOM     89  C   UNL A   1      46.210  32.129  35.610  1.00  0.00     0.198 A 
ATOM     90  C   UNL A   1      46.652  33.728  33.881  1.00  0.00     0.198 A 
ATOM     91  F   UNL A   1      46.636  33.059  31.626  1.00  0.00    -0.203 F 
ATOM     92  F   UNL A   1      46.006  31.843  36.903  1.00  0.00    -0.200 F 
ATOM     93  C   UNL A   1      46.485  33.431  35.224  1.00  0.00     0.200 A 
ATOM     94  F   UNL A   1      46.933  34.981  33.504  1.00  0.00    -0.200 F 
ATOM     95  F   UNL A   1      46.574  34.401  36.144  1.00  0.00    -0.200 F 
ENDBRANCH  61  85
BRANCH  73  96
ATOM     96  C   UNL A   1      50.535  26.821  30.258  1.00  0.00     0.064 A 
ATOM     97  C   UNL A   1      51.039  25.928  31.215  1.00  0.00     0.173 A 
ATOM     98  C   UNL A   1      51.451  27.448  29.399  1.00  0.00     0.173 A 
ATOM     99  F   UNL A   1      50.207  25.314  32.070  1.00  0.00    -0.203 F 
ATOM    100  C   UNL A   1      52.407  25.694  31.325  1.00  0.00     0.198 A 
ATOM    101  C   UNL A   1      52.815  27.185  29.490  1.00  0.00     0.198 A 
ATOM    102  F   UNL A   1      51.022  28.306  28.462  1.00  0.00    -0.203 F 
ATOM    103  F   UNL A   1      52.871  24.877  32.282  1.00  0.00    -0.200 F 
ATOM    104  C   UNL A   1      53.292  26.316  30.459  1.00  0.00     0.200 A 
ATOM    105  F   UNL A   1      53.667  27.775  28.640  1.00  0.00    -0.200 F 
ATOM    106  F   UNL A   1      54.609  26.082  30.560  1.00  0.00    -0.200 F 
ENDBRANCH  73  96
ENDBRANCH  47  48
ENDBRANCH  39  42
ENDBRANCH  37  38
ENDBRANCH  36  37
ENDBRANCH  35  36
ENDBRANCH   3  35
TORSDOF 15
ENDMDL
MODEL 3
REMARK VINA RESULT:     -12.4      2.077      7.169
REMARK SMILES Cc1cc(C)cc(Oc2nc3ccccn3c(=O)c2/C=C2\SC(=S)N(CCC(=O)NCCCNC(=O)c3ccc(-c4c5nc(c(-c6c(F)c(F)c(F)c(F)c6F)c6ccc([nH]6)c(-c6c(F)c(F)c(F)c(F)c6F)c6nc(c(-c7c(F)c(F)c(F)c(F)c7F)c7ccc4[nH]7)C=C6)C=C5)cc3)C2=O)c1
REMARK SMILES IDX 28 1 29 2 30 3 27 5 26 6 25 7 20 8 21 9 22 10 100 11 23 12
REMARK SMILES IDX 101 13 24 14 19 15 9 16 10 17 11 18 17 19 12 20 16 21 18 22
REMARK SMILES IDX 13 23 15 24 14 25 8 26 7 27 1 28 2 29 3 30 102 31 4 32 5 33
REMARK SMILES IDX 6 34 31 35 32 36 33 37 34 38 35 39 36 41 37 42 38 43 99 44
REMARK SMILES IDX 39 45 98 46 40 47 41 48 42 49 92 50 43 51 97 52 91 53 93 54
REMARK SMILES IDX 44 55 96 56 90 57 89 58 45 60 77 61 57 62 76 63 58 64 61 65
REMARK SMILES IDX 75 66 94 67 59 68 60 69 74 71 95 72 62 73 46 74 47 75 55 76
REMARK SMILES IDX 48 77 49 78 53 79 56 80 50 81 51 82 54 83 52 84 78 85 79 86
REMARK SMILES IDX 87 87 80 88 81 89 85 90 88 91 82 92 83 93 86 94 84 95 63 96
REMARK SMILES IDX 64 97 72 98 65 99 66 100 70 101 73 102 67 103 68 104 71 105
REMARK SMILES IDX 69 106
REMARK H PARENT 30 4 34 40 93 59 61 70
REMARK Flexibility Score: inf
ROOT
ATOM      1  C   UNL A   1      31.346  29.264  24.077  1.00  0.00     0.221 C 
ATOM      2  O   UNL A   1      30.254  29.713  23.718  1.00  0.00    -0.275 OA
ATOM      3  N   UNL A   1      31.868  29.725  25.249  1.00  0.00    -0.356 N 
ATOM      4  H   UNL A   1      31.262  30.304  25.765  1.00  0.00     0.163 HD
ENDROOT
BRANCH   1   5
ATOM      5  C   UNL A   1      32.048  28.211  23.241  1.00  0.00     0.122 C 
BRANCH   5   6
ATOM      6  C   UNL A   1      31.319  26.859  23.265  1.00  0.00     0.137 C 
BRANCH   6   7
ATOM      7  N   UNL A   1      32.270  25.738  23.283  1.00  0.00    -0.292 N 
ATOM      8  C   UNL A   1      33.322  23.001  25.296  1.00  0.00     0.041 C 
ATOM      9  C   UNL A   1      33.300  23.903  24.306  1.00  0.00     0.081 C 
ATOM     10  S   UNL A   1      33.712  23.693  22.655  1.00  0.00    -0.054 SA
ATOM     11  C   UNL A   1      32.725  25.258  24.493  1.00  0.00     0.266 C 
ATOM     12  C   UNL A   1      32.763  25.097  22.165  1.00  0.00     0.148 C 
ATOM     13  O   UNL A   1      32.654  25.827  25.575  1.00  0.00    -0.268 OA
ATOM     14  S   UNL A   1      32.522  25.488  20.562  1.00  0.00    -0.052 S 
BRANCH   8  15
ATOM     15  C   UNL A   1      33.822  21.636  25.241  1.00  0.00     0.104 A 
ATOM     16  C   UNL A   1      35.087  21.249  24.955  1.00  0.00     0.234 A 
ATOM     17  N   UNL A   1      35.426  19.953  24.653  1.00  0.00    -0.194 NA
ATOM     18  C   UNL A   1      34.494  19.058  24.623  1.00  0.00     0.143 A 
ATOM     19  C   UNL A   1      32.794  20.562  25.364  1.00  0.00     0.269 A 
ATOM     20  C   UNL A   1      34.817  17.693  24.118  1.00  0.00     0.048 A 
ATOM     21  N   UNL A   1      33.186  19.289  25.001  1.00  0.00    -0.267 N 
ATOM     22  O   UNL A   1      31.641  20.853  25.692  1.00  0.00    -0.268 OA
ATOM     23  C   UNL A   1      33.856  16.763  24.050  1.00  0.00     0.005 A 
ATOM     24  C   UNL A   1      32.245  18.270  24.991  1.00  0.00     0.096 A 
ATOM     25  C   UNL A   1      32.530  17.050  24.525  1.00  0.00     0.019 A 
BRANCH  16  26
ATOM     26  O   UNL A   1      36.095  22.162  24.648  1.00  0.00    -0.438 OA
BRANCH  26  27
ATOM     27  C   UNL A   1      37.186  22.358  25.463  1.00  0.00     0.130 A 
ATOM     28  C   UNL A   1      39.209  25.091  27.147  1.00  0.00     0.044 C 
ATOM     29  C   UNL A   1      38.785  23.745  26.638  1.00  0.00    -0.047 A 
ATOM     30  C   UNL A   1      39.695  22.680  26.657  1.00  0.00     0.007 A 
ATOM     31  C   UNL A   1      37.515  23.563  26.073  1.00  0.00     0.050 A 
ATOM     32  C   UNL A   1      39.350  21.435  26.119  1.00  0.00    -0.047 A 
ATOM     33  C   UNL A   1      40.355  20.320  26.128  1.00  0.00     0.044 C 
ATOM     34  C   UNL A   1      38.090  21.284  25.526  1.00  0.00     0.050 A 
ENDBRANCH  26  27
ENDBRANCH  16  26
ENDBRANCH   8  15
ENDBRANCH   6   7
ENDBRANCH   5   6
ENDBRANCH   1   5
BRANCH   3  35
ATOM     35  C   UNL A   1      33.166  29.507  25.868  1.00  0.00     0.117 C 
BRANCH  35  36
ATOM     36  C   UNL A   1      33.239  30.154  27.248  1.00  0.00     0.042 C 
BRANCH  36  37
ATOM     37  C   UNL A   1      34.366  31.138  27.536  1.00  0.00     0.118 C 
BRANCH  37  38
ATOM     38  N   UNL A   1      34.283  31.748  28.855  1.00  0.00    -0.352 N 
ATOM     39  C   UNL A   1      35.108  31.826  29.954  1.00  0.00     0.251 C 
ATOM     40  H   UNL A   1      33.429  32.218  28.996  1.00  0.00     0.163 HD
ATOM     41  O   UNL A   1      34.640  32.395  30.945  1.00  0.00    -0.269 OA
BRANCH  39  42
ATOM     42  C   UNL A   1      36.498  31.282  30.057  1.00  0.00     0.039 A 
ATOM     43  C   UNL A   1      36.676  30.112  30.824  1.00  0.00     0.014 A 
ATOM     44  C   UNL A   1      37.642  31.917  29.575  1.00  0.00     0.014 A 
ATOM     45  C   UNL A   1      37.952  29.587  31.094  1.00  0.00     0.010 A 
ATOM     46  C   UNL A   1      38.924  31.384  29.827  1.00  0.00     0.010 A 
ATOM     47  C   UNL A   1      39.095  30.231  30.611  1.00  0.00    -0.014 A 
BRANCH  47  48
ATOM     48  C   UNL A   1      40.458  29.802  31.041  1.00  0.00     0.031 A 
ATOM     49  C   UNL A   1      41.169  28.731  30.261  1.00  0.00     0.074 A 
ATOM     50  C   UNL A   1      41.058  30.326  32.127  1.00  0.00     0.049 A 
ATOM     51  N   UNL A   1      42.314  28.146  30.506  1.00  0.00    -0.248 NA
ATOM     52  C   UNL A   1      40.482  28.231  29.060  1.00  0.00     0.031 C 
ATOM     53  C   UNL A   1      40.462  31.333  32.991  1.00  0.00     0.029 A 
ATOM     54  N   UNL A   1      42.285  30.082  32.702  1.00  0.00    -0.354 N 
ATOM     55  C   UNL A   1      42.462  27.178  29.523  1.00  0.00     0.074 A 
ATOM     56  C   UNL A   1      41.294  27.258  28.671  1.00  0.00     0.031 C 
ATOM     57  C   UNL A   1      41.329  31.651  33.966  1.00  0.00     0.029 A 
ATOM     58  C   UNL A   1      42.528  30.832  33.832  1.00  0.00     0.049 A 
ATOM     59  H   UNL A   1      42.929  29.432  32.340  1.00  0.00     0.167 HD
ATOM     60  C   UNL A   1      43.472  26.290  29.359  1.00  0.00     0.037 A 
ATOM     61  C   UNL A   1      43.580  30.838  34.679  1.00  0.00     0.037 A 
ATOM     62  C   UNL A   1      44.639  26.220  30.199  1.00  0.00     0.049 A 
ATOM     63  C   UNL A   1      44.699  29.849  34.454  1.00  0.00     0.074 A 
ATOM     64  C   UNL A   1      45.733  25.378  30.083  1.00  0.00     0.029 A 
ATOM     65  N   UNL A   1      44.862  27.011  31.315  1.00  0.00    -0.354 N 
ATOM     66  N   UNL A   1      44.848  28.970  33.493  1.00  0.00    -0.248 NA
ATOM     67  C   UNL A   1      45.783  29.832  35.449  1.00  0.00     0.031 C 
ATOM     68  C   UNL A   1      46.587  25.619  31.162  1.00  0.00     0.029 A 
ATOM     69  C   UNL A   1      46.062  26.656  31.914  1.00  0.00     0.049 A 
ATOM     70  H   UNL A   1      44.258  27.719  31.636  1.00  0.00     0.167 HD
ATOM     71  C   UNL A   1      46.038  28.307  33.761  1.00  0.00     0.074 A 
ATOM     72  C   UNL A   1      46.595  28.911  34.951  1.00  0.00     0.031 C 
ATOM     73  C   UNL A   1      46.610  27.276  33.092  1.00  0.00     0.037 A 
BRANCH  60  74
ATOM     74  C   UNL A   1      43.341  25.282  28.256  1.00  0.00     0.064 A 
ATOM     75  C   UNL A   1      43.597  25.604  26.917  1.00  0.00     0.173 A 
ATOM     76  C   UNL A   1      43.000  23.953  28.558  1.00  0.00     0.173 A 
ATOM     77  F   UNL A   1      43.913  26.863  26.574  1.00  0.00    -0.203 F 
ATOM     78  C   UNL A   1      43.499  24.640  25.917  1.00  0.00     0.198 A 
ATOM     79  C   UNL A   1      42.932  22.985  27.561  1.00  0.00     0.198 A 
ATOM     80  F   UNL A   1      42.747  23.591  29.825  1.00  0.00    -0.203 F 
ATOM     81  F   UNL A   1      43.709  24.979  24.637  1.00  0.00    -0.200 F 
ATOM     82  C   UNL A   1      43.176  23.330  26.240  1.00  0.00     0.200 A 
ATOM     83  F   UNL A   1      42.633  21.718  27.879  1.00  0.00    -0.200 F 
ATOM     84  F   UNL A   1      43.096  22.400  25.279  1.00  0.00    -0.200 F 
ENDBRANCH  60  74
BRANCH  61  85
ATOM     85  C   UNL A   1      43.636  31.776  35.839  1.00  0.00     0.064 A 
ATOM     86  C   UNL A   1      44.288  33.016  35.734  1.00  0.00     0.173 A 
ATOM     87  C   UNL A   1      43.105  31.435  37.093  1.00  0.00     0.173 A 
ATOM     88  F   UNL A   1      44.840  33.386  34.569  1.00  0.00    -0.203 F 
ATOM     89  C   UNL A   1      44.437  33.855  36.839  1.00  0.00     0.198 A 
ATOM     90  C   UNL A   1      43.215  32.295  38.186  1.00  0.00     0.198 A 
ATOM     91  F   UNL A   1      42.480  30.262  37.260  1.00  0.00    -0.203 F 
ATOM     92  F   UNL A   1      45.131  34.995  36.723  1.00  0.00    -0.200 F 
ATOM     93  C   UNL A   1      43.894  33.496  38.062  1.00  0.00     0.200 A 
ATOM     94  F   UNL A   1      42.676  31.950  39.362  1.00  0.00    -0.200 F 
ATOM     95  F   UNL A   1      44.039  34.300  39.124  1.00  0.00    -0.200 F 
ENDBRANCH  61  85
BRANCH  73  96
ATOM     96  C   UNL A   1      47.924  26.762  33.608  1.00  0.00     0.064 A 
ATOM     97  C   UNL A   1      47.995  25.697  34.519  1.00  0.00     0.173 A 
ATOM     98  C   UNL A   1      49.130  27.317  33.153  1.00  0.00     0.173 A 
ATOM     99  F   UNL A   1      46.870  25.141  34.996  1.00  0.00    -0.203 F 
ATOM    100  C   UNL A   1      49.223  25.226  34.977  1.00  0.00     0.198 A 
ATOM    101  C   UNL A   1      50.356  26.821  33.586  1.00  0.00     0.198 A 
ATOM    102  F   UNL A   1      49.120  28.332  32.277  1.00  0.00    -0.203 F 
ATOM    103  F   UNL A   1      49.265  24.244  35.888  1.00  0.00    -0.200 F 
ATOM    104  C   UNL A   1      50.402  25.783  34.504  1.00  0.00     0.200 A 
ATOM    105  F   UNL A   1      51.495  27.349  33.116  1.00  0.00    -0.200 F 
ATOM    106  F   UNL A   1      51.583  25.322  34.939  1.00  0.00    -0.200 F 
ENDBRANCH  73  96
ENDBRANCH  47  48
ENDBRANCH  39  42
ENDBRANCH  37  38
ENDBRANCH  36  37
ENDBRANCH  35  36
ENDBRANCH   3  35
TORSDOF 15
ENDMDL
