MODEL 1
REMARK VINA RESULT:     -13.9      0.000      0.000
REMARK SMILES COc1ccc([C@@H](C(=O)NCCCNC(=O)c2ccc(-c3c4nc(c(-c5c(F)c(F)c(F)c(F)c5F)c5ccc([nH]5)c(-c5c(F)c(F)c(F)c(F)c5F)c5nc(c(-c6c(F)c(F)c(F)c(F)c6F)c6ccc3[nH]6)C=C5)C=C4)cc2)[NH+]2CCC(C(N)=O)CC2)c(C)c1
REMARK SMILES IDX 12 1 11 2 10 3 8 4 9 5 7 7 6 8 3 9 4 10 91 11 5 12 89 13
REMARK SMILES IDX 90 14 2 15 1 16 80 17 81 18 88 19 82 21 87 22 83 23 84 24
REMARK SMILES IDX 85 25 86 26 13 29 14 30 15 31 16 33 17 34 18 35 79 36 19 37
REMARK SMILES IDX 78 38 20 39 21 40 22 41 72 42 23 43 77 44 71 45 73 46 24 47
REMARK SMILES IDX 76 48 70 49 69 50 25 52 57 53 37 54 56 55 38 56 41 57 55 58
REMARK SMILES IDX 74 59 39 60 40 61 54 63 75 64 42 65 26 66 27 67 35 68 28 69
REMARK SMILES IDX 29 70 33 71 36 72 30 73 31 74 34 75 32 76 58 77 59 78 67 79
REMARK SMILES IDX 60 80 61 81 65 82 68 83 62 84 63 85 66 86 64 87 43 88 44 89
REMARK SMILES IDX 52 90 45 91 46 92 50 93 53 94 47 95 48 96 51 97 49 98
REMARK H PARENT 10 6 80 20 85 27 85 28 14 32 73 51 41 62
REMARK Flexibility Score: inf
ROOT
ATOM      1  C   UNL A   1      33.669  30.740  27.394  1.00  0.00     0.042 C 
ENDROOT
BRANCH   1   2
ATOM      2  C   UNL A   1      33.899  29.245  27.205  1.00  0.00     0.118 C 
BRANCH   2   3
ATOM      3  N   UNL A   1      32.753  28.438  27.601  1.00  0.00    -0.351 N 
ATOM      4  C   UNL A   1      31.927  27.636  26.841  1.00  0.00     0.283 C 
ATOM      5  O   UNL A   1      31.078  26.995  27.467  1.00  0.00    -0.268 OA
ATOM      6  H   UNL A   1      32.534  28.468  28.560  1.00  0.00     0.163 HD
BRANCH   4   7
ATOM      7  C   UNL A   1      32.118  27.561  25.291  1.00  0.00     0.305 C 
BRANCH   7   8
ATOM      8  C   UNL A   1      30.924  28.076  24.469  1.00  0.00     0.022 A 
ATOM      9  C   UNL A   1      28.857  29.309  22.961  1.00  0.00     0.119 A 
ATOM     10  C   UNL A   1      29.856  30.087  23.523  1.00  0.00     0.047 A 
ATOM     11  C   UNL A   1      28.868  27.931  23.173  1.00  0.00     0.050 A 
ATOM     12  C   UNL A   1      30.879  29.477  24.253  1.00  0.00     0.014 A 
ATOM     13  C   UNL A   1      29.880  27.294  23.926  1.00  0.00    -0.038 A 
ATOM     14  C   UNL A   1      29.744  25.800  24.048  1.00  0.00     0.045 C 
BRANCH   9  15
ATOM     15  O   UNL A   1      27.809  29.777  22.217  1.00  0.00    -0.497 OA
ATOM     16  C   UNL A   1      28.155  30.644  21.143  1.00  0.00     0.278 C 
ENDBRANCH   9  15
ENDBRANCH   7   8
BRANCH   7  17
ATOM     17  N   UNL A   1      32.726  26.273  24.810  1.00  0.00    -0.321 N 
ATOM     18  C   UNL A   1      33.295  26.328  23.459  1.00  0.00     0.263 C 
ATOM     19  C   UNL A   1      33.689  25.736  25.788  1.00  0.00     0.263 C 
ATOM     20  H   UNL A   1      31.946  25.621  24.733  1.00  0.00     0.349 HD
ATOM     21  C   UNL A   1      33.854  24.979  23.000  1.00  0.00     0.075 C 
ATOM     22  C   UNL A   1      34.268  24.383  25.373  1.00  0.00     0.075 C 
ATOM     23  C   UNL A   1      34.908  24.490  23.992  1.00  0.00     0.089 C 
BRANCH  23  24
ATOM     24  C   UNL A   1      35.484  23.161  23.548  1.00  0.00     0.220 C 
ATOM     25  N   UNL A   1      34.875  22.065  24.088  1.00  0.00    -0.369 N 
ATOM     26  O   UNL A   1      36.429  23.039  22.780  1.00  0.00    -0.275 OA
ATOM     27  H   UNL A   1      34.115  22.178  24.704  1.00  0.00     0.159 HD
ATOM     28  H   UNL A   1      35.196  21.163  23.861  1.00  0.00     0.159 HD
ENDBRANCH  23  24
ENDBRANCH   7  17
ENDBRANCH   4   7
ENDBRANCH   2   3
ENDBRANCH   1   2
BRANCH   1  29
ATOM     29  C   UNL A   1      34.939  31.543  27.635  1.00  0.00     0.118 C 
BRANCH  29  30
ATOM     30  N   UNL A   1      35.146  31.902  29.038  1.00  0.00    -0.352 N 
ATOM     31  C   UNL A   1      35.961  31.289  29.979  1.00  0.00     0.251 C 
ATOM     32  H   UNL A   1      34.640  32.684  29.356  1.00  0.00     0.163 HD
ATOM     33  O   UNL A   1      36.084  31.735  31.100  1.00  0.00    -0.269 OA
BRANCH  31  34
ATOM     34  C   UNL A   1      36.773  30.134  29.532  1.00  0.00     0.039 A 
ATOM     35  C   UNL A   1      37.036  29.127  30.463  1.00  0.00     0.014 A 
ATOM     36  C   UNL A   1      37.473  30.205  28.331  1.00  0.00     0.014 A 
ATOM     37  C   UNL A   1      38.179  28.351  30.307  1.00  0.00     0.010 A 
ATOM     38  C   UNL A   1      38.656  29.502  28.221  1.00  0.00     0.010 A 
ATOM     39  C   UNL A   1      39.046  28.636  29.250  1.00  0.00    -0.014 A 
BRANCH  39  40
ATOM     40  C   UNL A   1      40.434  28.188  29.235  1.00  0.00     0.031 A 
ATOM     41  C   UNL A   1      40.789  26.855  28.714  1.00  0.00     0.074 A 
ATOM     42  C   UNL A   1      41.401  29.037  29.649  1.00  0.00     0.049 A 
ATOM     43  N   UNL A   1      41.858  26.207  29.033  1.00  0.00    -0.248 NA
ATOM     44  C   UNL A   1      39.918  26.118  27.809  1.00  0.00     0.031 C 
ATOM     45  C   UNL A   1      42.846  28.890  29.481  1.00  0.00     0.029 A 
ATOM     46  N   UNL A   1      41.261  30.140  30.512  1.00  0.00    -0.354 N 
ATOM     47  C   UNL A   1      41.956  25.117  28.198  1.00  0.00     0.074 A 
ATOM     48  C   UNL A   1      40.691  25.072  27.501  1.00  0.00     0.031 C 
ATOM     49  C   UNL A   1      43.465  29.629  30.417  1.00  0.00     0.029 A 
ATOM     50  C   UNL A   1      42.435  30.147  31.300  1.00  0.00     0.049 A 
ATOM     51  H   UNL A   1      40.507  30.771  30.557  1.00  0.00     0.167 HD
ATOM     52  C   UNL A   1      43.150  24.460  28.098  1.00  0.00     0.037 A 
ATOM     53  C   UNL A   1      42.395  29.955  32.649  1.00  0.00     0.037 A 
ATOM     54  C   UNL A   1      44.126  24.994  29.046  1.00  0.00     0.049 A 
ATOM     55  C   UNL A   1      43.231  28.792  33.127  1.00  0.00     0.074 A 
ATOM     56  C   UNL A   1      45.157  25.911  28.912  1.00  0.00     0.029 A 
ATOM     57  N   UNL A   1      43.923  24.829  30.413  1.00  0.00    -0.354 N 
ATOM     58  N   UNL A   1      43.594  27.799  32.365  1.00  0.00    -0.248 NA
ATOM     59  C   UNL A   1      43.676  28.635  34.508  1.00  0.00     0.031 C 
ATOM     60  C   UNL A   1      45.541  26.336  30.207  1.00  0.00     0.029 A 
ATOM     61  C   UNL A   1      44.756  25.665  31.130  1.00  0.00     0.049 A 
ATOM     62  H   UNL A   1      43.277  24.203  30.812  1.00  0.00     0.167 HD
ATOM     63  C   UNL A   1      44.271  26.875  33.118  1.00  0.00     0.074 A 
ATOM     64  C   UNL A   1      44.316  27.455  34.447  1.00  0.00     0.031 C 
ATOM     65  C   UNL A   1      44.721  25.703  32.583  1.00  0.00     0.037 A 
BRANCH  52  66
ATOM     66  C   UNL A   1      43.523  23.563  26.932  1.00  0.00     0.064 A 
ATOM     67  C   UNL A   1      43.064  22.227  26.870  1.00  0.00     0.173 A 
ATOM     68  C   UNL A   1      44.388  23.929  25.886  1.00  0.00     0.173 A 
ATOM     69  F   UNL A   1      42.133  21.764  27.712  1.00  0.00    -0.203 F 
ATOM     70  C   UNL A   1      43.547  21.307  25.934  1.00  0.00     0.198 A 
ATOM     71  C   UNL A   1      44.916  22.998  24.984  1.00  0.00     0.198 A 
ATOM     72  F   UNL A   1      44.702  25.210  25.660  1.00  0.00    -0.203 F 
ATOM     73  F   UNL A   1      43.084  20.049  25.938  1.00  0.00    -0.200 F 
ATOM     74  C   UNL A   1      44.508  21.681  25.019  1.00  0.00     0.200 A 
ATOM     75  F   UNL A   1      45.824  23.390  24.079  1.00  0.00    -0.200 F 
ATOM     76  F   UNL A   1      45.013  20.788  24.158  1.00  0.00    -0.200 F 
ENDBRANCH  52  66
BRANCH  53  77
ATOM     77  C   UNL A   1      41.119  30.384  33.280  1.00  0.00     0.064 A 
ATOM     78  C   UNL A   1      40.893  31.760  33.480  1.00  0.00     0.173 A 
ATOM     79  C   UNL A   1      40.014  29.530  33.356  1.00  0.00     0.173 A 
ATOM     80  F   UNL A   1      41.918  32.625  33.413  1.00  0.00    -0.203 F 
ATOM     81  C   UNL A   1      39.606  32.268  33.633  1.00  0.00     0.198 A 
ATOM     82  C   UNL A   1      38.726  30.042  33.527  1.00  0.00     0.198 A 
ATOM     83  F   UNL A   1      40.159  28.212  33.155  1.00  0.00    -0.203 F 
ATOM     84  F   UNL A   1      39.415  33.594  33.702  1.00  0.00    -0.200 F 
ATOM     85  C   UNL A   1      38.520  31.410  33.632  1.00  0.00     0.200 A 
ATOM     86  F   UNL A   1      37.671  29.215  33.491  1.00  0.00    -0.200 F 
ATOM     87  F   UNL A   1      37.275  31.902  33.684  1.00  0.00    -0.200 F 
ENDBRANCH  53  77
BRANCH  65  88
ATOM     88  C   UNL A   1      45.258  24.528  33.363  1.00  0.00     0.064 A 
ATOM     89  C   UNL A   1      44.528  23.352  33.606  1.00  0.00     0.173 A 
ATOM     90  C   UNL A   1      46.613  24.500  33.772  1.00  0.00     0.173 A 
ATOM     91  F   UNL A   1      43.274  23.204  33.157  1.00  0.00    -0.203 F 
ATOM     92  C   UNL A   1      45.088  22.258  34.273  1.00  0.00     0.198 A 
ATOM     93  C   UNL A   1      47.184  23.384  34.384  1.00  0.00     0.198 A 
ATOM     94  F   UNL A   1      47.430  25.543  33.564  1.00  0.00    -0.203 F 
ATOM     95  F   UNL A   1      44.335  21.177  34.520  1.00  0.00    -0.200 F 
ATOM     96  C   UNL A   1      46.417  22.270  34.652  1.00  0.00     0.200 A 
ATOM     97  F   UNL A   1      48.489  23.391  34.696  1.00  0.00    -0.200 F 
ATOM     98  F   UNL A   1      46.961  21.202  35.250  1.00  0.00    -0.200 F 
ENDBRANCH  65  88
ENDBRANCH  39  40
ENDBRANCH  31  34
ENDBRANCH  29  30
ENDBRANCH   1  29
TORSDOF 14
ENDMDL
MODEL 2
REMARK VINA RESULT:     -13.8      1.195      3.618
REMARK SMILES COc1ccc([C@@H](C(=O)NCCCNC(=O)c2ccc(-c3c4nc(c(-c5c(F)c(F)c(F)c(F)c5F)c5ccc([nH]5)c(-c5c(F)c(F)c(F)c(F)c5F)c5nc(c(-c6c(F)c(F)c(F)c(F)c6F)c6ccc3[nH]6)C=C5)C=C4)cc2)[NH+]2CCC(C(N)=O)CC2)c(C)c1
REMARK SMILES IDX 12 1 11 2 10 3 8 4 9 5 7 7 6 8 3 9 4 10 91 11 5 12 89 13
REMARK SMILES IDX 90 14 2 15 1 16 80 17 81 18 88 19 82 21 87 22 83 23 84 24
REMARK SMILES IDX 85 25 86 26 13 29 14 30 15 31 16 33 17 34 18 35 79 36 19 37
REMARK SMILES IDX 78 38 20 39 21 40 22 41 72 42 23 43 77 44 71 45 73 46 24 47
REMARK SMILES IDX 76 48 70 49 69 50 25 52 57 53 37 54 56 55 38 56 41 57 55 58
REMARK SMILES IDX 74 59 39 60 40 61 54 63 75 64 42 65 26 66 27 67 35 68 28 69
REMARK SMILES IDX 29 70 33 71 36 72 30 73 31 74 34 75 32 76 58 77 59 78 67 79
REMARK SMILES IDX 60 80 61 81 65 82 68 83 62 84 63 85 66 86 64 87 43 88 44 89
REMARK SMILES IDX 52 90 45 91 46 92 50 93 53 94 47 95 48 96 51 97 49 98
REMARK H PARENT 10 6 80 20 85 27 85 28 14 32 73 51 41 62
REMARK Flexibility Score: inf
ROOT
ATOM      1  C   UNL A   1      33.518  30.112  27.583  1.00  0.00     0.042 C 
ENDROOT
BRANCH   1   2
ATOM      2  C   UNL A   1      33.947  28.785  26.965  1.00  0.00     0.118 C 
BRANCH   2   3
ATOM      3  N   UNL A   1      34.421  28.921  25.595  1.00  0.00    -0.351 N 
ATOM      4  C   UNL A   1      33.999  28.292  24.442  1.00  0.00     0.283 C 
ATOM      5  O   UNL A   1      34.533  28.673  23.397  1.00  0.00    -0.268 OA
ATOM      6  H   UNL A   1      35.157  29.563  25.471  1.00  0.00     0.163 HD
BRANCH   4   7
ATOM      7  C   UNL A   1      32.890  27.193  24.513  1.00  0.00     0.305 C 
BRANCH   7   8
ATOM      8  C   UNL A   1      33.402  25.749  24.370  1.00  0.00     0.022 A 
ATOM      9  C   UNL A   1      34.357  23.074  24.419  1.00  0.00     0.119 A 
ATOM     10  C   UNL A   1      34.265  23.794  25.600  1.00  0.00     0.047 A 
ATOM     11  C   UNL A   1      34.005  23.690  23.219  1.00  0.00     0.050 A 
ATOM     12  C   UNL A   1      33.784  25.105  25.574  1.00  0.00     0.014 A 
ATOM     13  C   UNL A   1      33.536  25.022  23.165  1.00  0.00    -0.038 A 
ATOM     14  C   UNL A   1      33.192  25.527  21.790  1.00  0.00     0.045 C 
BRANCH   9  15
ATOM     15  O   UNL A   1      34.799  21.785  24.306  1.00  0.00    -0.497 OA
ATOM     16  C   UNL A   1      35.070  21.118  25.533  1.00  0.00     0.278 C 
ENDBRANCH   9  15
ENDBRANCH   7   8
BRANCH   7  17
ATOM     17  N   UNL A   1      31.651  27.519  23.724  1.00  0.00    -0.321 N 
ATOM     18  C   UNL A   1      30.398  27.047  24.323  1.00  0.00     0.263 C 
ATOM     19  C   UNL A   1      31.592  28.953  23.389  1.00  0.00     0.263 C 
ATOM     20  H   UNL A   1      31.738  26.987  22.859  1.00  0.00     0.349 HD
ATOM     21  C   UNL A   1      29.176  27.361  23.456  1.00  0.00     0.075 C 
ATOM     22  C   UNL A   1      30.389  29.311  22.516  1.00  0.00     0.075 C 
ATOM     23  C   UNL A   1      29.098  28.864  23.195  1.00  0.00     0.089 C 
BRANCH  23  24
ATOM     24  C   UNL A   1      27.887  29.197  22.349  1.00  0.00     0.220 C 
ATOM     25  N   UNL A   1      26.708  28.695  22.817  1.00  0.00    -0.369 N 
ATOM     26  O   UNL A   1      27.925  29.850  21.313  1.00  0.00    -0.275 OA
ATOM     27  H   UNL A   1      26.692  28.173  23.652  1.00  0.00     0.159 HD
ATOM     28  H   UNL A   1      25.873  28.855  22.320  1.00  0.00     0.159 HD
ENDBRANCH  23  24
ENDBRANCH   7  17
ENDBRANCH   4   7
ENDBRANCH   2   3
ENDBRANCH   1   2
BRANCH   1  29
ATOM     29  C   UNL A   1      34.598  31.183  27.576  1.00  0.00     0.118 C 
BRANCH  29  30
ATOM     30  N   UNL A   1      34.938  31.679  28.910  1.00  0.00    -0.352 N 
ATOM     31  C   UNL A   1      35.881  31.189  29.802  1.00  0.00     0.251 C 
ATOM     32  H   UNL A   1      34.430  32.465  29.214  1.00  0.00     0.163 HD
ATOM     33  O   UNL A   1      36.102  31.742  30.859  1.00  0.00    -0.269 OA
BRANCH  31  34
ATOM     34  C   UNL A   1      36.698  30.033  29.369  1.00  0.00     0.039 A 
ATOM     35  C   UNL A   1      37.008  29.063  30.325  1.00  0.00     0.014 A 
ATOM     36  C   UNL A   1      37.358  30.074  28.144  1.00  0.00     0.014 A 
ATOM     37  C   UNL A   1      38.159  28.300  30.158  1.00  0.00     0.010 A 
ATOM     38  C   UNL A   1      38.549  29.387  28.019  1.00  0.00     0.010 A 
ATOM     39  C   UNL A   1      38.986  28.563  29.065  1.00  0.00    -0.014 A 
BRANCH  39  40
ATOM     40  C   UNL A   1      40.381  28.137  29.019  1.00  0.00     0.031 A 
ATOM     41  C   UNL A   1      40.743  26.801  28.510  1.00  0.00     0.074 A 
ATOM     42  C   UNL A   1      41.344  29.007  29.394  1.00  0.00     0.049 A 
ATOM     43  N   UNL A   1      41.831  26.176  28.811  1.00  0.00    -0.248 NA
ATOM     44  C   UNL A   1      39.860  26.035  27.641  1.00  0.00     0.031 C 
ATOM     45  C   UNL A   1      42.786  28.881  29.190  1.00  0.00     0.029 A 
ATOM     46  N   UNL A   1      41.209  30.122  30.242  1.00  0.00    -0.354 N 
ATOM     47  C   UNL A   1      41.925  25.073  27.991  1.00  0.00     0.074 A 
ATOM     48  C   UNL A   1      40.642  24.997  27.329  1.00  0.00     0.031 C 
ATOM     49  C   UNL A   1      43.418  29.644  30.097  1.00  0.00     0.029 A 
ATOM     50  C   UNL A   1      42.403  30.161  30.998  1.00  0.00     0.049 A 
ATOM     51  H   UNL A   1      40.446  30.742  30.297  1.00  0.00     0.167 HD
ATOM     52  C   UNL A   1      43.126  24.434  27.870  1.00  0.00     0.037 A 
ATOM     53  C   UNL A   1      42.402  29.990  32.352  1.00  0.00     0.037 A 
ATOM     54  C   UNL A   1      44.118  25.000  28.783  1.00  0.00     0.049 A 
ATOM     55  C   UNL A   1      43.269  28.849  32.825  1.00  0.00     0.074 A 
ATOM     56  C   UNL A   1      45.130  25.930  28.607  1.00  0.00     0.029 A 
ATOM     57  N   UNL A   1      43.954  24.853  30.157  1.00  0.00    -0.354 N 
ATOM     58  N   UNL A   1      43.628  27.849  32.070  1.00  0.00    -0.248 NA
ATOM     59  C   UNL A   1      43.753  28.721  34.197  1.00  0.00     0.031 C 
ATOM     60  C   UNL A   1      45.541  26.383  29.884  1.00  0.00     0.029 A 
ATOM     61  C   UNL A   1      44.792  25.714  30.838  1.00  0.00     0.049 A 
ATOM     62  H   UNL A   1      43.329  24.223  30.583  1.00  0.00     0.167 HD
ATOM     63  C   UNL A   1      44.340  26.948  32.818  1.00  0.00     0.074 A 
ATOM     64  C   UNL A   1      44.411  27.550  34.137  1.00  0.00     0.031 C 
ATOM     65  C   UNL A   1      44.794  25.775  32.291  1.00  0.00     0.037 A 
BRANCH  52  66
ATOM     66  C   UNL A   1      43.483  23.524  26.709  1.00  0.00     0.064 A 
ATOM     67  C   UNL A   1      43.068  22.173  26.693  1.00  0.00     0.173 A 
ATOM     68  C   UNL A   1      44.292  23.896  25.621  1.00  0.00     0.173 A 
ATOM     69  F   UNL A   1      42.189  21.697  27.582  1.00  0.00    -0.203 F 
ATOM     70  C   UNL A   1      43.545  21.249  25.758  1.00  0.00     0.198 A 
ATOM     71  C   UNL A   1      44.815  22.963  24.717  1.00  0.00     0.198 A 
ATOM     72  F   UNL A   1      44.552  25.181  25.355  1.00  0.00    -0.203 F 
ATOM     73  F   UNL A   1      43.126  19.976  25.808  1.00  0.00    -0.200 F 
ATOM     74  C   UNL A   1      44.455  21.634  24.797  1.00  0.00     0.200 A 
ATOM     75  F   UNL A   1      45.672  23.365  23.768  1.00  0.00    -0.200 F 
ATOM     76  F   UNL A   1      44.955  20.739  23.934  1.00  0.00    -0.200 F 
ENDBRANCH  52  66
BRANCH  53  77
ATOM     77  C   UNL A   1      41.136  30.409  33.009  1.00  0.00     0.064 A 
ATOM     78  C   UNL A   1      40.878  31.785  33.163  1.00  0.00     0.173 A 
ATOM     79  C   UNL A   1      40.059  29.529  33.157  1.00  0.00     0.173 A 
ATOM     80  F   UNL A   1      41.875  32.674  33.027  1.00  0.00    -0.203 F 
ATOM     81  C   UNL A   1      39.582  32.264  33.341  1.00  0.00     0.198 A 
ATOM     82  C   UNL A   1      38.764  30.012  33.352  1.00  0.00     0.198 A 
ATOM     83  F   UNL A   1      40.235  28.208  33.003  1.00  0.00    -0.203 F 
ATOM     84  F   UNL A   1      39.356  33.585  33.365  1.00  0.00    -0.200 F 
ATOM     85  C   UNL A   1      38.522  31.377  33.411  1.00  0.00     0.200 A 
ATOM     86  F   UNL A   1      37.732  29.155  33.386  1.00  0.00    -0.200 F 
ATOM     87  F   UNL A   1      37.266  31.836  33.488  1.00  0.00    -0.200 F 
ENDBRANCH  53  77
BRANCH  65  88
ATOM     88  C   UNL A   1      45.370  24.621  33.075  1.00  0.00     0.064 A 
ATOM     89  C   UNL A   1      46.648  24.633  33.658  1.00  0.00     0.173 A 
ATOM     90  C   UNL A   1      44.568  23.497  33.388  1.00  0.00     0.173 A 
ATOM     91  F   UNL A   1      47.457  25.696  33.544  1.00  0.00    -0.203 F 
ATOM     92  C   UNL A   1      47.116  23.571  34.437  1.00  0.00     0.198 A 
ATOM     93  C   UNL A   1      45.018  22.466  34.212  1.00  0.00     0.198 A 
ATOM     94  F   UNL A   1      43.315  23.380  32.925  1.00  0.00    -0.203 F 
ATOM     95  F   UNL A   1      48.360  23.612  34.934  1.00  0.00    -0.200 F 
ATOM     96  C   UNL A   1      46.299  22.493  34.722  1.00  0.00     0.200 A 
ATOM     97  F   UNL A   1      44.193  21.456  34.525  1.00  0.00    -0.200 F 
ATOM     98  F   UNL A   1      46.736  21.499  35.505  1.00  0.00    -0.200 F 
ENDBRANCH  65  88
ENDBRANCH  39  40
ENDBRANCH  31  34
ENDBRANCH  29  30
ENDBRANCH   1  29
TORSDOF 14
ENDMDL
MODEL 3
REMARK VINA RESULT:     -13.6      3.951      9.863
REMARK SMILES COc1ccc([C@@H](C(=O)NCCCNC(=O)c2ccc(-c3c4nc(c(-c5c(F)c(F)c(F)c(F)c5F)c5ccc([nH]5)c(-c5c(F)c(F)c(F)c(F)c5F)c5nc(c(-c6c(F)c(F)c(F)c(F)c6F)c6ccc3[nH]6)C=C5)C=C4)cc2)[NH+]2CCC(C(N)=O)CC2)c(C)c1
REMARK SMILES IDX 12 1 11 2 10 3 8 4 9 5 7 7 6 8 3 9 4 10 91 11 5 12 89 13
REMARK SMILES IDX 90 14 2 15 1 16 80 17 81 18 88 19 82 21 87 22 83 23 84 24
REMARK SMILES IDX 85 25 86 26 13 29 14 30 15 31 16 33 17 34 18 35 79 36 19 37
REMARK SMILES IDX 78 38 20 39 21 40 22 41 72 42 23 43 77 44 71 45 73 46 24 47
REMARK SMILES IDX 76 48 70 49 69 50 25 52 57 53 37 54 56 55 38 56 41 57 55 58
REMARK SMILES IDX 74 59 39 60 40 61 54 63 75 64 42 65 26 66 27 67 35 68 28 69
REMARK SMILES IDX 29 70 33 71 36 72 30 73 31 74 34 75 32 76 58 77 59 78 67 79
REMARK SMILES IDX 60 80 61 81 65 82 68 83 62 84 63 85 66 86 64 87 43 88 44 89
REMARK SMILES IDX 52 90 45 91 46 92 50 93 53 94 47 95 48 96 51 97 49 98
REMARK H PARENT 10 6 80 20 85 27 85 28 14 32 73 51 41 62
REMARK Flexibility Score: inf
ROOT
ATOM      1  C   UNL A   1      38.513  22.259  25.475  1.00  0.00     0.042 C 
ENDROOT
BRANCH   1   2
ATOM      2  C   UNL A   1      37.308  23.184  25.347  1.00  0.00     0.118 C 
BRANCH   2   3
ATOM      3  N   UNL A   1      36.422  23.130  26.501  1.00  0.00    -0.351 N 
ATOM      4  C   UNL A   1      35.045  23.088  26.564  1.00  0.00     0.283 C 
ATOM      5  O   UNL A   1      34.563  22.958  27.692  1.00  0.00    -0.268 OA
ATOM      6  H   UNL A   1      36.877  23.120  27.375  1.00  0.00     0.163 HD
BRANCH   4   7
ATOM      7  C   UNL A   1      34.199  23.177  25.252  1.00  0.00     0.305 C 
BRANCH   7   8
ATOM      8  C   UNL A   1      33.350  24.452  25.117  1.00  0.00     0.022 A 
ATOM      9  C   UNL A   1      31.991  26.905  24.658  1.00  0.00     0.119 A 
ATOM     10  C   UNL A   1      33.232  26.687  24.081  1.00  0.00     0.047 A 
ATOM     11  C   UNL A   1      31.444  25.922  25.482  1.00  0.00     0.050 A 
ATOM     12  C   UNL A   1      33.892  25.475  24.298  1.00  0.00     0.014 A 
ATOM     13  C   UNL A   1      32.103  24.698  25.734  1.00  0.00    -0.038 A 
ATOM     14  C   UNL A   1      31.366  23.747  26.639  1.00  0.00     0.045 C 
BRANCH   9  15
ATOM     15  O   UNL A   1      31.237  28.036  24.518  1.00  0.00    -0.497 OA
ATOM     16  C   UNL A   1      31.600  29.126  25.359  1.00  0.00     0.278 C 
ENDBRANCH   9  15
ENDBRANCH   7   8
BRANCH   7  17
ATOM     17  N   UNL A   1      33.505  21.896  24.882  1.00  0.00    -0.321 N 
ATOM     18  C   UNL A   1      32.949  21.867  23.524  1.00  0.00     0.263 C 
ATOM     19  C   UNL A   1      34.359  20.726  25.149  1.00  0.00     0.263 C 
ATOM     20  H   UNL A   1      32.690  21.848  25.493  1.00  0.00     0.349 HD
ATOM     21  C   UNL A   1      32.211  20.561  23.219  1.00  0.00     0.075 C 
ATOM     22  C   UNL A   1      33.658  19.398  24.865  1.00  0.00     0.075 C 
ATOM     23  C   UNL A   1      33.148  19.373  23.427  1.00  0.00     0.089 C 
BRANCH  23  24
ATOM     24  C   UNL A   1      32.439  18.072  23.116  1.00  0.00     0.220 C 
ATOM     25  N   UNL A   1      32.155  17.301  24.205  1.00  0.00    -0.369 N 
ATOM     26  O   UNL A   1      32.141  17.698  21.988  1.00  0.00    -0.275 OA
ATOM     27  H   UNL A   1      32.399  17.615  25.107  1.00  0.00     0.159 HD
ATOM     28  H   UNL A   1      31.705  16.433  24.090  1.00  0.00     0.159 HD
ENDBRANCH  23  24
ENDBRANCH   7  17
ENDBRANCH   4   7
ENDBRANCH   2   3
ENDBRANCH   1   2
BRANCH   1  29
ATOM     29  C   UNL A   1      39.348  22.489  26.725  1.00  0.00     0.118 C 
BRANCH  29  30
ATOM     30  N   UNL A   1      40.752  22.790  26.443  1.00  0.00    -0.352 N 
ATOM     31  C   UNL A   1      41.386  24.024  26.414  1.00  0.00     0.251 C 
ATOM     32  H   UNL A   1      41.323  22.011  26.249  1.00  0.00     0.163 HD
ATOM     33  O   UNL A   1      42.580  24.120  26.224  1.00  0.00    -0.269 OA
BRANCH  31  34
ATOM     34  C   UNL A   1      40.574  25.218  26.742  1.00  0.00     0.039 A 
ATOM     35  C   UNL A   1      40.873  26.409  26.075  1.00  0.00     0.014 A 
ATOM     36  C   UNL A   1      39.754  25.208  27.866  1.00  0.00     0.014 A 
ATOM     37  C   UNL A   1      40.566  27.617  26.691  1.00  0.00     0.010 A 
ATOM     38  C   UNL A   1      39.531  26.402  28.523  1.00  0.00     0.010 A 
ATOM     39  C   UNL A   1      40.011  27.597  27.972  1.00  0.00    -0.014 A 
BRANCH  39  40
ATOM     40  C   UNL A   1      40.040  28.757  28.855  1.00  0.00     0.031 A 
ATOM     41  C   UNL A   1      38.997  29.795  28.768  1.00  0.00     0.074 A 
ATOM     42  C   UNL A   1      41.005  28.839  29.798  1.00  0.00     0.049 A 
ATOM     43  N   UNL A   1      39.145  31.014  29.165  1.00  0.00    -0.248 NA
ATOM     44  C   UNL A   1      37.695  29.540  28.168  1.00  0.00     0.031 C 
ATOM     45  C   UNL A   1      41.069  29.764  30.928  1.00  0.00     0.029 A 
ATOM     46  N   UNL A   1      42.260  28.203  29.796  1.00  0.00    -0.354 N 
ATOM     47  C   UNL A   1      37.911  31.624  29.128  1.00  0.00     0.074 A 
ATOM     48  C   UNL A   1      37.057  30.683  28.438  1.00  0.00     0.031 C 
ATOM     49  C   UNL A   1      42.349  29.876  31.320  1.00  0.00     0.029 A 
ATOM     50  C   UNL A   1      43.154  29.144  30.358  1.00  0.00     0.049 A 
ATOM     51  H   UNL A   1      42.471  27.297  29.473  1.00  0.00     0.167 HD
ATOM     52  C   UNL A   1      37.726  32.796  29.805  1.00  0.00     0.037 A 
ATOM     53  C   UNL A   1      44.184  29.675  29.638  1.00  0.00     0.037 A 
ATOM     54  C   UNL A   1      38.983  33.277  30.377  1.00  0.00     0.049 A 
ATOM     55  C   UNL A   1      44.160  31.181  29.554  1.00  0.00     0.074 A 
ATOM     56  C   UNL A   1      39.533  33.179  31.645  1.00  0.00     0.029 A 
ATOM     57  N   UNL A   1      40.008  33.695  29.535  1.00  0.00    -0.354 N 
ATOM     58  N   UNL A   1      43.087  31.900  29.732  1.00  0.00    -0.248 NA
ATOM     59  C   UNL A   1      45.328  31.987  29.211  1.00  0.00     0.031 C 
ATOM     60  C   UNL A   1      40.911  33.491  31.554  1.00  0.00     0.029 A 
ATOM     61  C   UNL A   1      41.196  33.797  30.234  1.00  0.00     0.049 A 
ATOM     62  H   UNL A   1      39.903  33.891  28.576  1.00  0.00     0.167 HD
ATOM     63  C   UNL A   1      43.385  33.219  29.509  1.00  0.00     0.074 A 
ATOM     64  C   UNL A   1      44.804  33.225  29.209  1.00  0.00     0.031 C 
ATOM     65  C   UNL A   1      42.430  34.192  29.573  1.00  0.00     0.037 A 
BRANCH  52  66
ATOM     66  C   UNL A   1      36.365  33.326  30.215  1.00  0.00     0.064 A 
ATOM     67  C   UNL A   1      35.496  33.906  29.262  1.00  0.00     0.173 A 
ATOM     68  C   UNL A   1      35.886  33.365  31.536  1.00  0.00     0.173 A 
ATOM     69  F   UNL A   1      35.742  33.831  27.949  1.00  0.00    -0.203 F 
ATOM     70  C   UNL A   1      34.331  34.592  29.623  1.00  0.00     0.198 A 
ATOM     71  C   UNL A   1      34.752  34.099  31.906  1.00  0.00     0.198 A 
ATOM     72  F   UNL A   1      36.460  32.642  32.505  1.00  0.00    -0.203 F 
ATOM     73  F   UNL A   1      33.559  35.135  28.672  1.00  0.00    -0.200 F 
ATOM     74  C   UNL A   1      33.984  34.728  30.950  1.00  0.00     0.200 A 
ATOM     75  F   UNL A   1      34.412  34.189  33.200  1.00  0.00    -0.200 F 
ATOM     76  F   UNL A   1      32.899  35.431  31.301  1.00  0.00    -0.200 F 
ENDBRANCH  52  66
BRANCH  53  77
ATOM     77  C   UNL A   1      44.684  28.783  28.558  1.00  0.00     0.064 A 
ATOM     78  C   UNL A   1      45.468  27.667  28.912  1.00  0.00     0.173 A 
ATOM     79  C   UNL A   1      44.129  28.803  27.274  1.00  0.00     0.173 A 
ATOM     80  F   UNL A   1      46.020  27.595  30.133  1.00  0.00    -0.203 F 
ATOM     81  C   UNL A   1      45.593  26.571  28.061  1.00  0.00     0.198 A 
ATOM     82  C   UNL A   1      44.272  27.709  26.418  1.00  0.00     0.198 A 
ATOM     83  F   UNL A   1      43.357  29.827  26.883  1.00  0.00    -0.203 F 
ATOM     84  F   UNL A   1      46.248  25.476  28.475  1.00  0.00    -0.200 F 
ATOM     85  C   UNL A   1      44.975  26.584  26.824  1.00  0.00     0.200 A 
ATOM     86  F   UNL A   1      43.644  27.705  25.232  1.00  0.00    -0.200 F 
ATOM     87  F   UNL A   1      45.015  25.496  26.042  1.00  0.00    -0.200 F 
ENDBRANCH  53  77
BRANCH  65  88
ATOM     88  C   UNL A   1      42.595  35.621  29.117  1.00  0.00     0.064 A 
ATOM     89  C   UNL A   1      41.976  36.153  27.974  1.00  0.00     0.173 A 
ATOM     90  C   UNL A   1      43.288  36.554  29.926  1.00  0.00     0.173 A 
ATOM     91  F   UNL A   1      41.186  35.401  27.195  1.00  0.00    -0.203 F 
ATOM     92  C   UNL A   1      42.099  37.502  27.626  1.00  0.00     0.198 A 
ATOM     93  C   UNL A   1      43.360  37.910  29.605  1.00  0.00     0.198 A 
ATOM     94  F   UNL A   1      43.892  36.184  31.064  1.00  0.00    -0.203 F 
ATOM     95  F   UNL A   1      41.524  37.949  26.500  1.00  0.00    -0.200 F 
ATOM     96  C   UNL A   1      42.781  38.381  28.445  1.00  0.00     0.200 A 
ATOM     97  F   UNL A   1      43.977  38.760  30.438  1.00  0.00    -0.200 F 
ATOM     98  F   UNL A   1      42.858  39.680  28.130  1.00  0.00    -0.200 F 
ENDBRANCH  65  88
ENDBRANCH  39  40
ENDBRANCH  31  34
ENDBRANCH  29  30
ENDBRANCH   1  29
TORSDOF 14
ENDMDL
