MODEL 1
REMARK VINA RESULT:     -12.6      0.000      0.000
REMARK SMILES COc1cc(NC(=O)C2CCN(S(=O)(=O)c3cccs3)CC2)c(Cl)cc1C(=O)NCCCNC(=O)c1ccc(-c2c3nc(c(-c4c(F)c(F)c(F)c(F)c4F)c4ccc([nH]4)c(-c4c(F)c(F)c(F)c(F)c4F)c4nc(c(-c5c(F)c(F)c(F)c(F)c5F)c5ccc2[nH]5)C=C4)C=C3)cc1
REMARK SMILES IDX 30 1 29 2 27 3 28 4 26 6 3 7 4 8 5 9 25 10 23 11 24 12 2 13
REMARK SMILES IDX 1 14 6 15 7 16 8 18 9 19 10 20 22 21 11 22 21 23 12 24 13 25
REMARK SMILES IDX 14 26 15 27 16 28 17 29 20 30 18 31 19 32 31 33 32 34 33 35
REMARK SMILES IDX 34 36 35 38 36 39 37 40 98 41 38 42 97 43 39 44 40 45 41 46
REMARK SMILES IDX 91 47 42 48 96 49 90 50 92 51 43 52 95 53 89 54 88 55 44 57
REMARK SMILES IDX 76 58 56 59 75 60 57 61 60 62 74 63 93 64 58 65 59 66 73 68
REMARK SMILES IDX 94 69 61 70 45 71 46 72 54 73 47 74 48 75 52 76 55 77 49 78
REMARK SMILES IDX 50 79 53 80 51 81 77 82 78 83 86 84 79 85 80 86 84 87 87 88
REMARK SMILES IDX 81 89 82 90 85 91 83 92 62 93 63 94 71 95 64 96 65 97 69 98
REMARK SMILES IDX 72 99 66 100 67 101 70 102 68 103
REMARK H PARENT 29 5 6 17 33 37 92 56 60 67
REMARK Flexibility Score: inf
ROOT
ATOM      1  C   UNL A   1      33.650  28.979  23.144  1.00  0.00     0.118 C 
ENDROOT
BRANCH   1   2
ATOM      2  N   UNL A   1      32.254  29.368  23.139  1.00  0.00    -0.352 N 
ATOM      3  C   UNL A   1      31.077  28.683  23.300  1.00  0.00     0.255 C 
ATOM      4  O   UNL A   1      30.066  29.389  23.371  1.00  0.00    -0.269 OA
ATOM      5  H   UNL A   1      32.121  30.331  22.986  1.00  0.00     0.163 HD
BRANCH   3   6
ATOM      6  C   UNL A   1      30.911  27.204  23.477  1.00  0.00     0.083 A 
ATOM      7  C   UNL A   1      31.283  26.170  22.595  1.00  0.00     0.133 A 
ATOM      8  C   UNL A   1      31.025  24.834  22.960  1.00  0.00     0.075 A 
ATOM      9  C   UNL A   1      30.559  24.501  24.225  1.00  0.00     0.063 A 
ATOM     10  C   UNL A   1      30.204  26.851  24.648  1.00  0.00     0.040 A 
ATOM     11  C   UNL A   1      30.020  25.519  25.015  1.00  0.00     0.065 A 
ATOM     12  Cl  UNL A   1      29.212  25.172  26.501  1.00  0.00    -0.082 Cl
BRANCH   7  13
ATOM     13  O   UNL A   1      31.844  26.505  21.403  1.00  0.00    -0.496 OA
ATOM     14  C   UNL A   1      32.528  25.564  20.579  1.00  0.00     0.278 C 
ENDBRANCH   7  13
BRANCH   9  15
ATOM     15  N   UNL A   1      30.652  23.206  24.764  1.00  0.00    -0.324 N 
ATOM     16  C   UNL A   1      31.284  22.655  25.837  1.00  0.00     0.227 C 
ATOM     17  H   UNL A   1      30.144  22.543  24.244  1.00  0.00     0.169 HD
ATOM     18  O   UNL A   1      31.035  21.450  26.005  1.00  0.00    -0.274 OA
BRANCH  16  19
ATOM     19  C   UNL A   1      32.241  23.336  26.848  1.00  0.00     0.081 C 
ATOM     20  C   UNL A   1      33.095  24.418  26.137  1.00  0.00     0.030 C 
ATOM     21  C   UNL A   1      33.262  22.569  27.659  1.00  0.00     0.030 C 
ATOM     22  C   UNL A   1      34.270  23.838  25.322  1.00  0.00     0.103 C 
ATOM     23  C   UNL A   1      34.207  21.813  26.756  1.00  0.00     0.103 C 
ATOM     24  N   UNL A   1      35.060  22.785  26.061  1.00  0.00    -0.197 NA
BRANCH  24  25
ATOM     25  S   UNL A   1      36.248  22.041  25.043  1.00  0.00     0.252 S 
ATOM     26  O   UNL A   1      36.069  20.610  25.169  1.00  0.00    -0.206 OA
ATOM     27  O   UNL A   1      36.208  22.700  23.757  1.00  0.00    -0.206 OA
BRANCH  25  28
ATOM     28  C   UNL A   1      37.878  22.297  25.751  1.00  0.00     0.135 A 
ATOM     29  C   UNL A   1      38.437  23.428  26.330  1.00  0.00     0.033 A 
ATOM     30  S   UNL A   1      38.980  20.994  25.751  1.00  0.00    -0.131 S 
ATOM     31  C   UNL A   1      39.764  23.211  26.795  1.00  0.00     0.013 A 
ATOM     32  C   UNL A   1      40.174  21.916  26.569  1.00  0.00     0.066 A 
ENDBRANCH  25  28
ENDBRANCH  24  25
ENDBRANCH  16  19
ENDBRANCH   9  15
ENDBRANCH   3   6
ENDBRANCH   1   2
BRANCH   1  33
ATOM     33  C   UNL A   1      34.221  28.970  24.561  1.00  0.00     0.042 C 
BRANCH  33  34
ATOM     34  C   UNL A   1      33.184  29.091  25.665  1.00  0.00     0.118 C 
BRANCH  34  35
ATOM     35  N   UNL A   1      32.931  30.481  26.026  1.00  0.00    -0.352 N 
ATOM     36  C   UNL A   1      33.468  31.290  26.996  1.00  0.00     0.251 C 
ATOM     37  H   UNL A   1      32.247  30.921  25.471  1.00  0.00     0.163 HD
ATOM     38  O   UNL A   1      32.904  32.352  27.252  1.00  0.00    -0.269 OA
BRANCH  36  39
ATOM     39  C   UNL A   1      34.690  30.918  27.747  1.00  0.00     0.039 A 
ATOM     40  C   UNL A   1      35.676  31.891  27.954  1.00  0.00     0.014 A 
ATOM     41  C   UNL A   1      34.918  29.616  28.191  1.00  0.00     0.014 A 
ATOM     42  C   UNL A   1      36.850  31.568  28.641  1.00  0.00     0.010 A 
ATOM     43  C   UNL A   1      36.022  29.328  28.986  1.00  0.00     0.010 A 
ATOM     44  C   UNL A   1      37.018  30.289  29.195  1.00  0.00    -0.014 A 
BRANCH  44  45
ATOM     45  C   UNL A   1      38.245  29.921  29.950  1.00  0.00     0.031 A 
ATOM     46  C   UNL A   1      38.436  30.408  31.364  1.00  0.00     0.074 A 
ATOM     47  C   UNL A   1      39.214  29.206  29.345  1.00  0.00     0.049 A 
ATOM     48  N   UNL A   1      39.468  30.266  32.159  1.00  0.00    -0.248 NA
ATOM     49  C   UNL A   1      37.341  31.202  31.948  1.00  0.00     0.031 C 
ATOM     50  C   UNL A   1      39.179  28.734  27.960  1.00  0.00     0.029 A 
ATOM     51  N   UNL A   1      40.420  28.753  29.817  1.00  0.00    -0.354 N 
ATOM     52  C   UNL A   1      39.156  30.976  33.313  1.00  0.00     0.074 A 
ATOM     53  C   UNL A   1      37.875  31.607  33.089  1.00  0.00     0.031 C 
ATOM     54  C   UNL A   1      40.291  28.026  27.706  1.00  0.00     0.029 A 
ATOM     55  C   UNL A   1      41.134  28.026  28.897  1.00  0.00     0.049 A 
ATOM     56  H   UNL A   1      40.744  28.934  30.729  1.00  0.00     0.167 HD
ATOM     57  C   UNL A   1      39.855  31.065  34.469  1.00  0.00     0.037 A 
ATOM     58  C   UNL A   1      42.333  27.424  29.004  1.00  0.00     0.037 A 
ATOM     59  C   UNL A   1      41.101  30.387  34.706  1.00  0.00     0.049 A 
ATOM     60  C   UNL A   1      43.071  27.500  30.313  1.00  0.00     0.074 A 
ATOM     61  C   UNL A   1      41.856  30.345  35.866  1.00  0.00     0.029 A 
ATOM     62  N   UNL A   1      41.772  29.621  33.763  1.00  0.00    -0.354 N 
ATOM     63  N   UNL A   1      42.732  28.114  31.421  1.00  0.00    -0.248 NA
ATOM     64  C   UNL A   1      44.353  26.787  30.391  1.00  0.00     0.031 C 
ATOM     65  C   UNL A   1      43.003  29.586  35.611  1.00  0.00     0.029 A 
ATOM     66  C   UNL A   1      42.939  29.114  34.309  1.00  0.00     0.049 A 
ATOM     67  H   UNL A   1      41.463  29.463  32.842  1.00  0.00     0.167 HD
ATOM     68  C   UNL A   1      43.741  27.841  32.333  1.00  0.00     0.074 A 
ATOM     69  C   UNL A   1      44.695  26.988  31.655  1.00  0.00     0.031 C 
ATOM     70  C   UNL A   1      43.870  28.261  33.617  1.00  0.00     0.037 A 
BRANCH  57  71
ATOM     71  C   UNL A   1      39.279  31.911  35.570  1.00  0.00     0.064 A 
ATOM     72  C   UNL A   1      38.425  31.372  36.545  1.00  0.00     0.173 A 
ATOM     73  C   UNL A   1      39.602  33.273  35.666  1.00  0.00     0.173 A 
ATOM     74  F   UNL A   1      38.072  30.078  36.493  1.00  0.00    -0.203 F 
ATOM     75  C   UNL A   1      37.888  32.171  37.552  1.00  0.00     0.198 A 
ATOM     76  C   UNL A   1      39.091  34.062  36.695  1.00  0.00     0.198 A 
ATOM     77  F   UNL A   1      40.417  33.842  34.765  1.00  0.00    -0.203 F 
ATOM     78  F   UNL A   1      37.027  31.644  38.434  1.00  0.00    -0.200 F 
ATOM     79  C   UNL A   1      38.226  33.513  37.631  1.00  0.00     0.200 A 
ATOM     80  F   UNL A   1      39.429  35.356  36.777  1.00  0.00    -0.200 F 
ATOM     81  F   UNL A   1      37.714  34.278  38.603  1.00  0.00    -0.200 F 
ENDBRANCH  57  71
BRANCH  58  82
ATOM     82  C   UNL A   1      42.887  26.659  27.856  1.00  0.00     0.064 A 
ATOM     83  C   UNL A   1      43.599  27.307  26.837  1.00  0.00     0.173 A 
ATOM     84  C   UNL A   1      42.722  25.270  27.753  1.00  0.00     0.173 A 
ATOM     85  F   UNL A   1      43.771  28.636  26.882  1.00  0.00    -0.203 F 
ATOM     86  C   UNL A   1      44.104  26.600  25.747  1.00  0.00     0.198 A 
ATOM     87  C   UNL A   1      43.252  24.560  26.678  1.00  0.00     0.198 A 
ATOM     88  F   UNL A   1      42.059  24.600  28.706  1.00  0.00    -0.203 F 
ATOM     89  F   UNL A   1      44.739  27.253  24.764  1.00  0.00    -0.200 F 
ATOM     90  C   UNL A   1      43.934  25.226  25.672  1.00  0.00     0.200 A 
ATOM     91  F   UNL A   1      43.103  23.229  26.618  1.00  0.00    -0.200 F 
ATOM     92  F   UNL A   1      44.424  24.546  24.626  1.00  0.00    -0.200 F 
ENDBRANCH  58  82
BRANCH  70  93
ATOM     93  C   UNL A   1      45.067  27.772  34.378  1.00  0.00     0.064 A 
ATOM     94  C   UNL A   1      45.035  26.578  35.113  1.00  0.00     0.173 A 
ATOM     95  C   UNL A   1      46.271  28.493  34.344  1.00  0.00     0.173 A 
ATOM     96  F   UNL A   1      43.904  25.860  35.185  1.00  0.00    -0.203 F 
ATOM     97  C   UNL A   1      46.155  26.141  35.814  1.00  0.00     0.198 A 
ATOM     98  C   UNL A   1      47.397  28.037  35.020  1.00  0.00     0.198 A 
ATOM     99  F   UNL A   1      46.355  29.637  33.648  1.00  0.00    -0.203 F 
ATOM    100  F   UNL A   1      46.086  25.026  36.555  1.00  0.00    -0.200 F 
ATOM    101  C   UNL A   1      47.336  26.866  35.763  1.00  0.00     0.200 A 
ATOM    102  F   UNL A   1      48.542  28.731  34.958  1.00  0.00    -0.200 F 
ATOM    103  F   UNL A   1      48.414  26.442  36.436  1.00  0.00    -0.200 F 
ENDBRANCH  70  93
ENDBRANCH  44  45
ENDBRANCH  36  39
ENDBRANCH  34  35
ENDBRANCH  33  34
ENDBRANCH   1  33
TORSDOF 15
ENDMDL
MODEL 2
REMARK VINA RESULT:     -12.2      3.537      9.295
REMARK SMILES COc1cc(NC(=O)C2CCN(S(=O)(=O)c3cccs3)CC2)c(Cl)cc1C(=O)NCCCNC(=O)c1ccc(-c2c3nc(c(-c4c(F)c(F)c(F)c(F)c4F)c4ccc([nH]4)c(-c4c(F)c(F)c(F)c(F)c4F)c4nc(c(-c5c(F)c(F)c(F)c(F)c5F)c5ccc2[nH]5)C=C4)C=C3)cc1
REMARK SMILES IDX 30 1 29 2 27 3 28 4 26 6 3 7 4 8 5 9 25 10 23 11 24 12 2 13
REMARK SMILES IDX 1 14 6 15 7 16 8 18 9 19 10 20 22 21 11 22 21 23 12 24 13 25
REMARK SMILES IDX 14 26 15 27 16 28 17 29 20 30 18 31 19 32 31 33 32 34 33 35
REMARK SMILES IDX 34 36 35 38 36 39 37 40 98 41 38 42 97 43 39 44 40 45 41 46
REMARK SMILES IDX 91 47 42 48 96 49 90 50 92 51 43 52 95 53 89 54 88 55 44 57
REMARK SMILES IDX 76 58 56 59 75 60 57 61 60 62 74 63 93 64 58 65 59 66 73 68
REMARK SMILES IDX 94 69 61 70 45 71 46 72 54 73 47 74 48 75 52 76 55 77 49 78
REMARK SMILES IDX 50 79 53 80 51 81 77 82 78 83 86 84 79 85 80 86 84 87 87 88
REMARK SMILES IDX 81 89 82 90 85 91 83 92 62 93 63 94 71 95 64 96 65 97 69 98
REMARK SMILES IDX 72 99 66 100 67 101 70 102 68 103
REMARK H PARENT 29 5 6 17 33 37 92 56 60 67
REMARK Flexibility Score: inf
ROOT
ATOM      1  C   UNL A   1      44.602  22.137  26.329  1.00  0.00     0.118 C 
ENDROOT
BRANCH   1   2
ATOM      2  N   UNL A   1      44.304  22.556  27.684  1.00  0.00    -0.352 N 
ATOM      3  C   UNL A   1      43.151  22.901  28.340  1.00  0.00     0.255 C 
ATOM      4  O   UNL A   1      43.271  23.073  29.557  1.00  0.00    -0.269 OA
ATOM      5  H   UNL A   1      45.103  22.603  28.258  1.00  0.00     0.163 HD
BRANCH   3   6
ATOM      6  C   UNL A   1      41.776  23.006  27.752  1.00  0.00     0.083 A 
ATOM      7  C   UNL A   1      41.016  22.004  27.117  1.00  0.00     0.133 A 
ATOM      8  C   UNL A   1      39.735  22.324  26.627  1.00  0.00     0.075 A 
ATOM      9  C   UNL A   1      39.139  23.551  26.889  1.00  0.00     0.063 A 
ATOM     10  C   UNL A   1      41.249  24.318  27.779  1.00  0.00     0.040 A 
ATOM     11  C   UNL A   1      39.953  24.591  27.345  1.00  0.00     0.065 A 
ATOM     12  Cl  UNL A   1      39.357  26.205  27.481  1.00  0.00    -0.082 Cl
BRANCH   7  13
ATOM     13  O   UNL A   1      41.567  20.770  26.966  1.00  0.00    -0.496 OA
ATOM     14  C   UNL A   1      40.931  19.722  26.241  1.00  0.00     0.278 C 
ENDBRANCH   7  13
BRANCH   9  15
ATOM     15  N   UNL A   1      37.758  23.778  26.768  1.00  0.00    -0.324 N 
ATOM     16  C   UNL A   1      36.777  23.318  25.942  1.00  0.00     0.227 C 
ATOM     17  H   UNL A   1      37.421  24.419  27.434  1.00  0.00     0.169 HD
ATOM     18  O   UNL A   1      35.640  23.726  26.234  1.00  0.00    -0.274 OA
BRANCH  16  19
ATOM     19  C   UNL A   1      36.907  22.369  24.724  1.00  0.00     0.081 C 
ATOM     20  C   UNL A   1      36.107  22.927  23.518  1.00  0.00     0.030 C 
ATOM     21  C   UNL A   1      36.496  20.914  24.769  1.00  0.00     0.030 C 
ATOM     22  C   UNL A   1      34.587  22.683  23.623  1.00  0.00     0.103 C 
ATOM     23  C   UNL A   1      35.041  20.779  25.148  1.00  0.00     0.103 C 
ATOM     24  N   UNL A   1      34.223  21.277  24.035  1.00  0.00    -0.197 NA
BRANCH  24  25
ATOM     25  S   UNL A   1      32.522  21.108  24.312  1.00  0.00     0.252 S 
ATOM     26  O   UNL A   1      31.895  21.009  23.010  1.00  0.00    -0.206 OA
ATOM     27  O   UNL A   1      32.334  20.092  25.323  1.00  0.00    -0.206 OA
BRANCH  25  28
ATOM     28  C   UNL A   1      31.868  22.655  24.946  1.00  0.00     0.135 A 
ATOM     29  C   UNL A   1      31.147  23.653  24.307  1.00  0.00     0.033 A 
ATOM     30  S   UNL A   1      32.134  23.039  26.587  1.00  0.00    -0.131 S 
ATOM     31  C   UNL A   1      30.793  24.721  25.177  1.00  0.00     0.013 A 
ATOM     32  C   UNL A   1      31.243  24.501  26.459  1.00  0.00     0.066 A 
ENDBRANCH  25  28
ENDBRANCH  24  25
ENDBRANCH  16  19
ENDBRANCH   9  15
ENDBRANCH   3   6
ENDBRANCH   1   2
BRANCH   1  33
ATOM     33  C   UNL A   1      45.004  23.323  25.454  1.00  0.00     0.042 C 
BRANCH  33  34
ATOM     34  C   UNL A   1      45.949  24.311  26.118  1.00  0.00     0.118 C 
BRANCH  34  35
ATOM     35  N   UNL A   1      46.239  25.451  25.257  1.00  0.00    -0.352 N 
ATOM     36  C   UNL A   1      45.814  26.756  25.285  1.00  0.00     0.251 C 
ATOM     37  H   UNL A   1      46.854  25.247  24.515  1.00  0.00     0.163 HD
ATOM     38  O   UNL A   1      46.012  27.459  24.297  1.00  0.00    -0.269 OA
BRANCH  36  39
ATOM     39  C   UNL A   1      45.118  27.333  26.460  1.00  0.00     0.039 A 
ATOM     40  C   UNL A   1      45.142  28.722  26.642  1.00  0.00     0.014 A 
ATOM     41  C   UNL A   1      44.501  26.533  27.421  1.00  0.00     0.014 A 
ATOM     42  C   UNL A   1      44.512  29.297  27.750  1.00  0.00     0.010 A 
ATOM     43  C   UNL A   1      43.765  27.111  28.449  1.00  0.00     0.010 A 
ATOM     44  C   UNL A   1      43.786  28.498  28.647  1.00  0.00    -0.014 A 
BRANCH  44  45
ATOM     45  C   UNL A   1      43.086  29.081  29.822  1.00  0.00     0.031 A 
ATOM     46  C   UNL A   1      41.647  29.513  29.705  1.00  0.00     0.074 A 
ATOM     47  C   UNL A   1      43.761  29.282  30.971  1.00  0.00     0.049 A 
ATOM     48  N   UNL A   1      40.887  30.116  30.586  1.00  0.00    -0.248 NA
ATOM     49  C   UNL A   1      40.984  29.279  28.411  1.00  0.00     0.031 C 
ATOM     50  C   UNL A   1      45.175  28.970  31.188  1.00  0.00     0.029 A 
ATOM     51  N   UNL A   1      43.349  29.801  32.172  1.00  0.00    -0.354 N 
ATOM     52  C   UNL A   1      39.680  30.359  29.941  1.00  0.00     0.074 A 
ATOM     53  C   UNL A   1      39.830  29.905  28.577  1.00  0.00     0.031 C 
ATOM     54  C   UNL A   1      45.503  29.266  32.456  1.00  0.00     0.029 A 
ATOM     55  C   UNL A   1      44.335  29.823  33.130  1.00  0.00     0.049 A 
ATOM     56  H   UNL A   1      42.435  30.127  32.333  1.00  0.00     0.167 HD
ATOM     57  C   UNL A   1      38.537  30.879  30.447  1.00  0.00     0.037 A 
ATOM     58  C   UNL A   1      44.297  30.243  34.407  1.00  0.00     0.037 A 
ATOM     59  C   UNL A   1      38.376  31.274  31.820  1.00  0.00     0.049 A 
ATOM     60  C   UNL A   1      43.003  30.775  34.960  1.00  0.00     0.074 A 
ATOM     61  C   UNL A   1      37.240  31.740  32.459  1.00  0.00     0.029 A 
ATOM     62  N   UNL A   1      39.385  31.239  32.772  1.00  0.00    -0.354 N 
ATOM     63  N   UNL A   1      41.848  30.933  34.360  1.00  0.00    -0.248 NA
ATOM     64  C   UNL A   1      43.004  31.178  36.373  1.00  0.00     0.031 C 
ATOM     65  C   UNL A   1      37.573  32.025  33.787  1.00  0.00     0.029 A 
ATOM     66  C   UNL A   1      38.903  31.690  33.990  1.00  0.00     0.049 A 
ATOM     67  H   UNL A   1      40.308  30.939  32.606  1.00  0.00     0.167 HD
ATOM     68  C   UNL A   1      40.980  31.424  35.324  1.00  0.00     0.074 A 
ATOM     69  C   UNL A   1      41.736  31.520  36.556  1.00  0.00     0.031 C 
ATOM     70  C   UNL A   1      39.673  31.769  35.203  1.00  0.00     0.037 A 
BRANCH  57  71
ATOM     71  C   UNL A   1      37.367  31.031  29.516  1.00  0.00     0.064 A 
ATOM     72  C   UNL A   1      37.067  32.257  28.902  1.00  0.00     0.173 A 
ATOM     73  C   UNL A   1      36.549  29.932  29.212  1.00  0.00     0.173 A 
ATOM     74  F   UNL A   1      37.808  33.344  29.167  1.00  0.00    -0.203 F 
ATOM     75  C   UNL A   1      35.972  32.387  28.051  1.00  0.00     0.198 A 
ATOM     76  C   UNL A   1      35.476  30.057  28.332  1.00  0.00     0.198 A 
ATOM     77  F   UNL A   1      36.791  28.734  29.764  1.00  0.00    -0.203 F 
ATOM     78  F   UNL A   1      35.672  33.584  27.527  1.00  0.00    -0.200 F 
ATOM     79  C   UNL A   1      35.182  31.286  27.760  1.00  0.00     0.200 A 
ATOM     80  F   UNL A   1      34.720  28.988  28.042  1.00  0.00    -0.200 F 
ATOM     81  F   UNL A   1      34.133  31.411  26.937  1.00  0.00    -0.200 F 
ENDBRANCH  57  71
BRANCH  58  82
ATOM     82  C   UNL A   1      45.507  30.133  35.264  1.00  0.00     0.064 A 
ATOM     83  C   UNL A   1      45.744  28.982  36.029  1.00  0.00     0.173 A 
ATOM     84  C   UNL A   1      46.451  31.167  35.334  1.00  0.00     0.173 A 
ATOM     85  F   UNL A   1      44.862  27.973  36.007  1.00  0.00    -0.203 F 
ATOM     86  C   UNL A   1      46.864  28.880  36.850  1.00  0.00     0.198 A 
ATOM     87  C   UNL A   1      47.587  31.052  36.133  1.00  0.00     0.198 A 
ATOM     88  F   UNL A   1      46.279  32.285  34.614  1.00  0.00    -0.203 F 
ATOM     89  F   UNL A   1      47.040  27.787  37.607  1.00  0.00    -0.200 F 
ATOM     90  C   UNL A   1      47.788  29.913  36.897  1.00  0.00     0.200 A 
ATOM     91  F   UNL A   1      48.488  32.044  36.161  1.00  0.00    -0.200 F 
ATOM     92  F   UNL A   1      48.869  29.812  37.683  1.00  0.00    -0.200 F 
ENDBRANCH  58  82
BRANCH  70  93
ATOM     93  C   UNL A   1      38.976  32.247  36.443  1.00  0.00     0.064 A 
ATOM     94  C   UNL A   1      39.115  33.564  36.905  1.00  0.00     0.173 A 
ATOM     95  C   UNL A   1      38.132  31.384  37.159  1.00  0.00     0.173 A 
ATOM     96  F   UNL A   1      39.921  34.423  36.262  1.00  0.00    -0.203 F 
ATOM     97  C   UNL A   1      38.462  33.989  38.058  1.00  0.00     0.198 A 
ATOM     98  C   UNL A   1      37.455  31.822  38.292  1.00  0.00     0.198 A 
ATOM     99  F   UNL A   1      37.957  30.117  36.753  1.00  0.00    -0.203 F 
ATOM    100  F   UNL A   1      38.654  35.236  38.513  1.00  0.00    -0.200 F 
ATOM    101  C   UNL A   1      37.628  33.121  38.747  1.00  0.00     0.200 A 
ATOM    102  F   UNL A   1      36.638  30.986  38.948  1.00  0.00    -0.200 F 
ATOM    103  F   UNL A   1      36.997  33.534  39.855  1.00  0.00    -0.200 F 
ENDBRANCH  70  93
ENDBRANCH  44  45
ENDBRANCH  36  39
ENDBRANCH  34  35
ENDBRANCH  33  34
ENDBRANCH   1  33
TORSDOF 15
ENDMDL
MODEL 3
REMARK VINA RESULT:     -12.2      3.471      9.119
REMARK SMILES COc1cc(NC(=O)C2CCN(S(=O)(=O)c3cccs3)CC2)c(Cl)cc1C(=O)NCCCNC(=O)c1ccc(-c2c3nc(c(-c4c(F)c(F)c(F)c(F)c4F)c4ccc([nH]4)c(-c4c(F)c(F)c(F)c(F)c4F)c4nc(c(-c5c(F)c(F)c(F)c(F)c5F)c5ccc2[nH]5)C=C4)C=C3)cc1
REMARK SMILES IDX 30 1 29 2 27 3 28 4 26 6 3 7 4 8 5 9 25 10 23 11 24 12 2 13
REMARK SMILES IDX 1 14 6 15 7 16 8 18 9 19 10 20 22 21 11 22 21 23 12 24 13 25
REMARK SMILES IDX 14 26 15 27 16 28 17 29 20 30 18 31 19 32 31 33 32 34 33 35
REMARK SMILES IDX 34 36 35 38 36 39 37 40 98 41 38 42 97 43 39 44 40 45 41 46
REMARK SMILES IDX 91 47 42 48 96 49 90 50 92 51 43 52 95 53 89 54 88 55 44 57
REMARK SMILES IDX 76 58 56 59 75 60 57 61 60 62 74 63 93 64 58 65 59 66 73 68
REMARK SMILES IDX 94 69 61 70 45 71 46 72 54 73 47 74 48 75 52 76 55 77 49 78
REMARK SMILES IDX 50 79 53 80 51 81 77 82 78 83 86 84 79 85 80 86 84 87 87 88
REMARK SMILES IDX 81 89 82 90 85 91 83 92 62 93 63 94 71 95 64 96 65 97 69 98
REMARK SMILES IDX 72 99 66 100 67 101 70 102 68 103
REMARK H PARENT 29 5 6 17 33 37 92 56 60 67
REMARK Flexibility Score: inf
ROOT
ATOM      1  C   UNL A   1      45.027  22.075  25.971  1.00  0.00     0.118 C 
ENDROOT
BRANCH   1   2
ATOM      2  N   UNL A   1      44.831  22.579  27.316  1.00  0.00    -0.352 N 
ATOM      3  C   UNL A   1      43.726  22.926  28.047  1.00  0.00     0.255 C 
ATOM      4  O   UNL A   1      43.944  23.189  29.234  1.00  0.00    -0.269 OA
ATOM      5  H   UNL A   1      45.674  22.696  27.811  1.00  0.00     0.163 HD
BRANCH   3   6
ATOM      6  C   UNL A   1      42.301  22.938  27.580  1.00  0.00     0.083 A 
ATOM      7  C   UNL A   1      41.495  21.846  27.202  1.00  0.00     0.133 A 
ATOM      8  C   UNL A   1      40.171  22.086  26.783  1.00  0.00     0.075 A 
ATOM      9  C   UNL A   1      39.592  23.344  26.882  1.00  0.00     0.063 A 
ATOM     10  C   UNL A   1      41.767  24.238  27.427  1.00  0.00     0.040 A 
ATOM     11  C   UNL A   1      40.435  24.441  27.073  1.00  0.00     0.065 A 
ATOM     12  Cl  UNL A   1      39.839  26.059  26.982  1.00  0.00    -0.082 Cl
BRANCH   7  13
ATOM     13  O   UNL A   1      42.041  20.601  27.217  1.00  0.00    -0.496 OA
ATOM     14  C   UNL A   1      41.926  19.693  26.125  1.00  0.00     0.278 C 
ENDBRANCH   7  13
BRANCH   9  15
ATOM     15  N   UNL A   1      38.203  23.557  26.852  1.00  0.00    -0.324 N 
ATOM     16  C   UNL A   1      37.180  23.119  26.065  1.00  0.00     0.227 C 
ATOM     17  H   UNL A   1      37.899  24.165  27.563  1.00  0.00     0.169 HD
ATOM     18  O   UNL A   1      36.059  23.498  26.440  1.00  0.00    -0.274 OA
BRANCH  16  19
ATOM     19  C   UNL A   1      37.250  22.224  24.802  1.00  0.00     0.081 C 
ATOM     20  C   UNL A   1      36.388  22.830  23.664  1.00  0.00     0.030 C 
ATOM     21  C   UNL A   1      36.843  20.766  24.805  1.00  0.00     0.030 C 
ATOM     22  C   UNL A   1      34.876  22.576  23.835  1.00  0.00     0.103 C 
ATOM     23  C   UNL A   1      35.410  20.610  25.252  1.00  0.00     0.103 C 
ATOM     24  N   UNL A   1      34.535  21.152  24.205  1.00  0.00    -0.197 NA
BRANCH  24  25
ATOM     25  S   UNL A   1      32.851  20.965  24.560  1.00  0.00     0.252 S 
ATOM     26  O   UNL A   1      32.152  20.981  23.292  1.00  0.00    -0.206 OA
ATOM     27  O   UNL A   1      32.711  19.866  25.489  1.00  0.00    -0.206 OA
BRANCH  25  28
ATOM     28  C   UNL A   1      32.245  22.453  25.361  1.00  0.00     0.135 A 
ATOM     29  C   UNL A   1      32.503  22.958  26.628  1.00  0.00     0.033 A 
ATOM     30  S   UNL A   1      31.176  23.465  24.498  1.00  0.00    -0.131 S 
ATOM     31  C   UNL A   1      31.837  24.191  26.876  1.00  0.00     0.013 A 
ATOM     32  C   UNL A   1      31.102  24.598  25.785  1.00  0.00     0.066 A 
ENDBRANCH  25  28
ENDBRANCH  24  25
ENDBRANCH  16  19
ENDBRANCH   9  15
ENDBRANCH   3   6
ENDBRANCH   1   2
BRANCH   1  33
ATOM     33  C   UNL A   1      45.697  23.117  25.077  1.00  0.00     0.042 C 
BRANCH  33  34
ATOM     34  C   UNL A   1      46.434  24.216  25.824  1.00  0.00     0.118 C 
BRANCH  34  35
ATOM     35  N   UNL A   1      46.695  25.373  24.975  1.00  0.00    -0.352 N 
ATOM     36  C   UNL A   1      46.216  26.659  25.003  1.00  0.00     0.251 C 
ATOM     37  H   UNL A   1      47.332  25.198  24.245  1.00  0.00     0.163 HD
ATOM     38  O   UNL A   1      46.405  27.376  24.022  1.00  0.00    -0.269 OA
BRANCH  36  39
ATOM     39  C   UNL A   1      45.475  27.200  26.167  1.00  0.00     0.039 A 
ATOM     40  C   UNL A   1      45.521  28.578  26.413  1.00  0.00     0.014 A 
ATOM     41  C   UNL A   1      44.792  26.373  27.058  1.00  0.00     0.014 A 
ATOM     42  C   UNL A   1      44.849  29.119  27.514  1.00  0.00     0.010 A 
ATOM     43  C   UNL A   1      44.018  26.923  28.074  1.00  0.00     0.010 A 
ATOM     44  C   UNL A   1      44.060  28.298  28.336  1.00  0.00    -0.014 A 
BRANCH  44  45
ATOM     45  C   UNL A   1      43.315  28.845  29.500  1.00  0.00     0.031 A 
ATOM     46  C   UNL A   1      43.967  28.894  30.859  1.00  0.00     0.074 A 
ATOM     47  C   UNL A   1      42.034  29.237  29.352  1.00  0.00     0.049 A 
ATOM     48  N   UNL A   1      43.460  29.257  32.011  1.00  0.00    -0.248 NA
ATOM     49  C   UNL A   1      45.362  28.430  30.944  1.00  0.00     0.031 C 
ATOM     50  C   UNL A   1      41.269  29.175  28.105  1.00  0.00     0.029 A 
ATOM     51  N   UNL A   1      41.147  29.761  30.258  1.00  0.00    -0.354 N 
ATOM     52  C   UNL A   1      44.459  29.032  32.951  1.00  0.00     0.074 A 
ATOM     53  C   UNL A   1      45.574  28.436  32.251  1.00  0.00     0.031 C 
ATOM     54  C   UNL A   1      40.042  29.678  28.315  1.00  0.00     0.029 A 
ATOM     55  C   UNL A   1      39.921  30.063  29.716  1.00  0.00     0.049 A 
ATOM     56  H   UNL A   1      41.367  29.905  31.206  1.00  0.00     0.167 HD
ATOM     57  C   UNL A   1      44.463  29.329  34.272  1.00  0.00     0.037 A 
ATOM     58  C   UNL A   1      38.825  30.594  30.288  1.00  0.00     0.037 A 
ATOM     59  C   UNL A   1      43.372  29.975  34.952  1.00  0.00     0.049 A 
ATOM     60  C   UNL A   1      38.868  30.957  31.748  1.00  0.00     0.074 A 
ATOM     61  C   UNL A   1      43.299  30.393  36.269  1.00  0.00     0.029 A 
ATOM     62  N   UNL A   1      42.163  30.308  34.358  1.00  0.00    -0.354 N 
ATOM     63  N   UNL A   1      39.844  30.806  32.610  1.00  0.00    -0.248 NA
ATOM     64  C   UNL A   1      37.661  31.575  32.311  1.00  0.00     0.031 C 
ATOM     65  C   UNL A   1      42.031  30.941  36.483  1.00  0.00     0.029 A 
ATOM     66  C   UNL A   1      41.331  30.912  35.286  1.00  0.00     0.049 A 
ATOM     67  H   UNL A   1      41.931  30.139  33.417  1.00  0.00     0.167 HD
ATOM     68  C   UNL A   1      39.382  31.334  33.807  1.00  0.00     0.074 A 
ATOM     69  C   UNL A   1      38.044  31.827  33.555  1.00  0.00     0.031 C 
ATOM     70  C   UNL A   1      40.006  31.402  35.009  1.00  0.00     0.037 A 
BRANCH  57  71
ATOM     71  C   UNL A   1      45.690  28.974  35.064  1.00  0.00     0.064 A 
ATOM     72  C   UNL A   1      46.774  29.858  35.182  1.00  0.00     0.173 A 
ATOM     73  C   UNL A   1      45.777  27.743  35.733  1.00  0.00     0.173 A 
ATOM     74  F   UNL A   1      46.751  31.043  34.551  1.00  0.00    -0.203 F 
ATOM     75  C   UNL A   1      47.911  29.511  35.907  1.00  0.00     0.198 A 
ATOM     76  C   UNL A   1      46.900  27.413  36.488  1.00  0.00     0.198 A 
ATOM     77  F   UNL A   1      44.769  26.861  35.661  1.00  0.00    -0.203 F 
ATOM     78  F   UNL A   1      48.956  30.348  35.953  1.00  0.00    -0.200 F 
ATOM     79  C   UNL A   1      47.971  28.292  36.566  1.00  0.00     0.200 A 
ATOM     80  F   UNL A   1      46.951  26.240  37.134  1.00  0.00    -0.200 F 
ATOM     81  F   UNL A   1      49.062  27.962  37.268  1.00  0.00    -0.200 F 
ENDBRANCH  57  71
BRANCH  58  82
ATOM     82  C   UNL A   1      37.612  30.858  29.470  1.00  0.00     0.064 A 
ATOM     83  C   UNL A   1      36.715  29.826  29.159  1.00  0.00     0.173 A 
ATOM     84  C   UNL A   1      37.321  32.141  28.984  1.00  0.00     0.173 A 
ATOM     85  F   UNL A   1      36.958  28.579  29.587  1.00  0.00    -0.203 F 
ATOM     86  C   UNL A   1      35.588  30.061  28.375  1.00  0.00     0.198 A 
ATOM     87  C   UNL A   1      36.178  32.382  28.224  1.00  0.00     0.198 A 
ATOM     88  F   UNL A   1      38.140  33.166  29.261  1.00  0.00    -0.203 F 
ATOM     89  F   UNL A   1      34.773  29.045  28.055  1.00  0.00    -0.200 F 
ATOM     90  C   UNL A   1      35.318  31.340  27.913  1.00  0.00     0.200 A 
ATOM     91  F   UNL A   1      35.910  33.622  27.795  1.00  0.00    -0.200 F 
ATOM     92  F   UNL A   1      34.230  31.567  27.163  1.00  0.00    -0.200 F 
ENDBRANCH  58  82
BRANCH  70  93
ATOM     93  C   UNL A   1      39.259  32.064  36.129  1.00  0.00     0.064 A 
ATOM     94  C   UNL A   1      38.327  31.363  36.909  1.00  0.00     0.173 A 
ATOM     95  C   UNL A   1      39.502  33.410  36.446  1.00  0.00     0.173 A 
ATOM     96  F   UNL A   1      38.051  30.078  36.638  1.00  0.00    -0.203 F 
ATOM     97  C   UNL A   1      37.643  31.994  37.943  1.00  0.00     0.198 A 
ATOM     98  C   UNL A   1      38.839  34.028  37.501  1.00  0.00     0.198 A 
ATOM     99  F   UNL A   1      40.390  34.122  35.736  1.00  0.00    -0.203 F 
ATOM    100  F   UNL A   1      36.716  31.320  38.640  1.00  0.00    -0.200 F 
ATOM    101  C   UNL A   1      37.903  33.323  38.243  1.00  0.00     0.200 A 
ATOM    102  F   UNL A   1      39.103  35.308  37.798  1.00  0.00    -0.200 F 
ATOM    103  F   UNL A   1      37.245  33.928  39.241  1.00  0.00    -0.200 F 
ENDBRANCH  70  93
ENDBRANCH  44  45
ENDBRANCH  36  39
ENDBRANCH  34  35
ENDBRANCH  33  34
ENDBRANCH   1  33
TORSDOF 15
ENDMDL
