MODEL 1
REMARK VINA RESULT:     -11.7      0.000      0.000
REMARK SMILES CCCOc1ccc(Nc2snc(C)c2C(=O)NCCCNC(=O)c2ccc(-c3c4nc(c(-c5c(F)c(F)c(F)c(F)c5F)c5ccc([nH]5)c(-c5c(F)c(F)c(F)c(F)c5F)c5nc(c(-c6c(F)c(F)c(F)c(F)c6F)c6ccc3[nH]6)C=C5)C=C4)cc2)cc1
REMARK SMILES IDX 16 1 17 2 18 3 15 5 10 6 11 7 12 8 13 9 14 10 9 11 8 13 5 14
REMARK SMILES IDX 6 15 89 16 7 17 88 18 4 19 3 20 2 21 1 22 19 23 20 24 21 25
REMARK SMILES IDX 22 26 23 27 24 29 25 30 26 31 87 32 27 33 86 34 28 35 29 36
REMARK SMILES IDX 30 37 80 38 31 39 85 40 79 41 81 42 32 43 84 44 78 45 77 46
REMARK SMILES IDX 33 48 65 49 45 50 64 51 46 52 49 53 63 54 82 55 47 56 48 57
REMARK SMILES IDX 62 59 83 60 50 61 34 62 35 63 43 64 36 65 37 66 41 67 44 68
REMARK SMILES IDX 38 69 39 70 42 71 40 72 66 73 67 74 75 75 68 76 69 77 73 78
REMARK SMILES IDX 76 79 70 80 71 81 74 82 72 83 51 84 52 85 60 86 53 87 54 88
REMARK SMILES IDX 58 89 61 90 55 91 56 92 59 93 57 94
REMARK H PARENT 18 4 9 12 22 28 81 47 49 58
REMARK Flexibility Score: inf
ROOT
ATOM      1  C   UNL A   1      34.889  22.018  26.475  1.00  0.00     0.256 C 
ATOM      2  O   UNL A   1      34.373  21.866  27.582  1.00  0.00    -0.269 OA
ATOM      3  N   UNL A   1      36.233  22.337  26.444  1.00  0.00    -0.352 N 
ATOM      4  H   UNL A   1      36.627  22.659  27.287  1.00  0.00     0.163 HD
ENDROOT
BRANCH   1   5
ATOM      5  C   UNL A   1      34.091  21.986  25.251  1.00  0.00     0.097 A 
ATOM      6  C   UNL A   1      33.623  23.052  24.479  1.00  0.00     0.127 A 
ATOM      7  S   UNL A   1      32.506  22.404  23.325  1.00  0.00    -0.018 S 
ATOM      8  N   UNL A   1      32.814  20.825  23.621  1.00  0.00    -0.195 NA
ATOM      9  C   UNL A   1      33.686  20.732  24.624  1.00  0.00     0.066 A 
ATOM     10  C   UNL A   1      34.114  19.347  24.986  1.00  0.00     0.069 C 
BRANCH   6  11
ATOM     11  N   UNL A   1      33.772  24.405  24.487  1.00  0.00    -0.345 N 
ATOM     12  H   UNL A   1      34.411  24.741  23.819  1.00  0.00     0.167 HD
BRANCH  11  13
ATOM     13  C   UNL A   1      33.181  25.413  25.273  1.00  0.00     0.039 A 
ATOM     14  C   UNL A   1      32.159  27.622  26.677  1.00  0.00     0.119 A 
ATOM     15  C   UNL A   1      31.298  26.622  26.230  1.00  0.00     0.048 A 
ATOM     16  C   UNL A   1      33.522  27.529  26.441  1.00  0.00     0.048 A 
ATOM     17  C   UNL A   1      31.810  25.522  25.523  1.00  0.00     0.030 A 
ATOM     18  C   UNL A   1      34.026  26.442  25.733  1.00  0.00     0.030 A 
BRANCH  14  19
ATOM     19  O   UNL A   1      31.697  28.657  27.442  1.00  0.00    -0.494 OA
BRANCH  19  20
ATOM     20  C   UNL A   1      32.469  29.850  27.251  1.00  0.00     0.229 C 
BRANCH  20  21
ATOM     21  C   UNL A   1      31.777  30.826  26.283  1.00  0.00     0.038 C 
ATOM     22  C   UNL A   1      31.132  30.197  25.046  1.00  0.00     0.007 C 
ENDBRANCH  20  21
ENDBRANCH  19  20
ENDBRANCH  14  19
ENDBRANCH  11  13
ENDBRANCH   6  11
ENDBRANCH   1   5
BRANCH   3  23
ATOM     23  C   UNL A   1      37.125  22.253  25.309  1.00  0.00     0.118 C 
BRANCH  23  24
ATOM     24  C   UNL A   1      38.403  21.457  25.448  1.00  0.00     0.042 C 
BRANCH  24  25
ATOM     25  C   UNL A   1      39.364  22.020  26.467  1.00  0.00     0.118 C 
BRANCH  25  26
ATOM     26  N   UNL A   1      40.790  22.118  26.120  1.00  0.00    -0.352 N 
ATOM     27  C   UNL A   1      41.609  23.236  26.277  1.00  0.00     0.251 C 
ATOM     28  H   UNL A   1      41.209  21.313  25.738  1.00  0.00     0.163 HD
ATOM     29  O   UNL A   1      42.792  23.293  25.989  1.00  0.00    -0.269 OA
BRANCH  27  30
ATOM     30  C   UNL A   1      41.063  24.423  26.893  1.00  0.00     0.039 A 
ATOM     31  C   UNL A   1      40.118  25.275  26.307  1.00  0.00     0.014 A 
ATOM     32  C   UNL A   1      41.677  24.800  28.057  1.00  0.00     0.014 A 
ATOM     33  C   UNL A   1      39.897  26.496  26.934  1.00  0.00     0.010 A 
ATOM     34  C   UNL A   1      40.934  25.547  28.878  1.00  0.00     0.010 A 
ATOM     35  C   UNL A   1      40.455  26.639  28.197  1.00  0.00    -0.014 A 
BRANCH  35  36
ATOM     36  C   UNL A   1      40.702  27.833  28.955  1.00  0.00     0.031 A 
ATOM     37  C   UNL A   1      41.777  28.665  28.374  1.00  0.00     0.074 A 
ATOM     38  C   UNL A   1      39.690  28.441  29.609  1.00  0.00     0.049 A 
ATOM     39  N   UNL A   1      43.010  28.689  28.746  1.00  0.00    -0.248 NA
ATOM     40  C   UNL A   1      41.531  29.327  27.075  1.00  0.00     0.031 C 
ATOM     41  C   UNL A   1      38.280  28.072  29.766  1.00  0.00     0.029 A 
ATOM     42  N   UNL A   1      39.743  29.668  30.171  1.00  0.00    -0.354 N 
ATOM     43  C   UNL A   1      43.634  29.541  27.848  1.00  0.00     0.074 A 
ATOM     44  C   UNL A   1      42.780  29.591  26.695  1.00  0.00     0.031 C 
ATOM     45  C   UNL A   1      37.588  29.143  30.225  1.00  0.00     0.029 A 
ATOM     46  C   UNL A   1      38.524  30.215  30.514  1.00  0.00     0.049 A 
ATOM     47  H   UNL A   1      40.593  30.140  30.326  1.00  0.00     0.167 HD
ATOM     48  C   UNL A   1      44.629  30.384  28.236  1.00  0.00     0.037 A 
ATOM     49  C   UNL A   1      38.364  31.494  30.933  1.00  0.00     0.037 A 
ATOM     50  C   UNL A   1      44.984  30.148  29.620  1.00  0.00     0.049 A 
ATOM     51  C   UNL A   1      39.728  32.005  31.296  1.00  0.00     0.074 A 
ATOM     52  C   UNL A   1      45.396  29.033  30.328  1.00  0.00     0.029 A 
ATOM     53  N   UNL A   1      44.470  31.009  30.567  1.00  0.00    -0.354 N 
ATOM     54  N   UNL A   1      40.451  31.533  32.282  1.00  0.00    -0.248 NA
ATOM     55  C   UNL A   1      40.488  32.700  30.263  1.00  0.00     0.031 C 
ATOM     56  C   UNL A   1      44.641  29.068  31.542  1.00  0.00     0.029 A 
ATOM     57  C   UNL A   1      43.876  30.236  31.539  1.00  0.00     0.049 A 
ATOM     58  H   UNL A   1      44.517  31.992  30.550  1.00  0.00     0.167 HD
ATOM     59  C   UNL A   1      41.762  31.526  31.812  1.00  0.00     0.074 A 
ATOM     60  C   UNL A   1      41.730  32.333  30.596  1.00  0.00     0.031 C 
ATOM     61  C   UNL A   1      42.683  30.622  32.269  1.00  0.00     0.037 A 
BRANCH  48  62
ATOM     62  C   UNL A   1      45.048  31.629  27.500  1.00  0.00     0.064 A 
ATOM     63  C   UNL A   1      46.358  31.694  26.990  1.00  0.00     0.173 A 
ATOM     64  C   UNL A   1      44.312  32.832  27.435  1.00  0.00     0.173 A 
ATOM     65  F   UNL A   1      47.153  30.614  27.018  1.00  0.00    -0.203 F 
ATOM     66  C   UNL A   1      46.902  32.882  26.500  1.00  0.00     0.198 A 
ATOM     67  C   UNL A   1      44.834  33.999  26.881  1.00  0.00     0.198 A 
ATOM     68  F   UNL A   1      43.105  32.972  27.994  1.00  0.00    -0.203 F 
ATOM     69  F   UNL A   1      48.189  32.918  26.131  1.00  0.00    -0.200 F 
ATOM     70  C   UNL A   1      46.139  34.033  26.441  1.00  0.00     0.200 A 
ATOM     71  F   UNL A   1      44.080  35.107  26.846  1.00  0.00    -0.200 F 
ATOM     72  F   UNL A   1      46.672  35.184  26.011  1.00  0.00    -0.200 F 
ENDBRANCH  48  62
BRANCH  49  73
ATOM     73  C   UNL A   1      37.181  32.371  30.768  1.00  0.00     0.064 A 
ATOM     74  C   UNL A   1      36.894  32.962  29.528  1.00  0.00     0.173 A 
ATOM     75  C   UNL A   1      36.177  32.471  31.754  1.00  0.00     0.173 A 
ATOM     76  F   UNL A   1      37.776  32.873  28.521  1.00  0.00    -0.203 F 
ATOM     77  C   UNL A   1      35.674  33.600  29.282  1.00  0.00     0.198 A 
ATOM     78  C   UNL A   1      34.965  33.120  31.512  1.00  0.00     0.198 A 
ATOM     79  F   UNL A   1      36.312  31.865  32.942  1.00  0.00    -0.203 F 
ATOM     80  F   UNL A   1      35.416  34.100  28.066  1.00  0.00    -0.200 F 
ATOM     81  C   UNL A   1      34.708  33.674  30.273  1.00  0.00     0.200 A 
ATOM     82  F   UNL A   1      34.028  33.153  32.470  1.00  0.00    -0.200 F 
ATOM     83  F   UNL A   1      33.520  34.239  30.023  1.00  0.00    -0.200 F 
ENDBRANCH  49  73
BRANCH  61  84
ATOM     84  C   UNL A   1      42.325  29.773  33.467  1.00  0.00     0.064 A 
ATOM     85  C   UNL A   1      41.813  28.466  33.379  1.00  0.00     0.173 A 
ATOM     86  C   UNL A   1      42.669  30.226  34.747  1.00  0.00     0.173 A 
ATOM     87  F   UNL A   1      41.561  27.903  32.196  1.00  0.00    -0.203 F 
ATOM     88  C   UNL A   1      41.614  27.673  34.508  1.00  0.00     0.198 A 
ATOM     89  C   UNL A   1      42.505  29.420  35.874  1.00  0.00     0.198 A 
ATOM     90  F   UNL A   1      43.221  31.440  34.903  1.00  0.00    -0.203 F 
ATOM     91  F   UNL A   1      41.118  26.433  34.378  1.00  0.00    -0.200 F 
ATOM     92  C   UNL A   1      41.968  28.148  35.756  1.00  0.00     0.200 A 
ATOM     93  F   UNL A   1      42.900  29.867  37.074  1.00  0.00    -0.200 F 
ATOM     94  F   UNL A   1      41.821  27.372  36.838  1.00  0.00    -0.200 F 
ENDBRANCH  61  84
ENDBRANCH  35  36
ENDBRANCH  27  30
ENDBRANCH  25  26
ENDBRANCH  24  25
ENDBRANCH  23  24
ENDBRANCH   3  23
TORSDOF 15
ENDMDL
MODEL 2
REMARK VINA RESULT:     -11.5      2.984      8.915
REMARK SMILES CCCOc1ccc(Nc2snc(C)c2C(=O)NCCCNC(=O)c2ccc(-c3c4nc(c(-c5c(F)c(F)c(F)c(F)c5F)c5ccc([nH]5)c(-c5c(F)c(F)c(F)c(F)c5F)c5nc(c(-c6c(F)c(F)c(F)c(F)c6F)c6ccc3[nH]6)C=C5)C=C4)cc2)cc1
REMARK SMILES IDX 16 1 17 2 18 3 15 5 10 6 11 7 12 8 13 9 14 10 9 11 8 13 5 14
REMARK SMILES IDX 6 15 89 16 7 17 88 18 4 19 3 20 2 21 1 22 19 23 20 24 21 25
REMARK SMILES IDX 22 26 23 27 24 29 25 30 26 31 87 32 27 33 86 34 28 35 29 36
REMARK SMILES IDX 30 37 80 38 31 39 85 40 79 41 81 42 32 43 84 44 78 45 77 46
REMARK SMILES IDX 33 48 65 49 45 50 64 51 46 52 49 53 63 54 82 55 47 56 48 57
REMARK SMILES IDX 62 59 83 60 50 61 34 62 35 63 43 64 36 65 37 66 41 67 44 68
REMARK SMILES IDX 38 69 39 70 42 71 40 72 66 73 67 74 75 75 68 76 69 77 73 78
REMARK SMILES IDX 76 79 70 80 71 81 74 82 72 83 51 84 52 85 60 86 53 87 54 88
REMARK SMILES IDX 58 89 61 90 55 91 56 92 59 93 57 94
REMARK H PARENT 18 4 9 12 22 28 81 47 49 58
REMARK Flexibility Score: inf
ROOT
ATOM      1  C   UNL A   1      31.853  28.051  26.789  1.00  0.00     0.256 C 
ATOM      2  O   UNL A   1      31.025  27.312  27.321  1.00  0.00    -0.269 OA
ATOM      3  N   UNL A   1      32.204  29.200  27.470  1.00  0.00    -0.352 N 
ATOM      4  H   UNL A   1      31.606  29.476  28.202  1.00  0.00     0.163 HD
ENDROOT
BRANCH   1   5
ATOM      5  C   UNL A   1      32.350  27.791  25.439  1.00  0.00     0.097 A 
ATOM      6  C   UNL A   1      33.342  26.900  25.023  1.00  0.00     0.127 A 
ATOM      7  S   UNL A   1      33.685  27.245  23.361  1.00  0.00    -0.018 S 
ATOM      8  N   UNL A   1      32.446  28.286  23.119  1.00  0.00    -0.195 NA
ATOM      9  C   UNL A   1      31.797  28.465  24.268  1.00  0.00     0.066 A 
ATOM     10  C   UNL A   1      30.599  29.356  24.205  1.00  0.00     0.069 C 
BRANCH   6  11
ATOM     11  N   UNL A   1      34.109  25.945  25.616  1.00  0.00    -0.345 N 
ATOM     12  H   UNL A   1      34.641  26.273  26.377  1.00  0.00     0.167 HD
BRANCH  11  13
ATOM     13  C   UNL A   1      34.284  24.575  25.346  1.00  0.00     0.039 A 
ATOM     14  C   UNL A   1      34.332  21.812  24.831  1.00  0.00     0.119 A 
ATOM     15  C   UNL A   1      35.054  22.684  24.019  1.00  0.00     0.048 A 
ATOM     16  C   UNL A   1      33.595  22.299  25.900  1.00  0.00     0.048 A 
ATOM     17  C   UNL A   1      35.023  24.065  24.274  1.00  0.00     0.030 A 
ATOM     18  C   UNL A   1      33.560  23.668  26.145  1.00  0.00     0.030 A 
BRANCH  14  19
ATOM     19  O   UNL A   1      34.416  20.459  24.657  1.00  0.00    -0.494 OA
BRANCH  19  20
ATOM     20  C   UNL A   1      33.197  19.796  25.019  1.00  0.00     0.229 C 
BRANCH  20  21
ATOM     21  C   UNL A   1      32.444  19.273  23.783  1.00  0.00     0.038 C 
ATOM     22  C   UNL A   1      32.887  17.904  23.260  1.00  0.00     0.007 C 
ENDBRANCH  20  21
ENDBRANCH  19  20
ENDBRANCH  14  19
ENDBRANCH  11  13
ENDBRANCH   6  11
ENDBRANCH   1   5
BRANCH   3  23
ATOM     23  C   UNL A   1      33.353  30.044  27.227  1.00  0.00     0.118 C 
BRANCH  23  24
ATOM     24  C   UNL A   1      33.226  31.530  27.474  1.00  0.00     0.042 C 
BRANCH  24  25
ATOM     25  C   UNL A   1      34.445  32.148  28.115  1.00  0.00     0.118 C 
BRANCH  25  26
ATOM     26  N   UNL A   1      34.518  32.215  29.583  1.00  0.00    -0.352 N 
ATOM     27  C   UNL A   1      35.511  31.664  30.391  1.00  0.00     0.251 C 
ATOM     28  H   UNL A   1      33.792  32.700  30.040  1.00  0.00     0.163 HD
ATOM     29  O   UNL A   1      35.556  31.737  31.607  1.00  0.00    -0.269 OA
BRANCH  27  30
ATOM     30  C   UNL A   1      36.632  30.999  29.770  1.00  0.00     0.039 A 
ATOM     31  C   UNL A   1      36.552  29.837  28.991  1.00  0.00     0.014 A 
ATOM     32  C   UNL A   1      37.861  31.473  30.145  1.00  0.00     0.014 A 
ATOM     33  C   UNL A   1      37.750  29.200  28.686  1.00  0.00     0.010 A 
ATOM     34  C   UNL A   1      38.849  31.250  29.274  1.00  0.00     0.010 A 
ATOM     35  C   UNL A   1      38.906  29.910  28.978  1.00  0.00    -0.014 A 
BRANCH  35  36
ATOM     36  C   UNL A   1      40.257  29.441  29.103  1.00  0.00     0.031 A 
ATOM     37  C   UNL A   1      40.584  29.001  30.476  1.00  0.00     0.074 A 
ATOM     38  C   UNL A   1      40.858  28.826  28.064  1.00  0.00     0.049 A 
ATOM     39  N   UNL A   1      41.196  29.693  31.374  1.00  0.00    -0.248 NA
ATOM     40  C   UNL A   1      39.925  27.788  31.003  1.00  0.00     0.031 C 
ATOM     41  C   UNL A   1      40.398  28.566  26.696  1.00  0.00     0.029 A 
ATOM     42  N   UNL A   1      42.030  28.157  28.117  1.00  0.00    -0.354 N 
ATOM     43  C   UNL A   1      41.178  28.896  32.508  1.00  0.00     0.074 A 
ATOM     44  C   UNL A   1      40.111  27.956  32.312  1.00  0.00     0.031 C 
ATOM     45  C   UNL A   1      41.209  27.644  26.121  1.00  0.00     0.029 A 
ATOM     46  C   UNL A   1      42.306  27.357  27.028  1.00  0.00     0.049 A 
ATOM     47  H   UNL A   1      42.646  28.235  28.881  1.00  0.00     0.167 HD
ATOM     48  C   UNL A   1      42.230  28.857  33.371  1.00  0.00     0.037 A 
ATOM     49  C   UNL A   1      43.345  26.488  26.976  1.00  0.00     0.037 A 
ATOM     50  C   UNL A   1      43.234  29.828  32.991  1.00  0.00     0.049 A 
ATOM     51  C   UNL A   1      44.275  26.856  28.096  1.00  0.00     0.074 A 
ATOM     52  C   UNL A   1      43.216  31.196  32.781  1.00  0.00     0.029 A 
ATOM     53  N   UNL A   1      44.337  29.370  32.301  1.00  0.00    -0.354 N 
ATOM     54  N   UNL A   1      44.929  27.989  28.165  1.00  0.00    -0.248 NA
ATOM     55  C   UNL A   1      44.094  26.178  29.375  1.00  0.00     0.031 C 
ATOM     56  C   UNL A   1      43.970  31.393  31.581  1.00  0.00     0.029 A 
ATOM     57  C   UNL A   1      44.467  30.153  31.177  1.00  0.00     0.049 A 
ATOM     58  H   UNL A   1      44.921  28.622  32.563  1.00  0.00     0.167 HD
ATOM     59  C   UNL A   1      44.902  28.354  29.508  1.00  0.00     0.074 A 
ATOM     60  C   UNL A   1      44.447  27.159  30.214  1.00  0.00     0.031 C 
ATOM     61  C   UNL A   1      44.948  29.666  29.898  1.00  0.00     0.037 A 
BRANCH  48  62
ATOM     62  C   UNL A   1      42.516  27.741  34.339  1.00  0.00     0.064 A 
ATOM     63  C   UNL A   1      43.146  26.580  33.853  1.00  0.00     0.173 A 
ATOM     64  C   UNL A   1      42.037  27.659  35.666  1.00  0.00     0.173 A 
ATOM     65  F   UNL A   1      43.623  26.539  32.600  1.00  0.00    -0.203 F 
ATOM     66  C   UNL A   1      43.243  25.416  34.617  1.00  0.00     0.198 A 
ATOM     67  C   UNL A   1      42.198  26.519  36.450  1.00  0.00     0.198 A 
ATOM     68  F   UNL A   1      41.302  28.624  36.228  1.00  0.00    -0.203 F 
ATOM     69  F   UNL A   1      43.750  24.305  34.069  1.00  0.00    -0.200 F 
ATOM     70  C   UNL A   1      42.773  25.387  35.917  1.00  0.00     0.200 A 
ATOM     71  F   UNL A   1      41.723  26.510  37.704  1.00  0.00    -0.200 F 
ATOM     72  F   UNL A   1      42.827  24.259  36.637  1.00  0.00    -0.200 F 
ENDBRANCH  48  62
BRANCH  49  73
ATOM     73  C   UNL A   1      43.439  25.216  26.222  1.00  0.00     0.064 A 
ATOM     74  C   UNL A   1      44.469  25.008  25.293  1.00  0.00     0.173 A 
ATOM     75  C   UNL A   1      42.661  24.087  26.555  1.00  0.00     0.173 A 
ATOM     76  F   UNL A   1      45.283  26.018  24.955  1.00  0.00    -0.203 F 
ATOM     77  C   UNL A   1      44.718  23.747  24.741  1.00  0.00     0.198 A 
ATOM     78  C   UNL A   1      42.902  22.832  25.994  1.00  0.00     0.198 A 
ATOM     79  F   UNL A   1      41.711  24.155  27.498  1.00  0.00    -0.203 F 
ATOM     80  F   UNL A   1      45.749  23.578  23.902  1.00  0.00    -0.200 F 
ATOM     81  C   UNL A   1      43.938  22.658  25.096  1.00  0.00     0.200 A 
ATOM     82  F   UNL A   1      42.159  21.782  26.373  1.00  0.00    -0.200 F 
ATOM     83  F   UNL A   1      44.208  21.441  24.608  1.00  0.00    -0.200 F 
ENDBRANCH  49  73
BRANCH  61  84
ATOM     84  C   UNL A   1      45.264  30.713  28.856  1.00  0.00     0.064 A 
ATOM     85  C   UNL A   1      44.289  31.439  28.148  1.00  0.00     0.173 A 
ATOM     86  C   UNL A   1      46.593  31.123  28.688  1.00  0.00     0.173 A 
ATOM     87  F   UNL A   1      42.988  31.199  28.327  1.00  0.00    -0.203 F 
ATOM     88  C   UNL A   1      44.623  32.483  27.288  1.00  0.00     0.198 A 
ATOM     89  C   UNL A   1      46.926  32.192  27.855  1.00  0.00     0.198 A 
ATOM     90  F   UNL A   1      47.574  30.519  29.377  1.00  0.00    -0.203 F 
ATOM     91  F   UNL A   1      43.659  33.144  26.629  1.00  0.00    -0.200 F 
ATOM     92  C   UNL A   1      45.943  32.865  27.148  1.00  0.00     0.200 A 
ATOM     93  F   UNL A   1      48.202  32.592  27.764  1.00  0.00    -0.200 F 
ATOM     94  F   UNL A   1      46.264  33.898  26.357  1.00  0.00    -0.200 F 
ENDBRANCH  61  84
ENDBRANCH  35  36
ENDBRANCH  27  30
ENDBRANCH  25  26
ENDBRANCH  24  25
ENDBRANCH  23  24
ENDBRANCH   3  23
TORSDOF 15
ENDMDL
MODEL 3
REMARK VINA RESULT:     -11.2      4.357      7.725
REMARK SMILES CCCOc1ccc(Nc2snc(C)c2C(=O)NCCCNC(=O)c2ccc(-c3c4nc(c(-c5c(F)c(F)c(F)c(F)c5F)c5ccc([nH]5)c(-c5c(F)c(F)c(F)c(F)c5F)c5nc(c(-c6c(F)c(F)c(F)c(F)c6F)c6ccc3[nH]6)C=C5)C=C4)cc2)cc1
REMARK SMILES IDX 16 1 17 2 18 3 15 5 10 6 11 7 12 8 13 9 14 10 9 11 8 13 5 14
REMARK SMILES IDX 6 15 89 16 7 17 88 18 4 19 3 20 2 21 1 22 19 23 20 24 21 25
REMARK SMILES IDX 22 26 23 27 24 29 25 30 26 31 87 32 27 33 86 34 28 35 29 36
REMARK SMILES IDX 30 37 80 38 31 39 85 40 79 41 81 42 32 43 84 44 78 45 77 46
REMARK SMILES IDX 33 48 65 49 45 50 64 51 46 52 49 53 63 54 82 55 47 56 48 57
REMARK SMILES IDX 62 59 83 60 50 61 34 62 35 63 43 64 36 65 37 66 41 67 44 68
REMARK SMILES IDX 38 69 39 70 42 71 40 72 66 73 67 74 75 75 68 76 69 77 73 78
REMARK SMILES IDX 76 79 70 80 71 81 74 82 72 83 51 84 52 85 60 86 53 87 54 88
REMARK SMILES IDX 58 89 61 90 55 91 56 92 59 93 57 94
REMARK H PARENT 18 4 9 12 22 28 81 47 49 58
REMARK Flexibility Score: inf
ROOT
ATOM      1  C   UNL A   1      48.824  25.070  27.379  1.00  0.00     0.256 C 
ATOM      2  O   UNL A   1      49.763  24.307  27.609  1.00  0.00    -0.269 OA
ATOM      3  N   UNL A   1      47.713  24.535  26.757  1.00  0.00    -0.352 N 
ATOM      4  H   UNL A   1      47.833  23.658  26.323  1.00  0.00     0.163 HD
ENDROOT
BRANCH   1   5
ATOM      5  C   UNL A   1      48.928  26.505  27.637  1.00  0.00     0.097 A 
ATOM      6  C   UNL A   1      48.835  27.189  28.851  1.00  0.00     0.127 A 
ATOM      7  S   UNL A   1      48.751  28.880  28.488  1.00  0.00    -0.018 S 
ATOM      8  N   UNL A   1      49.089  28.753  26.892  1.00  0.00    -0.195 NA
ATOM      9  C   UNL A   1      49.196  27.465  26.571  1.00  0.00     0.066 A 
ATOM     10  C   UNL A   1      49.554  27.178  25.149  1.00  0.00     0.069 C 
BRANCH   6  11
ATOM     11  N   UNL A   1      48.716  26.842  30.162  1.00  0.00    -0.345 N 
ATOM     12  H   UNL A   1      49.568  26.835  30.654  1.00  0.00     0.167 HD
BRANCH  11  13
ATOM     13  C   UNL A   1      47.600  26.494  30.946  1.00  0.00     0.039 A 
ATOM     14  C   UNL A   1      45.372  25.533  32.365  1.00  0.00     0.119 A 
ATOM     15  C   UNL A   1      46.423  26.143  33.049  1.00  0.00     0.048 A 
ATOM     16  C   UNL A   1      45.415  25.405  30.986  1.00  0.00     0.048 A 
ATOM     17  C   UNL A   1      47.538  26.616  32.338  1.00  0.00     0.030 A 
ATOM     18  C   UNL A   1      46.525  25.868  30.285  1.00  0.00     0.030 A 
BRANCH  14  19
ATOM     19  O   UNL A   1      44.239  25.144  33.024  1.00  0.00    -0.494 OA
BRANCH  19  20
ATOM     20  C   UNL A   1      44.060  23.722  32.985  1.00  0.00     0.229 C 
BRANCH  20  21
ATOM     21  C   UNL A   1      43.351  23.203  34.249  1.00  0.00     0.038 C 
ATOM     22  C   UNL A   1      43.589  24.010  35.528  1.00  0.00     0.007 C 
ENDBRANCH  20  21
ENDBRANCH  19  20
ENDBRANCH  14  19
ENDBRANCH  11  13
ENDBRANCH   6  11
ENDBRANCH   1   5
BRANCH   3  23
ATOM     23  C   UNL A   1      46.394  25.120  26.669  1.00  0.00     0.118 C 
BRANCH  23  24
ATOM     24  C   UNL A   1      45.912  25.624  25.328  1.00  0.00     0.042 C 
BRANCH  24  25
ATOM     25  C   UNL A   1      44.460  25.320  25.048  1.00  0.00     0.118 C 
BRANCH  25  26
ATOM     26  N   UNL A   1      43.975  23.943  25.225  1.00  0.00    -0.352 N 
ATOM     27  C   UNL A   1      42.939  23.527  26.061  1.00  0.00     0.251 C 
ATOM     28  H   UNL A   1      44.428  23.244  24.699  1.00  0.00     0.163 HD
ATOM     29  O   UNL A   1      42.548  22.380  26.187  1.00  0.00    -0.269 OA
BRANCH  27  30
ATOM     30  C   UNL A   1      42.198  24.519  26.804  1.00  0.00     0.039 A 
ATOM     31  C   UNL A   1      40.978  25.082  26.406  1.00  0.00     0.014 A 
ATOM     32  C   UNL A   1      42.863  25.047  27.878  1.00  0.00     0.014 A 
ATOM     33  C   UNL A   1      40.538  26.195  27.114  1.00  0.00     0.010 A 
ATOM     34  C   UNL A   1      42.085  25.561  28.835  1.00  0.00     0.010 A 
ATOM     35  C   UNL A   1      41.228  26.482  28.284  1.00  0.00    -0.014 A 
BRANCH  35  36
ATOM     36  C   UNL A   1      41.260  27.696  29.048  1.00  0.00     0.031 A 
ATOM     37  C   UNL A   1      42.209  28.690  28.502  1.00  0.00     0.074 A 
ATOM     38  C   UNL A   1      40.145  28.135  29.669  1.00  0.00     0.049 A 
ATOM     39  N   UNL A   1      43.411  28.905  28.913  1.00  0.00    -0.248 NA
ATOM     40  C   UNL A   1      41.904  29.311  27.196  1.00  0.00     0.031 C 
ATOM     41  C   UNL A   1      38.806  27.549  29.780  1.00  0.00     0.029 A 
ATOM     42  N   UNL A   1      39.987  29.352  30.232  1.00  0.00    -0.354 N 
ATOM     43  C   UNL A   1      43.922  29.849  28.036  1.00  0.00     0.074 A 
ATOM     44  C   UNL A   1      43.108  29.769  26.856  1.00  0.00     0.031 C 
ATOM     45  C   UNL A   1      37.940  28.496  30.217  1.00  0.00     0.029 A 
ATOM     46  C   UNL A   1      38.687  29.700  30.535  1.00  0.00     0.049 A 
ATOM     47  H   UNL A   1      40.747  29.951  30.414  1.00  0.00     0.167 HD
ATOM     48  C   UNL A   1      44.760  30.836  28.456  1.00  0.00     0.037 A 
ATOM     49  C   UNL A   1      38.314  30.936  30.948  1.00  0.00     0.037 A 
ATOM     50  C   UNL A   1      45.102  30.652  29.850  1.00  0.00     0.049 A 
ATOM     51  C   UNL A   1      39.569  31.653  31.355  1.00  0.00     0.074 A 
ATOM     52  C   UNL A   1      45.662  29.612  30.572  1.00  0.00     0.029 A 
ATOM     53  N   UNL A   1      44.429  31.417  30.781  1.00  0.00    -0.354 N 
ATOM     54  N   UNL A   1      40.325  31.296  32.364  1.00  0.00    -0.248 NA
ATOM     55  C   UNL A   1      40.243  32.463  30.346  1.00  0.00     0.031 C 
ATOM     56  C   UNL A   1      44.872  29.522  31.761  1.00  0.00     0.029 A 
ATOM     57  C   UNL A   1      43.934  30.556  31.733  1.00  0.00     0.049 A 
ATOM     58  H   UNL A   1      44.322  32.395  30.765  1.00  0.00     0.167 HD
ATOM     59  C   UNL A   1      41.635  31.496  31.937  1.00  0.00     0.074 A 
ATOM     60  C   UNL A   1      41.516  32.294  30.720  1.00  0.00     0.031 C 
ATOM     61  C   UNL A   1      42.672  30.747  32.424  1.00  0.00     0.037 A 
BRANCH  48  62
ATOM     62  C   UNL A   1      45.001  32.134  27.733  1.00  0.00     0.064 A 
ATOM     63  C   UNL A   1      46.204  32.287  27.019  1.00  0.00     0.173 A 
ATOM     64  C   UNL A   1      44.218  33.303  27.858  1.00  0.00     0.173 A 
ATOM     65  F   UNL A   1      47.034  31.247  26.854  1.00  0.00    -0.203 F 
ATOM     66  C   UNL A   1      46.612  33.523  26.516  1.00  0.00     0.198 A 
ATOM     67  C   UNL A   1      44.595  34.520  27.293  1.00  0.00     0.198 A 
ATOM     68  F   UNL A   1      43.117  33.357  28.615  1.00  0.00    -0.203 F 
ATOM     69  F   UNL A   1      47.817  33.639  25.942  1.00  0.00    -0.200 F 
ATOM     70  C   UNL A   1      45.806  34.638  26.648  1.00  0.00     0.200 A 
ATOM     71  F   UNL A   1      43.803  35.590  27.446  1.00  0.00    -0.200 F 
ATOM     72  F   UNL A   1      46.215  35.832  26.203  1.00  0.00    -0.200 F 
ENDBRANCH  48  62
BRANCH  49  73
ATOM     73  C   UNL A   1      37.015  31.617  30.744  1.00  0.00     0.064 A 
ATOM     74  C   UNL A   1      36.112  31.770  31.807  1.00  0.00     0.173 A 
ATOM     75  C   UNL A   1      36.720  32.335  29.567  1.00  0.00     0.173 A 
ATOM     76  F   UNL A   1      36.342  31.158  32.978  1.00  0.00    -0.203 F 
ATOM     77  C   UNL A   1      34.991  32.601  31.706  1.00  0.00     0.198 A 
ATOM     78  C   UNL A   1      35.594  33.154  29.462  1.00  0.00     0.198 A 
ATOM     79  F   UNL A   1      37.563  32.331  28.524  1.00  0.00    -0.203 F 
ATOM     80  F   UNL A   1      34.185  32.766  32.764  1.00  0.00    -0.200 F 
ATOM     81  C   UNL A   1      34.736  33.296  30.535  1.00  0.00     0.200 A 
ATOM     82  F   UNL A   1      35.379  33.846  28.334  1.00  0.00    -0.200 F 
ATOM     83  F   UNL A   1      33.692  34.131  30.455  1.00  0.00    -0.200 F 
ENDBRANCH  49  73
BRANCH  61  84
ATOM     84  C   UNL A   1      42.414  29.846  33.609  1.00  0.00     0.064 A 
ATOM     85  C   UNL A   1      42.053  28.491  33.504  1.00  0.00     0.173 A 
ATOM     86  C   UNL A   1      42.705  30.318  34.896  1.00  0.00     0.173 A 
ATOM     87  F   UNL A   1      41.866  27.919  32.313  1.00  0.00    -0.203 F 
ATOM     88  C   UNL A   1      41.947  27.665  34.622  1.00  0.00     0.198 A 
ATOM     89  C   UNL A   1      42.634  29.484  36.012  1.00  0.00     0.198 A 
ATOM     90  F   UNL A   1      43.116  31.584  35.069  1.00  0.00    -0.203 F 
ATOM     91  F   UNL A   1      41.594  26.379  34.475  1.00  0.00    -0.200 F 
ATOM     92  C   UNL A   1      42.245  28.161  35.876  1.00  0.00     0.200 A 
ATOM     93  F   UNL A   1      42.977  29.956  37.218  1.00  0.00    -0.200 F 
ATOM     94  F   UNL A   1      42.188  27.358  36.948  1.00  0.00    -0.200 F 
ENDBRANCH  61  84
ENDBRANCH  35  36
ENDBRANCH  27  30
ENDBRANCH  25  26
ENDBRANCH  24  25
ENDBRANCH  23  24
ENDBRANCH   3  23
TORSDOF 15
ENDMDL
