MODEL 1
REMARK VINA RESULT:     -13.2      0.000      0.000
REMARK SMILES Cc1c(Cl)cccc1-c1cccc(Cl)c1C(=O)NCCCNC(=O)c1ccc(-c2c3nc(c(-c4c(F)c(F)c(F)c(F)c4F)c4ccc([nH]4)c(-c4c(F)c(F)c(F)c(F)c4F)c4nc(c(-c5c(F)c(F)c(F)c(F)c5F)c5ccc2[nH]5)C=C4)C=C3)cc1
REMARK SMILES IDX 20 1 19 2 18 3 16 4 17 5 15 7 9 8 10 9 11 10 13 11 12 12
REMARK SMILES IDX 14 13 8 14 1 15 2 16 3 17 4 18 5 19 7 20 6 21 21 22 22 23
REMARK SMILES IDX 23 24 24 26 25 27 26 28 87 29 27 30 86 31 28 32 29 33 30 34
REMARK SMILES IDX 80 35 31 36 85 37 79 38 81 39 32 40 84 41 78 42 77 43 33 45
REMARK SMILES IDX 65 46 45 47 64 48 46 49 49 50 63 51 82 52 47 53 48 54 62 56
REMARK SMILES IDX 83 57 50 58 34 59 35 60 43 61 36 62 37 63 41 64 44 65 38 66
REMARK SMILES IDX 39 67 42 68 40 69 66 70 67 71 75 72 68 73 69 74 73 75 76 76
REMARK SMILES IDX 70 77 71 78 74 79 72 80 51 81 52 82 60 83 53 84 54 85 58 86
REMARK SMILES IDX 61 87 55 88 56 89 59 90 57 91
REMARK H PARENT 18 6 22 25 81 44 49 55
REMARK Flexibility Score: inf
ROOT
ATOM      1  C   UNL A   1      31.786  28.106  26.871  1.00  0.00     0.042 C 
ENDROOT
BRANCH   1   2
ATOM      2  C   UNL A   1      32.348  26.697  26.804  1.00  0.00     0.118 C 
BRANCH   2   3
ATOM      3  N   UNL A   1      31.397  25.654  26.502  1.00  0.00    -0.352 N 
ATOM      4  C   UNL A   1      31.273  24.911  25.353  1.00  0.00     0.253 C 
ATOM      5  O   UNL A   1      30.666  23.842  25.425  1.00  0.00    -0.269 OA
ATOM      6  H   UNL A   1      30.750  25.447  27.215  1.00  0.00     0.163 HD
BRANCH   4   7
ATOM      7  C   UNL A   1      31.788  25.350  24.029  1.00  0.00     0.066 A 
ATOM      8  C   UNL A   1      32.943  24.813  23.401  1.00  0.00    -0.004 A 
ATOM      9  C   UNL A   1      33.229  25.217  22.074  1.00  0.00     0.009 A 
ATOM     10  C   UNL A   1      32.415  26.110  21.381  1.00  0.00     0.002 A 
ATOM     11  C   UNL A   1      30.977  26.264  23.315  1.00  0.00     0.054 A 
ATOM     12  C   UNL A   1      31.293  26.636  22.003  1.00  0.00     0.021 A 
ATOM     13  Cl  UNL A   1      29.580  27.033  23.999  1.00  0.00    -0.083 Cl
BRANCH   8  14
ATOM     14  C   UNL A   1      33.927  23.907  24.038  1.00  0.00    -0.013 A 
ATOM     15  C   UNL A   1      32.801  21.770  23.208  1.00  0.00     0.046 C 
ATOM     16  C   UNL A   1      33.859  22.494  24.003  1.00  0.00    -0.025 A 
ATOM     17  C   UNL A   1      34.773  21.754  24.788  1.00  0.00     0.044 A 
ATOM     18  Cl  UNL A   1      34.686  20.029  24.898  1.00  0.00    -0.084 Cl
ATOM     19  C   UNL A   1      35.761  22.387  25.550  1.00  0.00     0.021 A 
ATOM     20  C   UNL A   1      34.976  24.516  24.775  1.00  0.00     0.009 A 
ATOM     21  C   UNL A   1      35.878  23.769  25.529  1.00  0.00     0.002 A 
ENDBRANCH   8  14
ENDBRANCH   4   7
ENDBRANCH   2   3
ENDBRANCH   1   2
BRANCH   1  22
ATOM     22  C   UNL A   1      32.578  29.124  26.054  1.00  0.00     0.118 C 
BRANCH  22  23
ATOM     23  N   UNL A   1      32.355  30.522  26.418  1.00  0.00    -0.352 N 
ATOM     24  C   UNL A   1      33.099  31.462  27.094  1.00  0.00     0.251 C 
ATOM     25  H   UNL A   1      31.484  30.866  26.114  1.00  0.00     0.163 HD
ATOM     26  O   UNL A   1      32.607  32.571  27.303  1.00  0.00    -0.269 OA
BRANCH  24  27
ATOM     27  C   UNL A   1      34.443  31.167  27.644  1.00  0.00     0.039 A 
ATOM     28  C   UNL A   1      35.373  32.211  27.757  1.00  0.00     0.014 A 
ATOM     29  C   UNL A   1      34.819  29.889  28.036  1.00  0.00     0.014 A 
ATOM     30  C   UNL A   1      36.612  31.992  28.371  1.00  0.00     0.010 A 
ATOM     31  C   UNL A   1      35.983  29.701  28.769  1.00  0.00     0.010 A 
ATOM     32  C   UNL A   1      36.899  30.748  28.950  1.00  0.00    -0.014 A 
BRANCH  32  33
ATOM     33  C   UNL A   1      38.135  30.476  29.733  1.00  0.00     0.031 A 
ATOM     34  C   UNL A   1      39.168  29.530  29.177  1.00  0.00     0.074 A 
ATOM     35  C   UNL A   1      38.263  30.946  30.990  1.00  0.00     0.049 A 
ATOM     36  N   UNL A   1      40.149  28.914  29.787  1.00  0.00    -0.248 NA
ATOM     37  C   UNL A   1      39.033  29.177  27.754  1.00  0.00     0.031 C 
ATOM     38  C   UNL A   1      37.321  31.837  31.668  1.00  0.00     0.029 A 
ATOM     39  N   UNL A   1      39.231  30.710  31.936  1.00  0.00    -0.354 N 
ATOM     40  C   UNL A   1      40.698  28.056  28.844  1.00  0.00     0.074 A 
ATOM     41  C   UNL A   1      39.915  28.196  27.636  1.00  0.00     0.031 C 
ATOM     42  C   UNL A   1      37.765  32.088  32.910  1.00  0.00     0.029 A 
ATOM     43  C   UNL A   1      38.989  31.330  33.138  1.00  0.00     0.049 A 
ATOM     44  H   UNL A   1      40.023  30.151  31.769  1.00  0.00     0.167 HD
ATOM     45  C   UNL A   1      41.771  27.238  28.967  1.00  0.00     0.037 A 
ATOM     46  C   UNL A   1      39.667  31.274  34.302  1.00  0.00     0.037 A 
ATOM     47  C   UNL A   1      42.598  27.173  30.141  1.00  0.00     0.049 A 
ATOM     48  C   UNL A   1      40.894  30.409  34.394  1.00  0.00     0.074 A 
ATOM     49  C   UNL A   1      43.756  26.444  30.342  1.00  0.00     0.029 A 
ATOM     50  N   UNL A   1      42.365  27.887  31.308  1.00  0.00    -0.354 N 
ATOM     51  N   UNL A   1      41.421  29.621  33.489  1.00  0.00    -0.248 NA
ATOM     52  C   UNL A   1      41.623  30.425  35.671  1.00  0.00     0.031 C 
ATOM     53  C   UNL A   1      44.212  26.699  31.640  1.00  0.00     0.029 A 
ATOM     54  C   UNL A   1      43.360  27.617  32.232  1.00  0.00     0.049 A 
ATOM     55  H   UNL A   1      41.605  28.494  31.456  1.00  0.00     0.167 HD
ATOM     56  C   UNL A   1      42.559  29.078  34.070  1.00  0.00     0.074 A 
ATOM     57  C   UNL A   1      42.649  29.627  35.407  1.00  0.00     0.031 C 
ATOM     58  C   UNL A   1      43.449  28.204  33.543  1.00  0.00     0.037 A 
BRANCH  45  59
ATOM     59  C   UNL A   1      42.120  26.363  27.797  1.00  0.00     0.064 A 
ATOM     60  C   UNL A   1      43.107  26.727  26.870  1.00  0.00     0.173 A 
ATOM     61  C   UNL A   1      41.473  25.130  27.615  1.00  0.00     0.173 A 
ATOM     62  F   UNL A   1      43.748  27.900  26.991  1.00  0.00    -0.203 F 
ATOM     63  C   UNL A   1      43.405  25.911  25.781  1.00  0.00     0.198 A 
ATOM     64  C   UNL A   1      41.799  24.301  26.544  1.00  0.00     0.198 A 
ATOM     65  F   UNL A   1      40.527  24.727  28.475  1.00  0.00    -0.203 F 
ATOM     66  F   UNL A   1      44.308  26.312  24.875  1.00  0.00    -0.200 F 
ATOM     67  C   UNL A   1      42.756  24.697  25.623  1.00  0.00     0.200 A 
ATOM     68  F   UNL A   1      41.181  23.120  26.401  1.00  0.00    -0.200 F 
ATOM     69  F   UNL A   1      43.048  23.911  24.577  1.00  0.00    -0.200 F 
ENDBRANCH  45  59
BRANCH  46  70
ATOM     70  C   UNL A   1      39.218  32.086  35.463  1.00  0.00     0.064 A 
ATOM     71  C   UNL A   1      39.584  33.434  35.574  1.00  0.00     0.173 A 
ATOM     72  C   UNL A   1      38.416  31.542  36.477  1.00  0.00     0.173 A 
ATOM     73  F   UNL A   1      40.365  33.993  34.638  1.00  0.00    -0.203 F 
ATOM     74  C   UNL A   1      39.185  34.203  36.665  1.00  0.00     0.198 A 
ATOM     75  C   UNL A   1      37.995  32.318  37.555  1.00  0.00     0.198 A 
ATOM     76  F   UNL A   1      38.030  30.258  36.414  1.00  0.00    -0.203 F 
ATOM     77  F   UNL A   1      39.587  35.476  36.767  1.00  0.00    -0.200 F 
ATOM     78  C   UNL A   1      38.386  33.646  37.652  1.00  0.00     0.200 A 
ATOM     79  F   UNL A   1      37.210  31.782  38.499  1.00  0.00    -0.200 F 
ATOM     80  F   UNL A   1      37.997  34.387  38.699  1.00  0.00    -0.200 F 
ENDBRANCH  46  70
BRANCH  58  81
ATOM     81  C   UNL A   1      44.636  27.834  34.380  1.00  0.00     0.064 A 
ATOM     82  C   UNL A   1      44.630  26.704  35.207  1.00  0.00     0.173 A 
ATOM     83  C   UNL A   1      45.818  28.584  34.292  1.00  0.00     0.173 A 
ATOM     84  F   UNL A   1      43.518  25.965  35.335  1.00  0.00    -0.203 F 
ATOM     85  C   UNL A   1      45.767  26.342  35.927  1.00  0.00     0.198 A 
ATOM     86  C   UNL A   1      46.960  28.206  34.993  1.00  0.00     0.198 A 
ATOM     87  F   UNL A   1      45.872  29.672  33.509  1.00  0.00    -0.203 F 
ATOM     88  F   UNL A   1      45.734  25.274  36.735  1.00  0.00    -0.200 F 
ATOM     89  C   UNL A   1      46.932  27.087  35.812  1.00  0.00     0.200 A 
ATOM     90  F   UNL A   1      48.087  28.919  34.871  1.00  0.00    -0.200 F 
ATOM     91  F   UNL A   1      48.029  26.728  36.492  1.00  0.00    -0.200 F 
ENDBRANCH  58  81
ENDBRANCH  32  33
ENDBRANCH  24  27
ENDBRANCH  22  23
ENDBRANCH   1  22
TORSDOF 11
ENDMDL
MODEL 2
REMARK VINA RESULT:     -13.2      1.199      2.391
REMARK SMILES Cc1c(Cl)cccc1-c1cccc(Cl)c1C(=O)NCCCNC(=O)c1ccc(-c2c3nc(c(-c4c(F)c(F)c(F)c(F)c4F)c4ccc([nH]4)c(-c4c(F)c(F)c(F)c(F)c4F)c4nc(c(-c5c(F)c(F)c(F)c(F)c5F)c5ccc2[nH]5)C=C4)C=C3)cc1
REMARK SMILES IDX 20 1 19 2 18 3 16 4 17 5 15 7 9 8 10 9 11 10 13 11 12 12
REMARK SMILES IDX 14 13 8 14 1 15 2 16 3 17 4 18 5 19 7 20 6 21 21 22 22 23
REMARK SMILES IDX 23 24 24 26 25 27 26 28 87 29 27 30 86 31 28 32 29 33 30 34
REMARK SMILES IDX 80 35 31 36 85 37 79 38 81 39 32 40 84 41 78 42 77 43 33 45
REMARK SMILES IDX 65 46 45 47 64 48 46 49 49 50 63 51 82 52 47 53 48 54 62 56
REMARK SMILES IDX 83 57 50 58 34 59 35 60 43 61 36 62 37 63 41 64 44 65 38 66
REMARK SMILES IDX 39 67 42 68 40 69 66 70 67 71 75 72 68 73 69 74 73 75 76 76
REMARK SMILES IDX 70 77 71 78 74 79 72 80 51 81 52 82 60 83 53 84 54 85 58 86
REMARK SMILES IDX 61 87 55 88 56 89 59 90 57 91
REMARK H PARENT 18 6 22 25 81 44 49 55
REMARK Flexibility Score: inf
ROOT
ATOM      1  C   UNL A   1      32.686  27.941  24.779  1.00  0.00     0.042 C 
ENDROOT
BRANCH   1   2
ATOM      2  C   UNL A   1      33.667  26.872  25.224  1.00  0.00     0.118 C 
BRANCH   2   3
ATOM      3  N   UNL A   1      34.024  25.890  24.226  1.00  0.00    -0.352 N 
ATOM      4  C   UNL A   1      33.660  24.568  24.154  1.00  0.00     0.253 C 
ATOM      5  O   UNL A   1      33.749  24.009  23.061  1.00  0.00    -0.269 OA
ATOM      6  H   UNL A   1      34.606  26.212  23.500  1.00  0.00     0.163 HD
BRANCH   4   7
ATOM      7  C   UNL A   1      33.215  23.771  25.328  1.00  0.00     0.066 A 
ATOM      8  C   UNL A   1      34.082  22.999  26.147  1.00  0.00    -0.004 A 
ATOM      9  C   UNL A   1      33.545  22.414  27.319  1.00  0.00     0.009 A 
ATOM     10  C   UNL A   1      32.211  22.579  27.684  1.00  0.00     0.002 A 
ATOM     11  C   UNL A   1      31.860  23.920  25.707  1.00  0.00     0.054 A 
ATOM     12  C   UNL A   1      31.369  23.328  26.876  1.00  0.00     0.021 A 
ATOM     13  Cl  UNL A   1      30.695  24.786  24.755  1.00  0.00    -0.083 Cl
BRANCH   8  14
ATOM     14  C   UNL A   1      35.500  22.690  25.848  1.00  0.00    -0.013 A 
ATOM     15  C   UNL A   1      35.016  20.329  25.001  1.00  0.00     0.046 C 
ATOM     16  C   UNL A   1      35.965  21.446  25.360  1.00  0.00    -0.025 A 
ATOM     17  C   UNL A   1      37.360  21.234  25.271  1.00  0.00     0.044 A 
ATOM     18  Cl  UNL A   1      38.018  19.706  24.798  1.00  0.00    -0.084 Cl
ATOM     19  C   UNL A   1      38.274  22.239  25.607  1.00  0.00     0.021 A 
ATOM     20  C   UNL A   1      36.450  23.707  26.126  1.00  0.00     0.009 A 
ATOM     21  C   UNL A   1      37.820  23.485  26.016  1.00  0.00     0.002 A 
ENDBRANCH   8  14
ENDBRANCH   4   7
ENDBRANCH   2   3
ENDBRANCH   1   2
BRANCH   1  22
ATOM     22  C   UNL A   1      33.281  29.347  24.746  1.00  0.00     0.118 C 
BRANCH  22  23
ATOM     23  N   UNL A   1      32.664  30.304  25.664  1.00  0.00    -0.352 N 
ATOM     24  C   UNL A   1      33.091  30.941  26.806  1.00  0.00     0.251 C 
ATOM     25  H   UNL A   1      31.743  30.544  25.409  1.00  0.00     0.163 HD
ATOM     26  O   UNL A   1      32.302  31.667  27.412  1.00  0.00    -0.269 OA
BRANCH  24  27
ATOM     27  C   UNL A   1      34.442  30.731  27.376  1.00  0.00     0.039 A 
ATOM     28  C   UNL A   1      35.253  31.847  27.626  1.00  0.00     0.014 A 
ATOM     29  C   UNL A   1      34.939  29.466  27.658  1.00  0.00     0.014 A 
ATOM     30  C   UNL A   1      36.491  31.695  28.264  1.00  0.00     0.010 A 
ATOM     31  C   UNL A   1      36.095  29.324  28.414  1.00  0.00     0.010 A 
ATOM     32  C   UNL A   1      36.890  30.436  28.730  1.00  0.00    -0.014 A 
BRANCH  32  33
ATOM     33  C   UNL A   1      38.125  30.213  29.531  1.00  0.00     0.031 A 
ATOM     34  C   UNL A   1      39.192  29.291  29.001  1.00  0.00     0.074 A 
ATOM     35  C   UNL A   1      38.225  30.707  30.781  1.00  0.00     0.049 A 
ATOM     36  N   UNL A   1      40.185  28.715  29.631  1.00  0.00    -0.248 NA
ATOM     37  C   UNL A   1      39.084  28.912  27.582  1.00  0.00     0.031 C 
ATOM     38  C   UNL A   1      37.249  31.579  31.436  1.00  0.00     0.029 A 
ATOM     39  N   UNL A   1      39.189  30.515  31.741  1.00  0.00    -0.354 N 
ATOM     40  C   UNL A   1      40.770  27.859  28.707  1.00  0.00     0.074 A 
ATOM     41  C   UNL A   1      39.997  27.957  27.489  1.00  0.00     0.031 C 
ATOM     42  C   UNL A   1      37.670  31.863  32.678  1.00  0.00     0.029 A 
ATOM     43  C   UNL A   1      38.915  31.146  32.931  1.00  0.00     0.049 A 
ATOM     44  H   UNL A   1      39.999  29.978  31.591  1.00  0.00     0.167 HD
ATOM     45  C   UNL A   1      41.866  27.077  28.855  1.00  0.00     0.037 A 
ATOM     46  C   UNL A   1      39.581  31.129  34.103  1.00  0.00     0.037 A 
ATOM     47  C   UNL A   1      42.682  27.056  30.039  1.00  0.00     0.049 A 
ATOM     48  C   UNL A   1      40.833  30.303  34.222  1.00  0.00     0.074 A 
ATOM     49  C   UNL A   1      43.859  26.365  30.264  1.00  0.00     0.029 A 
ATOM     50  N   UNL A   1      42.414  27.780  31.191  1.00  0.00    -0.354 N 
ATOM     51  N   UNL A   1      41.393  29.518  33.335  1.00  0.00    -0.248 NA
ATOM     52  C   UNL A   1      41.546  30.361  35.506  1.00  0.00     0.031 C 
ATOM     53  C   UNL A   1      44.293  26.654  31.562  1.00  0.00     0.029 A 
ATOM     54  C   UNL A   1      43.406  27.555  32.130  1.00  0.00     0.049 A 
ATOM     55  H   UNL A   1      41.634  28.365  31.322  1.00  0.00     0.167 HD
ATOM     56  C   UNL A   1      42.540  29.019  33.936  1.00  0.00     0.074 A 
ATOM     57  C   UNL A   1      42.599  29.591  35.265  1.00  0.00     0.031 C 
ATOM     58  C   UNL A   1      43.463  28.164  33.433  1.00  0.00     0.037 A 
BRANCH  45  59
ATOM     59  C   UNL A   1      42.255  26.195  27.703  1.00  0.00     0.064 A 
ATOM     60  C   UNL A   1      41.650  24.948  27.491  1.00  0.00     0.173 A 
ATOM     61  C   UNL A   1      43.230  26.614  26.785  1.00  0.00     0.173 A 
ATOM     62  F   UNL A   1      40.720  24.494  28.345  1.00  0.00    -0.203 F 
ATOM     63  C   UNL A   1      42.035  24.135  26.427  1.00  0.00     0.198 A 
ATOM     64  C   UNL A   1      43.587  25.813  25.702  1.00  0.00     0.198 A 
ATOM     65  F   UNL A   1      43.836  27.802  26.933  1.00  0.00    -0.203 F 
ATOM     66  F   UNL A   1      41.486  22.920  26.283  1.00  0.00    -0.200 F 
ATOM     67  C   UNL A   1      42.998  24.571  25.531  1.00  0.00     0.200 A 
ATOM     68  F   UNL A   1      44.509  26.244  24.828  1.00  0.00    -0.200 F 
ATOM     69  F   UNL A   1      43.364  23.789  24.506  1.00  0.00    -0.200 F 
ENDBRANCH  45  59
BRANCH  46  70
ATOM     70  C   UNL A   1      39.094  31.944  35.246  1.00  0.00     0.064 A 
ATOM     71  C   UNL A   1      39.385  33.313  35.319  1.00  0.00     0.173 A 
ATOM     72  C   UNL A   1      38.332  31.382  36.280  1.00  0.00     0.173 A 
ATOM     73  F   UNL A   1      40.126  33.890  34.362  1.00  0.00    -0.203 F 
ATOM     74  C   UNL A   1      38.949  34.086  36.393  1.00  0.00     0.198 A 
ATOM     75  C   UNL A   1      37.874  32.162  37.341  1.00  0.00     0.198 A 
ATOM     76  F   UNL A   1      38.018  30.078  36.254  1.00  0.00    -0.203 F 
ATOM     77  F   UNL A   1      39.279  35.383  36.459  1.00  0.00    -0.200 F 
ATOM     78  C   UNL A   1      38.190  33.512  37.401  1.00  0.00     0.200 A 
ATOM     79  F   UNL A   1      37.127  31.608  38.305  1.00  0.00    -0.200 F 
ATOM     80  F   UNL A   1      37.767  34.257  38.431  1.00  0.00    -0.200 F 
ENDBRANCH  46  70
BRANCH  58  81
ATOM     81  C   UNL A   1      44.651  27.844  34.289  1.00  0.00     0.064 A 
ATOM     82  C   UNL A   1      45.802  28.643  34.279  1.00  0.00     0.173 A 
ATOM     83  C   UNL A   1      44.602  26.765  35.183  1.00  0.00     0.173 A 
ATOM     84  F   UNL A   1      45.900  29.677  33.430  1.00  0.00    -0.203 F 
ATOM     85  C   UNL A   1      46.869  28.366  35.130  1.00  0.00     0.198 A 
ATOM     86  C   UNL A   1      45.659  26.505  36.050  1.00  0.00     0.198 A 
ATOM     87  F   UNL A   1      43.518  25.975  35.232  1.00  0.00    -0.203 F 
ATOM     88  F   UNL A   1      47.973  29.123  35.086  1.00  0.00    -0.200 F 
ATOM     89  C   UNL A   1      46.793  27.304  36.020  1.00  0.00     0.200 A 
ATOM     90  F   UNL A   1      45.579  25.487  36.917  1.00  0.00    -0.200 F 
ATOM     91  F   UNL A   1      47.814  27.048  36.849  1.00  0.00    -0.200 F 
ENDBRANCH  58  81
ENDBRANCH  32  33
ENDBRANCH  24  27
ENDBRANCH  22  23
ENDBRANCH   1  22
TORSDOF 11
ENDMDL
MODEL 3
REMARK VINA RESULT:     -13.2      0.126      1.616
REMARK SMILES Cc1c(Cl)cccc1-c1cccc(Cl)c1C(=O)NCCCNC(=O)c1ccc(-c2c3nc(c(-c4c(F)c(F)c(F)c(F)c4F)c4ccc([nH]4)c(-c4c(F)c(F)c(F)c(F)c4F)c4nc(c(-c5c(F)c(F)c(F)c(F)c5F)c5ccc2[nH]5)C=C4)C=C3)cc1
REMARK SMILES IDX 20 1 19 2 18 3 16 4 17 5 15 7 9 8 10 9 11 10 13 11 12 12
REMARK SMILES IDX 14 13 8 14 1 15 2 16 3 17 4 18 5 19 7 20 6 21 21 22 22 23
REMARK SMILES IDX 23 24 24 26 25 27 26 28 87 29 27 30 86 31 28 32 29 33 30 34
REMARK SMILES IDX 80 35 31 36 85 37 79 38 81 39 32 40 84 41 78 42 77 43 33 45
REMARK SMILES IDX 65 46 45 47 64 48 46 49 49 50 63 51 82 52 47 53 48 54 62 56
REMARK SMILES IDX 83 57 50 58 34 59 35 60 43 61 36 62 37 63 41 64 44 65 38 66
REMARK SMILES IDX 39 67 42 68 40 69 66 70 67 71 75 72 68 73 69 74 73 75 76 76
REMARK SMILES IDX 70 77 71 78 74 79 72 80 51 81 52 82 60 83 53 84 54 85 58 86
REMARK SMILES IDX 61 87 55 88 56 89 59 90 57 91
REMARK H PARENT 18 6 22 25 81 44 49 55
REMARK Flexibility Score: inf
ROOT
ATOM      1  C   UNL A   1      31.763  28.048  26.856  1.00  0.00     0.042 C 
ENDROOT
BRANCH   1   2
ATOM      2  C   UNL A   1      32.328  26.640  26.808  1.00  0.00     0.118 C 
BRANCH   2   3
ATOM      3  N   UNL A   1      31.385  25.594  26.492  1.00  0.00    -0.352 N 
ATOM      4  C   UNL A   1      31.273  24.857  25.339  1.00  0.00     0.253 C 
ATOM      5  O   UNL A   1      30.671  23.785  25.399  1.00  0.00    -0.269 OA
ATOM      6  H   UNL A   1      30.734  25.379  27.200  1.00  0.00     0.163 HD
BRANCH   4   7
ATOM      7  C   UNL A   1      31.794  25.307  24.020  1.00  0.00     0.066 A 
ATOM      8  C   UNL A   1      32.959  24.782  23.399  1.00  0.00    -0.004 A 
ATOM      9  C   UNL A   1      33.252  25.195  22.077  1.00  0.00     0.009 A 
ATOM     10  C   UNL A   1      32.437  26.085  21.382  1.00  0.00     0.002 A 
ATOM     11  C   UNL A   1      30.982  26.218  23.305  1.00  0.00     0.054 A 
ATOM     12  C   UNL A   1      31.305  26.599  21.997  1.00  0.00     0.021 A 
ATOM     13  Cl  UNL A   1      29.573  26.972  23.981  1.00  0.00    -0.083 Cl
BRANCH   8  14
ATOM     14  C   UNL A   1      33.945  23.881  24.040  1.00  0.00    -0.013 A 
ATOM     15  C   UNL A   1      32.826  21.739  23.216  1.00  0.00     0.046 C 
ATOM     16  C   UNL A   1      33.881  22.468  24.009  1.00  0.00    -0.025 A 
ATOM     17  C   UNL A   1      34.797  21.733  24.797  1.00  0.00     0.044 A 
ATOM     18  Cl  UNL A   1      34.715  20.009  24.913  1.00  0.00    -0.084 Cl
ATOM     19  C   UNL A   1      35.783  22.372  25.557  1.00  0.00     0.021 A 
ATOM     20  C   UNL A   1      34.993  24.496  24.775  1.00  0.00     0.009 A 
ATOM     21  C   UNL A   1      35.896  23.754  25.532  1.00  0.00     0.002 A 
ENDBRANCH   8  14
ENDBRANCH   4   7
ENDBRANCH   2   3
ENDBRANCH   1   2
BRANCH   1  22
ATOM     22  C   UNL A   1      32.566  29.062  26.045  1.00  0.00     0.118 C 
BRANCH  22  23
ATOM     23  N   UNL A   1      32.336  30.463  26.398  1.00  0.00    -0.352 N 
ATOM     24  C   UNL A   1      33.075  31.411  27.067  1.00  0.00     0.251 C 
ATOM     25  H   UNL A   1      31.464  30.800  26.090  1.00  0.00     0.163 HD
ATOM     26  O   UNL A   1      32.578  32.519  27.266  1.00  0.00    -0.269 OA
BRANCH  24  27
ATOM     27  C   UNL A   1      34.420  31.127  27.620  1.00  0.00     0.039 A 
ATOM     28  C   UNL A   1      35.339  32.179  27.741  1.00  0.00     0.014 A 
ATOM     29  C   UNL A   1      34.807  29.851  28.009  1.00  0.00     0.014 A 
ATOM     30  C   UNL A   1      36.578  31.969  28.359  1.00  0.00     0.010 A 
ATOM     31  C   UNL A   1      35.970  29.671  28.746  1.00  0.00     0.010 A 
ATOM     32  C   UNL A   1      36.874  30.726  28.934  1.00  0.00    -0.014 A 
BRANCH  32  33
ATOM     33  C   UNL A   1      38.110  30.462  29.721  1.00  0.00     0.031 A 
ATOM     34  C   UNL A   1      39.157  29.534  29.162  1.00  0.00     0.074 A 
ATOM     35  C   UNL A   1      38.226  30.924  30.982  1.00  0.00     0.049 A 
ATOM     36  N   UNL A   1      40.143  28.926  29.771  1.00  0.00    -0.248 NA
ATOM     37  C   UNL A   1      39.034  29.193  27.735  1.00  0.00     0.031 C 
ATOM     38  C   UNL A   1      37.270  31.797  31.664  1.00  0.00     0.029 A 
ATOM     39  N   UNL A   1      39.193  30.692  31.931  1.00  0.00    -0.354 N 
ATOM     40  C   UNL A   1      40.707  28.083  28.823  1.00  0.00     0.074 A 
ATOM     41  C   UNL A   1      39.928  28.223  27.613  1.00  0.00     0.031 C 
ATOM     42  C   UNL A   1      37.705  32.043  32.910  1.00  0.00     0.029 A 
ATOM     43  C   UNL A   1      38.937  31.298  33.137  1.00  0.00     0.049 A 
ATOM     44  H   UNL A   1      39.993  30.143  31.763  1.00  0.00     0.167 HD
ATOM     45  C   UNL A   1      41.790  27.278  28.945  1.00  0.00     0.037 A 
ATOM     46  C   UNL A   1      39.610  31.241  34.304  1.00  0.00     0.037 A 
ATOM     47  C   UNL A   1      42.613  27.213  30.122  1.00  0.00     0.049 A 
ATOM     48  C   UNL A   1      40.848  30.390  34.395  1.00  0.00     0.074 A 
ATOM     49  C   UNL A   1      43.779  26.496  30.323  1.00  0.00     0.029 A 
ATOM     50  N   UNL A   1      42.365  27.913  31.294  1.00  0.00    -0.354 N 
ATOM     51  N   UNL A   1      41.389  29.616  33.486  1.00  0.00    -0.248 NA
ATOM     52  C   UNL A   1      41.570  30.403  35.676  1.00  0.00     0.031 C 
ATOM     53  C   UNL A   1      44.225  26.746  31.625  1.00  0.00     0.029 A 
ATOM     54  C   UNL A   1      43.359  27.648  32.221  1.00  0.00     0.049 A 
ATOM     55  H   UNL A   1      41.596  28.509  31.444  1.00  0.00     0.167 HD
ATOM     56  C   UNL A   1      42.530  29.083  34.067  1.00  0.00     0.074 A 
ATOM     57  C   UNL A   1      42.607  29.621  35.409  1.00  0.00     0.031 C 
ATOM     58  C   UNL A   1      43.434  28.224  33.537  1.00  0.00     0.037 A 
BRANCH  45  59
ATOM     59  C   UNL A   1      42.156  26.417  27.769  1.00  0.00     0.064 A 
ATOM     60  C   UNL A   1      41.521  25.190  27.526  1.00  0.00     0.173 A 
ATOM     61  C   UNL A   1      43.140  26.837  26.860  1.00  0.00     0.173 A 
ATOM     62  F   UNL A   1      40.582  24.737  28.370  1.00  0.00    -0.203 F 
ATOM     63  C   UNL A   1      41.885  24.397  26.441  1.00  0.00     0.198 A 
ATOM     64  C   UNL A   1      43.476  26.057  25.756  1.00  0.00     0.198 A 
ATOM     65  F   UNL A   1      43.773  28.005  27.038  1.00  0.00    -0.203 F 
ATOM     66  F   UNL A   1      41.307  23.200  26.266  1.00  0.00    -0.200 F 
ATOM     67  C   UNL A   1      42.857  24.833  25.554  1.00  0.00     0.200 A 
ATOM     68  F   UNL A   1      44.405  26.488  24.892  1.00  0.00    -0.200 F 
ATOM     69  F   UNL A   1      43.202  24.070  24.508  1.00  0.00    -0.200 F 
ENDBRANCH  45  59
BRANCH  46  70
ATOM     70  C   UNL A   1      39.145  32.036  35.470  1.00  0.00     0.064 A 
ATOM     71  C   UNL A   1      39.488  33.390  35.591  1.00  0.00     0.173 A 
ATOM     72  C   UNL A   1      38.352  31.471  36.479  1.00  0.00     0.173 A 
ATOM     73  F   UNL A   1      40.259  33.969  34.659  1.00  0.00    -0.203 F 
ATOM     74  C   UNL A   1      39.073  34.144  36.686  1.00  0.00     0.198 A 
ATOM     75  C   UNL A   1      37.916  32.233  37.562  1.00  0.00     0.198 A 
ATOM     76  F   UNL A   1      37.989  30.181  36.407  1.00  0.00    -0.203 F 
ATOM     77  F   UNL A   1      39.452  35.424  36.797  1.00  0.00    -0.200 F 
ATOM     78  C   UNL A   1      38.283  33.566  37.668  1.00  0.00     0.200 A 
ATOM     79  F   UNL A   1      37.140  31.676  38.501  1.00  0.00    -0.200 F 
ATOM     80  F   UNL A   1      37.880  34.293  38.720  1.00  0.00    -0.200 F 
ENDBRANCH  46  70
BRANCH  58  81
ATOM     81  C   UNL A   1      44.621  27.863  34.377  1.00  0.00     0.064 A 
ATOM     82  C   UNL A   1      45.787  28.640  34.378  1.00  0.00     0.173 A 
ATOM     83  C   UNL A   1      44.558  26.764  35.247  1.00  0.00     0.173 A 
ATOM     84  F   UNL A   1      45.899  29.691  33.553  1.00  0.00    -0.203 F 
ATOM     85  C   UNL A   1      46.854  28.323  35.215  1.00  0.00     0.198 A 
ATOM     86  C   UNL A   1      45.616  26.464  36.100  1.00  0.00     0.198 A 
ATOM     87  F   UNL A   1      43.460  25.993  35.285  1.00  0.00    -0.203 F 
ATOM     88  F   UNL A   1      47.972  29.060  35.181  1.00  0.00    -0.200 F 
ATOM     89  C   UNL A   1      46.764  27.242  36.081  1.00  0.00     0.200 A 
ATOM     90  F   UNL A   1      45.522  25.428  36.944  1.00  0.00    -0.200 F 
ATOM     91  F   UNL A   1      47.785  26.948  36.897  1.00  0.00    -0.200 F 
ENDBRANCH  58  81
ENDBRANCH  32  33
ENDBRANCH  24  27
ENDBRANCH  22  23
ENDBRANCH   1  22
TORSDOF 11
ENDMDL
