MODEL 1
REMARK VINA RESULT:     -15.0      0.000      0.000
REMARK SMILES Cc1ccc(-c2nc(C)cc(N3CCCC[C@H]3C(=O)NCCCNC(=O)c3ccc(-c4c5nc(c(-c6c(F)c(F)c(F)c(F)c6F)c6ccc([nH]6)c(-c6c(F)c(F)c(F)c(F)c6F)c6nc(c(-c7c(F)c(F)c(F)c(F)c7F)c7ccc4[nH]7)C=C6)C=C5)cc3)n2)cc1
REMARK SMILES IDX 22 1 21 2 20 3 18 4 19 5 17 7 12 8 13 9 14 10 16 11 15 12
REMARK SMILES IDX 11 13 6 14 7 15 90 16 8 17 9 18 10 19 5 20 1 21 2 22 3 23
REMARK SMILES IDX 92 24 4 25 91 26 23 27 24 28 25 29 26 31 27 32 28 33 89 34
REMARK SMILES IDX 29 35 88 36 30 37 31 38 32 39 82 40 33 41 87 42 81 43 83 44
REMARK SMILES IDX 34 45 86 46 80 47 79 48 35 50 67 51 47 52 66 53 48 54 51 55
REMARK SMILES IDX 65 56 84 57 49 58 50 59 64 61 85 62 52 63 36 64 37 65 45 66
REMARK SMILES IDX 38 67 39 68 43 69 46 70 40 71 41 72 44 73 42 74 68 75 69 76
REMARK SMILES IDX 77 77 70 78 71 79 75 80 78 81 72 82 73 83 76 84 74 85 53 86
REMARK SMILES IDX 54 87 62 88 55 89 56 90 60 91 63 92 57 93 58 94 61 95 59 96
REMARK H PARENT 20 6 24 30 83 49 51 60
REMARK Flexibility Score: inf
ROOT
ATOM      1  C   UNL A   1      38.434  21.507  26.026  1.00  0.00     0.042 C 
ENDROOT
BRANCH   1   2
ATOM      2  C   UNL A   1      37.793  20.900  24.783  1.00  0.00     0.117 C 
BRANCH   2   3
ATOM      3  N   UNL A   1      37.107  21.913  24.001  1.00  0.00    -0.354 N 
ATOM      4  C   UNL A   1      35.842  22.408  23.975  1.00  0.00     0.242 C 
ATOM      5  O   UNL A   1      35.668  23.261  23.090  1.00  0.00    -0.273 OA
ATOM      6  H   UNL A   1      37.693  22.340  23.336  1.00  0.00     0.163 HD
BRANCH   4   7
ATOM      7  C   UNL A   1      34.685  22.087  24.983  1.00  0.00     0.173 C 
ATOM      8  N   UNL A   1      33.402  22.533  24.386  1.00  0.00    -0.344 N 
ATOM      9  C   UNL A   1      32.779  21.657  23.400  1.00  0.00     0.119 C 
ATOM     10  C   UNL A   1      32.510  20.278  23.988  1.00  0.00     0.022 C 
ATOM     11  C   UNL A   1      34.453  20.685  25.566  1.00  0.00     0.035 C 
ATOM     12  C   UNL A   1      33.770  19.699  24.618  1.00  0.00     0.004 C 
BRANCH   8  13
ATOM     13  C   UNL A   1      32.555  23.300  25.173  1.00  0.00     0.133 A 
ATOM     14  C   UNL A   1      32.065  25.272  26.233  1.00  0.00     0.161 A 
ATOM     15  N   UNL A   1      30.969  24.783  26.837  1.00  0.00    -0.233 NA
ATOM     16  N   UNL A   1      32.874  24.580  25.415  1.00  0.00    -0.211 NA
ATOM     17  C   UNL A   1      30.658  23.502  26.563  1.00  0.00     0.043 A 
ATOM     18  C   UNL A   1      29.444  22.946  27.242  1.00  0.00     0.067 C 
ATOM     19  C   UNL A   1      31.426  22.723  25.720  1.00  0.00     0.070 A 
BRANCH  14  20
ATOM     20  C   UNL A   1      32.396  26.679  26.467  1.00  0.00     0.019 A 
ATOM     21  C   UNL A   1      33.362  30.849  27.127  1.00  0.00     0.044 C 
ATOM     22  C   UNL A   1      33.035  29.405  26.891  1.00  0.00    -0.051 A 
ATOM     23  C   UNL A   1      31.780  28.903  27.256  1.00  0.00     0.004 A 
ATOM     24  C   UNL A   1      33.974  28.537  26.325  1.00  0.00     0.004 A 
ATOM     25  C   UNL A   1      31.462  27.560  27.035  1.00  0.00     0.012 A 
ATOM     26  C   UNL A   1      33.659  27.190  26.124  1.00  0.00     0.012 A 
ENDBRANCH  14  20
ENDBRANCH   8  13
ENDBRANCH   4   7
ENDBRANCH   2   3
ENDBRANCH   1   2
BRANCH   1  27
ATOM     27  C   UNL A   1      38.993  22.909  25.818  1.00  0.00     0.118 C 
BRANCH  27  28
ATOM     28  N   UNL A   1      40.393  23.047  26.216  1.00  0.00    -0.352 N 
ATOM     29  C   UNL A   1      41.048  24.180  26.685  1.00  0.00     0.251 C 
ATOM     30  H   UNL A   1      40.942  22.233  26.142  1.00  0.00     0.163 HD
ATOM     31  O   UNL A   1      42.199  24.141  27.065  1.00  0.00    -0.269 OA
BRANCH  29  32
ATOM     32  C   UNL A   1      40.245  25.416  26.819  1.00  0.00     0.039 A 
ATOM     33  C   UNL A   1      40.778  26.586  26.275  1.00  0.00     0.014 A 
ATOM     34  C   UNL A   1      39.213  25.454  27.752  1.00  0.00     0.014 A 
ATOM     35  C   UNL A   1      40.470  27.800  26.877  1.00  0.00     0.010 A 
ATOM     36  C   UNL A   1      38.979  26.646  28.411  1.00  0.00     0.010 A 
ATOM     37  C   UNL A   1      39.675  27.800  28.025  1.00  0.00    -0.014 A 
BRANCH  37  38
ATOM     38  C   UNL A   1      39.660  28.927  28.954  1.00  0.00     0.031 A 
ATOM     39  C   UNL A   1      38.645  29.990  28.821  1.00  0.00     0.074 A 
ATOM     40  C   UNL A   1      40.570  28.987  29.953  1.00  0.00     0.049 A 
ATOM     41  N   UNL A   1      38.820  31.216  29.188  1.00  0.00    -0.248 NA
ATOM     42  C   UNL A   1      37.347  29.752  28.207  1.00  0.00     0.031 C 
ATOM     43  C   UNL A   1      40.582  29.916  31.080  1.00  0.00     0.029 A 
ATOM     44  N   UNL A   1      41.807  28.319  30.038  1.00  0.00    -0.354 N 
ATOM     45  C   UNL A   1      37.603  31.859  29.108  1.00  0.00     0.074 A 
ATOM     46  C   UNL A   1      36.739  30.921  28.427  1.00  0.00     0.031 C 
ATOM     47  C   UNL A   1      41.834  30.001  31.555  1.00  0.00     0.029 A 
ATOM     48  C   UNL A   1      42.688  29.227  30.671  1.00  0.00     0.049 A 
ATOM     49  H   UNL A   1      42.016  27.409  29.724  1.00  0.00     0.167 HD
ATOM     50  C   UNL A   1      37.435  33.054  29.748  1.00  0.00     0.037 A 
ATOM     51  C   UNL A   1      43.806  29.698  30.050  1.00  0.00     0.037 A 
ATOM     52  C   UNL A   1      38.685  33.506  30.359  1.00  0.00     0.049 A 
ATOM     53  C   UNL A   1      43.839  31.199  29.893  1.00  0.00     0.074 A 
ATOM     54  C   UNL A   1      39.174  33.424  31.652  1.00  0.00     0.029 A 
ATOM     55  N   UNL A   1      39.762  33.864  29.554  1.00  0.00    -0.354 N 
ATOM     56  N   UNL A   1      42.792  31.964  30.031  1.00  0.00    -0.248 NA
ATOM     57  C   UNL A   1      45.032  31.949  29.505  1.00  0.00     0.031 C 
ATOM     58  C   UNL A   1      40.565  33.678  31.615  1.00  0.00     0.029 A 
ATOM     59  C   UNL A   1      40.922  33.935  30.303  1.00  0.00     0.049 A 
ATOM     60  H   UNL A   1      39.706  34.041  28.588  1.00  0.00     0.167 HD
ATOM     61  C   UNL A   1      43.127  33.252  29.711  1.00  0.00     0.074 A 
ATOM     62  C   UNL A   1      44.546  33.199  29.417  1.00  0.00     0.031 C 
ATOM     63  C   UNL A   1      42.198  34.251  29.684  1.00  0.00     0.037 A 
BRANCH  50  64
ATOM     64  C   UNL A   1      36.079  33.646  30.096  1.00  0.00     0.064 A 
ATOM     65  C   UNL A   1      35.252  34.200  29.093  1.00  0.00     0.173 A 
ATOM     66  C   UNL A   1      35.567  33.771  31.400  1.00  0.00     0.173 A 
ATOM     67  F   UNL A   1      35.519  34.031  27.792  1.00  0.00    -0.203 F 
ATOM     68  C   UNL A   1      34.107  34.947  29.385  1.00  0.00     0.198 A 
ATOM     69  C   UNL A   1      34.456  34.567  31.701  1.00  0.00     0.198 A 
ATOM     70  F   UNL A   1      36.078  33.072  32.420  1.00  0.00    -0.203 F 
ATOM     71  F   UNL A   1      33.375  35.462  28.386  1.00  0.00    -0.200 F 
ATOM     72  C   UNL A   1      33.736  35.173  30.693  1.00  0.00     0.200 A 
ATOM     73  F   UNL A   1      34.087  34.738  32.979  1.00  0.00    -0.200 F 
ATOM     74  F   UNL A   1      32.672  35.934  30.978  1.00  0.00    -0.200 F 
ENDBRANCH  50  64
BRANCH  51  75
ATOM     75  C   UNL A   1      44.410  28.733  29.099  1.00  0.00     0.064 A 
ATOM     76  C   UNL A   1      45.090  27.618  29.622  1.00  0.00     0.173 A 
ATOM     77  C   UNL A   1      44.033  28.690  27.753  1.00  0.00     0.173 A 
ATOM     78  F   UNL A   1      45.471  27.609  30.910  1.00  0.00    -0.203 F 
ATOM     79  C   UNL A   1      45.283  26.466  28.865  1.00  0.00     0.198 A 
ATOM     80  C   UNL A   1      44.240  27.538  26.992  1.00  0.00     0.198 A 
ATOM     81  F   UNL A   1      43.363  29.712  27.203  1.00  0.00    -0.203 F 
ATOM     82  F   UNL A   1      45.833  25.380  29.427  1.00  0.00    -0.200 F 
ATOM     83  C   UNL A   1      44.833  26.417  27.557  1.00  0.00     0.200 A 
ATOM     84  F   UNL A   1      43.779  27.479  25.734  1.00  0.00    -0.200 F 
ATOM     85  F   UNL A   1      44.931  25.278  26.857  1.00  0.00    -0.200 F 
ENDBRANCH  51  75
BRANCH  63  86
ATOM     86  C   UNL A   1      42.430  35.636  29.146  1.00  0.00     0.064 A 
ATOM     87  C   UNL A   1      41.849  36.114  27.961  1.00  0.00     0.173 A 
ATOM     88  C   UNL A   1      43.147  36.585  29.911  1.00  0.00     0.173 A 
ATOM     89  F   UNL A   1      41.064  35.332  27.208  1.00  0.00    -0.203 F 
ATOM     90  C   UNL A   1      42.018  37.436  27.542  1.00  0.00     0.198 A 
ATOM     91  C   UNL A   1      43.269  37.916  29.515  1.00  0.00     0.198 A 
ATOM     92  F   UNL A   1      43.726  36.249  31.073  1.00  0.00    -0.203 F 
ATOM     93  F   UNL A   1      41.474  37.840  26.384  1.00  0.00    -0.200 F 
ATOM     94  C   UNL A   1      42.716  38.338  28.324  1.00  0.00     0.200 A 
ATOM     95  F   UNL A   1      43.909  38.790  30.306  1.00  0.00    -0.200 F 
ATOM     96  F   UNL A   1      42.839  39.615  27.938  1.00  0.00    -0.200 F 
ENDBRANCH  63  86
ENDBRANCH  37  38
ENDBRANCH  29  32
ENDBRANCH  27  28
ENDBRANCH   1  27
TORSDOF 12
ENDMDL
MODEL 2
REMARK VINA RESULT:     -14.9      3.716     10.282
REMARK SMILES Cc1ccc(-c2nc(C)cc(N3CCCC[C@H]3C(=O)NCCCNC(=O)c3ccc(-c4c5nc(c(-c6c(F)c(F)c(F)c(F)c6F)c6ccc([nH]6)c(-c6c(F)c(F)c(F)c(F)c6F)c6nc(c(-c7c(F)c(F)c(F)c(F)c7F)c7ccc4[nH]7)C=C6)C=C5)cc3)n2)cc1
REMARK SMILES IDX 22 1 21 2 20 3 18 4 19 5 17 7 12 8 13 9 14 10 16 11 15 12
REMARK SMILES IDX 11 13 6 14 7 15 90 16 8 17 9 18 10 19 5 20 1 21 2 22 3 23
REMARK SMILES IDX 92 24 4 25 91 26 23 27 24 28 25 29 26 31 27 32 28 33 89 34
REMARK SMILES IDX 29 35 88 36 30 37 31 38 32 39 82 40 33 41 87 42 81 43 83 44
REMARK SMILES IDX 34 45 86 46 80 47 79 48 35 50 67 51 47 52 66 53 48 54 51 55
REMARK SMILES IDX 65 56 84 57 49 58 50 59 64 61 85 62 52 63 36 64 37 65 45 66
REMARK SMILES IDX 38 67 39 68 43 69 46 70 40 71 41 72 44 73 42 74 68 75 69 76
REMARK SMILES IDX 77 77 70 78 71 79 75 80 78 81 72 82 73 83 76 84 74 85 53 86
REMARK SMILES IDX 54 87 62 88 55 89 56 90 60 91 63 92 57 93 58 94 61 95 59 96
REMARK H PARENT 20 6 24 30 83 49 51 60
REMARK Flexibility Score: inf
ROOT
ATOM      1  C   UNL A   1      33.619  31.089  27.099  1.00  0.00     0.042 C 
ENDROOT
BRANCH   1   2
ATOM      2  C   UNL A   1      32.127  30.822  26.934  1.00  0.00     0.117 C 
BRANCH   2   3
ATOM      3  N   UNL A   1      31.813  29.428  27.196  1.00  0.00    -0.354 N 
ATOM      4  C   UNL A   1      31.622  28.330  26.421  1.00  0.00     0.242 C 
ATOM      5  O   UNL A   1      31.318  27.318  27.073  1.00  0.00    -0.273 OA
ATOM      6  H   UNL A   1      31.717  29.235  28.156  1.00  0.00     0.163 HD
BRANCH   4   7
ATOM      7  C   UNL A   1      31.848  28.217  24.874  1.00  0.00     0.173 C 
ATOM      8  N   UNL A   1      31.312  26.913  24.412  1.00  0.00    -0.344 N 
ATOM      9  C   UNL A   1      29.871  26.814  24.203  1.00  0.00     0.119 C 
ATOM     10  C   UNL A   1      29.395  27.846  23.189  1.00  0.00     0.022 C 
ATOM     11  C   UNL A   1      31.364  29.286  23.882  1.00  0.00     0.035 C 
ATOM     12  C   UNL A   1      29.868  29.243  23.569  1.00  0.00     0.004 C 
BRANCH   8  13
ATOM     13  C   UNL A   1      32.121  26.133  23.599  1.00  0.00     0.133 A 
ATOM     14  C   UNL A   1      33.957  24.789  23.320  1.00  0.00     0.161 A 
ATOM     15  N   UNL A   1      33.809  24.704  21.988  1.00  0.00    -0.233 NA
ATOM     16  N   UNL A   1      33.158  25.482  24.147  1.00  0.00    -0.211 NA
ATOM     17  C   UNL A   1      32.751  25.350  21.463  1.00  0.00     0.043 A 
ATOM     18  C   UNL A   1      32.585  25.271  19.976  1.00  0.00     0.067 C 
ATOM     19  C   UNL A   1      31.869  26.073  22.242  1.00  0.00     0.070 A 
BRANCH  14  20
ATOM     20  C   UNL A   1      35.066  24.050  23.927  1.00  0.00     0.019 A 
ATOM     21  C   UNL A   1      38.325  21.840  25.731  1.00  0.00     0.044 C 
ATOM     22  C   UNL A   1      37.194  22.608  25.116  1.00  0.00    -0.051 A 
ATOM     23  C   UNL A   1      36.785  22.324  23.807  1.00  0.00     0.004 A 
ATOM     24  C   UNL A   1      36.544  23.624  25.823  1.00  0.00     0.004 A 
ATOM     25  C   UNL A   1      35.727  23.029  23.226  1.00  0.00     0.012 A 
ATOM     26  C   UNL A   1      35.499  24.340  25.232  1.00  0.00     0.012 A 
ENDBRANCH  14  20
ENDBRANCH   8  13
ENDBRANCH   4   7
ENDBRANCH   2   3
ENDBRANCH   1   2
BRANCH   1  27
ATOM     27  C   UNL A   1      34.238  30.432  28.326  1.00  0.00     0.118 C 
BRANCH  27  28
ATOM     28  N   UNL A   1      35.100  31.326  29.098  1.00  0.00    -0.352 N 
ATOM     29  C   UNL A   1      36.375  31.076  29.594  1.00  0.00     0.251 C 
ATOM     30  H   UNL A   1      34.732  32.217  29.290  1.00  0.00     0.163 HD
ATOM     31  O   UNL A   1      37.024  31.938  30.150  1.00  0.00    -0.269 OA
BRANCH  29  32
ATOM     32  C   UNL A   1      36.961  29.748  29.310  1.00  0.00     0.039 A 
ATOM     33  C   UNL A   1      37.406  28.999  30.401  1.00  0.00     0.014 A 
ATOM     34  C   UNL A   1      37.370  29.453  28.012  1.00  0.00     0.014 A 
ATOM     35  C   UNL A   1      38.480  28.135  30.223  1.00  0.00     0.010 A 
ATOM     36  C   UNL A   1      38.496  28.668  27.851  1.00  0.00     0.010 A 
ATOM     37  C   UNL A   1      39.099  28.080  28.972  1.00  0.00    -0.014 A 
BRANCH  37  38
ATOM     38  C   UNL A   1      40.454  27.564  28.803  1.00  0.00     0.031 A 
ATOM     39  C   UNL A   1      40.676  26.143  28.469  1.00  0.00     0.074 A 
ATOM     40  C   UNL A   1      41.512  28.397  28.936  1.00  0.00     0.049 A 
ATOM     41  N   UNL A   1      41.729  25.472  28.797  1.00  0.00    -0.248 NA
ATOM     42  C   UNL A   1      39.681  25.346  27.766  1.00  0.00     0.031 C 
ATOM     43  C   UNL A   1      42.906  28.109  28.609  1.00  0.00     0.029 A 
ATOM     44  N   UNL A   1      41.557  29.641  29.595  1.00  0.00    -0.354 N 
ATOM     45  C   UNL A   1      41.679  24.260  28.142  1.00  0.00     0.074 A 
ATOM     46  C   UNL A   1      40.352  24.208  27.571  1.00  0.00     0.031 C 
ATOM     47  C   UNL A   1      43.693  28.944  29.306  1.00  0.00     0.029 A 
ATOM     48  C   UNL A   1      42.836  29.708  30.195  1.00  0.00     0.049 A 
ATOM     49  H   UNL A   1      40.847  30.322  29.630  1.00  0.00     0.167 HD
ATOM     50  C   UNL A   1      42.814  23.505  28.046  1.00  0.00     0.037 A 
ATOM     51  C   UNL A   1      42.994  29.802  31.546  1.00  0.00     0.037 A 
ATOM     52  C   UNL A   1      43.918  24.115  28.786  1.00  0.00     0.049 A 
ATOM     53  C   UNL A   1      43.777  28.666  32.158  1.00  0.00     0.074 A 
ATOM     54  C   UNL A   1      44.983  24.907  28.386  1.00  0.00     0.029 A 
ATOM     55  N   UNL A   1      43.860  24.207  30.172  1.00  0.00    -0.354 N 
ATOM     56  N   UNL A   1      44.014  27.539  31.546  1.00  0.00    -0.248 NA
ATOM     57  C   UNL A   1      44.297  28.681  33.524  1.00  0.00     0.031 C 
ATOM     58  C   UNL A   1      45.531  25.522  29.537  1.00  0.00     0.029 A 
ATOM     59  C   UNL A   1      44.814  25.091  30.639  1.00  0.00     0.049 A 
ATOM     60  H   UNL A   1      43.227  23.711  30.741  1.00  0.00     0.167 HD
ATOM     61  C   UNL A   1      44.641  26.680  32.407  1.00  0.00     0.074 A 
ATOM     62  C   UNL A   1      44.824  27.448  33.623  1.00  0.00     0.031 C 
ATOM     63  C   UNL A   1      44.930  25.394  32.056  1.00  0.00     0.037 A 
BRANCH  50  64
ATOM     64  C   UNL A   1      43.010  22.396  27.025  1.00  0.00     0.064 A 
ATOM     65  C   UNL A   1      42.304  21.177  27.136  1.00  0.00     0.173 A 
ATOM     66  C   UNL A   1      43.930  22.436  25.961  1.00  0.00     0.173 A 
ATOM     67  F   UNL A   1      41.289  21.030  27.997  1.00  0.00    -0.203 F 
ATOM     68  C   UNL A   1      42.609  20.054  26.360  1.00  0.00     0.198 A 
ATOM     69  C   UNL A   1      44.278  21.299  25.223  1.00  0.00     0.198 A 
ATOM     70  F   UNL A   1      44.471  23.588  25.551  1.00  0.00    -0.203 F 
ATOM     71  F   UNL A   1      41.913  18.920  26.528  1.00  0.00    -0.200 F 
ATOM     72  C   UNL A   1      43.630  20.101  25.436  1.00  0.00     0.200 A 
ATOM     73  F   UNL A   1      45.246  21.379  24.299  1.00  0.00    -0.200 F 
ATOM     74  F   UNL A   1      43.961  19.012  24.730  1.00  0.00    -0.200 F 
ENDBRANCH  50  64
BRANCH  51  75
ATOM     75  C   UNL A   1      41.898  30.537  32.223  1.00  0.00     0.064 A 
ATOM     76  C   UNL A   1      41.859  31.939  32.101  1.00  0.00     0.173 A 
ATOM     77  C   UNL A   1      40.736  29.892  32.658  1.00  0.00     0.173 A 
ATOM     78  F   UNL A   1      42.948  32.605  31.684  1.00  0.00    -0.203 F 
ATOM     79  C   UNL A   1      40.678  32.650  32.294  1.00  0.00     0.198 A 
ATOM     80  C   UNL A   1      39.556  30.610  32.864  1.00  0.00     0.198 A 
ATOM     81  F   UNL A   1      40.704  28.556  32.773  1.00  0.00    -0.203 F 
ATOM     82  F   UNL A   1      40.647  33.970  32.059  1.00  0.00    -0.200 F 
ATOM     83  C   UNL A   1      39.520  31.981  32.650  1.00  0.00     0.200 A 
ATOM     84  F   UNL A   1      38.427  29.960  33.181  1.00  0.00    -0.200 F 
ATOM     85  F   UNL A   1      38.362  32.650  32.743  1.00  0.00    -0.200 F 
ENDBRANCH  51  75
BRANCH  63  86
ATOM     86  C   UNL A   1      45.421  24.328  32.996  1.00  0.00     0.064 A 
ATOM     87  C   UNL A   1      46.680  24.362  33.618  1.00  0.00     0.173 A 
ATOM     88  C   UNL A   1      44.551  23.295  33.417  1.00  0.00     0.173 A 
ATOM     89  F   UNL A   1      47.547  25.354  33.373  1.00  0.00    -0.203 F 
ATOM     90  C   UNL A   1      47.063  23.400  34.554  1.00  0.00     0.198 A 
ATOM     91  C   UNL A   1      44.919  22.367  34.390  1.00  0.00     0.198 A 
ATOM     92  F   UNL A   1      43.315  23.177  32.910  1.00  0.00    -0.203 F 
ATOM     93  F   UNL A   1      48.289  23.451  35.095  1.00  0.00    -0.200 F 
ATOM     94  C   UNL A   1      46.179  22.411  34.949  1.00  0.00     0.200 A 
ATOM     95  F   UNL A   1      44.036  21.443  34.796  1.00  0.00    -0.200 F 
ATOM     96  F   UNL A   1      46.537  21.516  35.879  1.00  0.00    -0.200 F 
ENDBRANCH  63  86
ENDBRANCH  37  38
ENDBRANCH  29  32
ENDBRANCH  27  28
ENDBRANCH   1  27
TORSDOF 12
ENDMDL
MODEL 3
REMARK VINA RESULT:     -14.6      3.823     10.093
REMARK SMILES Cc1ccc(-c2nc(C)cc(N3CCCC[C@H]3C(=O)NCCCNC(=O)c3ccc(-c4c5nc(c(-c6c(F)c(F)c(F)c(F)c6F)c6ccc([nH]6)c(-c6c(F)c(F)c(F)c(F)c6F)c6nc(c(-c7c(F)c(F)c(F)c(F)c7F)c7ccc4[nH]7)C=C6)C=C5)cc3)n2)cc1
REMARK SMILES IDX 22 1 21 2 20 3 18 4 19 5 17 7 12 8 13 9 14 10 16 11 15 12
REMARK SMILES IDX 11 13 6 14 7 15 90 16 8 17 9 18 10 19 5 20 1 21 2 22 3 23
REMARK SMILES IDX 92 24 4 25 91 26 23 27 24 28 25 29 26 31 27 32 28 33 89 34
REMARK SMILES IDX 29 35 88 36 30 37 31 38 32 39 82 40 33 41 87 42 81 43 83 44
REMARK SMILES IDX 34 45 86 46 80 47 79 48 35 50 67 51 47 52 66 53 48 54 51 55
REMARK SMILES IDX 65 56 84 57 49 58 50 59 64 61 85 62 52 63 36 64 37 65 45 66
REMARK SMILES IDX 38 67 39 68 43 69 46 70 40 71 41 72 44 73 42 74 68 75 69 76
REMARK SMILES IDX 77 77 70 78 71 79 75 80 78 81 72 82 73 83 76 84 74 85 53 86
REMARK SMILES IDX 54 87 62 88 55 89 56 90 60 91 63 92 57 93 58 94 61 95 59 96
REMARK H PARENT 20 6 24 30 83 49 51 60
REMARK Flexibility Score: inf
ROOT
ATOM      1  C   UNL A   1      32.894  30.755  27.128  1.00  0.00     0.042 C 
ENDROOT
BRANCH   1   2
ATOM      2  C   UNL A   1      32.330  29.896  26.002  1.00  0.00     0.117 C 
BRANCH   2   3
ATOM      3  N   UNL A   1      31.775  28.656  26.517  1.00  0.00    -0.354 N 
ATOM      4  C   UNL A   1      31.848  27.351  26.149  1.00  0.00     0.242 C 
ATOM      5  O   UNL A   1      31.161  26.603  26.864  1.00  0.00    -0.273 OA
ATOM      6  H   UNL A   1      31.219  28.794  27.317  1.00  0.00     0.163 HD
BRANCH   4   7
ATOM      7  C   UNL A   1      32.757  26.737  25.030  1.00  0.00     0.173 C 
ATOM      8  N   UNL A   1      31.982  25.695  24.310  1.00  0.00    -0.344 N 
ATOM      9  C   UNL A   1      31.040  26.143  23.290  1.00  0.00     0.119 C 
ATOM     10  C   UNL A   1      31.747  26.959  22.215  1.00  0.00     0.022 C 
ATOM     11  C   UNL A   1      33.466  27.593  23.969  1.00  0.00     0.035 C 
ATOM     12  C   UNL A   1      32.566  28.083  22.834  1.00  0.00     0.004 C 
BRANCH   8  13
ATOM     13  C   UNL A   1      32.585  24.462  24.113  1.00  0.00     0.133 A 
ATOM     14  C   UNL A   1      34.406  23.083  24.307  1.00  0.00     0.161 A 
ATOM     15  N   UNL A   1      33.840  22.083  23.609  1.00  0.00    -0.233 NA
ATOM     16  N   UNL A   1      33.830  24.267  24.572  1.00  0.00    -0.211 NA
ATOM     17  C   UNL A   1      32.584  22.295  23.175  1.00  0.00     0.043 A 
ATOM     18  C   UNL A   1      31.950  21.191  22.386  1.00  0.00     0.067 C 
ATOM     19  C   UNL A   1      31.911  23.477  23.418  1.00  0.00     0.070 A 
BRANCH  14  20
ATOM     20  C   UNL A   1      35.751  22.859  24.840  1.00  0.00     0.019 A 
ATOM     21  C   UNL A   1      39.716  22.183  26.447  1.00  0.00     0.044 C 
ATOM     22  C   UNL A   1      38.342  22.424  25.898  1.00  0.00    -0.051 A 
ATOM     23  C   UNL A   1      37.715  21.442  25.122  1.00  0.00     0.004 A 
ATOM     24  C   UNL A   1      37.674  23.630  26.132  1.00  0.00     0.004 A 
ATOM     25  C   UNL A   1      36.432  21.653  24.611  1.00  0.00     0.012 A 
ATOM     26  C   UNL A   1      36.398  23.846  25.603  1.00  0.00     0.012 A 
ENDBRANCH  14  20
ENDBRANCH   8  13
ENDBRANCH   4   7
ENDBRANCH   2   3
ENDBRANCH   1   2
BRANCH   1  27
ATOM     27  C   UNL A   1      34.262  30.307  27.628  1.00  0.00     0.118 C 
BRANCH  27  28
ATOM     28  N   UNL A   1      34.798  31.147  28.698  1.00  0.00    -0.352 N 
ATOM     29  C   UNL A   1      35.983  30.985  29.407  1.00  0.00     0.251 C 
ATOM     30  H   UNL A   1      34.251  31.925  28.948  1.00  0.00     0.163 HD
ATOM     31  O   UNL A   1      36.359  31.806  30.219  1.00  0.00    -0.269 OA
BRANCH  29  32
ATOM     32  C   UNL A   1      36.834  29.831  29.045  1.00  0.00     0.039 A 
ATOM     33  C   UNL A   1      37.172  28.941  30.065  1.00  0.00     0.014 A 
ATOM     34  C   UNL A   1      37.541  29.862  27.846  1.00  0.00     0.014 A 
ATOM     35  C   UNL A   1      38.392  28.279  29.996  1.00  0.00     0.010 A 
ATOM     36  C   UNL A   1      38.794  29.280  27.817  1.00  0.00     0.010 A 
ATOM     37  C   UNL A   1      39.251  28.561  28.930  1.00  0.00    -0.014 A 
BRANCH  37  38
ATOM     38  C   UNL A   1      40.680  28.271  28.993  1.00  0.00     0.031 A 
ATOM     39  C   UNL A   1      41.215  27.020  28.421  1.00  0.00     0.074 A 
ATOM     40  C   UNL A   1      41.523  29.163  29.564  1.00  0.00     0.049 A 
ATOM     41  N   UNL A   1      42.276  26.419  28.844  1.00  0.00    -0.248 NA
ATOM     42  C   UNL A   1      40.547  26.315  27.336  1.00  0.00     0.031 C 
ATOM     43  C   UNL A   1      42.983  29.138  29.538  1.00  0.00     0.029 A 
ATOM     44  N   UNL A   1      41.207  30.194  30.470  1.00  0.00    -0.354 N 
ATOM     45  C   UNL A   1      42.581  25.417  27.947  1.00  0.00     0.074 A 
ATOM     46  C   UNL A   1      41.435  25.354  27.068  1.00  0.00     0.031 C 
ATOM     47  C   UNL A   1      43.445  29.855  30.574  1.00  0.00     0.029 A 
ATOM     48  C   UNL A   1      42.298  30.259  31.368  1.00  0.00     0.049 A 
ATOM     49  H   UNL A   1      40.397  30.754  30.477  1.00  0.00     0.167 HD
ATOM     50  C   UNL A   1      43.825  24.853  27.971  1.00  0.00     0.037 A 
ATOM     51  C   UNL A   1      42.147  30.024  32.703  1.00  0.00     0.037 A 
ATOM     52  C   UNL A   1      44.623  25.383  29.077  1.00  0.00     0.049 A 
ATOM     53  C   UNL A   1      42.971  28.872  33.225  1.00  0.00     0.074 A 
ATOM     54  C   UNL A   1      45.591  26.371  29.138  1.00  0.00     0.029 A 
ATOM     55  N   UNL A   1      44.258  25.109  30.391  1.00  0.00    -0.354 N 
ATOM     56  N   UNL A   1      43.527  27.975  32.459  1.00  0.00    -0.248 NA
ATOM     57  C   UNL A   1      43.180  28.600  34.645  1.00  0.00     0.031 C 
ATOM     58  C   UNL A   1      45.766  26.734  30.495  1.00  0.00     0.029 A 
ATOM     59  C   UNL A   1      44.920  25.954  31.262  1.00  0.00     0.049 A 
ATOM     60  H   UNL A   1      43.617  24.413  30.663  1.00  0.00     0.167 HD
ATOM     61  C   UNL A   1      44.100  27.006  33.237  1.00  0.00     0.074 A 
ATOM     62  C   UNL A   1      43.883  27.456  34.598  1.00  0.00     0.031 C 
ATOM     63  C   UNL A   1      44.679  25.896  32.694  1.00  0.00     0.037 A 
BRANCH  50  64
ATOM     64  C   UNL A   1      44.425  24.073  26.813  1.00  0.00     0.064 A 
ATOM     65  C   UNL A   1      44.073  22.722  26.590  1.00  0.00     0.173 A 
ATOM     66  C   UNL A   1      45.406  24.567  25.934  1.00  0.00     0.173 A 
ATOM     67  F   UNL A   1      43.052  22.148  27.238  1.00  0.00    -0.203 F 
ATOM     68  C   UNL A   1      44.755  21.904  25.685  1.00  0.00     0.198 A 
ATOM     69  C   UNL A   1      46.129  23.737  25.069  1.00  0.00     0.198 A 
ATOM     70  F   UNL A   1      45.651  25.877  25.828  1.00  0.00    -0.203 F 
ATOM     71  F   UNL A   1      44.384  20.624  25.534  1.00  0.00    -0.200 F 
ATOM     72  C   UNL A   1      45.816  22.399  24.959  1.00  0.00     0.200 A 
ATOM     73  F   UNL A   1      47.131  24.250  24.340  1.00  0.00    -0.200 F 
ATOM     74  F   UNL A   1      46.506  21.604  24.131  1.00  0.00    -0.200 F 
ENDBRANCH  50  64
BRANCH  51  75
ATOM     75  C   UNL A   1      40.821  30.425  33.232  1.00  0.00     0.064 A 
ATOM     76  C   UNL A   1      40.537  31.798  33.351  1.00  0.00     0.173 A 
ATOM     77  C   UNL A   1      39.743  29.534  33.273  1.00  0.00     0.173 A 
ATOM     78  F   UNL A   1      41.536  32.694  33.314  1.00  0.00    -0.203 F 
ATOM     79  C   UNL A   1      39.226  32.266  33.392  1.00  0.00     0.198 A 
ATOM     80  C   UNL A   1      38.430  30.006  33.328  1.00  0.00     0.198 A 
ATOM     81  F   UNL A   1      39.948  28.215  33.142  1.00  0.00    -0.203 F 
ATOM     82  F   UNL A   1      38.987  33.585  33.391  1.00  0.00    -0.200 F 
ATOM     83  C   UNL A   1      38.173  31.370  33.354  1.00  0.00     0.200 A 
ATOM     84  F   UNL A   1      37.409  29.141  33.262  1.00  0.00    -0.200 F 
ATOM     85  F   UNL A   1      36.911  31.821  33.298  1.00  0.00    -0.200 F 
ENDBRANCH  51  75
BRANCH  63  86
ATOM     86  C   UNL A   1      45.140  24.693  33.469  1.00  0.00     0.064 A 
ATOM     87  C   UNL A   1      44.319  23.588  33.747  1.00  0.00     0.173 A 
ATOM     88  C   UNL A   1      46.500  24.560  33.833  1.00  0.00     0.173 A 
ATOM     89  F   UNL A   1      43.037  23.561  33.356  1.00  0.00    -0.203 F 
ATOM     90  C   UNL A   1      44.810  22.451  34.392  1.00  0.00     0.198 A 
ATOM     91  C   UNL A   1      46.998  23.402  34.430  1.00  0.00     0.198 A 
ATOM     92  F   UNL A   1      47.383  25.541  33.597  1.00  0.00    -0.203 F 
ATOM     93  F   UNL A   1      43.981  21.434  34.669  1.00  0.00    -0.200 F 
ATOM     94  C   UNL A   1      46.150  22.353  34.721  1.00  0.00     0.200 A 
ATOM     95  F   UNL A   1      48.307  23.303  34.701  1.00  0.00    -0.200 F 
ATOM     96  F   UNL A   1      46.626  21.243  35.301  1.00  0.00    -0.200 F 
ENDBRANCH  63  86
ENDBRANCH  37  38
ENDBRANCH  29  32
ENDBRANCH  27  28
ENDBRANCH   1  27
TORSDOF 12
ENDMDL
