MODEL 1
REMARK VINA RESULT:     -12.7      0.000      0.000
REMARK SMILES O=C(C[C@H]1C[C@H]2CC[C@@H](C1)[N@H+]2C[C@@H]1CNC(=O)O1)NCCCNC(=O)c1ccc(-c2c3nc(c(-c4c(F)c(F)c(F)c(F)c4F)c4ccc([nH]4)c(-c4c(F)c(F)c(F)c(F)c4F)c4nc(c(-c5c(F)c(F)c(F)c(F)c5F)c5ccc2[nH]5)C=C4)C=C3)cc1
REMARK SMILES IDX 20 1 19 2 1 3 2 4 3 6 4 7 5 8 10 9 6 10 9 11 7 12 11 13 8 14
REMARK SMILES IDX 12 16 13 17 14 18 18 19 15 20 16 21 17 23 21 24 22 25 23 26
REMARK SMILES IDX 24 27 25 29 26 30 27 31 88 32 28 33 87 34 29 35 30 36 31 37
REMARK SMILES IDX 81 38 32 39 86 40 80 41 82 42 33 43 85 44 79 45 78 46 34 48
REMARK SMILES IDX 66 49 46 50 65 51 47 52 50 53 64 54 83 55 48 56 49 57 63 59
REMARK SMILES IDX 84 60 51 61 35 62 36 63 44 64 37 65 38 66 42 67 45 68 39 69
REMARK SMILES IDX 40 70 43 71 41 72 67 73 68 74 76 75 69 76 70 77 74 78 77 79
REMARK SMILES IDX 71 80 72 81 75 82 73 83 52 84 53 85 61 86 54 87 55 88 59 89
REMARK SMILES IDX 62 90 56 91 57 92 60 93 58 94
REMARK H PARENT 19 5 11 15 15 22 23 28 82 47 50 58
REMARK Flexibility Score: inf
ROOT
ATOM      1  C   UNL A   1      34.312  30.898  27.762  1.00  0.00     0.117 C 
ENDROOT
BRANCH   1   2
ATOM      2  N   UNL A   1      34.239  30.136  26.534  1.00  0.00    -0.356 N 
ATOM      3  O   UNL A   1      33.374  28.237  27.483  1.00  0.00    -0.275 OA
ATOM      4  C   UNL A   1      33.728  28.860  26.486  1.00  0.00     0.220 C 
ATOM      5  H   UNL A   1      34.567  30.548  25.703  1.00  0.00     0.163 HD
BRANCH   4   6
ATOM      6  C   UNL A   1      33.665  28.232  25.102  1.00  0.00     0.104 C 
BRANCH   6   7
ATOM      7  C   UNL A   1      32.713  28.937  24.125  1.00  0.00     0.010 C 
ATOM      8  C   UNL A   1      32.779  28.305  22.716  1.00  0.00     0.069 C 
ATOM      9  C   UNL A   1      31.293  29.138  24.719  1.00  0.00     0.069 C 
ATOM     10  C   UNL A   1      31.474  27.693  22.210  1.00  0.00     0.184 C 
ATOM     11  C   UNL A   1      30.179  28.397  23.993  1.00  0.00     0.184 C 
ATOM     12  C   UNL A   1      31.168  26.413  23.005  1.00  0.00     0.071 C 
ATOM     13  N   UNL A   1      30.324  28.500  22.553  1.00  0.00    -0.327 N 
ATOM     14  C   UNL A   1      30.351  26.886  24.208  1.00  0.00     0.071 C 
ATOM     15  H   UNL A   1      29.521  28.134  22.042  1.00  0.00     0.348 HD
BRANCH  13  16
ATOM     16  C   UNL A   1      29.876  29.667  21.814  1.00  0.00     0.310 C 
BRANCH  16  17
ATOM     17  C   UNL A   1      28.629  30.562  22.059  1.00  0.00     0.252 C 
ATOM     18  C   UNL A   1      27.993  31.249  20.869  1.00  0.00     0.170 C 
ATOM     19  O   UNL A   1      28.833  31.593  23.038  1.00  0.00    -0.438 OA
ATOM     20  N   UNL A   1      28.073  32.627  21.210  1.00  0.00    -0.318 N 
ATOM     21  C   UNL A   1      28.528  32.798  22.481  1.00  0.00     0.407 C 
ATOM     22  H   UNL A   1      27.831  33.363  20.604  1.00  0.00     0.167 HD
ATOM     23  O   UNL A   1      28.701  33.883  23.019  1.00  0.00    -0.225 OA
ENDBRANCH  16  17
ENDBRANCH  13  16
ENDBRANCH   6   7
ENDBRANCH   4   6
ENDBRANCH   1   2
BRANCH   1  24
ATOM     24  C   UNL A   1      34.077  32.382  27.515  1.00  0.00     0.042 C 
BRANCH  24  25
ATOM     25  C   UNL A   1      32.604  32.779  27.556  1.00  0.00     0.118 C 
BRANCH  25  26
ATOM     26  N   UNL A   1      32.403  34.203  27.798  1.00  0.00    -0.352 N 
ATOM     27  C   UNL A   1      33.020  35.043  28.693  1.00  0.00     0.251 C 
ATOM     28  H   UNL A   1      31.719  34.628  27.232  1.00  0.00     0.163 HD
ATOM     29  O   UNL A   1      32.590  36.178  28.880  1.00  0.00    -0.269 OA
BRANCH  27  30
ATOM     30  C   UNL A   1      34.199  34.579  29.456  1.00  0.00     0.039 A 
ATOM     31  C   UNL A   1      34.007  33.942  30.685  1.00  0.00     0.014 A 
ATOM     32  C   UNL A   1      35.492  34.776  28.967  1.00  0.00     0.014 A 
ATOM     33  C   UNL A   1      35.105  33.423  31.377  1.00  0.00     0.010 A 
ATOM     34  C   UNL A   1      36.575  34.187  29.614  1.00  0.00     0.010 A 
ATOM     35  C   UNL A   1      36.392  33.497  30.822  1.00  0.00    -0.014 A 
BRANCH  35  36
ATOM     36  C   UNL A   1      37.562  32.844  31.470  1.00  0.00     0.031 A 
ATOM     37  C   UNL A   1      38.222  31.660  30.821  1.00  0.00     0.074 A 
ATOM     38  C   UNL A   1      37.971  33.260  32.684  1.00  0.00     0.049 A 
ATOM     39  N   UNL A   1      39.165  30.879  31.283  1.00  0.00    -0.248 NA
ATOM     40  C   UNL A   1      37.738  31.288  29.481  1.00  0.00     0.031 C 
ATOM     41  C   UNL A   1      37.395  34.376  33.435  1.00  0.00     0.029 A 
ATOM     42  N   UNL A   1      38.957  32.780  33.512  1.00  0.00    -0.354 N 
ATOM     43  C   UNL A   1      39.375  29.918  30.304  1.00  0.00     0.074 A 
ATOM     44  C   UNL A   1      38.427  30.181  29.243  1.00  0.00     0.031 C 
ATOM     45  C   UNL A   1      38.043  34.504  34.603  1.00  0.00     0.029 A 
ATOM     46  C   UNL A   1      39.045  33.447  34.709  1.00  0.00     0.049 A 
ATOM     47  H   UNL A   1      39.545  32.027  33.270  1.00  0.00     0.167 HD
ATOM     48  C   UNL A   1      40.290  28.919  30.282  1.00  0.00     0.037 A 
ATOM     49  C   UNL A   1      39.828  33.221  35.782  1.00  0.00     0.037 A 
ATOM     50  C   UNL A   1      41.241  28.670  31.334  1.00  0.00     0.049 A 
ATOM     51  C   UNL A   1      40.808  32.077  35.751  1.00  0.00     0.074 A 
ATOM     52  C   UNL A   1      42.242  27.715  31.382  1.00  0.00     0.029 A 
ATOM     53  N   UNL A   1      41.305  29.375  32.527  1.00  0.00    -0.354 N 
ATOM     54  N   UNL A   1      41.040  31.213  34.794  1.00  0.00    -0.248 NA
ATOM     55  C   UNL A   1      41.635  31.878  36.949  1.00  0.00     0.031 C 
ATOM     56  C   UNL A   1      42.868  27.799  32.628  1.00  0.00     0.029 A 
ATOM     57  C   UNL A   1      42.307  28.854  33.330  1.00  0.00     0.049 A 
ATOM     58  H   UNL A   1      40.724  30.132  32.768  1.00  0.00     0.167 HD
ATOM     59  C   UNL A   1      42.062  30.395  35.256  1.00  0.00     0.074 A 
ATOM     60  C   UNL A   1      42.411  30.869  36.579  1.00  0.00     0.031 C 
ATOM     61  C   UNL A   1      42.660  29.348  34.638  1.00  0.00     0.037 A 
BRANCH  48  62
ATOM     62  C   UNL A   1      40.303  28.009  29.086  1.00  0.00     0.064 A 
ATOM     63  C   UNL A   1      41.063  28.302  27.943  1.00  0.00     0.173 A 
ATOM     64  C   UNL A   1      39.580  26.806  29.099  1.00  0.00     0.173 A 
ATOM     65  F   UNL A   1      41.768  29.442  27.874  1.00  0.00    -0.203 F 
ATOM     66  C   UNL A   1      41.074  27.442  26.848  1.00  0.00     0.198 A 
ATOM     67  C   UNL A   1      39.621  25.932  28.017  1.00  0.00     0.198 A 
ATOM     68  F   UNL A   1      38.843  26.471  30.168  1.00  0.00    -0.203 F 
ATOM     69  F   UNL A   1      41.765  27.770  25.748  1.00  0.00    -0.200 F 
ATOM     70  C   UNL A   1      40.360  26.254  26.889  1.00  0.00     0.200 A 
ATOM     71  F   UNL A   1      38.945  24.775  28.065  1.00  0.00    -0.200 F 
ATOM     72  F   UNL A   1      40.379  25.423  25.838  1.00  0.00    -0.200 F 
ENDBRANCH  48  62
BRANCH  49  73
ATOM     73  C   UNL A   1      39.723  34.099  36.979  1.00  0.00     0.064 A 
ATOM     74  C   UNL A   1      40.431  35.306  37.051  1.00  0.00     0.173 A 
ATOM     75  C   UNL A   1      38.926  33.745  38.079  1.00  0.00     0.173 A 
ATOM     76  F   UNL A   1      41.225  35.679  36.036  1.00  0.00    -0.203 F 
ATOM     77  C   UNL A   1      40.367  36.114  38.186  1.00  0.00     0.198 A 
ATOM     78  C   UNL A   1      38.835  34.570  39.199  1.00  0.00     0.198 A 
ATOM     79  F   UNL A   1      38.225  32.601  38.061  1.00  0.00    -0.203 F 
ATOM     80  F   UNL A   1      41.097  37.235  38.249  1.00  0.00    -0.200 F 
ATOM     81  C   UNL A   1      39.563  35.748  39.255  1.00  0.00     0.200 A 
ATOM     82  F   UNL A   1      38.046  34.220  40.224  1.00  0.00    -0.200 F 
ATOM     83  F   UNL A   1      39.501  36.526  40.345  1.00  0.00    -0.200 F 
ENDBRANCH  49  73
BRANCH  61  84
ATOM     84  C   UNL A   1      43.795  28.669  35.351  1.00  0.00     0.064 A 
ATOM     85  C   UNL A   1      45.128  29.058  35.163  1.00  0.00     0.173 A 
ATOM     86  C   UNL A   1      43.532  27.658  36.290  1.00  0.00     0.173 A 
ATOM     87  F   UNL A   1      45.435  30.007  34.267  1.00  0.00    -0.203 F 
ATOM     88  C   UNL A   1      46.158  28.451  35.878  1.00  0.00     0.198 A 
ATOM     89  C   UNL A   1      44.560  27.078  37.026  1.00  0.00     0.198 A 
ATOM     90  F   UNL A   1      42.272  27.252  36.513  1.00  0.00    -0.203 F 
ATOM     91  F   UNL A   1      47.430  28.810  35.654  1.00  0.00    -0.200 F 
ATOM     92  C   UNL A   1      45.872  27.470  36.816  1.00  0.00     0.200 A 
ATOM     93  F   UNL A   1      44.278  26.144  37.946  1.00  0.00    -0.200 F 
ATOM     94  F   UNL A   1      46.863  26.902  37.517  1.00  0.00    -0.200 F 
ENDBRANCH  61  84
ENDBRANCH  35  36
ENDBRANCH  27  30
ENDBRANCH  25  26
ENDBRANCH  24  25
ENDBRANCH   1  24
TORSDOF 13
ENDMDL
MODEL 2
REMARK VINA RESULT:     -12.7      3.999      5.813
REMARK SMILES O=C(C[C@H]1C[C@H]2CC[C@@H](C1)[N@H+]2C[C@@H]1CNC(=O)O1)NCCCNC(=O)c1ccc(-c2c3nc(c(-c4c(F)c(F)c(F)c(F)c4F)c4ccc([nH]4)c(-c4c(F)c(F)c(F)c(F)c4F)c4nc(c(-c5c(F)c(F)c(F)c(F)c5F)c5ccc2[nH]5)C=C4)C=C3)cc1
REMARK SMILES IDX 20 1 19 2 1 3 2 4 3 6 4 7 5 8 10 9 6 10 9 11 7 12 11 13 8 14
REMARK SMILES IDX 12 16 13 17 14 18 18 19 15 20 16 21 17 23 21 24 22 25 23 26
REMARK SMILES IDX 24 27 25 29 26 30 27 31 88 32 28 33 87 34 29 35 30 36 31 37
REMARK SMILES IDX 81 38 32 39 86 40 80 41 82 42 33 43 85 44 79 45 78 46 34 48
REMARK SMILES IDX 66 49 46 50 65 51 47 52 50 53 64 54 83 55 48 56 49 57 63 59
REMARK SMILES IDX 84 60 51 61 35 62 36 63 44 64 37 65 38 66 42 67 45 68 39 69
REMARK SMILES IDX 40 70 43 71 41 72 67 73 68 74 76 75 69 76 70 77 74 78 77 79
REMARK SMILES IDX 71 80 72 81 75 82 73 83 52 84 53 85 61 86 54 87 55 88 59 89
REMARK SMILES IDX 62 90 56 91 57 92 60 93 58 94
REMARK H PARENT 19 5 11 15 15 22 23 28 82 47 50 58
REMARK Flexibility Score: inf
ROOT
ATOM      1  C   UNL A   1      33.172  28.127  23.630  1.00  0.00     0.117 C 
ENDROOT
BRANCH   1   2
ATOM      2  N   UNL A   1      33.615  27.087  24.533  1.00  0.00    -0.356 N 
ATOM      3  O   UNL A   1      33.914  25.483  22.923  1.00  0.00    -0.275 OA
ATOM      4  C   UNL A   1      33.997  25.840  24.095  1.00  0.00     0.220 C 
ATOM      5  H   UNL A   1      33.644  27.280  25.498  1.00  0.00     0.163 HD
BRANCH   4   6
ATOM      6  C   UNL A   1      34.498  24.892  25.174  1.00  0.00     0.104 C 
BRANCH   6   7
ATOM      7  C   UNL A   1      34.579  23.421  24.742  1.00  0.00     0.010 C 
ATOM      8  C   UNL A   1      35.663  22.657  25.538  1.00  0.00     0.069 C 
ATOM      9  C   UNL A   1      33.183  22.746  24.666  1.00  0.00     0.069 C 
ATOM     10  C   UNL A   1      35.155  21.493  26.387  1.00  0.00     0.184 C 
ATOM     11  C   UNL A   1      32.966  21.600  25.643  1.00  0.00     0.184 C 
ATOM     12  C   UNL A   1      34.358  22.042  27.581  1.00  0.00     0.071 C 
ATOM     13  N   UNL A   1      34.128  20.733  25.711  1.00  0.00    -0.327 N 
ATOM     14  C   UNL A   1      32.920  22.155  27.075  1.00  0.00     0.071 C 
ATOM     15  H   UNL A   1      33.963  19.882  26.249  1.00  0.00     0.348 HD
BRANCH  13  16
ATOM     16  C   UNL A   1      34.374  19.695  24.724  1.00  0.00     0.310 C 
BRANCH  16  17
ATOM     17  C   UNL A   1      33.677  18.315  24.559  1.00  0.00     0.252 C 
ATOM     18  C   UNL A   1      32.813  17.807  25.694  1.00  0.00     0.170 C 
ATOM     19  O   UNL A   1      34.576  17.240  24.246  1.00  0.00    -0.438 OA
ATOM     20  N   UNL A   1      33.427  16.573  26.041  1.00  0.00    -0.318 N 
ATOM     21  C   UNL A   1      34.420  16.250  25.169  1.00  0.00     0.407 C 
ATOM     22  H   UNL A   1      33.167  16.023  26.814  1.00  0.00     0.167 HD
ATOM     23  O   UNL A   1      35.117  15.247  25.246  1.00  0.00    -0.225 OA
ENDBRANCH  16  17
ENDBRANCH  13  16
ENDBRANCH   6   7
ENDBRANCH   4   6
ENDBRANCH   1   2
BRANCH   1  24
ATOM     24  C   UNL A   1      32.445  29.240  24.371  1.00  0.00     0.042 C 
BRANCH  24  25
ATOM     25  C   UNL A   1      33.055  29.563  25.731  1.00  0.00     0.118 C 
BRANCH  25  26
ATOM     26  N   UNL A   1      32.680  30.882  26.227  1.00  0.00    -0.352 N 
ATOM     27  C   UNL A   1      33.258  31.657  27.204  1.00  0.00     0.251 C 
ATOM     28  H   UNL A   1      31.889  31.279  25.795  1.00  0.00     0.163 HD
ATOM     29  O   UNL A   1      32.694  32.666  27.613  1.00  0.00    -0.269 OA
BRANCH  27  30
ATOM     30  C   UNL A   1      34.563  31.268  27.784  1.00  0.00     0.039 A 
ATOM     31  C   UNL A   1      35.572  32.228  27.894  1.00  0.00     0.014 A 
ATOM     32  C   UNL A   1      34.795  29.959  28.213  1.00  0.00     0.014 A 
ATOM     33  C   UNL A   1      36.779  31.899  28.516  1.00  0.00     0.010 A 
ATOM     34  C   UNL A   1      35.963  29.655  28.906  1.00  0.00     0.010 A 
ATOM     35  C   UNL A   1      36.965  30.623  29.073  1.00  0.00    -0.014 A 
BRANCH  35  36
ATOM     36  C   UNL A   1      38.185  30.280  29.853  1.00  0.00     0.031 A 
ATOM     37  C   UNL A   1      39.180  29.296  29.304  1.00  0.00     0.074 A 
ATOM     38  C   UNL A   1      38.349  30.784  31.091  1.00  0.00     0.049 A 
ATOM     39  N   UNL A   1      40.232  28.772  29.880  1.00  0.00    -0.248 NA
ATOM     40  C   UNL A   1      38.946  28.816  27.933  1.00  0.00     0.031 C 
ATOM     41  C   UNL A   1      37.441  31.722  31.750  1.00  0.00     0.029 A 
ATOM     42  N   UNL A   1      39.330  30.562  32.027  1.00  0.00    -0.354 N 
ATOM     43  C   UNL A   1      40.774  27.893  28.952  1.00  0.00     0.074 A 
ATOM     44  C   UNL A   1      39.906  27.915  27.794  1.00  0.00     0.031 C 
ATOM     45  C   UNL A   1      37.911  32.006  32.975  1.00  0.00     0.029 A 
ATOM     46  C   UNL A   1      39.125  31.230  33.210  1.00  0.00     0.049 A 
ATOM     47  H   UNL A   1      40.107  29.978  31.865  1.00  0.00     0.167 HD
ATOM     48  C   UNL A   1      41.903  27.151  29.050  1.00  0.00     0.037 A 
ATOM     49  C   UNL A   1      39.823  31.204  34.362  1.00  0.00     0.037 A 
ATOM     50  C   UNL A   1      42.771  27.145  30.198  1.00  0.00     0.049 A 
ATOM     51  C   UNL A   1      41.052  30.338  34.460  1.00  0.00     0.074 A 
ATOM     52  C   UNL A   1      43.964  26.467  30.372  1.00  0.00     0.029 A 
ATOM     53  N   UNL A   1      42.534  27.844  31.374  1.00  0.00    -0.354 N 
ATOM     54  N   UNL A   1      41.588  29.558  33.554  1.00  0.00    -0.248 NA
ATOM     55  C   UNL A   1      41.772  30.349  35.741  1.00  0.00     0.031 C 
ATOM     56  C   UNL A   1      44.417  26.703  31.674  1.00  0.00     0.029 A 
ATOM     57  C   UNL A   1      43.543  27.586  32.287  1.00  0.00     0.049 A 
ATOM     58  H   UNL A   1      41.762  28.433  31.535  1.00  0.00     0.167 HD
ATOM     59  C   UNL A   1      42.726  29.018  34.139  1.00  0.00     0.074 A 
ATOM     60  C   UNL A   1      42.807  29.563  35.477  1.00  0.00     0.031 C 
ATOM     61  C   UNL A   1      43.624  28.151  33.611  1.00  0.00     0.037 A 
BRANCH  48  62
ATOM     62  C   UNL A   1      42.265  26.274  27.884  1.00  0.00     0.064 A 
ATOM     63  C   UNL A   1      41.692  25.005  27.709  1.00  0.00     0.173 A 
ATOM     64  C   UNL A   1      43.164  26.725  26.906  1.00  0.00     0.173 A 
ATOM     65  F   UNL A   1      40.831  24.520  28.618  1.00  0.00    -0.203 F 
ATOM     66  C   UNL A   1      42.029  24.209  26.617  1.00  0.00     0.198 A 
ATOM     67  C   UNL A   1      43.472  25.942  25.797  1.00  0.00     0.198 A 
ATOM     68  F   UNL A   1      43.737  27.933  27.018  1.00  0.00    -0.203 F 
ATOM     69  F   UNL A   1      41.509  22.980  26.500  1.00  0.00    -0.200 F 
ATOM     70  C   UNL A   1      42.912  24.681  25.658  1.00  0.00     0.200 A 
ATOM     71  F   UNL A   1      44.312  26.408  24.861  1.00  0.00    -0.200 F 
ATOM     72  F   UNL A   1      43.228  23.919  24.602  1.00  0.00    -0.200 F 
ENDBRANCH  48  62
BRANCH  49  73
ATOM     73  C   UNL A   1      39.380  32.028  35.519  1.00  0.00     0.064 A 
ATOM     74  C   UNL A   1      39.826  33.348  35.676  1.00  0.00     0.173 A 
ATOM     75  C   UNL A   1      38.517  31.512  36.498  1.00  0.00     0.173 A 
ATOM     76  F   UNL A   1      40.670  33.880  34.780  1.00  0.00    -0.203 F 
ATOM     77  C   UNL A   1      39.445  34.111  36.778  1.00  0.00     0.198 A 
ATOM     78  C   UNL A   1      38.109  32.288  37.581  1.00  0.00     0.198 A 
ATOM     79  F   UNL A   1      38.058  30.255  36.395  1.00  0.00    -0.203 F 
ATOM     80  F   UNL A   1      39.930  35.351  36.931  1.00  0.00    -0.200 F 
ATOM     81  C   UNL A   1      38.581  33.583  37.726  1.00  0.00     0.200 A 
ATOM     82  F   UNL A   1      37.263  31.779  38.487  1.00  0.00    -0.200 F 
ATOM     83  F   UNL A   1      38.215  34.318  38.784  1.00  0.00    -0.200 F 
ENDBRANCH  49  73
BRANCH  61  84
ATOM     84  C   UNL A   1      44.810  27.774  34.453  1.00  0.00     0.064 A 
ATOM     85  C   UNL A   1      46.006  28.503  34.419  1.00  0.00     0.173 A 
ATOM     86  C   UNL A   1      44.718  26.704  35.359  1.00  0.00     0.173 A 
ATOM     87  F   UNL A   1      46.152  29.524  33.562  1.00  0.00    -0.203 F 
ATOM     88  C   UNL A   1      47.072  28.168  35.251  1.00  0.00     0.198 A 
ATOM     89  C   UNL A   1      45.773  26.393  36.211  1.00  0.00     0.198 A 
ATOM     90  F   UNL A   1      43.593  25.977  35.436  1.00  0.00    -0.203 F 
ATOM     91  F   UNL A   1      48.221  28.853  35.174  1.00  0.00    -0.200 F 
ATOM     92  C   UNL A   1      46.951  27.121  36.154  1.00  0.00     0.200 A 
ATOM     93  F   UNL A   1      45.645  25.393  37.096  1.00  0.00    -0.200 F 
ATOM     94  F   UNL A   1      47.971  26.812  36.966  1.00  0.00    -0.200 F 
ENDBRANCH  61  84
ENDBRANCH  35  36
ENDBRANCH  27  30
ENDBRANCH  25  26
ENDBRANCH  24  25
ENDBRANCH   1  24
TORSDOF 13
ENDMDL
MODEL 3
REMARK VINA RESULT:     -12.7      6.290     11.396
REMARK SMILES O=C(C[C@H]1C[C@H]2CC[C@@H](C1)[N@H+]2C[C@@H]1CNC(=O)O1)NCCCNC(=O)c1ccc(-c2c3nc(c(-c4c(F)c(F)c(F)c(F)c4F)c4ccc([nH]4)c(-c4c(F)c(F)c(F)c(F)c4F)c4nc(c(-c5c(F)c(F)c(F)c(F)c5F)c5ccc2[nH]5)C=C4)C=C3)cc1
REMARK SMILES IDX 20 1 19 2 1 3 2 4 3 6 4 7 5 8 10 9 6 10 9 11 7 12 11 13 8 14
REMARK SMILES IDX 12 16 13 17 14 18 18 19 15 20 16 21 17 23 21 24 22 25 23 26
REMARK SMILES IDX 24 27 25 29 26 30 27 31 88 32 28 33 87 34 29 35 30 36 31 37
REMARK SMILES IDX 81 38 32 39 86 40 80 41 82 42 33 43 85 44 79 45 78 46 34 48
REMARK SMILES IDX 66 49 46 50 65 51 47 52 50 53 64 54 83 55 48 56 49 57 63 59
REMARK SMILES IDX 84 60 51 61 35 62 36 63 44 64 37 65 38 66 42 67 45 68 39 69
REMARK SMILES IDX 40 70 43 71 41 72 67 73 68 74 76 75 69 76 70 77 74 78 77 79
REMARK SMILES IDX 71 80 72 81 75 82 73 83 52 84 53 85 61 86 54 87 55 88 59 89
REMARK SMILES IDX 62 90 56 91 57 92 60 93 58 94
REMARK H PARENT 19 5 11 15 15 22 23 28 82 47 50 58
REMARK Flexibility Score: inf
ROOT
ATOM      1  C   UNL A   1      36.875  19.342  24.999  1.00  0.00     0.117 C 
ENDROOT
BRANCH   1   2
ATOM      2  N   UNL A   1      35.784  20.257  25.256  1.00  0.00    -0.356 N 
ATOM      3  O   UNL A   1      34.128  18.885  24.463  1.00  0.00    -0.275 OA
ATOM      4  C   UNL A   1      34.471  19.933  25.002  1.00  0.00     0.220 C 
ATOM      5  H   UNL A   1      35.990  21.145  25.628  1.00  0.00     0.163 HD
BRANCH   4   6
ATOM      6  C   UNL A   1      33.449  20.988  25.395  1.00  0.00     0.104 C 
BRANCH   6   7
ATOM      7  C   UNL A   1      33.738  22.393  24.847  1.00  0.00     0.010 C 
ATOM      8  C   UNL A   1      32.633  22.857  23.870  1.00  0.00     0.069 C 
ATOM      9  C   UNL A   1      34.132  23.397  25.962  1.00  0.00     0.069 C 
ATOM     10  C   UNL A   1      31.868  24.110  24.295  1.00  0.00     0.184 C 
ATOM     11  C   UNL A   1      33.168  24.559  26.155  1.00  0.00     0.184 C 
ATOM     12  C   UNL A   1      30.968  23.776  25.495  1.00  0.00     0.071 C 
ATOM     13  N   UNL A   1      32.735  25.105  24.882  1.00  0.00    -0.327 N 
ATOM     14  C   UNL A   1      31.843  24.030  26.723  1.00  0.00     0.071 C 
ATOM     15  H   UNL A   1      32.201  25.969  24.978  1.00  0.00     0.348 HD
BRANCH  13  16
ATOM     16  C   UNL A   1      33.546  26.050  24.133  1.00  0.00     0.310 C 
BRANCH  16  17
ATOM     17  C   UNL A   1      33.229  26.762  22.788  1.00  0.00     0.252 C 
ATOM     18  C   UNL A   1      31.780  27.039  22.446  1.00  0.00     0.170 C 
ATOM     19  O   UNL A   1      33.781  26.108  21.636  1.00  0.00    -0.438 OA
ATOM     20  N   UNL A   1      31.601  26.348  21.217  1.00  0.00    -0.318 N 
ATOM     21  C   UNL A   1      32.778  25.849  20.751  1.00  0.00     0.407 C 
ATOM     22  H   UNL A   1      30.735  26.244  20.761  1.00  0.00     0.167 HD
ATOM     23  O   UNL A   1      32.902  25.203  19.719  1.00  0.00    -0.225 OA
ENDBRANCH  16  17
ENDBRANCH  13  16
ENDBRANCH   6   7
ENDBRANCH   4   6
ENDBRANCH   1   2
BRANCH   1  24
ATOM     24  C   UNL A   1      38.152  20.084  24.631  1.00  0.00     0.042 C 
BRANCH  24  25
ATOM     25  C   UNL A   1      39.102  20.278  25.809  1.00  0.00     0.118 C 
BRANCH  25  26
ATOM     26  N   UNL A   1      40.076  19.201  25.943  1.00  0.00    -0.352 N 
ATOM     27  C   UNL A   1      41.437  19.258  26.124  1.00  0.00     0.251 C 
ATOM     28  H   UNL A   1      39.700  18.293  25.895  1.00  0.00     0.163 HD
ATOM     29  O   UNL A   1      42.119  18.242  26.032  1.00  0.00    -0.269 OA
BRANCH  27  30
ATOM     30  C   UNL A   1      42.094  20.551  26.413  1.00  0.00     0.039 A 
ATOM     31  C   UNL A   1      42.402  21.409  25.353  1.00  0.00     0.014 A 
ATOM     32  C   UNL A   1      42.414  20.916  27.722  1.00  0.00     0.014 A 
ATOM     33  C   UNL A   1      42.946  22.669  25.616  1.00  0.00     0.010 A 
ATOM     34  C   UNL A   1      42.878  22.202  27.989  1.00  0.00     0.010 A 
ATOM     35  C   UNL A   1      43.141  23.096  26.940  1.00  0.00    -0.014 A 
BRANCH  35  36
ATOM     36  C   UNL A   1      43.597  24.475  27.259  1.00  0.00     0.031 A 
ATOM     37  C   UNL A   1      42.623  25.490  27.787  1.00  0.00     0.074 A 
ATOM     38  C   UNL A   1      44.865  24.839  26.986  1.00  0.00     0.049 A 
ATOM     39  N   UNL A   1      42.794  26.770  28.004  1.00  0.00    -0.248 NA
ATOM     40  C   UNL A   1      41.266  25.007  28.089  1.00  0.00     0.031 C 
ATOM     41  C   UNL A   1      45.899  23.958  26.442  1.00  0.00     0.029 A 
ATOM     42  N   UNL A   1      45.498  26.052  27.112  1.00  0.00    -0.354 N 
ATOM     43  C   UNL A   1      41.568  27.246  28.450  1.00  0.00     0.074 A 
ATOM     44  C   UNL A   1      40.647  26.130  28.424  1.00  0.00     0.031 C 
ATOM     45  C   UNL A   1      47.037  24.654  26.293  1.00  0.00     0.029 A 
ATOM     46  C   UNL A   1      46.802  26.041  26.679  1.00  0.00     0.049 A 
ATOM     47  H   UNL A   1      45.057  26.854  27.477  1.00  0.00     0.167 HD
ATOM     48  C   UNL A   1      41.245  28.495  28.862  1.00  0.00     0.037 A 
ATOM     49  C   UNL A   1      47.700  27.041  26.583  1.00  0.00     0.037 A 
ATOM     50  C   UNL A   1      42.169  29.599  28.899  1.00  0.00     0.049 A 
ATOM     51  C   UNL A   1      47.304  28.431  27.008  1.00  0.00     0.074 A 
ATOM     52  C   UNL A   1      41.951  30.889  29.349  1.00  0.00     0.029 A 
ATOM     53  N   UNL A   1      43.485  29.545  28.462  1.00  0.00    -0.354 N 
ATOM     54  N   UNL A   1      46.160  28.855  27.485  1.00  0.00    -0.248 NA
ATOM     55  C   UNL A   1      48.325  29.480  26.880  1.00  0.00     0.031 C 
ATOM     56  C   UNL A   1      43.113  31.633  29.124  1.00  0.00     0.029 A 
ATOM     57  C   UNL A   1      44.079  30.789  28.602  1.00  0.00     0.049 A 
ATOM     58  H   UNL A   1      43.930  28.743  28.104  1.00  0.00     0.167 HD
ATOM     59  C   UNL A   1      46.334  30.207  27.751  1.00  0.00     0.074 A 
ATOM     60  C   UNL A   1      47.697  30.533  27.388  1.00  0.00     0.031 C 
ATOM     61  C   UNL A   1      45.445  31.096  28.255  1.00  0.00     0.037 A 
BRANCH  48  62
ATOM     62  C   UNL A   1      39.829  28.743  29.299  1.00  0.00     0.064 A 
ATOM     63  C   UNL A   1      38.840  29.166  28.396  1.00  0.00     0.173 A 
ATOM     64  C   UNL A   1      39.444  28.512  30.628  1.00  0.00     0.173 A 
ATOM     65  F   UNL A   1      39.155  29.409  27.114  1.00  0.00    -0.203 F 
ATOM     66  C   UNL A   1      37.530  29.379  28.815  1.00  0.00     0.198 A 
ATOM     67  C   UNL A   1      38.125  28.692  31.036  1.00  0.00     0.198 A 
ATOM     68  F   UNL A   1      40.345  28.099  31.532  1.00  0.00    -0.203 F 
ATOM     69  F   UNL A   1      36.616  29.834  27.947  1.00  0.00    -0.200 F 
ATOM     70  C   UNL A   1      37.171  29.134  30.132  1.00  0.00     0.200 A 
ATOM     71  F   UNL A   1      37.776  28.436  32.305  1.00  0.00    -0.200 F 
ATOM     72  F   UNL A   1      35.907  29.330  30.532  1.00  0.00    -0.200 F 
ENDBRANCH  48  62
BRANCH  49  73
ATOM     73  C   UNL A   1      49.068  26.765  26.067  1.00  0.00     0.064 A 
ATOM     74  C   UNL A   1      49.389  26.990  24.721  1.00  0.00     0.173 A 
ATOM     75  C   UNL A   1      50.077  26.259  26.900  1.00  0.00     0.173 A 
ATOM     76  F   UNL A   1      48.453  27.451  23.878  1.00  0.00    -0.203 F 
ATOM     77  C   UNL A   1      50.657  26.697  24.223  1.00  0.00     0.198 A 
ATOM     78  C   UNL A   1      51.356  25.999  26.409  1.00  0.00     0.198 A 
ATOM     79  F   UNL A   1      49.825  26.028  28.197  1.00  0.00    -0.203 F 
ATOM     80  F   UNL A   1      50.919  26.871  22.920  1.00  0.00    -0.200 F 
ATOM     81  C   UNL A   1      51.641  26.209  25.068  1.00  0.00     0.200 A 
ATOM     82  F   UNL A   1      52.308  25.541  27.233  1.00  0.00    -0.200 F 
ATOM     83  F   UNL A   1      52.861  25.929  24.589  1.00  0.00    -0.200 F 
ENDBRANCH  49  73
BRANCH  61  84
ATOM     84  C   UNL A   1      45.922  32.500  28.502  1.00  0.00     0.064 A 
ATOM     85  C   UNL A   1      46.517  32.879  29.713  1.00  0.00     0.173 A 
ATOM     86  C   UNL A   1      45.843  33.460  27.480  1.00  0.00     0.173 A 
ATOM     87  F   UNL A   1      46.603  32.005  30.727  1.00  0.00    -0.203 F 
ATOM     88  C   UNL A   1      47.003  34.171  29.898  1.00  0.00     0.198 A 
ATOM     89  C   UNL A   1      46.359  34.740  27.656  1.00  0.00     0.198 A 
ATOM     90  F   UNL A   1      45.288  33.147  26.299  1.00  0.00    -0.203 F 
ATOM     91  F   UNL A   1      47.531  34.525  31.077  1.00  0.00    -0.200 F 
ATOM     92  C   UNL A   1      46.933  35.097  28.866  1.00  0.00     0.200 A 
ATOM     93  F   UNL A   1      46.309  35.625  26.651  1.00  0.00    -0.200 F 
ATOM     94  F   UNL A   1      47.419  36.334  29.039  1.00  0.00    -0.200 F 
ENDBRANCH  61  84
ENDBRANCH  35  36
ENDBRANCH  27  30
ENDBRANCH  25  26
ENDBRANCH  24  25
ENDBRANCH   1  24
TORSDOF 13
ENDMDL
