MODEL 1
REMARK VINA RESULT:     -12.6      0.000      0.000
REMARK SMILES CC(=O)NS(=O)(=O)c1cc(-c2ccn(C(F)F)c(=O)c2)ccc1C(=O)NCCCNC(=O)c1ccc(-c2c3nc(c(-c4c(F)c(F)c(F)c(F)c4F)c4ccc([nH]4)c(-c4c(F)c(F)c(F)c(F)c4F)c4nc(c(-c5c(F)c(F)c(F)c(F)c5F)c5ccc2[nH]5)C=C4)C=C3)cc1
REMARK SMILES IDX 28 1 27 2 26 3 24 4 25 5 23 7 8 8 9 9 10 10 22 11 21 12 5 13
REMARK SMILES IDX 6 14 7 15 4 16 1 17 2 18 3 19 11 21 12 22 20 23 13 24 18 25
REMARK SMILES IDX 14 26 19 27 15 28 16 29 17 30 29 31 30 32 31 33 32 35 33 36
REMARK SMILES IDX 34 37 95 38 35 39 94 40 36 41 37 42 38 43 88 44 39 45 93 46
REMARK SMILES IDX 87 47 89 48 40 49 92 50 86 51 85 52 41 54 73 55 53 56 72 57
REMARK SMILES IDX 54 58 57 59 71 60 90 61 55 62 56 63 70 65 91 66 58 67 42 68
REMARK SMILES IDX 43 69 51 70 44 71 45 72 49 73 52 74 46 75 47 76 50 77 48 78
REMARK SMILES IDX 74 79 75 80 83 81 76 82 77 83 81 84 84 85 78 86 79 87 82 88
REMARK SMILES IDX 80 89 59 90 60 91 68 92 61 93 62 94 66 95 69 96 63 97 64 98
REMARK SMILES IDX 67 99 65 100
REMARK H PARENT 26 6 4 20 30 34 89 53 57 64
REMARK Flexibility Score: inf
ROOT
ATOM      1  C   UNL A   1      32.553  29.254  25.964  1.00  0.00     0.042 C 
ENDROOT
BRANCH   1   2
ATOM      2  C   UNL A   1      33.034  28.850  24.565  1.00  0.00     0.118 C 
BRANCH   2   3
ATOM      3  N   UNL A   1      31.925  28.851  23.630  1.00  0.00    -0.352 N 
ATOM      4  C   UNL A   1      31.411  27.910  22.789  1.00  0.00     0.252 C 
ATOM      5  O   UNL A   1      30.448  28.223  22.088  1.00  0.00    -0.269 OA
ATOM      6  H   UNL A   1      31.445  29.709  23.595  1.00  0.00     0.163 HD
BRANCH   4   7
ATOM      7  C   UNL A   1      31.848  26.497  22.729  1.00  0.00     0.060 A 
ATOM      8  C   UNL A   1      31.492  25.483  23.625  1.00  0.00     0.101 A 
ATOM      9  C   UNL A   1      32.248  24.300  23.682  1.00  0.00     0.031 A 
ATOM     10  C   UNL A   1      33.419  24.163  22.928  1.00  0.00    -0.017 A 
ATOM     11  C   UNL A   1      32.953  26.283  21.875  1.00  0.00     0.016 A 
ATOM     12  C   UNL A   1      33.743  25.134  21.984  1.00  0.00     0.009 A 
BRANCH   8  13
ATOM     13  S   UNL A   1      30.250  25.725  24.852  1.00  0.00     0.264 S 
ATOM     14  O   UNL A   1      29.027  26.027  24.143  1.00  0.00    -0.201 OA
ATOM     15  O   UNL A   1      30.779  26.568  25.895  1.00  0.00    -0.201 OA
BRANCH  13  16
ATOM     16  N   UNL A   1      29.959  24.222  25.513  1.00  0.00    -0.249 N 
ATOM     17  C   UNL A   1      31.942  23.850  26.969  1.00  0.00     0.115 C 
ATOM     18  C   UNL A   1      30.459  23.765  26.741  1.00  0.00     0.230 C 
ATOM     19  O   UNL A   1      29.718  23.134  27.481  1.00  0.00    -0.274 OA
ATOM     20  H   UNL A   1      29.390  23.605  24.999  1.00  0.00     0.183 HD
ENDBRANCH  13  16
ENDBRANCH   8  13
BRANCH  10  21
ATOM     21  C   UNL A   1      34.411  23.163  23.368  1.00  0.00    -0.011 A 
ATOM     22  C   UNL A   1      35.827  23.386  23.130  1.00  0.00     0.027 A 
ATOM     23  C   UNL A   1      34.031  22.123  24.128  1.00  0.00     0.080 A 
ATOM     24  C   UNL A   1      36.748  22.610  23.709  1.00  0.00     0.095 A 
ATOM     25  C   UNL A   1      35.049  21.223  24.749  1.00  0.00     0.255 A 
ATOM     26  N   UNL A   1      36.375  21.555  24.519  1.00  0.00    -0.258 N 
ATOM     27  O   UNL A   1      34.655  20.290  25.439  1.00  0.00    -0.269 OA
BRANCH  26  28
ATOM     28  C   UNL A   1      37.379  20.755  25.175  1.00  0.00     0.451 C 
ATOM     29  F   UNL A   1      37.814  19.764  24.360  1.00  0.00    -0.185 F 
ATOM     30  F   UNL A   1      38.446  21.507  25.535  1.00  0.00    -0.185 F 
ENDBRANCH  26  28
ENDBRANCH  10  21
ENDBRANCH   4   7
ENDBRANCH   2   3
ENDBRANCH   1   2
BRANCH   1  31
ATOM     31  C   UNL A   1      33.655  29.248  27.024  1.00  0.00     0.118 C 
BRANCH  31  32
ATOM     32  N   UNL A   1      33.742  30.535  27.695  1.00  0.00    -0.352 N 
ATOM     33  C   UNL A   1      34.681  31.024  28.568  1.00  0.00     0.251 C 
ATOM     34  H   UNL A   1      33.006  31.156  27.491  1.00  0.00     0.163 HD
ATOM     35  O   UNL A   1      34.405  32.016  29.240  1.00  0.00    -0.269 OA
BRANCH  33  36
ATOM     36  C   UNL A   1      36.022  30.406  28.713  1.00  0.00     0.039 A 
ATOM     37  C   UNL A   1      36.294  29.672  29.875  1.00  0.00     0.014 A 
ATOM     38  C   UNL A   1      37.053  30.648  27.801  1.00  0.00     0.014 A 
ATOM     39  C   UNL A   1      37.581  29.179  30.120  1.00  0.00     0.010 A 
ATOM     40  C   UNL A   1      38.326  30.110  28.017  1.00  0.00     0.010 A 
ATOM     41  C   UNL A   1      38.610  29.395  29.191  1.00  0.00    -0.014 A 
BRANCH  41  42
ATOM     42  C   UNL A   1      40.002  28.952  29.468  1.00  0.00     0.031 A 
ATOM     43  C   UNL A   1      40.935  29.845  30.241  1.00  0.00     0.074 A 
ATOM     44  C   UNL A   1      40.454  27.777  28.989  1.00  0.00     0.049 A 
ATOM     45  N   UNL A   1      42.213  29.698  30.488  1.00  0.00    -0.248 NA
ATOM     46  C   UNL A   1      40.357  31.083  30.787  1.00  0.00     0.031 C 
ATOM     47  C   UNL A   1      39.673  26.830  28.197  1.00  0.00     0.029 A 
ATOM     48  N   UNL A   1      41.693  27.193  29.089  1.00  0.00    -0.354 N 
ATOM     49  C   UNL A   1      42.601  30.845  31.168  1.00  0.00     0.074 A 
ATOM     50  C   UNL A   1      41.426  31.682  31.291  1.00  0.00     0.031 C 
ATOM     51  C   UNL A   1      40.449  25.778  27.885  1.00  0.00     0.029 A 
ATOM     52  C   UNL A   1      41.786  25.990  28.436  1.00  0.00     0.049 A 
ATOM     53  H   UNL A   1      42.443  27.599  29.581  1.00  0.00     0.167 HD
ATOM     54  C   UNL A   1      43.824  31.171  31.651  1.00  0.00     0.037 A 
ATOM     55  C   UNL A   1      42.832  25.154  28.290  1.00  0.00     0.037 A 
ATOM     56  C   UNL A   1      44.981  30.319  31.597  1.00  0.00     0.049 A 
ATOM     57  C   UNL A   1      44.156  25.497  28.912  1.00  0.00     0.074 A 
ATOM     58  C   UNL A   1      46.241  30.536  32.127  1.00  0.00     0.029 A 
ATOM     59  N   UNL A   1      45.012  29.075  30.986  1.00  0.00    -0.354 N 
ATOM     60  N   UNL A   1      44.503  26.571  29.575  1.00  0.00    -0.248 NA
ATOM     61  C   UNL A   1      45.233  24.505  28.768  1.00  0.00     0.031 C 
ATOM     62  C   UNL A   1      47.041  29.427  31.823  1.00  0.00     0.029 A 
ATOM     63  C   UNL A   1      46.271  28.513  31.123  1.00  0.00     0.049 A 
ATOM     64  H   UNL A   1      44.253  28.654  30.522  1.00  0.00     0.167 HD
ATOM     65  C   UNL A   1      45.832  26.386  29.933  1.00  0.00     0.074 A 
ATOM     66  C   UNL A   1      46.227  25.089  29.426  1.00  0.00     0.031 C 
ATOM     67  C   UNL A   1      46.649  27.222  30.615  1.00  0.00     0.037 A 
BRANCH  54  68
ATOM     68  C   UNL A   1      43.973  32.523  32.279  1.00  0.00     0.064 A 
ATOM     69  C   UNL A   1      43.743  32.729  33.646  1.00  0.00     0.173 A 
ATOM     70  C   UNL A   1      44.366  33.622  31.501  1.00  0.00     0.173 A 
ATOM     71  F   UNL A   1      43.351  31.710  34.425  1.00  0.00    -0.203 F 
ATOM     72  C   UNL A   1      43.876  33.995  34.208  1.00  0.00     0.198 A 
ATOM     73  C   UNL A   1      44.518  34.882  32.071  1.00  0.00     0.198 A 
ATOM     74  F   UNL A   1      44.601  33.473  30.189  1.00  0.00    -0.203 F 
ATOM     75  F   UNL A   1      43.610  34.180  35.509  1.00  0.00    -0.200 F 
ATOM     76  C   UNL A   1      44.266  35.070  33.423  1.00  0.00     0.200 A 
ATOM     77  F   UNL A   1      44.899  35.919  31.312  1.00  0.00    -0.200 F 
ATOM     78  F   UNL A   1      44.391  36.288  33.966  1.00  0.00    -0.200 F 
ENDBRANCH  54  68
BRANCH  55  79
ATOM     79  C   UNL A   1      42.655  23.896  27.530  1.00  0.00     0.064 A 
ATOM     80  C   UNL A   1      42.154  22.747  28.156  1.00  0.00     0.173 A 
ATOM     81  C   UNL A   1      42.960  23.823  26.165  1.00  0.00     0.173 A 
ATOM     82  F   UNL A   1      41.871  22.768  29.466  1.00  0.00    -0.203 F 
ATOM     83  C   UNL A   1      41.966  21.566  27.441  1.00  0.00     0.198 A 
ATOM     84  C   UNL A   1      42.759  22.647  25.448  1.00  0.00     0.198 A 
ATOM     85  F   UNL A   1      43.445  24.899  25.528  1.00  0.00    -0.203 F 
ATOM     86  F   UNL A   1      41.506  20.473  28.064  1.00  0.00    -0.200 F 
ATOM     87  C   UNL A   1      42.263  21.519  26.087  1.00  0.00     0.200 A 
ATOM     88  F   UNL A   1      43.044  22.603  24.139  1.00  0.00    -0.200 F 
ATOM     89  F   UNL A   1      42.079  20.383  25.398  1.00  0.00    -0.200 F 
ENDBRANCH  55  79
BRANCH  67  90
ATOM     90  C   UNL A   1      48.050  26.756  30.867  1.00  0.00     0.064 A 
ATOM     91  C   UNL A   1      49.094  27.093  29.994  1.00  0.00     0.173 A 
ATOM     92  C   UNL A   1      48.357  26.005  32.011  1.00  0.00     0.173 A 
ATOM     93  F   UNL A   1      48.842  27.797  28.881  1.00  0.00    -0.203 F 
ATOM     94  C   UNL A   1      50.399  26.684  30.253  1.00  0.00     0.198 A 
ATOM     95  C   UNL A   1      49.667  25.611  32.273  1.00  0.00     0.198 A 
ATOM     96  F   UNL A   1      47.391  25.661  32.874  1.00  0.00    -0.203 F 
ATOM     97  F   UNL A   1      51.380  26.996  29.394  1.00  0.00    -0.200 F 
ATOM     98  C   UNL A   1      50.685  25.949  31.394  1.00  0.00     0.200 A 
ATOM     99  F   UNL A   1      49.942  24.902  33.377  1.00  0.00    -0.200 F 
ATOM    100  F   UNL A   1      51.942  25.558  31.643  1.00  0.00    -0.200 F 
ENDBRANCH  67  90
ENDBRANCH  41  42
ENDBRANCH  33  36
ENDBRANCH  31  32
ENDBRANCH   1  31
TORSDOF 14
ENDMDL
MODEL 2
REMARK VINA RESULT:     -12.6      3.136      4.156
REMARK SMILES CC(=O)NS(=O)(=O)c1cc(-c2ccn(C(F)F)c(=O)c2)ccc1C(=O)NCCCNC(=O)c1ccc(-c2c3nc(c(-c4c(F)c(F)c(F)c(F)c4F)c4ccc([nH]4)c(-c4c(F)c(F)c(F)c(F)c4F)c4nc(c(-c5c(F)c(F)c(F)c(F)c5F)c5ccc2[nH]5)C=C4)C=C3)cc1
REMARK SMILES IDX 28 1 27 2 26 3 24 4 25 5 23 7 8 8 9 9 10 10 22 11 21 12 5 13
REMARK SMILES IDX 6 14 7 15 4 16 1 17 2 18 3 19 11 21 12 22 20 23 13 24 18 25
REMARK SMILES IDX 14 26 19 27 15 28 16 29 17 30 29 31 30 32 31 33 32 35 33 36
REMARK SMILES IDX 34 37 95 38 35 39 94 40 36 41 37 42 38 43 88 44 39 45 93 46
REMARK SMILES IDX 87 47 89 48 40 49 92 50 86 51 85 52 41 54 73 55 53 56 72 57
REMARK SMILES IDX 54 58 57 59 71 60 90 61 55 62 56 63 70 65 91 66 58 67 42 68
REMARK SMILES IDX 43 69 51 70 44 71 45 72 49 73 52 74 46 75 47 76 50 77 48 78
REMARK SMILES IDX 74 79 75 80 83 81 76 82 77 83 81 84 84 85 78 86 79 87 82 88
REMARK SMILES IDX 80 89 59 90 60 91 68 92 61 93 62 94 66 95 69 96 63 97 64 98
REMARK SMILES IDX 67 99 65 100
REMARK H PARENT 26 6 4 20 30 34 89 53 57 64
REMARK Flexibility Score: inf
ROOT
ATOM      1  C   UNL A   1      31.648  28.663  26.072  1.00  0.00     0.042 C 
ENDROOT
BRANCH   1   2
ATOM      2  C   UNL A   1      31.118  27.845  24.890  1.00  0.00     0.118 C 
BRANCH   2   3
ATOM      3  N   UNL A   1      30.762  26.506  25.320  1.00  0.00    -0.352 N 
ATOM      4  C   UNL A   1      31.442  25.325  25.360  1.00  0.00     0.252 C 
ATOM      5  O   UNL A   1      30.848  24.328  25.774  1.00  0.00    -0.269 OA
ATOM      6  H   UNL A   1      29.838  26.435  25.651  1.00  0.00     0.163 HD
BRANCH   4   7
ATOM      7  C   UNL A   1      32.880  25.165  25.049  1.00  0.00     0.060 A 
ATOM      8  C   UNL A   1      33.420  24.403  24.006  1.00  0.00     0.101 A 
ATOM      9  C   UNL A   1      34.775  24.033  24.037  1.00  0.00     0.031 A 
ATOM     10  C   UNL A   1      35.571  24.327  25.150  1.00  0.00    -0.017 A 
ATOM     11  C   UNL A   1      33.734  25.571  26.097  1.00  0.00     0.016 A 
ATOM     12  C   UNL A   1      35.064  25.143  26.158  1.00  0.00     0.009 A 
BRANCH   8  13
ATOM     13  S   UNL A   1      32.403  23.697  22.751  1.00  0.00     0.264 S 
ATOM     14  O   UNL A   1      33.295  23.048  21.818  1.00  0.00    -0.201 OA
ATOM     15  O   UNL A   1      31.416  24.667  22.348  1.00  0.00    -0.201 OA
BRANCH  13  16
ATOM     16  N   UNL A   1      31.600  22.426  23.474  1.00  0.00    -0.249 N 
ATOM     17  C   UNL A   1      33.428  20.822  23.994  1.00  0.00     0.115 C 
ATOM     18  C   UNL A   1      32.162  21.526  24.390  1.00  0.00     0.230 C 
ATOM     19  O   UNL A   1      31.507  21.196  25.369  1.00  0.00    -0.274 OA
ATOM     20  H   UNL A   1      30.653  22.297  23.236  1.00  0.00     0.183 HD
ENDBRANCH  13  16
ENDBRANCH   8  13
BRANCH  10  21
ATOM     21  C   UNL A   1      36.792  23.524  25.356  1.00  0.00    -0.011 A 
ATOM     22  C   UNL A   1      37.902  24.067  26.123  1.00  0.00     0.027 A 
ATOM     23  C   UNL A   1      36.827  22.237  24.978  1.00  0.00     0.080 A 
ATOM     24  C   UNL A   1      38.916  23.285  26.505  1.00  0.00     0.095 A 
ATOM     25  C   UNL A   1      37.974  21.361  25.364  1.00  0.00     0.255 A 
ATOM     26  N   UNL A   1      38.951  21.951  26.151  1.00  0.00    -0.258 N 
ATOM     27  O   UNL A   1      37.959  20.190  25.000  1.00  0.00    -0.269 OA
BRANCH  26  28
ATOM     28  C   UNL A   1      40.027  21.107  26.609  1.00  0.00     0.451 C 
ATOM     29  F   UNL A   1      41.050  21.105  25.721  1.00  0.00    -0.185 F 
ATOM     30  F   UNL A   1      40.504  21.528  27.805  1.00  0.00    -0.185 F 
ENDBRANCH  26  28
ENDBRANCH  10  21
ENDBRANCH   4   7
ENDBRANCH   2   3
ENDBRANCH   1   2
BRANCH   1  31
ATOM     31  C   UNL A   1      32.900  29.479  25.750  1.00  0.00     0.118 C 
BRANCH  31  32
ATOM     32  N   UNL A   1      32.748  30.860  26.178  1.00  0.00    -0.352 N 
ATOM     33  C   UNL A   1      33.406  31.570  27.152  1.00  0.00     0.251 C 
ATOM     34  H   UNL A   1      32.062  31.370  25.690  1.00  0.00     0.163 HD
ATOM     35  O   UNL A   1      32.919  32.629  27.544  1.00  0.00    -0.269 OA
BRANCH  33  36
ATOM     36  C   UNL A   1      34.692  31.110  27.732  1.00  0.00     0.039 A 
ATOM     37  C   UNL A   1      34.797  29.775  28.142  1.00  0.00     0.014 A 
ATOM     38  C   UNL A   1      35.740  31.993  28.004  1.00  0.00     0.014 A 
ATOM     39  C   UNL A   1      35.941  29.325  28.812  1.00  0.00     0.010 A 
ATOM     40  C   UNL A   1      36.906  31.533  28.625  1.00  0.00     0.010 A 
ATOM     41  C   UNL A   1      37.007  30.202  29.061  1.00  0.00    -0.014 A 
BRANCH  41  42
ATOM     42  C   UNL A   1      38.195  29.768  29.841  1.00  0.00     0.031 A 
ATOM     43  C   UNL A   1      38.385  30.254  31.253  1.00  0.00     0.074 A 
ATOM     44  C   UNL A   1      39.133  28.982  29.279  1.00  0.00     0.049 A 
ATOM     45  N   UNL A   1      39.404  30.089  32.060  1.00  0.00    -0.248 NA
ATOM     46  C   UNL A   1      37.292  31.058  31.823  1.00  0.00     0.031 C 
ATOM     47  C   UNL A   1      39.096  28.466  27.913  1.00  0.00     0.029 A 
ATOM     48  N   UNL A   1      40.310  28.496  29.792  1.00  0.00    -0.354 N 
ATOM     49  C   UNL A   1      39.098  30.809  33.208  1.00  0.00     0.074 A 
ATOM     50  C   UNL A   1      37.803  31.418  32.992  1.00  0.00     0.031 C 
ATOM     51  C   UNL A   1      40.199  27.730  27.695  1.00  0.00     0.029 A 
ATOM     52  C   UNL A   1      41.028  27.743  28.897  1.00  0.00     0.049 A 
ATOM     53  H   UNL A   1      40.611  28.671  30.713  1.00  0.00     0.167 HD
ATOM     54  C   UNL A   1      39.827  30.947  34.340  1.00  0.00     0.037 A 
ATOM     55  C   UNL A   1      42.224  27.138  29.028  1.00  0.00     0.037 A 
ATOM     56  C   UNL A   1      41.082  30.291  34.593  1.00  0.00     0.049 A 
ATOM     57  C   UNL A   1      42.974  27.233  30.326  1.00  0.00     0.074 A 
ATOM     58  C   UNL A   1      41.854  30.314  35.742  1.00  0.00     0.029 A 
ATOM     59  N   UNL A   1      41.741  29.480  33.683  1.00  0.00    -0.354 N 
ATOM     60  N   UNL A   1      42.663  27.894  31.413  1.00  0.00    -0.248 NA
ATOM     61  C   UNL A   1      44.241  26.491  30.417  1.00  0.00     0.031 C 
ATOM     62  C   UNL A   1      42.991  29.526  35.522  1.00  0.00     0.029 A 
ATOM     63  C   UNL A   1      42.913  28.998  34.244  1.00  0.00     0.049 A 
ATOM     64  H   UNL A   1      41.425  29.277  32.774  1.00  0.00     0.167 HD
ATOM     65  C   UNL A   1      43.686  27.647  32.317  1.00  0.00     0.074 A 
ATOM     66  C   UNL A   1      44.624  26.761  31.659  1.00  0.00     0.031 C 
ATOM     67  C   UNL A   1      43.835  28.117  33.578  1.00  0.00     0.037 A 
BRANCH  54  68
ATOM     68  C   UNL A   1      39.282  31.858  35.397  1.00  0.00     0.064 A 
ATOM     69  C   UNL A   1      38.473  31.378  36.437  1.00  0.00     0.173 A 
ATOM     70  C   UNL A   1      39.588  33.226  35.375  1.00  0.00     0.173 A 
ATOM     71  F   UNL A   1      38.143  30.079  36.490  1.00  0.00    -0.203 F 
ATOM     72  C   UNL A   1      37.967  32.242  37.403  1.00  0.00     0.198 A 
ATOM     73  C   UNL A   1      39.097  34.084  36.355  1.00  0.00     0.198 A 
ATOM     74  F   UNL A   1      40.361  33.732  34.403  1.00  0.00    -0.203 F 
ATOM     75  F   UNL A   1      37.161  31.771  38.365  1.00  0.00    -0.200 F 
ATOM     76  C   UNL A   1      38.281  33.592  37.365  1.00  0.00     0.200 A 
ATOM     77  F   UNL A   1      39.405  35.388  36.320  1.00  0.00    -0.200 F 
ATOM     78  F   UNL A   1      37.791  34.423  38.295  1.00  0.00    -0.200 F 
ENDBRANCH  54  68
BRANCH  55  79
ATOM     79  C   UNL A   1      42.778  26.370  27.888  1.00  0.00     0.064 A 
ATOM     80  C   UNL A   1      42.531  24.996  27.766  1.00  0.00     0.173 A 
ATOM     81  C   UNL A   1      43.539  26.995  26.893  1.00  0.00     0.173 A 
ATOM     82  F   UNL A   1      41.826  24.356  28.710  1.00  0.00    -0.203 F 
ATOM     83  C   UNL A   1      43.031  24.272  26.686  1.00  0.00     0.198 A 
ATOM     84  C   UNL A   1      44.027  26.273  25.807  1.00  0.00     0.198 A 
ATOM     85  F   UNL A   1      43.801  28.307  26.974  1.00  0.00    -0.203 F 
ATOM     86  F   UNL A   1      42.802  22.956  26.600  1.00  0.00    -0.200 F 
ATOM     87  C   UNL A   1      43.774  24.913  25.705  1.00  0.00     0.200 A 
ATOM     88  F   UNL A   1      44.742  26.894  24.858  1.00  0.00    -0.200 F 
ATOM     89  F   UNL A   1      44.252  24.217  24.664  1.00  0.00    -0.200 F 
ENDBRANCH  55  79
BRANCH  67  90
ATOM     90  C   UNL A   1      45.048  27.675  34.336  1.00  0.00     0.064 A 
ATOM     91  C   UNL A   1      46.232  28.426  34.311  1.00  0.00     0.173 A 
ATOM     92  C   UNL A   1      45.013  26.517  35.126  1.00  0.00     0.173 A 
ATOM     93  F   UNL A   1      46.313  29.532  33.557  1.00  0.00    -0.203 F 
ATOM     94  C   UNL A   1      47.345  28.026  35.045  1.00  0.00     0.198 A 
ATOM     95  C   UNL A   1      46.125  26.129  35.870  1.00  0.00     0.198 A 
ATOM     96  F   UNL A   1      43.902  25.769  35.180  1.00  0.00    -0.203 F 
ATOM     97  F   UNL A   1      48.475  28.744  34.991  1.00  0.00    -0.200 F 
ATOM     98  C   UNL A   1      47.289  26.882  35.827  1.00  0.00     0.200 A 
ATOM     99  F   UNL A   1      46.069  25.023  36.626  1.00  0.00    -0.200 F 
ATOM    100  F   UNL A   1      48.360  26.500  36.535  1.00  0.00    -0.200 F 
ENDBRANCH  67  90
ENDBRANCH  41  42
ENDBRANCH  33  36
ENDBRANCH  31  32
ENDBRANCH   1  31
TORSDOF 14
ENDMDL
MODEL 3
REMARK VINA RESULT:     -12.6      3.203      4.571
REMARK SMILES CC(=O)NS(=O)(=O)c1cc(-c2ccn(C(F)F)c(=O)c2)ccc1C(=O)NCCCNC(=O)c1ccc(-c2c3nc(c(-c4c(F)c(F)c(F)c(F)c4F)c4ccc([nH]4)c(-c4c(F)c(F)c(F)c(F)c4F)c4nc(c(-c5c(F)c(F)c(F)c(F)c5F)c5ccc2[nH]5)C=C4)C=C3)cc1
REMARK SMILES IDX 28 1 27 2 26 3 24 4 25 5 23 7 8 8 9 9 10 10 22 11 21 12 5 13
REMARK SMILES IDX 6 14 7 15 4 16 1 17 2 18 3 19 11 21 12 22 20 23 13 24 18 25
REMARK SMILES IDX 14 26 19 27 15 28 16 29 17 30 29 31 30 32 31 33 32 35 33 36
REMARK SMILES IDX 34 37 95 38 35 39 94 40 36 41 37 42 38 43 88 44 39 45 93 46
REMARK SMILES IDX 87 47 89 48 40 49 92 50 86 51 85 52 41 54 73 55 53 56 72 57
REMARK SMILES IDX 54 58 57 59 71 60 90 61 55 62 56 63 70 65 91 66 58 67 42 68
REMARK SMILES IDX 43 69 51 70 44 71 45 72 49 73 52 74 46 75 47 76 50 77 48 78
REMARK SMILES IDX 74 79 75 80 83 81 76 82 77 83 81 84 84 85 78 86 79 87 82 88
REMARK SMILES IDX 80 89 59 90 60 91 68 92 61 93 62 94 66 95 69 96 63 97 64 98
REMARK SMILES IDX 67 99 65 100
REMARK H PARENT 26 6 4 20 30 34 89 53 57 64
REMARK Flexibility Score: inf
ROOT
ATOM      1  C   UNL A   1      32.870  29.678  25.397  1.00  0.00     0.042 C 
ENDROOT
BRANCH   1   2
ATOM      2  C   UNL A   1      33.316  28.213  25.465  1.00  0.00     0.118 C 
BRANCH   2   3
ATOM      3  N   UNL A   1      32.373  27.432  26.243  1.00  0.00    -0.352 N 
ATOM      4  C   UNL A   1      32.032  26.113  26.249  1.00  0.00     0.252 C 
ATOM      5  O   UNL A   1      31.159  25.743  27.036  1.00  0.00    -0.269 OA
ATOM      6  H   UNL A   1      31.875  27.966  26.903  1.00  0.00     0.163 HD
BRANCH   4   7
ATOM      7  C   UNL A   1      32.707  25.060  25.458  1.00  0.00     0.060 A 
ATOM      8  C   UNL A   1      32.275  24.541  24.232  1.00  0.00     0.101 A 
ATOM      9  C   UNL A   1      32.782  23.315  23.772  1.00  0.00     0.031 A 
ATOM     10  C   UNL A   1      33.638  22.549  24.572  1.00  0.00    -0.017 A 
ATOM     11  C   UNL A   1      33.678  24.339  26.188  1.00  0.00     0.016 A 
ATOM     12  C   UNL A   1      34.127  23.087  25.760  1.00  0.00     0.009 A 
BRANCH   8  13
ATOM     13  S   UNL A   1      30.942  25.268  23.337  1.00  0.00     0.264 S 
ATOM     14  O   UNL A   1      30.795  26.615  23.842  1.00  0.00    -0.201 OA
ATOM     15  O   UNL A   1      29.849  24.329  23.280  1.00  0.00    -0.201 OA
BRANCH  13  16
ATOM     16  N   UNL A   1      31.501  25.492  21.782  1.00  0.00    -0.249 N 
ATOM     17  C   UNL A   1      33.475  26.973  22.097  1.00  0.00     0.115 C 
ATOM     18  C   UNL A   1      32.825  25.793  21.431  1.00  0.00     0.230 C 
ATOM     19  O   UNL A   1      33.322  25.230  20.466  1.00  0.00    -0.274 OA
ATOM     20  H   UNL A   1      30.848  25.405  21.050  1.00  0.00     0.183 HD
ENDBRANCH  13  16
ENDBRANCH   8  13
BRANCH  10  21
ATOM     21  C   UNL A   1      33.744  21.106  24.283  1.00  0.00    -0.011 A 
ATOM     22  C   UNL A   1      34.848  20.332  24.829  1.00  0.00     0.027 A 
ATOM     23  C   UNL A   1      32.747  20.466  23.653  1.00  0.00     0.080 A 
ATOM     24  C   UNL A   1      34.844  18.997  24.764  1.00  0.00     0.095 A 
ATOM     25  C   UNL A   1      32.750  18.977  23.538  1.00  0.00     0.255 A 
ATOM     26  N   UNL A   1      33.810  18.323  24.147  1.00  0.00    -0.258 N 
ATOM     27  O   UNL A   1      31.815  18.437  22.958  1.00  0.00    -0.269 OA
BRANCH  26  28
ATOM     28  C   UNL A   1      33.795  16.881  24.126  1.00  0.00     0.451 C 
ATOM     29  F   UNL A   1      34.429  16.408  23.026  1.00  0.00    -0.185 F 
ATOM     30  F   UNL A   1      34.406  16.369  25.220  1.00  0.00    -0.185 F 
ENDBRANCH  26  28
ENDBRANCH  10  21
ENDBRANCH   4   7
ENDBRANCH   2   3
ENDBRANCH   1   2
BRANCH   1  31
ATOM     31  C   UNL A   1      32.329  30.224  26.718  1.00  0.00     0.118 C 
BRANCH  31  32
ATOM     32  N   UNL A   1      32.489  31.667  26.792  1.00  0.00    -0.352 N 
ATOM     33  C   UNL A   1      33.405  32.429  27.472  1.00  0.00     0.251 C 
ATOM     34  H   UNL A   1      31.832  32.182  26.269  1.00  0.00     0.163 HD
ATOM     35  O   UNL A   1      33.178  33.627  27.632  1.00  0.00    -0.269 OA
BRANCH  33  36
ATOM     36  C   UNL A   1      34.668  31.859  28.004  1.00  0.00     0.039 A 
ATOM     37  C   UNL A   1      34.674  30.516  28.404  1.00  0.00     0.014 A 
ATOM     38  C   UNL A   1      35.795  32.649  28.244  1.00  0.00     0.014 A 
ATOM     39  C   UNL A   1      35.799  29.966  29.031  1.00  0.00     0.010 A 
ATOM     40  C   UNL A   1      36.939  32.088  28.821  1.00  0.00     0.010 A 
ATOM     41  C   UNL A   1      36.942  30.750  29.246  1.00  0.00    -0.014 A 
BRANCH  41  42
ATOM     42  C   UNL A   1      38.116  30.211  29.982  1.00  0.00     0.031 A 
ATOM     43  C   UNL A   1      38.359  30.620  31.410  1.00  0.00     0.074 A 
ATOM     44  C   UNL A   1      38.996  29.398  29.367  1.00  0.00     0.049 A 
ATOM     45  N   UNL A   1      39.381  30.358  32.188  1.00  0.00    -0.248 NA
ATOM     46  C   UNL A   1      37.327  31.460  32.038  1.00  0.00     0.031 C 
ATOM     47  C   UNL A   1      38.904  28.948  27.980  1.00  0.00     0.029 A 
ATOM     48  N   UNL A   1      40.151  28.820  29.833  1.00  0.00    -0.354 N 
ATOM     49  C   UNL A   1      39.139  31.041  33.373  1.00  0.00     0.074 A 
ATOM     50  C   UNL A   1      37.879  31.734  33.211  1.00  0.00     0.031 C 
ATOM     51  C   UNL A   1      39.957  28.159  27.706  1.00  0.00     0.029 A 
ATOM     52  C   UNL A   1      40.807  28.069  28.892  1.00  0.00     0.049 A 
ATOM     53  H   UNL A   1      40.478  28.935  30.755  1.00  0.00     0.167 HD
ATOM     54  C   UNL A   1      39.895  31.084  34.496  1.00  0.00     0.037 A 
ATOM     55  C   UNL A   1      41.967  27.389  28.970  1.00  0.00     0.037 A 
ATOM     56  C   UNL A   1      41.112  30.345  34.693  1.00  0.00     0.049 A 
ATOM     57  C   UNL A   1      42.744  27.379  30.256  1.00  0.00     0.074 A 
ATOM     58  C   UNL A   1      41.905  30.269  35.826  1.00  0.00     0.029 A 
ATOM     59  N   UNL A   1      41.706  29.539  33.735  1.00  0.00    -0.354 N 
ATOM     60  N   UNL A   1      42.491  28.008  31.378  1.00  0.00    -0.248 NA
ATOM     61  C   UNL A   1      43.965  26.561  30.288  1.00  0.00     0.031 C 
ATOM     62  C   UNL A   1      42.988  29.427  35.548  1.00  0.00     0.029 A 
ATOM     63  C   UNL A   1      42.856  28.963  34.249  1.00  0.00     0.049 A 
ATOM     64  H   UNL A   1      41.362  29.397  32.824  1.00  0.00     0.167 HD
ATOM     65  C   UNL A   1      43.514  27.659  32.249  1.00  0.00     0.074 A 
ATOM     66  C   UNL A   1      44.385  26.751  31.532  1.00  0.00     0.031 C 
ATOM     67  C   UNL A   1      43.713  28.061  33.526  1.00  0.00     0.037 A 
BRANCH  54  68
ATOM     68  C   UNL A   1      39.424  31.976  35.603  1.00  0.00     0.064 A 
ATOM     69  C   UNL A   1      39.853  33.306  35.711  1.00  0.00     0.173 A 
ATOM     70  C   UNL A   1      38.518  31.494  36.560  1.00  0.00     0.173 A 
ATOM     71  F   UNL A   1      40.730  33.805  34.827  1.00  0.00    -0.203 F 
ATOM     72  C   UNL A   1      39.413  34.115  36.753  1.00  0.00     0.198 A 
ATOM     73  C   UNL A   1      38.064  32.313  37.590  1.00  0.00     0.198 A 
ATOM     74  F   UNL A   1      38.076  30.229  36.497  1.00  0.00    -0.203 F 
ATOM     75  F   UNL A   1      39.869  35.371  36.863  1.00  0.00    -0.200 F 
ATOM     76  C   UNL A   1      38.517  33.621  37.690  1.00  0.00     0.200 A 
ATOM     77  F   UNL A   1      37.195  31.835  38.491  1.00  0.00    -0.200 F 
ATOM     78  F   UNL A   1      38.097  34.401  38.695  1.00  0.00    -0.200 F 
ENDBRANCH  54  68
BRANCH  55  79
ATOM     79  C   UNL A   1      42.453  26.642  27.787  1.00  0.00     0.064 A 
ATOM     80  C   UNL A   1      43.324  27.245  26.870  1.00  0.00     0.173 A 
ATOM     81  C   UNL A   1      42.076  25.312  27.563  1.00  0.00     0.173 A 
ATOM     82  F   UNL A   1      43.691  28.524  27.036  1.00  0.00    -0.203 F 
ATOM     83  C   UNL A   1      43.801  26.541  25.766  1.00  0.00     0.198 A 
ATOM     84  C   UNL A   1      42.564  24.605  26.467  1.00  0.00     0.198 A 
ATOM     85  F   UNL A   1      41.241  24.699  28.415  1.00  0.00    -0.203 F 
ATOM     86  F   UNL A   1      44.616  27.143  24.891  1.00  0.00    -0.200 F 
ATOM     87  C   UNL A   1      43.425  25.220  25.569  1.00  0.00     0.200 A 
ATOM     88  F   UNL A   1      42.202  23.329  26.279  1.00  0.00    -0.200 F 
ATOM     89  F   UNL A   1      43.887  24.542  24.509  1.00  0.00    -0.200 F 
ENDBRANCH  55  79
BRANCH  67  90
ATOM     90  C   UNL A   1      44.911  27.515  34.238  1.00  0.00     0.064 A 
ATOM     91  C   UNL A   1      46.136  28.196  34.225  1.00  0.00     0.173 A 
ATOM     92  C   UNL A   1      44.821  26.325  34.975  1.00  0.00     0.173 A 
ATOM     93  F   UNL A   1      46.270  29.330  33.521  1.00  0.00    -0.203 F 
ATOM     94  C   UNL A   1      47.236  27.698  34.917  1.00  0.00     0.198 A 
ATOM     95  C   UNL A   1      45.920  25.838  35.678  1.00  0.00     0.198 A 
ATOM     96  F   UNL A   1      43.669  25.641  35.017  1.00  0.00    -0.203 F 
ATOM     97  F   UNL A   1      48.406  28.351  34.873  1.00  0.00    -0.200 F 
ATOM     98  C   UNL A   1      47.126  26.523  35.647  1.00  0.00     0.200 A 
ATOM     99  F   UNL A   1      45.812  24.704  36.385  1.00  0.00    -0.200 F 
ATOM    100  F   UNL A   1      48.185  26.047  36.316  1.00  0.00    -0.200 F 
ENDBRANCH  67  90
ENDBRANCH  41  42
ENDBRANCH  33  36
ENDBRANCH  31  32
ENDBRANCH   1  31
TORSDOF 14
ENDMDL
