MODEL 1
REMARK VINA RESULT:     -13.3      0.000      0.000
REMARK SMILES Cc1cc2nc(NC3=[NH+][C@H](CC(=O)NCCCNC(=O)c4ccc(-c5c6nc(c(-c7c(F)c(F)c(F)c(F)c7F)c7ccc([nH]7)c(-c7c(F)c(F)c(F)c(F)c7F)c7nc(c(-c8c(F)c(F)c(F)c(F)c8F)c8ccc5[nH]8)C=C7)C=C6)cc4)C(=O)N3)nc(C)c2cc1C
REMARK SMILES IDX 16 1 15 2 14 3 12 4 13 5 11 7 10 8 7 9 8 10 9 12 86 13 84 15
REMARK SMILES IDX 85 17 6 18 1 19 2 20 3 21 92 22 4 23 91 24 93 25 5 26 90 27
REMARK SMILES IDX 88 28 87 29 89 30 17 31 18 32 19 33 20 35 21 36 22 37 83 38
REMARK SMILES IDX 23 39 82 40 24 41 25 42 26 43 76 44 27 45 81 46 75 47 77 48
REMARK SMILES IDX 28 49 80 50 74 51 73 52 29 54 61 55 41 56 60 57 42 58 45 59
REMARK SMILES IDX 59 60 78 61 43 62 44 63 58 65 79 66 46 67 30 68 31 69 39 70
REMARK SMILES IDX 32 71 33 72 37 73 40 74 34 75 35 76 38 77 36 78 62 79 63 80
REMARK SMILES IDX 71 81 64 82 65 83 69 84 72 85 66 86 67 87 70 88 68 89 47 90
REMARK SMILES IDX 48 91 56 92 49 93 50 94 54 95 57 96 51 97 52 98 55 99 53 100
REMARK H PARENT 14 6 7 11 9 14 86 16 18 34 77 53 45 64
REMARK Flexibility Score: inf
ROOT
ATOM      1  C   UNL A   1      33.911  27.997  25.909  1.00  0.00     0.042 C 
ENDROOT
BRANCH   1   2
ATOM      2  C   UNL A   1      33.093  26.880  25.269  1.00  0.00     0.117 C 
BRANCH   2   3
ATOM      3  N   UNL A   1      33.769  26.312  24.115  1.00  0.00    -0.356 N 
ATOM      4  C   UNL A   1      33.364  26.303  22.810  1.00  0.00     0.224 C 
ATOM      5  O   UNL A   1      34.039  25.668  21.999  1.00  0.00    -0.275 OA
ATOM      6  H   UNL A   1      34.633  25.877  24.297  1.00  0.00     0.163 HD
BRANCH   4   7
ATOM      7  C   UNL A   1      32.137  27.077  22.368  1.00  0.00     0.153 C 
BRANCH   7   8
ATOM      8  C   UNL A   1      30.888  26.211  22.311  1.00  0.00     0.260 C 
ATOM      9  N   UNL A   1      30.803  23.279  24.335  1.00  0.00    -0.212 N 
ATOM     10  C   UNL A   1      30.657  24.462  23.692  1.00  0.00     0.358 C 
ATOM     11  H   UNL A   1      29.996  22.841  24.691  1.00  0.00     0.270 HD
ATOM     12  N   UNL A   1      31.249  24.802  22.593  1.00  0.00    -0.263 N 
ATOM     13  N   UNL A   1      29.831  25.402  24.187  1.00  0.00    -0.211 N 
ATOM     14  H   UNL A   1      31.831  24.229  22.045  1.00  0.00     0.261 HD
ATOM     15  C   UNL A   1      29.927  26.536  23.439  1.00  0.00     0.320 C 
ATOM     16  H   UNL A   1      29.246  25.287  24.969  1.00  0.00     0.270 HD
ATOM     17  O   UNL A   1      29.377  27.593  23.673  1.00  0.00    -0.252 OA
BRANCH   9  18
ATOM     18  C   UNL A   1      32.028  22.649  24.520  1.00  0.00     0.291 A 
ATOM     19  C   UNL A   1      37.792  23.926  25.853  1.00  0.00     0.044 C 
ATOM     20  C   UNL A   1      36.661  22.973  25.574  1.00  0.00    -0.046 A 
ATOM     21  C   UNL A   1      35.365  23.508  25.457  1.00  0.00     0.033 A 
ATOM     22  C   UNL A   1      36.843  21.601  25.359  1.00  0.00    -0.047 A 
ATOM     23  C   UNL A   1      34.263  22.748  25.090  1.00  0.00     0.078 A 
ATOM     24  C   UNL A   1      35.730  20.821  25.003  1.00  0.00     0.016 A 
ATOM     25  C   UNL A   1      38.192  20.948  25.471  1.00  0.00     0.044 C 
ATOM     26  N   UNL A   1      33.082  23.360  24.947  1.00  0.00    -0.198 NA
ATOM     27  C   UNL A   1      34.439  21.391  24.849  1.00  0.00     0.022 A 
ATOM     28  C   UNL A   1      33.275  20.715  24.455  1.00  0.00     0.052 A 
ATOM     29  N   UNL A   1      32.074  21.329  24.304  1.00  0.00    -0.203 NA
ATOM     30  C   UNL A   1      33.290  19.240  24.166  1.00  0.00     0.067 C 
ENDBRANCH   9  18
ENDBRANCH   7   8
ENDBRANCH   4   7
ENDBRANCH   2   3
ENDBRANCH   1   2
BRANCH   1  31
ATOM     31  C   UNL A   1      33.431  28.402  27.288  1.00  0.00     0.118 C 
BRANCH  31  32
ATOM     32  N   UNL A   1      33.457  29.845  27.498  1.00  0.00    -0.352 N 
ATOM     33  C   UNL A   1      34.431  30.671  28.007  1.00  0.00     0.251 C 
ATOM     34  H   UNL A   1      32.631  30.310  27.227  1.00  0.00     0.163 HD
ATOM     35  O   UNL A   1      34.163  31.852  28.222  1.00  0.00    -0.269 OA
BRANCH  33  36
ATOM     36  C   UNL A   1      35.789  30.167  28.337  1.00  0.00     0.039 A 
ATOM     37  C   UNL A   1      36.097  29.632  29.584  1.00  0.00     0.014 A 
ATOM     38  C   UNL A   1      36.784  30.207  27.351  1.00  0.00     0.014 A 
ATOM     39  C   UNL A   1      37.417  29.342  29.914  1.00  0.00     0.010 A 
ATOM     40  C   UNL A   1      38.088  29.786  27.642  1.00  0.00     0.010 A 
ATOM     41  C   UNL A   1      38.430  29.400  28.945  1.00  0.00    -0.014 A 
BRANCH  41  42
ATOM     42  C   UNL A   1      39.816  29.011  29.330  1.00  0.00     0.031 A 
ATOM     43  C   UNL A   1      40.589  29.785  30.363  1.00  0.00     0.074 A 
ATOM     44  C   UNL A   1      40.353  27.900  28.787  1.00  0.00     0.049 A 
ATOM     45  N   UNL A   1      41.760  29.515  30.886  1.00  0.00    -0.248 NA
ATOM     46  C   UNL A   1      39.985  31.029  30.864  1.00  0.00     0.031 C 
ATOM     47  C   UNL A   1      39.713  27.081  27.757  1.00  0.00     0.029 A 
ATOM     48  N   UNL A   1      41.527  27.240  29.053  1.00  0.00    -0.354 N 
ATOM     49  C   UNL A   1      42.038  30.560  31.758  1.00  0.00     0.074 A 
ATOM     50  C   UNL A   1      40.934  31.490  31.666  1.00  0.00     0.031 C 
ATOM     51  C   UNL A   1      40.454  25.986  27.542  1.00  0.00     0.029 A 
ATOM     52  C   UNL A   1      41.656  26.057  28.367  1.00  0.00     0.049 A 
ATOM     53  H   UNL A   1      42.210  27.582  29.674  1.00  0.00     0.167 HD
ATOM     54  C   UNL A   1      43.108  30.718  32.574  1.00  0.00     0.037 A 
ATOM     55  C   UNL A   1      42.628  25.126  28.395  1.00  0.00     0.037 A 
ATOM     56  C   UNL A   1      44.188  29.773  32.687  1.00  0.00     0.049 A 
ATOM     57  C   UNL A   1      43.806  25.323  29.302  1.00  0.00     0.074 A 
ATOM     58  C   UNL A   1      45.286  29.817  33.528  1.00  0.00     0.029 A 
ATOM     59  N   UNL A   1      44.307  28.613  31.934  1.00  0.00    -0.354 N 
ATOM     60  N   UNL A   1      44.032  26.292  30.155  1.00  0.00    -0.248 NA
ATOM     61  C   UNL A   1      44.868  24.310  29.247  1.00  0.00     0.031 C 
ATOM     62  C   UNL A   1      46.097  28.714  33.246  1.00  0.00     0.029 A 
ATOM     63  C   UNL A   1      45.479  27.951  32.268  1.00  0.00     0.049 A 
ATOM     64  H   UNL A   1      43.656  28.305  31.262  1.00  0.00     0.167 HD
ATOM     65  C   UNL A   1      45.255  26.005  30.744  1.00  0.00     0.074 A 
ATOM     66  C   UNL A   1      45.718  24.762  30.162  1.00  0.00     0.031 C 
ATOM     67  C   UNL A   1      45.930  26.714  31.680  1.00  0.00     0.037 A 
BRANCH  54  68
ATOM     68  C   UNL A   1      43.175  31.966  33.407  1.00  0.00     0.064 A 
ATOM     69  C   UNL A   1      43.785  33.139  32.936  1.00  0.00     0.173 A 
ATOM     70  C   UNL A   1      42.578  32.005  34.677  1.00  0.00     0.173 A 
ATOM     71  F   UNL A   1      44.377  33.155  31.732  1.00  0.00    -0.203 F 
ATOM     72  C   UNL A   1      43.819  34.293  33.715  1.00  0.00     0.198 A 
ATOM     73  C   UNL A   1      42.588  33.169  35.442  1.00  0.00     0.198 A 
ATOM     74  F   UNL A   1      41.972  30.915  35.174  1.00  0.00    -0.203 F 
ATOM     75  F   UNL A   1      44.450  35.386  33.263  1.00  0.00    -0.200 F 
ATOM     76  C   UNL A   1      43.215  34.310  34.964  1.00  0.00     0.200 A 
ATOM     77  F   UNL A   1      41.990  33.187  36.641  1.00  0.00    -0.200 F 
ATOM     78  F   UNL A   1      43.244  35.423  35.708  1.00  0.00    -0.200 F 
ENDBRANCH  54  68
BRANCH  55  79
ATOM     79  C   UNL A   1      42.484  23.913  27.549  1.00  0.00     0.064 A 
ATOM     80  C   UNL A   1      42.926  23.908  26.220  1.00  0.00     0.173 A 
ATOM     81  C   UNL A   1      41.994  22.710  28.081  1.00  0.00     0.173 A 
ATOM     82  F   UNL A   1      43.389  25.036  25.664  1.00  0.00    -0.203 F 
ATOM     83  C   UNL A   1      42.897  22.741  25.459  1.00  0.00     0.198 A 
ATOM     84  C   UNL A   1      41.990  21.539  27.328  1.00  0.00     0.198 A 
ATOM     85  F   UNL A   1      41.569  22.664  29.353  1.00  0.00    -0.203 F 
ATOM     86  F   UNL A   1      43.319  22.761  24.187  1.00  0.00    -0.200 F 
ATOM     87  C   UNL A   1      42.442  21.555  26.018  1.00  0.00     0.200 A 
ATOM     88  F   UNL A   1      41.572  20.393  27.880  1.00  0.00    -0.200 F 
ATOM     89  F   UNL A   1      42.447  20.426  25.296  1.00  0.00    -0.200 F 
ENDBRANCH  55  79
BRANCH  67  90
ATOM     90  C   UNL A   1      47.248  26.177  32.151  1.00  0.00     0.064 A 
ATOM     91  C   UNL A   1      47.337  25.358  33.284  1.00  0.00     0.173 A 
ATOM     92  C   UNL A   1      48.412  26.389  31.396  1.00  0.00     0.173 A 
ATOM     93  F   UNL A   1      46.254  25.137  34.043  1.00  0.00    -0.203 F 
ATOM     94  C   UNL A   1      48.544  24.764  33.642  1.00  0.00     0.198 A 
ATOM     95  C   UNL A   1      49.611  25.774  31.744  1.00  0.00     0.198 A 
ATOM     96  F   UNL A   1      48.375  27.161  30.299  1.00  0.00    -0.203 F 
ATOM     97  F   UNL A   1      48.611  23.992  34.736  1.00  0.00    -0.200 F 
ATOM     98  C   UNL A   1      49.676  24.962  32.865  1.00  0.00     0.200 A 
ATOM     99  F   UNL A   1      50.699  25.954  30.982  1.00  0.00    -0.200 F 
ATOM    100  F   UNL A   1      50.830  24.365  33.195  1.00  0.00    -0.200 F 
ENDBRANCH  67  90
ENDBRANCH  41  42
ENDBRANCH  33  36
ENDBRANCH  31  32
ENDBRANCH   1  31
TORSDOF 12
ENDMDL
MODEL 2
REMARK VINA RESULT:     -13.3      2.191      3.218
REMARK SMILES Cc1cc2nc(NC3=[NH+][C@H](CC(=O)NCCCNC(=O)c4ccc(-c5c6nc(c(-c7c(F)c(F)c(F)c(F)c7F)c7ccc([nH]7)c(-c7c(F)c(F)c(F)c(F)c7F)c7nc(c(-c8c(F)c(F)c(F)c(F)c8F)c8ccc5[nH]8)C=C7)C=C6)cc4)C(=O)N3)nc(C)c2cc1C
REMARK SMILES IDX 16 1 15 2 14 3 12 4 13 5 11 7 10 8 7 9 8 10 9 12 86 13 84 15
REMARK SMILES IDX 85 17 6 18 1 19 2 20 3 21 92 22 4 23 91 24 93 25 5 26 90 27
REMARK SMILES IDX 88 28 87 29 89 30 17 31 18 32 19 33 20 35 21 36 22 37 83 38
REMARK SMILES IDX 23 39 82 40 24 41 25 42 26 43 76 44 27 45 81 46 75 47 77 48
REMARK SMILES IDX 28 49 80 50 74 51 73 52 29 54 61 55 41 56 60 57 42 58 45 59
REMARK SMILES IDX 59 60 78 61 43 62 44 63 58 65 79 66 46 67 30 68 31 69 39 70
REMARK SMILES IDX 32 71 33 72 37 73 40 74 34 75 35 76 38 77 36 78 62 79 63 80
REMARK SMILES IDX 71 81 64 82 65 83 69 84 72 85 66 86 67 87 70 88 68 89 47 90
REMARK SMILES IDX 48 91 56 92 49 93 50 94 54 95 57 96 51 97 52 98 55 99 53 100
REMARK H PARENT 14 6 7 11 9 14 86 16 18 34 77 53 45 64
REMARK Flexibility Score: inf
ROOT
ATOM      1  C   UNL A   1      32.978  28.536  25.604  1.00  0.00     0.042 C 
ENDROOT
BRANCH   1   2
ATOM      2  C   UNL A   1      32.788  27.024  25.543  1.00  0.00     0.117 C 
BRANCH   2   3
ATOM      3  N   UNL A   1      33.640  26.415  24.536  1.00  0.00    -0.356 N 
ATOM      4  C   UNL A   1      33.381  26.214  23.210  1.00  0.00     0.224 C 
ATOM      5  O   UNL A   1      34.203  25.577  22.549  1.00  0.00    -0.275 OA
ATOM      6  H   UNL A   1      34.521  26.107  24.850  1.00  0.00     0.163 HD
BRANCH   4   7
ATOM      7  C   UNL A   1      32.133  26.785  22.563  1.00  0.00     0.153 C 
BRANCH   7   8
ATOM      8  C   UNL A   1      30.987  25.785  22.520  1.00  0.00     0.260 C 
ATOM      9  N   UNL A   1      31.222  22.894  24.589  1.00  0.00    -0.212 N 
ATOM     10  C   UNL A   1      30.948  24.043  23.928  1.00  0.00     0.358 C 
ATOM     11  H   UNL A   1      30.468  22.375  24.953  1.00  0.00     0.270 HD
ATOM     12  N   UNL A   1      31.501  24.429  22.824  1.00  0.00    -0.263 N 
ATOM     13  N   UNL A   1      30.023  24.893  24.408  1.00  0.00    -0.211 N 
ATOM     14  H   UNL A   1      32.144  23.915  22.285  1.00  0.00     0.261 HD
ATOM     15  C   UNL A   1      29.994  26.019  23.642  1.00  0.00     0.320 C 
ATOM     16  H   UNL A   1      29.453  24.727  25.192  1.00  0.00     0.270 HD
ATOM     17  O   UNL A   1      29.331  27.013  23.859  1.00  0.00    -0.252 OA
BRANCH   9  18
ATOM     18  C   UNL A   1      32.510  22.406  24.785  1.00  0.00     0.291 A 
ATOM     19  C   UNL A   1      38.095  24.331  26.098  1.00  0.00     0.044 C 
ATOM     20  C   UNL A   1      37.076  23.256  25.834  1.00  0.00    -0.046 A 
ATOM     21  C   UNL A   1      35.730  23.643  25.709  1.00  0.00     0.033 A 
ATOM     22  C   UNL A   1      37.409  21.909  25.642  1.00  0.00    -0.047 A 
ATOM     23  C   UNL A   1      34.719  22.760  25.353  1.00  0.00     0.078 A 
ATOM     24  C   UNL A   1      36.389  21.006  25.297  1.00  0.00     0.016 A 
ATOM     25  C   UNL A   1      38.822  21.410  25.764  1.00  0.00     0.044 C 
ATOM     26  N   UNL A   1      33.478  23.235  25.201  1.00  0.00    -0.198 NA
ATOM     27  C   UNL A   1      35.044  21.427  25.135  1.00  0.00     0.022 A 
ATOM     28  C   UNL A   1      33.962  20.620  24.752  1.00  0.00     0.052 A 
ATOM     29  N   UNL A   1      32.701  21.095  24.590  1.00  0.00    -0.203 NA
ATOM     30  C   UNL A   1      34.141  19.152  24.486  1.00  0.00     0.067 C 
ENDBRANCH   9  18
ENDBRANCH   7   8
ENDBRANCH   4   7
ENDBRANCH   2   3
ENDBRANCH   1   2
BRANCH   1  31
ATOM     31  C   UNL A   1      32.357  29.188  26.823  1.00  0.00     0.118 C 
BRANCH  31  32
ATOM     32  N   UNL A   1      32.334  30.644  26.739  1.00  0.00    -0.352 N 
ATOM     33  C   UNL A   1      33.222  31.593  27.189  1.00  0.00     0.251 C 
ATOM     34  H   UNL A   1      31.545  31.013  26.279  1.00  0.00     0.163 HD
ATOM     35  O   UNL A   1      32.912  32.781  27.127  1.00  0.00    -0.269 OA
BRANCH  33  36
ATOM     36  C   UNL A   1      34.532  31.219  27.781  1.00  0.00     0.039 A 
ATOM     37  C   UNL A   1      34.814  29.920  28.197  1.00  0.00     0.014 A 
ATOM     38  C   UNL A   1      35.526  32.199  27.900  1.00  0.00     0.014 A 
ATOM     39  C   UNL A   1      35.977  29.652  28.910  1.00  0.00     0.010 A 
ATOM     40  C   UNL A   1      36.756  31.895  28.498  1.00  0.00     0.010 A 
ATOM     41  C   UNL A   1      36.973  30.629  29.059  1.00  0.00    -0.014 A 
BRANCH  41  42
ATOM     42  C   UNL A   1      38.232  30.271  29.770  1.00  0.00     0.031 A 
ATOM     43  C   UNL A   1      38.483  30.709  31.187  1.00  0.00     0.074 A 
ATOM     44  C   UNL A   1      39.126  29.477  29.147  1.00  0.00     0.049 A 
ATOM     45  N   UNL A   1      39.476  30.391  31.982  1.00  0.00    -0.248 NA
ATOM     46  C   UNL A   1      37.511  31.633  31.789  1.00  0.00     0.031 C 
ATOM     47  C   UNL A   1      39.007  29.010  27.765  1.00  0.00     0.029 A 
ATOM     48  N   UNL A   1      40.280  28.887  29.598  1.00  0.00    -0.354 N 
ATOM     49  C   UNL A   1      39.257  31.088  33.162  1.00  0.00     0.074 A 
ATOM     50  C   UNL A   1      38.061  31.877  32.970  1.00  0.00     0.031 C 
ATOM     51  C   UNL A   1      39.991  28.138  27.509  1.00  0.00     0.029 A 
ATOM     52  C   UNL A   1      40.853  28.037  28.683  1.00  0.00     0.049 A 
ATOM     53  H   UNL A   1      40.661  29.057  30.490  1.00  0.00     0.167 HD
ATOM     54  C   UNL A   1      39.980  31.057  34.309  1.00  0.00     0.037 A 
ATOM     55  C   UNL A   1      41.946  27.255  28.773  1.00  0.00     0.037 A 
ATOM     56  C   UNL A   1      41.151  30.244  34.507  1.00  0.00     0.049 A 
ATOM     57  C   UNL A   1      42.733  27.240  30.049  1.00  0.00     0.074 A 
ATOM     58  C   UNL A   1      41.916  30.101  35.652  1.00  0.00     0.029 A 
ATOM     59  N   UNL A   1      41.729  29.438  33.537  1.00  0.00    -0.354 N 
ATOM     60  N   UNL A   1      42.487  27.868  31.173  1.00  0.00    -0.248 NA
ATOM     61  C   UNL A   1      43.952  26.421  30.071  1.00  0.00     0.031 C 
ATOM     62  C   UNL A   1      42.987  29.253  35.359  1.00  0.00     0.029 A 
ATOM     63  C   UNL A   1      42.861  28.821  34.047  1.00  0.00     0.049 A 
ATOM     64  H   UNL A   1      41.386  29.321  32.621  1.00  0.00     0.167 HD
ATOM     65  C   UNL A   1      43.513  27.517  32.039  1.00  0.00     0.074 A 
ATOM     66  C   UNL A   1      44.377  26.607  31.316  1.00  0.00     0.031 C 
ATOM     67  C   UNL A   1      43.715  27.919  33.316  1.00  0.00     0.037 A 
BRANCH  54  68
ATOM     68  C   UNL A   1      39.533  31.936  35.442  1.00  0.00     0.064 A 
ATOM     69  C   UNL A   1      38.608  31.496  36.401  1.00  0.00     0.173 A 
ATOM     70  C   UNL A   1      40.076  33.222  35.600  1.00  0.00     0.173 A 
ATOM     71  F   UNL A   1      38.052  30.279  36.293  1.00  0.00    -0.203 F 
ATOM     72  C   UNL A   1      38.222  32.318  37.457  1.00  0.00     0.198 A 
ATOM     73  C   UNL A   1      39.711  34.030  36.674  1.00  0.00     0.198 A 
ATOM     74  F   UNL A   1      40.973  33.690  34.719  1.00  0.00    -0.203 F 
ATOM     75  F   UNL A   1      37.300  31.893  38.332  1.00  0.00    -0.200 F 
ATOM     76  C   UNL A   1      38.778  33.581  37.597  1.00  0.00     0.200 A 
ATOM     77  F   UNL A   1      40.261  35.244  36.816  1.00  0.00    -0.200 F 
ATOM     78  F   UNL A   1      38.411  34.367  38.618  1.00  0.00    -0.200 F 
ENDBRANCH  54  68
BRANCH  55  79
ATOM     79  C   UNL A   1      42.317  26.406  27.612  1.00  0.00     0.064 A 
ATOM     80  C   UNL A   1      43.327  26.802  26.726  1.00  0.00     0.173 A 
ATOM     81  C   UNL A   1      41.739  25.141  27.423  1.00  0.00     0.173 A 
ATOM     82  F   UNL A   1      43.898  28.007  26.858  1.00  0.00    -0.203 F 
ATOM     83  C   UNL A   1      43.756  25.958  25.703  1.00  0.00     0.198 A 
ATOM     84  C   UNL A   1      42.187  24.289  26.417  1.00  0.00     0.198 A 
ATOM     85  F   UNL A   1      40.774  24.714  28.253  1.00  0.00    -0.203 F 
ATOM     86  F   UNL A   1      44.720  26.361  24.864  1.00  0.00    -0.200 F 
ATOM     87  C   UNL A   1      43.195  24.697  25.559  1.00  0.00     0.200 A 
ATOM     88  F   UNL A   1      41.658  23.063  26.297  1.00  0.00    -0.200 F 
ATOM     89  F   UNL A   1      43.632  23.873  24.597  1.00  0.00    -0.200 F 
ENDBRANCH  55  79
BRANCH  67  90
ATOM     90  C   UNL A   1      44.917  27.385  34.037  1.00  0.00     0.064 A 
ATOM     91  C   UNL A   1      46.119  28.104  34.080  1.00  0.00     0.173 A 
ATOM     92  C   UNL A   1      44.828  26.201  34.785  1.00  0.00     0.173 A 
ATOM     93  F   UNL A   1      46.254  29.234  33.370  1.00  0.00    -0.203 F 
ATOM     94  C   UNL A   1      47.189  27.661  34.852  1.00  0.00     0.198 A 
ATOM     95  C   UNL A   1      45.892  25.774  35.575  1.00  0.00     0.198 A 
ATOM     96  F   UNL A   1      43.696  25.481  34.780  1.00  0.00    -0.203 F 
ATOM     97  F   UNL A   1      48.333  28.357  34.871  1.00  0.00    -0.200 F 
ATOM     98  C   UNL A   1      47.069  26.504  35.609  1.00  0.00     0.200 A 
ATOM     99  F   UNL A   1      45.768  24.665  36.319  1.00  0.00    -0.200 F 
ATOM    100  F   UNL A   1      48.091  26.096  36.376  1.00  0.00    -0.200 F 
ENDBRANCH  67  90
ENDBRANCH  41  42
ENDBRANCH  33  36
ENDBRANCH  31  32
ENDBRANCH   1  31
TORSDOF 12
ENDMDL
MODEL 3
REMARK VINA RESULT:     -13.2      0.662      7.099
REMARK SMILES Cc1cc2nc(NC3=[NH+][C@H](CC(=O)NCCCNC(=O)c4ccc(-c5c6nc(c(-c7c(F)c(F)c(F)c(F)c7F)c7ccc([nH]7)c(-c7c(F)c(F)c(F)c(F)c7F)c7nc(c(-c8c(F)c(F)c(F)c(F)c8F)c8ccc5[nH]8)C=C7)C=C6)cc4)C(=O)N3)nc(C)c2cc1C
REMARK SMILES IDX 16 1 15 2 14 3 12 4 13 5 11 7 10 8 7 9 8 10 9 12 86 13 84 15
REMARK SMILES IDX 85 17 6 18 1 19 2 20 3 21 92 22 4 23 91 24 93 25 5 26 90 27
REMARK SMILES IDX 88 28 87 29 89 30 17 31 18 32 19 33 20 35 21 36 22 37 83 38
REMARK SMILES IDX 23 39 82 40 24 41 25 42 26 43 76 44 27 45 81 46 75 47 77 48
REMARK SMILES IDX 28 49 80 50 74 51 73 52 29 54 61 55 41 56 60 57 42 58 45 59
REMARK SMILES IDX 59 60 78 61 43 62 44 63 58 65 79 66 46 67 30 68 31 69 39 70
REMARK SMILES IDX 32 71 33 72 37 73 40 74 34 75 35 76 38 77 36 78 62 79 63 80
REMARK SMILES IDX 71 81 64 82 65 83 69 84 72 85 66 86 67 87 70 88 68 89 47 90
REMARK SMILES IDX 48 91 56 92 49 93 50 94 54 95 57 96 51 97 52 98 55 99 53 100
REMARK H PARENT 14 6 7 11 9 14 86 16 18 34 77 53 45 64
REMARK Flexibility Score: inf
ROOT
ATOM      1  C   UNL A   1      34.014  27.953  25.914  1.00  0.00     0.042 C 
ENDROOT
BRANCH   1   2
ATOM      2  C   UNL A   1      33.187  26.824  25.306  1.00  0.00     0.117 C 
BRANCH   2   3
ATOM      3  N   UNL A   1      33.811  26.286  24.109  1.00  0.00    -0.356 N 
ATOM      4  C   UNL A   1      33.350  26.314  22.823  1.00  0.00     0.224 C 
ATOM      5  O   UNL A   1      33.988  25.699  21.967  1.00  0.00    -0.275 OA
ATOM      6  H   UNL A   1      34.680  25.844  24.242  1.00  0.00     0.163 HD
BRANCH   4   7
ATOM      7  C   UNL A   1      32.109  27.103  22.455  1.00  0.00     0.153 C 
BRANCH   7   8
ATOM      8  C   UNL A   1      30.861  26.236  22.394  1.00  0.00     0.260 C 
ATOM      9  N   UNL A   1      30.790  23.281  24.385  1.00  0.00    -0.212 N 
ATOM     10  C   UNL A   1      30.639  24.471  23.756  1.00  0.00     0.358 C 
ATOM     11  H   UNL A   1      29.986  22.838  24.740  1.00  0.00     0.270 HD
ATOM     12  N   UNL A   1      31.225  24.824  22.658  1.00  0.00    -0.263 N 
ATOM     13  N   UNL A   1      29.815  25.403  24.266  1.00  0.00    -0.211 N 
ATOM     14  H   UNL A   1      31.806  24.258  22.101  1.00  0.00     0.261 HD
ATOM     15  C   UNL A   1      29.905  26.546  23.531  1.00  0.00     0.320 C 
ATOM     16  H   UNL A   1      29.234  25.279  25.050  1.00  0.00     0.270 HD
ATOM     17  O   UNL A   1      29.355  27.600  23.780  1.00  0.00    -0.252 OA
BRANCH   9  18
ATOM     18  C   UNL A   1      32.018  22.651  24.557  1.00  0.00     0.291 A 
ATOM     19  C   UNL A   1      37.781  23.918  25.898  1.00  0.00     0.044 C 
ATOM     20  C   UNL A   1      36.652  22.968  25.606  1.00  0.00    -0.046 A 
ATOM     21  C   UNL A   1      35.355  23.502  25.501  1.00  0.00     0.033 A 
ATOM     22  C   UNL A   1      36.837  21.600  25.368  1.00  0.00    -0.047 A 
ATOM     23  C   UNL A   1      34.253  22.745  25.123  1.00  0.00     0.078 A 
ATOM     24  C   UNL A   1      35.724  20.824  25.000  1.00  0.00     0.016 A 
ATOM     25  C   UNL A   1      38.188  20.948  25.465  1.00  0.00     0.044 C 
ATOM     26  N   UNL A   1      33.071  23.356  24.993  1.00  0.00    -0.198 NA
ATOM     27  C   UNL A   1      34.432  21.393  24.859  1.00  0.00     0.022 A 
ATOM     28  C   UNL A   1      33.269  20.720  24.457  1.00  0.00     0.052 A 
ATOM     29  N   UNL A   1      32.066  21.334  24.318  1.00  0.00    -0.203 NA
ATOM     30  C   UNL A   1      33.287  19.251  24.143  1.00  0.00     0.067 C 
ENDBRANCH   9  18
ENDBRANCH   7   8
ENDBRANCH   4   7
ENDBRANCH   2   3
ENDBRANCH   1   2
BRANCH   1  31
ATOM     31  C   UNL A   1      33.535  28.403  27.280  1.00  0.00     0.118 C 
BRANCH  31  32
ATOM     32  N   UNL A   1      33.588  29.850  27.453  1.00  0.00    -0.352 N 
ATOM     33  C   UNL A   1      34.563  30.666  27.977  1.00  0.00     0.251 C 
ATOM     34  H   UNL A   1      32.786  30.327  27.138  1.00  0.00     0.163 HD
ATOM     35  O   UNL A   1      34.317  31.858  28.151  1.00  0.00    -0.269 OA
BRANCH  33  36
ATOM     36  C   UNL A   1      35.894  30.139  28.372  1.00  0.00     0.039 A 
ATOM     37  C   UNL A   1      36.126  29.574  29.623  1.00  0.00     0.014 A 
ATOM     38  C   UNL A   1      36.944  30.187  27.445  1.00  0.00     0.014 A 
ATOM     39  C   UNL A   1      37.421  29.261  30.020  1.00  0.00     0.010 A 
ATOM     40  C   UNL A   1      38.225  29.744  27.800  1.00  0.00     0.010 A 
ATOM     41  C   UNL A   1      38.489  29.326  29.112  1.00  0.00    -0.014 A 
BRANCH  41  42
ATOM     42  C   UNL A   1      39.846  28.913  29.565  1.00  0.00     0.031 A 
ATOM     43  C   UNL A   1      40.519  27.687  29.011  1.00  0.00     0.074 A 
ATOM     44  C   UNL A   1      40.505  29.700  30.439  1.00  0.00     0.049 A 
ATOM     45  N   UNL A   1      41.737  27.252  29.221  1.00  0.00    -0.248 NA
ATOM     46  C   UNL A   1      39.725  26.828  28.120  1.00  0.00     0.031 C 
ATOM     47  C   UNL A   1      39.949  30.899  31.068  1.00  0.00     0.029 A 
ATOM     48  N   UNL A   1      41.792  29.643  30.915  1.00  0.00    -0.354 N 
ATOM     49  C   UNL A   1      41.847  26.066  28.508  1.00  0.00     0.074 A 
ATOM     50  C   UNL A   1      40.562  25.826  27.891  1.00  0.00     0.031 C 
ATOM     51  C   UNL A   1      40.909  31.513  31.772  1.00  0.00     0.029 A 
ATOM     52  C   UNL A   1      42.130  30.716  31.704  1.00  0.00     0.049 A 
ATOM     53  H   UNL A   1      42.411  28.905  30.712  1.00  0.00     0.167 HD
ATOM     54  C   UNL A   1      42.928  25.261  28.366  1.00  0.00     0.037 A 
ATOM     55  C   UNL A   1      43.293  31.034  32.305  1.00  0.00     0.037 A 
ATOM     56  C   UNL A   1      44.216  25.523  28.955  1.00  0.00     0.049 A 
ATOM     57  C   UNL A   1      44.475  30.126  32.139  1.00  0.00     0.074 A 
ATOM     58  C   UNL A   1      45.386  24.797  28.821  1.00  0.00     0.029 A 
ATOM     59  N   UNL A   1      44.502  26.592  29.791  1.00  0.00    -0.354 N 
ATOM     60  N   UNL A   1      44.577  29.033  31.424  1.00  0.00    -0.248 NA
ATOM     61  C   UNL A   1      45.699  30.485  32.869  1.00  0.00     0.031 C 
ATOM     62  C   UNL A   1      46.365  25.395  29.620  1.00  0.00     0.029 A 
ATOM     63  C   UNL A   1      45.822  26.526  30.208  1.00  0.00     0.049 A 
ATOM     64  H   UNL A   1      43.862  27.295  30.051  1.00  0.00     0.167 HD
ATOM     65  C   UNL A   1      45.874  28.575  31.608  1.00  0.00     0.074 A 
ATOM     66  C   UNL A   1      46.528  29.518  32.492  1.00  0.00     0.031 C 
ATOM     67  C   UNL A   1      46.462  27.471  31.091  1.00  0.00     0.037 A 
BRANCH  54  68
ATOM     68  C   UNL A   1      42.769  24.010  27.550  1.00  0.00     0.064 A 
ATOM     69  C   UNL A   1      43.084  23.973  26.183  1.00  0.00     0.173 A 
ATOM     70  C   UNL A   1      42.340  22.817  28.155  1.00  0.00     0.173 A 
ATOM     71  F   UNL A   1      43.491  25.086  25.554  1.00  0.00    -0.203 F 
ATOM     72  C   UNL A   1      42.950  22.798  25.447  1.00  0.00     0.198 A 
ATOM     73  C   UNL A   1      42.236  21.637  27.423  1.00  0.00     0.198 A 
ATOM     74  F   UNL A   1      42.035  22.793  29.461  1.00  0.00    -0.203 F 
ATOM     75  F   UNL A   1      43.211  22.800  24.132  1.00  0.00    -0.200 F 
ATOM     76  C   UNL A   1      42.533  21.630  26.068  1.00  0.00     0.200 A 
ATOM     77  F   UNL A   1      41.847  20.506  28.028  1.00  0.00    -0.200 F 
ATOM     78  F   UNL A   1      42.411  20.500  25.359  1.00  0.00    -0.200 F 
ENDBRANCH  54  68
BRANCH  55  79
ATOM     79  C   UNL A   1      43.375  32.294  33.087  1.00  0.00     0.064 A 
ATOM     80  C   UNL A   1      43.762  33.494  32.477  1.00  0.00     0.173 A 
ATOM     81  C   UNL A   1      42.976  32.342  34.431  1.00  0.00     0.173 A 
ATOM     82  F   UNL A   1      44.165  33.496  31.198  1.00  0.00    -0.203 F 
ATOM     83  C   UNL A   1      43.731  34.698  33.178  1.00  0.00     0.198 A 
ATOM     84  C   UNL A   1      42.921  33.549  35.123  1.00  0.00     0.198 A 
ATOM     85  F   UNL A   1      42.587  31.219  35.056  1.00  0.00    -0.203 F 
ATOM     86  F   UNL A   1      44.111  35.833  32.575  1.00  0.00    -0.200 F 
ATOM     87  C   UNL A   1      43.298  34.726  34.496  1.00  0.00     0.200 A 
ATOM     88  F   UNL A   1      42.479  33.574  36.387  1.00  0.00    -0.200 F 
ATOM     89  F   UNL A   1      43.236  35.889  35.159  1.00  0.00    -0.200 F 
ENDBRANCH  55  79
BRANCH  67  90
ATOM     90  C   UNL A   1      47.891  27.202  31.455  1.00  0.00     0.064 A 
ATOM     91  C   UNL A   1      48.225  26.332  32.501  1.00  0.00     0.173 A 
ATOM     92  C   UNL A   1      48.933  27.729  30.676  1.00  0.00     0.173 A 
ATOM     93  F   UNL A   1      47.264  25.814  33.281  1.00  0.00    -0.203 F 
ATOM     94  C   UNL A   1      49.551  25.992  32.753  1.00  0.00     0.198 A 
ATOM     95  C   UNL A   1      50.257  27.368  30.915  1.00  0.00     0.198 A 
ATOM     96  F   UNL A   1      48.663  28.561  29.660  1.00  0.00    -0.203 F 
ATOM     97  F   UNL A   1      49.850  25.167  33.765  1.00  0.00    -0.200 F 
ATOM     98  C   UNL A   1      50.564  26.500  31.951  1.00  0.00     0.200 A 
ATOM     99  F   UNL A   1      51.231  27.847  30.129  1.00  0.00    -0.200 F 
ATOM    100  F   UNL A   1      51.838  26.148  32.176  1.00  0.00    -0.200 F 
ENDBRANCH  67  90
ENDBRANCH  41  42
ENDBRANCH  33  36
ENDBRANCH  31  32
ENDBRANCH   1  31
TORSDOF 12
ENDMDL
