MODEL 1
REMARK VINA RESULT:     -11.8      0.000      0.000
REMARK SMILES CC[N@H+](Cc1cccc(C)n1)[C@H](C(=O)NCCCNC(=O)c1ccc(-c2c3nc(c(-c4c(F)c(F)c(F)c(F)c4F)c4ccc([nH]4)c(-c4c(F)c(F)c(F)c(F)c4F)c4nc(c(-c5c(F)c(F)c(F)c(F)c5F)c5ccc2[nH]5)C=C4)C=C3)cc1)C(C)C
REMARK SMILES IDX 16 1 15 2 13 3 14 4 12 6 3 7 2 9 1 10 4 11 5 12 6 13 11 14
REMARK SMILES IDX 7 15 9 16 8 17 10 18 85 19 86 20 87 21 17 22 18 23 19 24
REMARK SMILES IDX 20 25 21 27 22 28 23 29 84 30 24 31 83 32 25 33 26 34 27 35
REMARK SMILES IDX 77 36 28 37 82 38 76 39 78 40 29 41 81 42 75 43 74 44 30 46
REMARK SMILES IDX 62 47 42 48 61 49 43 50 46 51 60 52 79 53 44 54 45 55 59 57
REMARK SMILES IDX 80 58 47 59 31 60 32 61 40 62 33 63 34 64 38 65 41 66 35 67
REMARK SMILES IDX 36 68 39 69 37 70 63 71 64 72 72 73 65 74 66 75 70 76 73 77
REMARK SMILES IDX 67 78 68 79 71 80 69 81 48 82 49 83 57 84 50 85 51 86 55 87
REMARK SMILES IDX 58 88 52 89 53 90 56 91 54 92
REMARK H PARENT 15 5 3 8 19 26 78 45 46 56
REMARK Flexibility Score: inf
ROOT
ATOM      1  C   UNL A   1      31.746  30.745  26.138  1.00  0.00     0.118 C 
ENDROOT
BRANCH   1   2
ATOM      2  N   UNL A   1      31.477  29.700  27.110  1.00  0.00    -0.351 N 
ATOM      3  C   UNL A   1      31.645  28.357  27.164  1.00  0.00     0.278 C 
ATOM      4  O   UNL A   1      31.441  27.886  28.295  1.00  0.00    -0.268 OA
ATOM      5  H   UNL A   1      31.073  30.057  27.934  1.00  0.00     0.163 HD
BRANCH   3   6
ATOM      6  C   UNL A   1      32.000  27.402  25.971  1.00  0.00     0.277 C 
BRANCH   6   7
ATOM      7  N   UNL A   1      30.815  27.201  25.060  1.00  0.00    -0.320 N 
ATOM      8  H   UNL A   1      30.028  27.445  25.661  1.00  0.00     0.349 HD
BRANCH   7   9
ATOM      9  C   UNL A   1      30.597  25.816  24.593  1.00  0.00     0.259 C 
ATOM     10  C   UNL A   1      30.557  24.763  25.691  1.00  0.00     0.071 C 
ENDBRANCH   7   9
BRANCH   7  11
ATOM     11  C   UNL A   1      30.865  28.095  23.857  1.00  0.00     0.320 C 
BRANCH  11  12
ATOM     12  C   UNL A   1      29.624  28.916  23.525  1.00  0.00     0.095 A 
ATOM     13  C   UNL A   1      28.443  28.331  23.089  1.00  0.00     0.030 A 
ATOM     14  N   UNL A   1      29.754  30.267  23.596  1.00  0.00    -0.252 NA
ATOM     15  C   UNL A   1      27.337  29.126  22.818  1.00  0.00     0.004 A 
ATOM     16  C   UNL A   1      28.687  31.039  23.271  1.00  0.00     0.038 A 
ATOM     17  C   UNL A   1      27.457  30.504  22.909  1.00  0.00     0.023 A 
ATOM     18  C   UNL A   1      28.901  32.522  23.271  1.00  0.00     0.067 C 
ENDBRANCH  11  12
ENDBRANCH   7  11
ENDBRANCH   6   7
BRANCH   6  19
ATOM     19  C   UNL A   1      33.320  27.660  25.188  1.00  0.00     0.051 C 
ATOM     20  C   UNL A   1      34.387  28.279  26.114  1.00  0.00     0.014 C 
ATOM     21  C   UNL A   1      33.966  26.441  24.518  1.00  0.00     0.014 C 
ENDBRANCH   6  19
ENDBRANCH   3   6
ENDBRANCH   1   2
BRANCH   1  22
ATOM     22  C   UNL A   1      31.471  32.130  26.688  1.00  0.00     0.042 C 
BRANCH  22  23
ATOM     23  C   UNL A   1      32.714  32.775  27.273  1.00  0.00     0.118 C 
BRANCH  23  24
ATOM     24  N   UNL A   1      32.502  34.183  27.598  1.00  0.00    -0.352 N 
ATOM     25  C   UNL A   1      33.010  34.947  28.622  1.00  0.00     0.251 C 
ATOM     26  H   UNL A   1      31.898  34.662  26.986  1.00  0.00     0.163 HD
ATOM     27  O   UNL A   1      32.501  36.027  28.894  1.00  0.00    -0.269 OA
BRANCH  25  28
ATOM     28  C   UNL A   1      34.161  34.450  29.401  1.00  0.00     0.039 A 
ATOM     29  C   UNL A   1      33.959  33.926  30.679  1.00  0.00     0.014 A 
ATOM     30  C   UNL A   1      35.445  34.504  28.859  1.00  0.00     0.014 A 
ATOM     31  C   UNL A   1      35.040  33.383  31.376  1.00  0.00     0.010 A 
ATOM     32  C   UNL A   1      36.485  33.841  29.488  1.00  0.00     0.010 A 
ATOM     33  C   UNL A   1      36.302  33.294  30.765  1.00  0.00    -0.014 A 
BRANCH  33  34
ATOM     34  C   UNL A   1      37.461  32.668  31.445  1.00  0.00     0.031 A 
ATOM     35  C   UNL A   1      38.181  31.523  30.786  1.00  0.00     0.074 A 
ATOM     36  C   UNL A   1      37.807  33.072  32.683  1.00  0.00     0.049 A 
ATOM     37  N   UNL A   1      39.146  30.771  31.252  1.00  0.00    -0.248 NA
ATOM     38  C   UNL A   1      37.726  31.139  29.438  1.00  0.00     0.031 C 
ATOM     39  C   UNL A   1      37.142  34.129  33.447  1.00  0.00     0.029 A 
ATOM     40  N   UNL A   1      38.800  32.634  33.522  1.00  0.00    -0.354 N 
ATOM     41  C   UNL A   1      39.392  29.823  30.269  1.00  0.00     0.074 A 
ATOM     42  C   UNL A   1      38.427  30.039  29.216  1.00  0.00     0.031 C 
ATOM     43  C   UNL A   1      37.766  34.282  34.625  1.00  0.00     0.029 A 
ATOM     44  C   UNL A   1      38.844  33.303  34.720  1.00  0.00     0.049 A 
ATOM     45  H   UNL A   1      39.422  31.907  33.286  1.00  0.00     0.167 HD
ATOM     46  C   UNL A   1      40.359  28.876  30.232  1.00  0.00     0.037 A 
ATOM     47  C   UNL A   1      39.659  33.137  35.778  1.00  0.00     0.037 A 
ATOM     48  C   UNL A   1      41.338  28.692  31.269  1.00  0.00     0.049 A 
ATOM     49  C   UNL A   1      40.727  32.078  35.711  1.00  0.00     0.074 A 
ATOM     50  C   UNL A   1      42.401  27.810  31.305  1.00  0.00     0.029 A 
ATOM     51  N   UNL A   1      41.367  29.408  32.458  1.00  0.00    -0.354 N 
ATOM     52  N   UNL A   1      41.001  31.236  34.744  1.00  0.00    -0.248 NA
ATOM     53  C   UNL A   1      41.606  31.952  36.881  1.00  0.00     0.031 C 
ATOM     54  C   UNL A   1      43.042  27.953  32.540  1.00  0.00     0.029 A 
ATOM     55  C   UNL A   1      42.418  28.969  33.246  1.00  0.00     0.049 A 
ATOM     56  H   UNL A   1      40.736  30.121  32.705  1.00  0.00     0.167 HD
ATOM     57  C   UNL A   1      42.099  30.503  35.173  1.00  0.00     0.074 A 
ATOM     58  C   UNL A   1      42.453  31.014  36.481  1.00  0.00     0.031 C 
ATOM     59  C   UNL A   1      42.756  29.499  34.542  1.00  0.00     0.037 A 
BRANCH  46  60
ATOM     60  C   UNL A   1      40.409  27.978  29.028  1.00  0.00     0.064 A 
ATOM     61  C   UNL A   1      39.684  26.776  28.973  1.00  0.00     0.173 A 
ATOM     62  C   UNL A   1      41.170  28.334  27.904  1.00  0.00     0.173 A 
ATOM     63  F   UNL A   1      38.951  26.380  30.024  1.00  0.00    -0.203 F 
ATOM     64  C   UNL A   1      39.746  25.952  27.852  1.00  0.00     0.198 A 
ATOM     65  C   UNL A   1      41.200  27.524  26.771  1.00  0.00     0.198 A 
ATOM     66  F   UNL A   1      41.880  29.472  27.901  1.00  0.00    -0.203 F 
ATOM     67  F   UNL A   1      39.092  24.782  27.847  1.00  0.00    -0.200 F 
ATOM     68  C   UNL A   1      40.497  26.329  26.750  1.00  0.00     0.200 A 
ATOM     69  F   UNL A   1      41.914  27.899  25.702  1.00  0.00    -0.200 F 
ATOM     70  F   UNL A   1      40.548  25.539  25.670  1.00  0.00    -0.200 F 
ENDBRANCH  46  60
BRANCH  47  71
ATOM     71  C   UNL A   1      39.518  34.008  36.974  1.00  0.00     0.064 A 
ATOM     72  C   UNL A   1      40.132  35.268  37.025  1.00  0.00     0.173 A 
ATOM     73  C   UNL A   1      38.775  33.602  38.093  1.00  0.00     0.173 A 
ATOM     74  F   UNL A   1      40.866  35.696  35.987  1.00  0.00    -0.203 F 
ATOM     75  C   UNL A   1      40.032  36.074  38.157  1.00  0.00     0.198 A 
ATOM     76  C   UNL A   1      38.649  34.423  39.211  1.00  0.00     0.198 A 
ATOM     77  F   UNL A   1      38.160  32.410  38.095  1.00  0.00    -0.203 F 
ATOM     78  F   UNL A   1      40.673  37.251  38.197  1.00  0.00    -0.200 F 
ATOM     79  C   UNL A   1      39.286  35.654  39.247  1.00  0.00     0.200 A 
ATOM     80  F   UNL A   1      37.911  34.021  40.255  1.00  0.00    -0.200 F 
ATOM     81  F   UNL A   1      39.188  36.431  40.334  1.00  0.00    -0.200 F 
ENDBRANCH  47  71
BRANCH  59  82
ATOM     82  C   UNL A   1      43.951  28.915  35.241  1.00  0.00     0.064 A 
ATOM     83  C   UNL A   1      43.832  27.843  36.137  1.00  0.00     0.173 A 
ATOM     84  C   UNL A   1      45.238  29.406  34.970  1.00  0.00     0.173 A 
ATOM     85  F   UNL A   1      42.623  27.346  36.438  1.00  0.00    -0.203 F 
ATOM     86  C   UNL A   1      44.953  27.305  36.762  1.00  0.00     0.198 A 
ATOM     87  C   UNL A   1      46.360  28.842  35.569  1.00  0.00     0.198 A 
ATOM     88  F   UNL A   1      45.407  30.423  34.113  1.00  0.00    -0.203 F 
ATOM     89  F   UNL A   1      44.810  26.318  37.657  1.00  0.00    -0.200 F 
ATOM     90  C   UNL A   1      46.217  27.799  36.471  1.00  0.00     0.200 A 
ATOM     91  F   UNL A   1      47.581  29.308  35.272  1.00  0.00    -0.200 F 
ATOM     92  F   UNL A   1      47.296  27.273  37.065  1.00  0.00    -0.200 F 
ENDBRANCH  59  82
ENDBRANCH  33  34
ENDBRANCH  25  28
ENDBRANCH  23  24
ENDBRANCH  22  23
ENDBRANCH   1  22
TORSDOF 15
ENDMDL
MODEL 2
REMARK VINA RESULT:     -11.8      1.280      3.378
REMARK SMILES CC[N@H+](Cc1cccc(C)n1)[C@H](C(=O)NCCCNC(=O)c1ccc(-c2c3nc(c(-c4c(F)c(F)c(F)c(F)c4F)c4ccc([nH]4)c(-c4c(F)c(F)c(F)c(F)c4F)c4nc(c(-c5c(F)c(F)c(F)c(F)c5F)c5ccc2[nH]5)C=C4)C=C3)cc1)C(C)C
REMARK SMILES IDX 16 1 15 2 13 3 14 4 12 6 3 7 2 9 1 10 4 11 5 12 6 13 11 14
REMARK SMILES IDX 7 15 9 16 8 17 10 18 85 19 86 20 87 21 17 22 18 23 19 24
REMARK SMILES IDX 20 25 21 27 22 28 23 29 84 30 24 31 83 32 25 33 26 34 27 35
REMARK SMILES IDX 77 36 28 37 82 38 76 39 78 40 29 41 81 42 75 43 74 44 30 46
REMARK SMILES IDX 62 47 42 48 61 49 43 50 46 51 60 52 79 53 44 54 45 55 59 57
REMARK SMILES IDX 80 58 47 59 31 60 32 61 40 62 33 63 34 64 38 65 41 66 35 67
REMARK SMILES IDX 36 68 39 69 37 70 63 71 64 72 72 73 65 74 66 75 70 76 73 77
REMARK SMILES IDX 67 78 68 79 71 80 69 81 48 82 49 83 57 84 50 85 51 86 55 87
REMARK SMILES IDX 58 88 52 89 53 90 56 91 54 92
REMARK H PARENT 15 5 3 8 19 26 78 45 46 56
REMARK Flexibility Score: inf
ROOT
ATOM      1  C   UNL A   1      31.666  30.723  26.080  1.00  0.00     0.118 C 
ENDROOT
BRANCH   1   2
ATOM      2  N   UNL A   1      30.981  30.445  24.830  1.00  0.00    -0.351 N 
ATOM      3  C   UNL A   1      30.636  29.333  24.138  1.00  0.00     0.278 C 
ATOM      4  O   UNL A   1      29.874  29.568  23.187  1.00  0.00    -0.268 OA
ATOM      5  H   UNL A   1      30.695  31.269  24.374  1.00  0.00     0.163 HD
BRANCH   3   6
ATOM      6  C   UNL A   1      31.139  27.869  24.394  1.00  0.00     0.277 C 
BRANCH   6   7
ATOM      7  N   UNL A   1      32.502  27.645  23.788  1.00  0.00    -0.320 N 
ATOM      8  H   UNL A   1      33.051  27.326  24.587  1.00  0.00     0.349 HD
BRANCH   7   9
ATOM      9  C   UNL A   1      33.167  28.850  23.252  1.00  0.00     0.259 C 
ATOM     10  C   UNL A   1      34.396  28.583  22.394  1.00  0.00     0.071 C 
ENDBRANCH   7   9
BRANCH   7  11
ATOM     11  C   UNL A   1      32.479  26.606  22.708  1.00  0.00     0.320 C 
BRANCH  11  12
ATOM     12  C   UNL A   1      33.152  25.267  22.990  1.00  0.00     0.095 A 
ATOM     13  C   UNL A   1      32.815  24.109  22.302  1.00  0.00     0.030 A 
ATOM     14  N   UNL A   1      34.046  25.241  24.013  1.00  0.00    -0.252 NA
ATOM     15  C   UNL A   1      33.474  22.919  22.588  1.00  0.00     0.004 A 
ATOM     16  C   UNL A   1      34.640  24.063  24.326  1.00  0.00     0.038 A 
ATOM     17  C   UNL A   1      34.402  22.891  23.617  1.00  0.00     0.023 A 
ATOM     18  C   UNL A   1      35.547  24.059  25.519  1.00  0.00     0.067 C 
ENDBRANCH  11  12
ENDBRANCH   7  11
ENDBRANCH   6   7
BRANCH   6  19
ATOM     19  C   UNL A   1      31.021  27.291  25.834  1.00  0.00     0.051 C 
ATOM     20  C   UNL A   1      30.302  25.926  25.813  1.00  0.00     0.014 C 
ATOM     21  C   UNL A   1      32.336  27.088  26.598  1.00  0.00     0.014 C 
ENDBRANCH   6  19
ENDBRANCH   3   6
ENDBRANCH   1   2
BRANCH   1  22
ATOM     22  C   UNL A   1      31.406  32.129  26.581  1.00  0.00     0.042 C 
BRANCH  22  23
ATOM     23  C   UNL A   1      32.588  32.695  27.349  1.00  0.00     0.118 C 
BRANCH  23  24
ATOM     24  N   UNL A   1      32.438  34.124  27.614  1.00  0.00    -0.352 N 
ATOM     25  C   UNL A   1      32.988  34.909  28.599  1.00  0.00     0.251 C 
ATOM     26  H   UNL A   1      31.847  34.601  26.987  1.00  0.00     0.163 HD
ATOM     27  O   UNL A   1      32.527  36.020  28.829  1.00  0.00    -0.269 OA
BRANCH  25  28
ATOM     28  C   UNL A   1      34.127  34.399  29.387  1.00  0.00     0.039 A 
ATOM     29  C   UNL A   1      33.899  33.801  30.628  1.00  0.00     0.014 A 
ATOM     30  C   UNL A   1      35.425  34.512  28.891  1.00  0.00     0.014 A 
ATOM     31  C   UNL A   1      34.970  33.247  31.330  1.00  0.00     0.010 A 
ATOM     32  C   UNL A   1      36.462  33.841  29.517  1.00  0.00     0.010 A 
ATOM     33  C   UNL A   1      36.253  33.222  30.756  1.00  0.00    -0.014 A 
BRANCH  33  34
ATOM     34  C   UNL A   1      37.406  32.588  31.439  1.00  0.00     0.031 A 
ATOM     35  C   UNL A   1      38.118  31.436  30.784  1.00  0.00     0.074 A 
ATOM     36  C   UNL A   1      37.753  32.992  32.677  1.00  0.00     0.049 A 
ATOM     37  N   UNL A   1      39.076  30.678  31.253  1.00  0.00    -0.248 NA
ATOM     38  C   UNL A   1      37.662  31.053  29.436  1.00  0.00     0.031 C 
ATOM     39  C   UNL A   1      37.096  34.056  33.438  1.00  0.00     0.029 A 
ATOM     40  N   UNL A   1      38.741  32.547  33.518  1.00  0.00    -0.354 N 
ATOM     41  C   UNL A   1      39.316  29.725  30.272  1.00  0.00     0.074 A 
ATOM     42  C   UNL A   1      38.355  29.947  29.217  1.00  0.00     0.031 C 
ATOM     43  C   UNL A   1      37.719  34.205  34.617  1.00  0.00     0.029 A 
ATOM     44  C   UNL A   1      38.789  33.218  34.715  1.00  0.00     0.049 A 
ATOM     45  H   UNL A   1      39.358  31.815  33.285  1.00  0.00     0.167 HD
ATOM     46  C   UNL A   1      40.276  28.771  30.238  1.00  0.00     0.037 A 
ATOM     47  C   UNL A   1      39.602  33.048  35.775  1.00  0.00     0.037 A 
ATOM     48  C   UNL A   1      41.251  28.581  31.277  1.00  0.00     0.049 A 
ATOM     49  C   UNL A   1      40.661  31.980  35.711  1.00  0.00     0.074 A 
ATOM     50  C   UNL A   1      42.308  27.691  31.317  1.00  0.00     0.029 A 
ATOM     51  N   UNL A   1      41.284  29.299  32.465  1.00  0.00    -0.354 N 
ATOM     52  N   UNL A   1      40.930  31.134  34.746  1.00  0.00    -0.248 NA
ATOM     53  C   UNL A   1      41.537  31.849  36.883  1.00  0.00     0.031 C 
ATOM     54  C   UNL A   1      42.948  27.831  32.552  1.00  0.00     0.029 A 
ATOM     55  C   UNL A   1      42.331  28.853  33.255  1.00  0.00     0.049 A 
ATOM     56  H   UNL A   1      40.659  30.018  32.709  1.00  0.00     0.167 HD
ATOM     57  C   UNL A   1      42.021  30.394  35.178  1.00  0.00     0.074 A 
ATOM     58  C   UNL A   1      42.377  30.903  36.487  1.00  0.00     0.031 C 
ATOM     59  C   UNL A   1      42.671  29.383  34.551  1.00  0.00     0.037 A 
BRANCH  46  60
ATOM     60  C   UNL A   1      40.320  27.870  29.036  1.00  0.00     0.064 A 
ATOM     61  C   UNL A   1      41.075  28.195  27.897  1.00  0.00     0.173 A 
ATOM     62  C   UNL A   1      39.622  26.653  29.032  1.00  0.00     0.173 A 
ATOM     63  F   UNL A   1      41.751  29.353  27.841  1.00  0.00    -0.203 F 
ATOM     64  C   UNL A   1      41.101  27.352  26.789  1.00  0.00     0.198 A 
ATOM     65  C   UNL A   1      39.681  25.795  27.935  1.00  0.00     0.198 A 
ATOM     66  F   UNL A   1      38.888  26.290  30.094  1.00  0.00    -0.203 F 
ATOM     67  F   UNL A   1      41.780  27.713  25.691  1.00  0.00    -0.200 F 
ATOM     68  C   UNL A   1      40.411  26.150  26.812  1.00  0.00     0.200 A 
ATOM     69  F   UNL A   1      39.025  24.627  27.966  1.00  0.00    -0.200 F 
ATOM     70  F   UNL A   1      40.444  25.337  25.748  1.00  0.00    -0.200 F 
ENDBRANCH  46  60
BRANCH  47  71
ATOM     71  C   UNL A   1      39.465  33.922  36.969  1.00  0.00     0.064 A 
ATOM     72  C   UNL A   1      38.719  33.511  38.082  1.00  0.00     0.173 A 
ATOM     73  C   UNL A   1      40.069  35.188  37.023  1.00  0.00     0.173 A 
ATOM     74  F   UNL A   1      38.109  32.316  38.074  1.00  0.00    -0.203 F 
ATOM     75  C   UNL A   1      38.558  34.340  39.191  1.00  0.00     0.198 A 
ATOM     76  C   UNL A   1      39.935  36.003  38.145  1.00  0.00     0.198 A 
ATOM     77  F   UNL A   1      40.801  35.628  35.990  1.00  0.00    -0.203 F 
ATOM     78  F   UNL A   1      37.796  33.942  40.218  1.00  0.00    -0.200 F 
ATOM     79  C   UNL A   1      39.171  35.583  39.224  1.00  0.00     0.200 A 
ATOM     80  F   UNL A   1      40.545  37.196  38.181  1.00  0.00    -0.200 F 
ATOM     81  F   UNL A   1      39.019  36.379  40.291  1.00  0.00    -0.200 F 
ENDBRANCH  47  71
BRANCH  59  82
ATOM     82  C   UNL A   1      43.860  28.790  35.252  1.00  0.00     0.064 A 
ATOM     83  C   UNL A   1      45.154  29.301  35.072  1.00  0.00     0.173 A 
ATOM     84  C   UNL A   1      43.692  27.726  36.152  1.00  0.00     0.173 A 
ATOM     85  F   UNL A   1      45.368  30.309  34.214  1.00  0.00    -0.203 F 
ATOM     86  C   UNL A   1      46.240  28.748  35.744  1.00  0.00     0.198 A 
ATOM     87  C   UNL A   1      44.775  27.200  36.849  1.00  0.00     0.198 A 
ATOM     88  F   UNL A   1      42.474  27.208  36.367  1.00  0.00    -0.203 F 
ATOM     89  F   UNL A   1      47.475  29.215  35.515  1.00  0.00    -0.200 F 
ATOM     90  C   UNL A   1      46.049  27.704  36.637  1.00  0.00     0.200 A 
ATOM     91  F   UNL A   1      44.585  26.204  37.726  1.00  0.00    -0.200 F 
ATOM     92  F   UNL A   1      47.094  27.180  37.290  1.00  0.00    -0.200 F 
ENDBRANCH  59  82
ENDBRANCH  33  34
ENDBRANCH  25  28
ENDBRANCH  23  24
ENDBRANCH  22  23
ENDBRANCH   1  22
TORSDOF 15
ENDMDL
MODEL 3
REMARK VINA RESULT:     -11.7      6.516     11.719
REMARK SMILES CC[N@H+](Cc1cccc(C)n1)[C@H](C(=O)NCCCNC(=O)c1ccc(-c2c3nc(c(-c4c(F)c(F)c(F)c(F)c4F)c4ccc([nH]4)c(-c4c(F)c(F)c(F)c(F)c4F)c4nc(c(-c5c(F)c(F)c(F)c(F)c5F)c5ccc2[nH]5)C=C4)C=C3)cc1)C(C)C
REMARK SMILES IDX 16 1 15 2 13 3 14 4 12 6 3 7 2 9 1 10 4 11 5 12 6 13 11 14
REMARK SMILES IDX 7 15 9 16 8 17 10 18 85 19 86 20 87 21 17 22 18 23 19 24
REMARK SMILES IDX 20 25 21 27 22 28 23 29 84 30 24 31 83 32 25 33 26 34 27 35
REMARK SMILES IDX 77 36 28 37 82 38 76 39 78 40 29 41 81 42 75 43 74 44 30 46
REMARK SMILES IDX 62 47 42 48 61 49 43 50 46 51 60 52 79 53 44 54 45 55 59 57
REMARK SMILES IDX 80 58 47 59 31 60 32 61 40 62 33 63 34 64 38 65 41 66 35 67
REMARK SMILES IDX 36 68 39 69 37 70 63 71 64 72 72 73 65 74 66 75 70 76 73 77
REMARK SMILES IDX 67 78 68 79 71 80 69 81 48 82 49 83 57 84 50 85 51 86 55 87
REMARK SMILES IDX 58 88 52 89 53 90 56 91 54 92
REMARK H PARENT 15 5 3 8 19 26 78 45 46 56
REMARK Flexibility Score: inf
ROOT
ATOM      1  C   UNL A   1      36.506  20.486  25.237  1.00  0.00     0.118 C 
ENDROOT
BRANCH   1   2
ATOM      2  N   UNL A   1      36.256  21.803  24.680  1.00  0.00    -0.351 N 
ATOM      3  C   UNL A   1      35.212  22.665  24.657  1.00  0.00     0.278 C 
ATOM      4  O   UNL A   1      35.515  23.784  24.214  1.00  0.00    -0.268 OA
ATOM      5  H   UNL A   1      37.039  22.156  24.200  1.00  0.00     0.163 HD
BRANCH   3   6
ATOM      6  C   UNL A   1      33.729  22.362  25.070  1.00  0.00     0.277 C 
BRANCH   6   7
ATOM      7  N   UNL A   1      33.130  21.281  24.205  1.00  0.00    -0.320 N 
ATOM      8  H   UNL A   1      33.940  20.930  23.694  1.00  0.00     0.349 HD
BRANCH   7   9
ATOM      9  C   UNL A   1      32.145  21.738  23.203  1.00  0.00     0.259 C 
ATOM     10  C   UNL A   1      31.932  20.795  22.028  1.00  0.00     0.071 C 
ENDBRANCH   7   9
BRANCH   7  11
ATOM     11  C   UNL A   1      32.497  20.191  25.016  1.00  0.00     0.320 C 
BRANCH  11  12
ATOM     12  C   UNL A   1      33.000  18.765  24.813  1.00  0.00     0.095 A 
ATOM     13  C   UNL A   1      33.986  18.453  23.887  1.00  0.00     0.030 A 
ATOM     14  N   UNL A   1      32.373  17.794  25.527  1.00  0.00    -0.252 NA
ATOM     15  C   UNL A   1      34.420  17.140  23.757  1.00  0.00     0.004 A 
ATOM     16  C   UNL A   1      32.761  16.507  25.349  1.00  0.00     0.038 A 
ATOM     17  C   UNL A   1      33.798  16.147  24.497  1.00  0.00     0.023 A 
ATOM     18  C   UNL A   1      31.981  15.458  26.084  1.00  0.00     0.067 C 
ENDBRANCH  11  12
ENDBRANCH   7  11
ENDBRANCH   6   7
BRANCH   6  19
ATOM     19  C   UNL A   1      33.409  22.166  26.580  1.00  0.00     0.051 C 
ATOM     20  C   UNL A   1      34.574  22.678  27.452  1.00  0.00     0.014 C 
ATOM     21  C   UNL A   1      32.134  22.840  27.102  1.00  0.00     0.014 C 
ENDBRANCH   6  19
ENDBRANCH   3   6
ENDBRANCH   1   2
BRANCH   1  22
ATOM     22  C   UNL A   1      37.856  19.932  24.829  1.00  0.00     0.042 C 
BRANCH  22  23
ATOM     23  C   UNL A   1      38.961  20.342  25.786  1.00  0.00     0.118 C 
BRANCH  23  24
ATOM     24  N   UNL A   1      39.962  19.291  25.954  1.00  0.00    -0.352 N 
ATOM     25  C   UNL A   1      41.329  19.373  26.064  1.00  0.00     0.251 C 
ATOM     26  H   UNL A   1      39.598  18.377  25.994  1.00  0.00     0.163 HD
ATOM     27  O   UNL A   1      42.019  18.373  25.916  1.00  0.00    -0.269 OA
BRANCH  25  28
ATOM     28  C   UNL A   1      41.961  20.677  26.347  1.00  0.00     0.039 A 
ATOM     29  C   UNL A   1      42.274  21.538  25.293  1.00  0.00     0.014 A 
ATOM     30  C   UNL A   1      42.242  21.047  27.661  1.00  0.00     0.014 A 
ATOM     31  C   UNL A   1      42.794  22.803  25.572  1.00  0.00     0.010 A 
ATOM     32  C   UNL A   1      42.623  22.347  27.944  1.00  0.00     0.010 A 
ATOM     33  C   UNL A   1      42.928  23.234  26.903  1.00  0.00    -0.014 A 
BRANCH  33  34
ATOM     34  C   UNL A   1      43.418  24.591  27.243  1.00  0.00     0.031 A 
ATOM     35  C   UNL A   1      42.463  25.606  27.812  1.00  0.00     0.074 A 
ATOM     36  C   UNL A   1      44.690  24.932  26.961  1.00  0.00     0.049 A 
ATOM     37  N   UNL A   1      42.660  26.871  28.080  1.00  0.00    -0.248 NA
ATOM     38  C   UNL A   1      41.087  25.149  28.076  1.00  0.00     0.031 C 
ATOM     39  C   UNL A   1      45.689  24.053  26.350  1.00  0.00     0.029 A 
ATOM     40  N   UNL A   1      45.360  26.115  27.143  1.00  0.00    -0.354 N 
ATOM     41  C   UNL A   1      41.436  27.358  28.517  1.00  0.00     0.074 A 
ATOM     42  C   UNL A   1      40.483  26.278  28.406  1.00  0.00     0.031 C 
ATOM     43  C   UNL A   1      46.851  24.714  26.240  1.00  0.00     0.029 A 
ATOM     44  C   UNL A   1      46.668  26.077  26.728  1.00  0.00     0.049 A 
ATOM     45  H   UNL A   1      44.941  26.917  27.533  1.00  0.00     0.167 HD
ATOM     46  C   UNL A   1      41.140  28.587  29.001  1.00  0.00     0.037 A 
ATOM     47  C   UNL A   1      47.611  27.039  26.736  1.00  0.00     0.037 A 
ATOM     48  C   UNL A   1      42.104  29.645  29.141  1.00  0.00     0.049 A 
ATOM     49  C   UNL A   1      47.256  28.396  27.280  1.00  0.00     0.074 A 
ATOM     50  C   UNL A   1      41.929  30.906  29.679  1.00  0.00     0.029 A 
ATOM     51  N   UNL A   1      43.429  29.560  28.734  1.00  0.00    -0.354 N 
ATOM     52  N   UNL A   1      46.115  28.825  27.763  1.00  0.00    -0.248 NA
ATOM     53  C   UNL A   1      48.324  29.405  27.288  1.00  0.00     0.031 C 
ATOM     54  C   UNL A   1      43.134  31.604  29.549  1.00  0.00     0.029 A 
ATOM     55  C   UNL A   1      44.077  30.757  28.989  1.00  0.00     0.049 A 
ATOM     56  H   UNL A   1      43.845  28.767  28.327  1.00  0.00     0.167 HD
ATOM     57  C   UNL A   1      46.334  30.137  28.160  1.00  0.00     0.074 A 
ATOM     58  C   UNL A   1      47.724  30.428  27.877  1.00  0.00     0.031 C 
ATOM     59  C   UNL A   1      45.465  31.021  28.708  1.00  0.00     0.037 A 
BRANCH  46  60
ATOM     60  C   UNL A   1      39.720  28.848  29.421  1.00  0.00     0.064 A 
ATOM     61  C   UNL A   1      38.765  29.351  28.523  1.00  0.00     0.173 A 
ATOM     62  C   UNL A   1      39.302  28.565  30.730  1.00  0.00     0.173 A 
ATOM     63  F   UNL A   1      39.114  29.652  27.263  1.00  0.00    -0.203 F 
ATOM     64  C   UNL A   1      37.455  29.593  28.930  1.00  0.00     0.198 A 
ATOM     65  C   UNL A   1      37.982  28.774  31.123  1.00  0.00     0.198 A 
ATOM     66  F   UNL A   1      40.172  28.080  31.629  1.00  0.00    -0.203 F 
ATOM     67  F   UNL A   1      36.577  30.129  28.071  1.00  0.00    -0.200 F 
ATOM     68  C   UNL A   1      37.063  29.297  30.226  1.00  0.00     0.200 A 
ATOM     69  F   UNL A   1      37.602  28.473  32.372  1.00  0.00    -0.200 F 
ATOM     70  F   UNL A   1      35.800  29.522  30.613  1.00  0.00    -0.200 F 
ENDBRANCH  46  60
BRANCH  47  71
ATOM     71  C   UNL A   1      48.981  26.746  26.240  1.00  0.00     0.064 A 
ATOM     72  C   UNL A   1      49.343  27.025  24.914  1.00  0.00     0.173 A 
ATOM     73  C   UNL A   1      49.955  26.176  27.073  1.00  0.00     0.173 A 
ATOM     74  F   UNL A   1      48.444  27.555  24.073  1.00  0.00    -0.203 F 
ATOM     75  C   UNL A   1      50.615  26.720  24.434  1.00  0.00     0.198 A 
ATOM     76  C   UNL A   1      51.237  25.902  26.601  1.00  0.00     0.198 A 
ATOM     77  F   UNL A   1      49.666  25.896  28.352  1.00  0.00    -0.203 F 
ATOM     78  F   UNL A   1      50.916  26.949  23.148  1.00  0.00    -0.200 F 
ATOM     79  C   UNL A   1      51.564  26.164  25.279  1.00  0.00     0.200 A 
ATOM     80  F   UNL A   1      52.156  25.383  27.426  1.00  0.00    -0.200 F 
ATOM     81  F   UNL A   1      52.787  25.875  24.817  1.00  0.00    -0.200 F 
ENDBRANCH  47  71
BRANCH  59  82
ATOM     82  C   UNL A   1      46.003  32.373  29.079  1.00  0.00     0.064 A 
ATOM     83  C   UNL A   1      46.591  32.617  30.328  1.00  0.00     0.173 A 
ATOM     84  C   UNL A   1      45.969  33.426  28.151  1.00  0.00     0.173 A 
ATOM     85  F   UNL A   1      46.636  31.647  31.254  1.00  0.00    -0.203 F 
ATOM     86  C   UNL A   1      47.098  33.873  30.646  1.00  0.00     0.198 A 
ATOM     87  C   UNL A   1      46.510  34.670  28.460  1.00  0.00     0.198 A 
ATOM     88  F   UNL A   1      45.426  33.242  26.939  1.00  0.00    -0.203 F 
ATOM     89  F   UNL A   1      47.607  34.099  31.865  1.00  0.00    -0.200 F 
ATOM     90  C   UNL A   1      47.065  34.896  29.709  1.00  0.00     0.200 A 
ATOM     91  F   UNL A   1      46.494  35.651  27.546  1.00  0.00    -0.200 F 
ATOM     92  F   UNL A   1      47.563  36.101  30.014  1.00  0.00    -0.200 F 
ENDBRANCH  59  82
ENDBRANCH  33  34
ENDBRANCH  25  28
ENDBRANCH  23  24
ENDBRANCH  22  23
ENDBRANCH   1  22
TORSDOF 15
ENDMDL
