MODEL 1
REMARK VINA RESULT:     -11.6      0.000      0.000
REMARK SMILES C#CCN(CC(=O)NCCCNC(=O)c1ccc(-c2c3nc(c(-c4c(F)c(F)c(F)c(F)c4F)c4ccc([nH]4)c(-c4c(F)c(F)c(F)c(F)c4F)c4nc(c(-c5c(F)c(F)c(F)c(F)c5F)c5ccc2[nH]5)C=C4)C=C3)cc1)C(=O)Nc1cccc(C#N)c1
REMARK SMILES IDX 9 1 8 2 6 3 7 4 5 6 4 7 3 8 2 9 1 10 78 11 79 12 80 13 81 15
REMARK SMILES IDX 82 16 88 17 83 18 85 19 84 20 86 21 87 22 10 23 11 24 12 25
REMARK SMILES IDX 13 26 14 28 15 29 16 30 77 31 17 32 76 33 18 34 19 35 20 36
REMARK SMILES IDX 70 37 21 38 75 39 69 40 71 41 22 42 74 43 68 44 67 45 23 47
REMARK SMILES IDX 55 48 35 49 54 50 36 51 39 52 53 53 72 54 37 55 38 56 52 58
REMARK SMILES IDX 73 59 40 60 24 61 25 62 33 63 26 64 27 65 31 66 34 67 28 68
REMARK SMILES IDX 29 69 32 70 30 71 56 72 57 73 65 74 58 75 59 76 63 77 66 78
REMARK SMILES IDX 60 79 61 80 64 81 62 82 41 83 42 84 50 85 43 86 44 87 48 88
REMARK SMILES IDX 51 89 45 90 46 91 49 92 47 93
REMARK H PARENT 8 5 80 14 12 27 71 46 39 57
REMARK Flexibility Score: inf
ROOT
ATOM      1  C   UNL A   1      31.653  30.329  25.885  1.00  0.00     0.117 C 
ENDROOT
BRANCH   1   2
ATOM      2  N   UNL A   1      30.896  30.158  24.670  1.00  0.00    -0.354 N 
ATOM      3  C   UNL A   1      30.942  29.182  23.734  1.00  0.00     0.239 C 
ATOM      4  O   UNL A   1      30.834  29.612  22.584  1.00  0.00    -0.273 OA
ATOM      5  H   UNL A   1      30.236  30.867  24.492  1.00  0.00     0.163 HD
BRANCH   3   6
ATOM      6  C   UNL A   1      30.972  27.663  24.043  1.00  0.00     0.222 C 
BRANCH   6   7
ATOM      7  N   UNL A   1      31.895  26.794  23.309  1.00  0.00    -0.304 N 
BRANCH   7   8
ATOM      8  C   UNL A   1      33.298  26.972  23.683  1.00  0.00     0.211 C 
BRANCH   8   9
ATOM      9  C   UNL A   1      33.866  26.010  24.714  1.00  0.00    -0.085 C 
ATOM     10  C   UNL A   1      34.352  25.185  25.598  1.00  0.00     0.006 C 
ENDBRANCH   8   9
ENDBRANCH   7   8
BRANCH   7  11
ATOM     11  C   UNL A   1      31.637  25.918  22.277  1.00  0.00     0.323 C 
ATOM     12  O   UNL A   1      31.403  26.346  21.139  1.00  0.00    -0.248 OA
ATOM     13  N   UNL A   1      31.812  24.572  22.346  1.00  0.00    -0.308 N 
ATOM     14  H   UNL A   1      32.007  24.192  21.458  1.00  0.00     0.171 HD
BRANCH  13  15
ATOM     15  C   UNL A   1      31.793  23.575  23.328  1.00  0.00     0.044 A 
ATOM     16  C   UNL A   1      32.672  22.495  23.212  1.00  0.00     0.026 A 
ATOM     17  C   UNL A   1      30.883  23.573  24.375  1.00  0.00     0.045 A 
ATOM     18  C   UNL A   1      32.767  21.544  24.236  1.00  0.00     0.004 A 
ATOM     19  C   UNL A   1      31.033  22.692  25.453  1.00  0.00     0.054 A 
ATOM     20  C   UNL A   1      31.985  21.677  25.382  1.00  0.00     0.019 A 
BRANCH  19  21
ATOM     21  C   UNL A   1      30.278  22.873  26.665  1.00  0.00     0.099 C 
ATOM     22  N   UNL A   1      29.634  22.953  27.622  1.00  0.00    -0.192 NA
ENDBRANCH  19  21
ENDBRANCH  13  15
ENDBRANCH   7  11
ENDBRANCH   6   7
ENDBRANCH   3   6
ENDBRANCH   1   2
BRANCH   1  23
ATOM     23  C   UNL A   1      31.452  31.717  26.496  1.00  0.00     0.042 C 
BRANCH  23  24
ATOM     24  C   UNL A   1      32.732  32.434  26.930  1.00  0.00     0.118 C 
BRANCH  24  25
ATOM     25  N   UNL A   1      32.510  33.802  27.370  1.00  0.00    -0.352 N 
ATOM     26  C   UNL A   1      33.042  34.510  28.413  1.00  0.00     0.251 C 
ATOM     27  H   UNL A   1      31.865  34.307  26.822  1.00  0.00     0.163 HD
ATOM     28  O   UNL A   1      32.530  35.574  28.751  1.00  0.00    -0.269 OA
BRANCH  26  29
ATOM     29  C   UNL A   1      34.215  33.998  29.146  1.00  0.00     0.039 A 
ATOM     30  C   UNL A   1      34.009  33.129  30.220  1.00  0.00     0.014 A 
ATOM     31  C   UNL A   1      35.507  34.406  28.810  1.00  0.00     0.014 A 
ATOM     32  C   UNL A   1      35.106  32.617  30.915  1.00  0.00     0.010 A 
ATOM     33  C   UNL A   1      36.602  33.831  29.448  1.00  0.00     0.010 A 
ATOM     34  C   UNL A   1      36.413  32.932  30.507  1.00  0.00    -0.014 A 
BRANCH  34  35
ATOM     35  C   UNL A   1      37.590  32.320  31.172  1.00  0.00     0.031 A 
ATOM     36  C   UNL A   1      38.332  31.190  30.515  1.00  0.00     0.074 A 
ATOM     37  C   UNL A   1      37.951  32.746  32.398  1.00  0.00     0.049 A 
ATOM     38  N   UNL A   1      39.340  30.487  30.967  1.00  0.00    -0.248 NA
ATOM     39  C   UNL A   1      37.865  30.779  29.182  1.00  0.00     0.031 C 
ATOM     40  C   UNL A   1      37.282  33.806  33.154  1.00  0.00     0.029 A 
ATOM     41  N   UNL A   1      38.962  32.333  33.230  1.00  0.00    -0.354 N 
ATOM     42  C   UNL A   1      39.617  29.547  29.984  1.00  0.00     0.074 A 
ATOM     43  C   UNL A   1      38.638  29.731  28.935  1.00  0.00     0.031 C 
ATOM     44  C   UNL A   1      37.913  33.976  34.326  1.00  0.00     0.029 A 
ATOM     45  C   UNL A   1      38.999  33.006  34.426  1.00  0.00     0.049 A 
ATOM     46  H   UNL A   1      39.600  31.622  32.991  1.00  0.00     0.167 HD
ATOM     47  C   UNL A   1      40.613  28.629  29.950  1.00  0.00     0.037 A 
ATOM     48  C   UNL A   1      39.807  32.848  35.492  1.00  0.00     0.037 A 
ATOM     49  C   UNL A   1      41.589  28.460  30.996  1.00  0.00     0.049 A 
ATOM     50  C   UNL A   1      40.885  31.797  35.441  1.00  0.00     0.074 A 
ATOM     51  C   UNL A   1      42.670  27.596  31.034  1.00  0.00     0.029 A 
ATOM     52  N   UNL A   1      41.597  29.162  32.193  1.00  0.00    -0.354 N 
ATOM     53  N   UNL A   1      41.185  30.964  34.475  1.00  0.00    -0.248 NA
ATOM     54  C   UNL A   1      41.739  31.670  36.630  1.00  0.00     0.031 C 
ATOM     55  C   UNL A   1      43.292  27.729  32.279  1.00  0.00     0.029 A 
ATOM     56  C   UNL A   1      42.644  28.727  32.990  1.00  0.00     0.049 A 
ATOM     57  H   UNL A   1      40.953  29.865  32.439  1.00  0.00     0.167 HD
ATOM     58  C   UNL A   1      42.279  30.237  34.924  1.00  0.00     0.074 A 
ATOM     59  C   UNL A   1      42.601  30.740  36.243  1.00  0.00     0.031 C 
ATOM     60  C   UNL A   1      42.957  29.242  34.299  1.00  0.00     0.037 A 
BRANCH  47  61
ATOM     61  C   UNL A   1      40.693  27.729  28.750  1.00  0.00     0.064 A 
ATOM     62  C   UNL A   1      39.946  26.544  28.663  1.00  0.00     0.173 A 
ATOM     63  C   UNL A   1      41.496  28.077  27.652  1.00  0.00     0.173 A 
ATOM     64  F   UNL A   1      39.168  26.159  29.686  1.00  0.00    -0.203 F 
ATOM     65  C   UNL A   1      40.026  25.725  27.538  1.00  0.00     0.198 A 
ATOM     66  C   UNL A   1      41.546  27.275  26.514  1.00  0.00     0.198 A 
ATOM     67  F   UNL A   1      42.225  29.202  27.676  1.00  0.00    -0.203 F 
ATOM     68  F   UNL A   1      39.344  24.572  27.503  1.00  0.00    -0.200 F 
ATOM     69  C   UNL A   1      40.818  26.096  26.463  1.00  0.00     0.200 A 
ATOM     70  F   UNL A   1      42.297  27.643  25.469  1.00  0.00    -0.200 F 
ATOM     71  F   UNL A   1      40.885  25.312  25.378  1.00  0.00    -0.200 F 
ENDBRANCH  47  61
BRANCH  48  72
ATOM     72  C   UNL A   1      39.635  33.709  36.692  1.00  0.00     0.064 A 
ATOM     73  C   UNL A   1      38.819  33.307  37.757  1.00  0.00     0.173 A 
ATOM     74  C   UNL A   1      40.273  34.954  36.794  1.00  0.00     0.173 A 
ATOM     75  F   UNL A   1      38.171  32.134  37.699  1.00  0.00    -0.203 F 
ATOM     76  C   UNL A   1      38.625  34.128  38.866  1.00  0.00     0.198 A 
ATOM     77  C   UNL A   1      40.107  35.759  37.919  1.00  0.00     0.198 A 
ATOM     78  F   UNL A   1      41.071  35.385  35.806  1.00  0.00    -0.203 F 
ATOM     79  F   UNL A   1      37.795  33.743  39.846  1.00  0.00    -0.200 F 
ATOM     80  C   UNL A   1      39.273  35.351  38.949  1.00  0.00     0.200 A 
ATOM     81  F   UNL A   1      40.750  36.932  38.003  1.00  0.00    -0.200 F 
ATOM     82  F   UNL A   1      39.089  36.138  40.018  1.00  0.00    -0.200 F 
ENDBRANCH  48  72
BRANCH  60  83
ATOM     83  C   UNL A   1      44.142  28.657  35.015  1.00  0.00     0.064 A 
ATOM     84  C   UNL A   1      44.022  27.546  35.861  1.00  0.00     0.173 A 
ATOM     85  C   UNL A   1      45.424  29.192  34.813  1.00  0.00     0.173 A 
ATOM     86  F   UNL A   1      42.817  27.005  36.100  1.00  0.00    -0.203 F 
ATOM     87  C   UNL A   1      45.137  27.008  36.501  1.00  0.00     0.198 A 
ATOM     88  C   UNL A   1      46.541  28.631  35.425  1.00  0.00     0.198 A 
ATOM     89  F   UNL A   1      45.597  30.251  34.008  1.00  0.00    -0.203 F 
ATOM     90  F   UNL A   1      44.990  25.979  37.347  1.00  0.00    -0.200 F 
ATOM     91  C   UNL A   1      46.395  27.546  36.274  1.00  0.00     0.200 A 
ATOM     92  F   UNL A   1      47.758  29.139  35.190  1.00  0.00    -0.200 F 
ATOM     93  F   UNL A   1      47.469  27.019  36.881  1.00  0.00    -0.200 F 
ENDBRANCH  60  83
ENDBRANCH  34  35
ENDBRANCH  26  29
ENDBRANCH  24  25
ENDBRANCH  23  24
ENDBRANCH   1  23
TORSDOF 16
ENDMDL
MODEL 2
REMARK VINA RESULT:     -11.6      1.435      8.038
REMARK SMILES C#CCN(CC(=O)NCCCNC(=O)c1ccc(-c2c3nc(c(-c4c(F)c(F)c(F)c(F)c4F)c4ccc([nH]4)c(-c4c(F)c(F)c(F)c(F)c4F)c4nc(c(-c5c(F)c(F)c(F)c(F)c5F)c5ccc2[nH]5)C=C4)C=C3)cc1)C(=O)Nc1cccc(C#N)c1
REMARK SMILES IDX 9 1 8 2 6 3 7 4 5 6 4 7 3 8 2 9 1 10 78 11 79 12 80 13 81 15
REMARK SMILES IDX 82 16 88 17 83 18 85 19 84 20 86 21 87 22 10 23 11 24 12 25
REMARK SMILES IDX 13 26 14 28 15 29 16 30 77 31 17 32 76 33 18 34 19 35 20 36
REMARK SMILES IDX 70 37 21 38 75 39 69 40 71 41 22 42 74 43 68 44 67 45 23 47
REMARK SMILES IDX 55 48 35 49 54 50 36 51 39 52 53 53 72 54 37 55 38 56 52 58
REMARK SMILES IDX 73 59 40 60 24 61 25 62 33 63 26 64 27 65 31 66 34 67 28 68
REMARK SMILES IDX 29 69 32 70 30 71 56 72 57 73 65 74 58 75 59 76 63 77 66 78
REMARK SMILES IDX 60 79 61 80 64 81 62 82 41 83 42 84 50 85 43 86 44 87 48 88
REMARK SMILES IDX 51 89 45 90 46 91 49 92 47 93
REMARK H PARENT 8 5 80 14 12 27 71 46 39 57
REMARK Flexibility Score: inf
ROOT
ATOM      1  C   UNL A   1      31.507  30.824  26.066  1.00  0.00     0.117 C 
ENDROOT
BRANCH   1   2
ATOM      2  N   UNL A   1      31.753  29.763  27.012  1.00  0.00    -0.354 N 
ATOM      3  C   UNL A   1      31.722  28.420  26.856  1.00  0.00     0.239 C 
ATOM      4  O   UNL A   1      31.219  27.836  27.819  1.00  0.00    -0.273 OA
ATOM      5  H   UNL A   1      31.984  30.067  27.919  1.00  0.00     0.163 HD
BRANCH   3   6
ATOM      6  C   UNL A   1      32.374  27.651  25.679  1.00  0.00     0.222 C 
BRANCH   6   7
ATOM      7  N   UNL A   1      31.578  27.339  24.490  1.00  0.00    -0.304 N 
BRANCH   7   8
ATOM      8  C   UNL A   1      30.488  26.395  24.739  1.00  0.00     0.211 C 
BRANCH   8   9
ATOM      9  C   UNL A   1      30.587  25.034  24.069  1.00  0.00    -0.085 C 
ATOM     10  C   UNL A   1      30.671  23.867  23.494  1.00  0.00     0.006 C 
ENDBRANCH   8   9
ENDBRANCH   7   8
BRANCH   7  11
ATOM     11  C   UNL A   1      31.766  27.735  23.184  1.00  0.00     0.323 C 
ATOM     12  O   UNL A   1      32.793  27.407  22.574  1.00  0.00    -0.248 OA
ATOM     13  N   UNL A   1      30.810  28.308  22.405  1.00  0.00    -0.308 N 
ATOM     14  H   UNL A   1      30.964  28.116  21.452  1.00  0.00     0.171 HD
BRANCH  13  15
ATOM     15  C   UNL A   1      29.668  29.096  22.583  1.00  0.00     0.044 A 
ATOM     16  C   UNL A   1      28.447  28.467  22.848  1.00  0.00     0.026 A 
ATOM     17  C   UNL A   1      29.677  30.474  22.433  1.00  0.00     0.045 A 
ATOM     18  C   UNL A   1      27.309  29.225  23.151  1.00  0.00     0.004 A 
ATOM     19  C   UNL A   1      28.580  31.247  22.832  1.00  0.00     0.054 A 
ATOM     20  C   UNL A   1      27.393  30.615  23.198  1.00  0.00     0.019 A 
BRANCH  19  21
ATOM     21  C   UNL A   1      28.687  32.677  22.950  1.00  0.00     0.099 C 
ATOM     22  N   UNL A   1      28.803  33.816  23.116  1.00  0.00    -0.192 NA
ENDBRANCH  19  21
ENDBRANCH  13  15
ENDBRANCH   7  11
ENDBRANCH   6   7
ENDBRANCH   3   6
ENDBRANCH   1   2
BRANCH   1  23
ATOM     23  C   UNL A   1      31.402  32.188  26.748  1.00  0.00     0.042 C 
BRANCH  23  24
ATOM     24  C   UNL A   1      32.735  32.881  27.039  1.00  0.00     0.118 C 
BRANCH  24  25
ATOM     25  N   UNL A   1      32.586  34.204  27.625  1.00  0.00    -0.352 N 
ATOM     26  C   UNL A   1      33.151  34.764  28.738  1.00  0.00     0.251 C 
ATOM     27  H   UNL A   1      31.972  34.800  27.136  1.00  0.00     0.163 HD
ATOM     28  O   UNL A   1      32.696  35.811  29.190  1.00  0.00    -0.269 OA
BRANCH  26  29
ATOM     29  C   UNL A   1      34.291  34.112  29.409  1.00  0.00     0.039 A 
ATOM     30  C   UNL A   1      34.033  33.183  30.420  1.00  0.00     0.014 A 
ATOM     31  C   UNL A   1      35.606  34.447  29.081  1.00  0.00     0.014 A 
ATOM     32  C   UNL A   1      35.096  32.539  31.054  1.00  0.00     0.010 A 
ATOM     33  C   UNL A   1      36.662  33.745  29.654  1.00  0.00     0.010 A 
ATOM     34  C   UNL A   1      36.419  32.785  30.647  1.00  0.00    -0.014 A 
BRANCH  34  35
ATOM     35  C   UNL A   1      37.555  32.039  31.243  1.00  0.00     0.031 A 
ATOM     36  C   UNL A   1      38.044  32.374  32.623  1.00  0.00     0.074 A 
ATOM     37  C   UNL A   1      38.183  31.099  30.511  1.00  0.00     0.049 A 
ATOM     38  N   UNL A   1      39.060  31.880  33.285  1.00  0.00    -0.248 NA
ATOM     39  C   UNL A   1      37.309  33.421  33.350  1.00  0.00     0.031 C 
ATOM     40  C   UNL A   1      37.826  30.716  29.144  1.00  0.00     0.029 A 
ATOM     41  N   UNL A   1      39.260  30.301  30.808  1.00  0.00    -0.354 N 
ATOM     42  C   UNL A   1      39.093  32.561  34.494  1.00  0.00     0.074 A 
ATOM     43  C   UNL A   1      38.031  33.543  34.455  1.00  0.00     0.031 C 
ATOM     44  C   UNL A   1      38.652  29.742  28.729  1.00  0.00     0.029 A 
ATOM     45  C   UNL A   1      39.627  29.468  29.780  1.00  0.00     0.049 A 
ATOM     46  H   UNL A   1      39.725  30.325  31.675  1.00  0.00     0.167 HD
ATOM     47  C   UNL A   1      39.920  32.369  35.549  1.00  0.00     0.037 A 
ATOM     48  C   UNL A   1      40.645  28.591  29.689  1.00  0.00     0.037 A 
ATOM     49  C   UNL A   1      40.968  31.382  35.583  1.00  0.00     0.049 A 
ATOM     50  C   UNL A   1      41.570  28.421  30.865  1.00  0.00     0.074 A 
ATOM     51  C   UNL A   1      41.825  31.071  36.624  1.00  0.00     0.029 A 
ATOM     52  N   UNL A   1      41.309  30.553  34.524  1.00  0.00    -0.354 N 
ATOM     53  N   UNL A   1      41.546  29.019  32.031  1.00  0.00    -0.248 NA
ATOM     54  C   UNL A   1      42.661  27.450  30.711  1.00  0.00     0.031 C 
ATOM     55  C   UNL A   1      42.726  30.101  36.173  1.00  0.00     0.029 A 
ATOM     56  C   UNL A   1      42.385  29.754  34.876  1.00  0.00     0.049 A 
ATOM     57  H   UNL A   1      40.853  30.536  33.652  1.00  0.00     0.167 HD
ATOM     58  C   UNL A   1      42.594  28.475  32.760  1.00  0.00     0.074 A 
ATOM     59  C   UNL A   1      43.225  27.487  31.911  1.00  0.00     0.031 C 
ATOM     60  C   UNL A   1      42.998  28.768  34.022  1.00  0.00     0.037 A 
BRANCH  47  61
ATOM     61  C   UNL A   1      39.732  33.249  36.753  1.00  0.00     0.064 A 
ATOM     62  C   UNL A   1      40.452  34.444  36.914  1.00  0.00     0.173 A 
ATOM     63  C   UNL A   1      38.790  32.916  37.739  1.00  0.00     0.173 A 
ATOM     64  F   UNL A   1      41.370  34.807  36.007  1.00  0.00    -0.203 F 
ATOM     65  C   UNL A   1      40.259  35.253  38.032  1.00  0.00     0.198 A 
ATOM     66  C   UNL A   1      38.575  33.745  38.837  1.00  0.00     0.198 A 
ATOM     67  F   UNL A   1      38.068  31.791  37.633  1.00  0.00    -0.203 F 
ATOM     68  F   UNL A   1      40.997  36.360  38.190  1.00  0.00    -0.200 F 
ATOM     69  C   UNL A   1      39.316  34.907  38.988  1.00  0.00     0.200 A 
ATOM     70  F   UNL A   1      37.650  33.419  39.750  1.00  0.00    -0.200 F 
ATOM     71  F   UNL A   1      39.124  35.692  40.056  1.00  0.00    -0.200 F 
ENDBRANCH  47  61
BRANCH  48  72
ATOM     72  C   UNL A   1      40.839  27.801  28.444  1.00  0.00     0.064 A 
ATOM     73  C   UNL A   1      40.240  26.544  28.287  1.00  0.00     0.173 A 
ATOM     74  C   UNL A   1      41.632  28.280  27.390  1.00  0.00     0.173 A 
ATOM     75  F   UNL A   1      39.487  26.033  29.273  1.00  0.00    -0.203 F 
ATOM     76  C   UNL A   1      40.449  25.784  27.138  1.00  0.00     0.198 A 
ATOM     77  C   UNL A   1      41.812  27.535  26.227  1.00  0.00     0.198 A 
ATOM     78  F   UNL A   1      42.223  29.480  27.485  1.00  0.00    -0.203 F 
ATOM     79  F   UNL A   1      39.909  24.561  27.038  1.00  0.00    -0.200 F 
ATOM     80  C   UNL A   1      41.230  26.282  26.106  1.00  0.00     0.200 A 
ATOM     81  F   UNL A   1      42.553  28.029  25.225  1.00  0.00    -0.200 F 
ATOM     82  F   UNL A   1      41.428  25.553  25.000  1.00  0.00    -0.200 F 
ENDBRANCH  48  72
BRANCH  60  83
ATOM     83  C   UNL A   1      44.153  27.983  34.578  1.00  0.00     0.064 A 
ATOM     84  C   UNL A   1      45.474  28.444  34.491  1.00  0.00     0.173 A 
ATOM     85  C   UNL A   1      43.925  26.770  35.248  1.00  0.00     0.173 A 
ATOM     86  F   UNL A   1      45.749  29.590  33.849  1.00  0.00    -0.203 F 
ATOM     87  C   UNL A   1      46.527  27.708  35.030  1.00  0.00     0.198 A 
ATOM     88  C   UNL A   1      44.974  26.056  35.817  1.00  0.00     0.198 A 
ATOM     89  F   UNL A   1      42.679  26.286  35.366  1.00  0.00    -0.203 F 
ATOM     90  F   UNL A   1      47.786  28.143  34.889  1.00  0.00    -0.200 F 
ATOM     91  C   UNL A   1      46.274  26.520  35.700  1.00  0.00     0.200 A 
ATOM     92  F   UNL A   1      44.726  24.918  36.480  1.00  0.00    -0.200 F 
ATOM     93  F   UNL A   1      47.288  25.820  36.229  1.00  0.00    -0.200 F 
ENDBRANCH  60  83
ENDBRANCH  34  35
ENDBRANCH  26  29
ENDBRANCH  24  25
ENDBRANCH  23  24
ENDBRANCH   1  23
TORSDOF 16
ENDMDL
MODEL 3
REMARK VINA RESULT:     -11.5      5.956     11.181
REMARK SMILES C#CCN(CC(=O)NCCCNC(=O)c1ccc(-c2c3nc(c(-c4c(F)c(F)c(F)c(F)c4F)c4ccc([nH]4)c(-c4c(F)c(F)c(F)c(F)c4F)c4nc(c(-c5c(F)c(F)c(F)c(F)c5F)c5ccc2[nH]5)C=C4)C=C3)cc1)C(=O)Nc1cccc(C#N)c1
REMARK SMILES IDX 9 1 8 2 6 3 7 4 5 6 4 7 3 8 2 9 1 10 78 11 79 12 80 13 81 15
REMARK SMILES IDX 82 16 88 17 83 18 85 19 84 20 86 21 87 22 10 23 11 24 12 25
REMARK SMILES IDX 13 26 14 28 15 29 16 30 77 31 17 32 76 33 18 34 19 35 20 36
REMARK SMILES IDX 70 37 21 38 75 39 69 40 71 41 22 42 74 43 68 44 67 45 23 47
REMARK SMILES IDX 55 48 35 49 54 50 36 51 39 52 53 53 72 54 37 55 38 56 52 58
REMARK SMILES IDX 73 59 40 60 24 61 25 62 33 63 26 64 27 65 31 66 34 67 28 68
REMARK SMILES IDX 29 69 32 70 30 71 56 72 57 73 65 74 58 75 59 76 63 77 66 78
REMARK SMILES IDX 60 79 61 80 64 81 62 82 41 83 42 84 50 85 43 86 44 87 48 88
REMARK SMILES IDX 51 89 45 90 46 91 49 92 47 93
REMARK H PARENT 8 5 80 14 12 27 71 46 39 57
REMARK Flexibility Score: inf
ROOT
ATOM      1  C   UNL A   1      37.017  20.163  24.806  1.00  0.00     0.117 C 
ENDROOT
BRANCH   1   2
ATOM      2  N   UNL A   1      37.305  21.497  25.271  1.00  0.00    -0.354 N 
ATOM      3  C   UNL A   1      36.498  22.574  25.410  1.00  0.00     0.239 C 
ATOM      4  O   UNL A   1      37.042  23.629  25.073  1.00  0.00    -0.273 OA
ATOM      5  H   UNL A   1      38.241  21.648  25.533  1.00  0.00     0.163 HD
BRANCH   3   6
ATOM      6  C   UNL A   1      35.093  22.547  26.062  1.00  0.00     0.222 C 
BRANCH   6   7
ATOM      7  N   UNL A   1      33.951  22.039  25.297  1.00  0.00    -0.304 N 
BRANCH   7   8
ATOM      8  C   UNL A   1      34.074  22.233  23.852  1.00  0.00     0.211 C 
BRANCH   8   9
ATOM      9  C   UNL A   1      33.532  23.533  23.280  1.00  0.00    -0.085 C 
ATOM     10  C   UNL A   1      33.067  24.647  22.790  1.00  0.00     0.006 C 
ENDBRANCH   8   9
ENDBRANCH   7   8
BRANCH   7  11
ATOM     11  C   UNL A   1      32.767  21.499  25.749  1.00  0.00     0.323 C 
ATOM     12  O   UNL A   1      32.083  22.104  26.585  1.00  0.00    -0.248 OA
ATOM     13  N   UNL A   1      32.154  20.415  25.202  1.00  0.00    -0.308 N 
ATOM     14  H   UNL A   1      31.180  20.448  25.341  1.00  0.00     0.171 HD
BRANCH  13  15
ATOM     15  C   UNL A   1      32.525  19.265  24.497  1.00  0.00     0.044 A 
ATOM     16  C   UNL A   1      32.172  19.156  23.148  1.00  0.00     0.026 A 
ATOM     17  C   UNL A   1      33.162  18.190  25.097  1.00  0.00     0.045 A 
ATOM     18  C   UNL A   1      32.629  18.078  22.380  1.00  0.00     0.004 A 
ATOM     19  C   UNL A   1      33.712  17.160  24.326  1.00  0.00     0.054 A 
ATOM     20  C   UNL A   1      33.447  17.110  22.958  1.00  0.00     0.019 A 
BRANCH  19  21
ATOM     21  C   UNL A   1      34.616  16.202  24.908  1.00  0.00     0.099 C 
ATOM     22  N   UNL A   1      35.395  15.488  25.378  1.00  0.00    -0.192 NA
ENDBRANCH  19  21
ENDBRANCH  13  15
ENDBRANCH   7  11
ENDBRANCH   6   7
ENDBRANCH   3   6
ENDBRANCH   1   2
BRANCH   1  23
ATOM     23  C   UNL A   1      38.181  19.204  25.055  1.00  0.00     0.042 C 
BRANCH  23  24
ATOM     24  C   UNL A   1      39.399  19.816  25.751  1.00  0.00     0.118 C 
BRANCH  24  25
ATOM     25  N   UNL A   1      40.489  18.873  25.950  1.00  0.00    -0.352 N 
ATOM     26  C   UNL A   1      41.831  19.073  26.127  1.00  0.00     0.251 C 
ATOM     27  H   UNL A   1      40.213  17.927  25.960  1.00  0.00     0.163 HD
ATOM     28  O   UNL A   1      42.605  18.125  26.030  1.00  0.00    -0.269 OA
BRANCH  26  29
ATOM     29  C   UNL A   1      42.356  20.420  26.418  1.00  0.00     0.039 A 
ATOM     30  C   UNL A   1      42.889  21.173  25.369  1.00  0.00     0.014 A 
ATOM     31  C   UNL A   1      42.370  20.921  27.721  1.00  0.00     0.014 A 
ATOM     32  C   UNL A   1      43.374  22.458  25.619  1.00  0.00     0.010 A 
ATOM     33  C   UNL A   1      42.775  22.231  27.954  1.00  0.00     0.010 A 
ATOM     34  C   UNL A   1      43.282  23.013  26.906  1.00  0.00    -0.014 A 
BRANCH  34  35
ATOM     35  C   UNL A   1      43.703  24.412  27.169  1.00  0.00     0.031 A 
ATOM     36  C   UNL A   1      42.710  25.422  27.672  1.00  0.00     0.074 A 
ATOM     37  C   UNL A   1      44.968  24.783  26.893  1.00  0.00     0.049 A 
ATOM     38  N   UNL A   1      42.873  26.702  27.896  1.00  0.00    -0.248 NA
ATOM     39  C   UNL A   1      41.347  24.936  27.935  1.00  0.00     0.031 C 
ATOM     40  C   UNL A   1      46.009  23.902  26.361  1.00  0.00     0.029 A 
ATOM     41  N   UNL A   1      45.592  26.000  27.012  1.00  0.00    -0.354 N 
ATOM     42  C   UNL A   1      41.636  27.173  28.314  1.00  0.00     0.074 A 
ATOM     43  C   UNL A   1      40.717  26.056  28.259  1.00  0.00     0.031 C 
ATOM     44  C   UNL A   1      47.147  24.600  26.222  1.00  0.00     0.029 A 
ATOM     45  C   UNL A   1      46.904  25.987  26.606  1.00  0.00     0.049 A 
ATOM     46  H   UNL A   1      45.141  26.806  27.355  1.00  0.00     0.167 HD
ATOM     47  C   UNL A   1      41.302  28.419  28.727  1.00  0.00     0.037 A 
ATOM     48  C   UNL A   1      47.805  26.985  26.535  1.00  0.00     0.037 A 
ATOM     49  C   UNL A   1      42.226  29.522  28.788  1.00  0.00     0.049 A 
ATOM     50  C   UNL A   1      47.399  28.368  26.970  1.00  0.00     0.074 A 
ATOM     51  C   UNL A   1      42.002  30.810  29.243  1.00  0.00     0.029 A 
ATOM     52  N   UNL A   1      43.549  29.472  28.371  1.00  0.00    -0.354 N 
ATOM     53  N   UNL A   1      46.246  28.786  27.433  1.00  0.00    -0.248 NA
ATOM     54  C   UNL A   1      48.423  29.417  26.875  1.00  0.00     0.031 C 
ATOM     55  C   UNL A   1      43.168  31.554  29.041  1.00  0.00     0.029 A 
ATOM     56  C   UNL A   1      44.143  30.714  28.527  1.00  0.00     0.049 A 
ATOM     57  H   UNL A   1      43.998  28.670  28.017  1.00  0.00     0.167 HD
ATOM     58  C   UNL A   1      46.414  30.134  27.715  1.00  0.00     0.074 A 
ATOM     59  C   UNL A   1      47.786  30.462  27.386  1.00  0.00     0.031 C 
ATOM     60  C   UNL A   1      45.512  31.023  28.203  1.00  0.00     0.037 A 
BRANCH  47  61
ATOM     61  C   UNL A   1      39.877  28.661  29.138  1.00  0.00     0.064 A 
ATOM     62  C   UNL A   1      39.448  28.474  30.461  1.00  0.00     0.173 A 
ATOM     63  C   UNL A   1      38.936  29.125  28.205  1.00  0.00     0.173 A 
ATOM     64  F   UNL A   1      40.303  28.025  31.392  1.00  0.00    -0.203 F 
ATOM     65  C   UNL A   1      38.125  28.712  30.827  1.00  0.00     0.198 A 
ATOM     66  C   UNL A   1      37.623  29.396  28.582  1.00  0.00     0.198 A 
ATOM     67  F   UNL A   1      39.292  29.329  26.928  1.00  0.00    -0.203 F 
ATOM     68  F   UNL A   1      37.727  28.475  32.085  1.00  0.00    -0.200 F 
ATOM     69  C   UNL A   1      37.217  29.180  29.890  1.00  0.00     0.200 A 
ATOM     70  F   UNL A   1      36.752  29.865  27.680  1.00  0.00    -0.200 F 
ATOM     71  F   UNL A   1      35.947  29.418  30.247  1.00  0.00    -0.200 F 
ENDBRANCH  47  61
BRANCH  48  72
ATOM     72  C   UNL A   1      49.182  26.712  26.044  1.00  0.00     0.064 A 
ATOM     73  C   UNL A   1      49.535  26.963  24.711  1.00  0.00     0.173 A 
ATOM     74  C   UNL A   1      50.169  26.185  26.891  1.00  0.00     0.173 A 
ATOM     75  F   UNL A   1      48.622  27.449  23.857  1.00  0.00    -0.203 F 
ATOM     76  C   UNL A   1      50.813  26.673  24.237  1.00  0.00     0.198 A 
ATOM     77  C   UNL A   1      51.457  25.929  26.424  1.00  0.00     0.198 A 
ATOM     78  F   UNL A   1      49.887  25.932  28.176  1.00  0.00    -0.203 F 
ATOM     79  F   UNL A   1      51.107  26.873  22.945  1.00  0.00    -0.200 F 
ATOM     80  C   UNL A   1      51.774  26.162  25.095  1.00  0.00     0.200 A 
ATOM     81  F   UNL A   1      52.388  25.451  27.262  1.00  0.00    -0.200 F 
ATOM     82  F   UNL A   1      53.004  25.887  24.639  1.00  0.00    -0.200 F 
ENDBRANCH  48  72
BRANCH  60  83
ATOM     83  C   UNL A   1      45.990  32.427  28.452  1.00  0.00     0.064 A 
ATOM     84  C   UNL A   1      46.573  32.806  29.668  1.00  0.00     0.173 A 
ATOM     85  C   UNL A   1      45.901  33.393  27.437  1.00  0.00     0.173 A 
ATOM     86  F   UNL A   1      46.670  31.926  30.677  1.00  0.00    -0.203 F 
ATOM     87  C   UNL A   1      47.026  34.108  29.871  1.00  0.00     0.198 A 
ATOM     88  C   UNL A   1      46.386  34.682  27.629  1.00  0.00     0.198 A 
ATOM     89  F   UNL A   1      45.357  33.081  26.251  1.00  0.00    -0.203 F 
ATOM     90  F   UNL A   1      47.532  34.463  31.059  1.00  0.00    -0.200 F 
ATOM     91  C   UNL A   1      46.940  35.041  28.848  1.00  0.00     0.200 A 
ATOM     92  F   UNL A   1      46.320  35.577  26.634  1.00  0.00    -0.200 F 
ATOM     93  F   UNL A   1      47.387  36.291  29.040  1.00  0.00    -0.200 F 
ENDBRANCH  60  83
ENDBRANCH  34  35
ENDBRANCH  26  29
ENDBRANCH  24  25
ENDBRANCH  23  24
ENDBRANCH   1  23
TORSDOF 16
ENDMDL
