MODEL 1
REMARK VINA RESULT:     -12.2      0.000      0.000
REMARK SMILES CC[C@H]([NH3+])C(=O)N(C)c1snc(C)c1C(=O)NCCCNC(=O)c1ccc(-c2c3nc(c(-c4c(F)c(F)c(F)c(F)c4F)c4ccc([nH]4)c(-c4c(F)c(F)c(F)c(F)c4F)c4nc(c(-c5c(F)c(F)c(F)c(F)c5F)c5ccc2[nH]5)C=C4)C=C3)cc1
REMARK SMILES IDX 18 1 17 2 15 3 16 4 14 6 9 7 10 8 11 9 12 10 13 11 7 12 8 13
REMARK SMILES IDX 5 14 6 15 3 16 2 17 1 18 4 19 19 23 20 24 21 25 22 26 23 28
REMARK SMILES IDX 24 29 25 30 86 31 26 32 85 33 27 34 28 35 29 36 79 37 30 38
REMARK SMILES IDX 84 39 78 40 80 41 31 42 83 43 77 44 76 45 32 47 64 48 44 49
REMARK SMILES IDX 63 50 45 51 48 52 62 53 81 54 46 55 47 56 61 58 82 59 49 60
REMARK SMILES IDX 33 61 34 62 42 63 35 64 36 65 40 66 43 67 37 68 38 69 41 70
REMARK SMILES IDX 39 71 65 72 66 73 74 74 67 75 68 76 72 77 75 78 69 79 70 80
REMARK SMILES IDX 73 81 71 82 50 83 51 84 59 85 52 86 53 87 57 88 60 89 54 90
REMARK SMILES IDX 55 91 58 92 56 93
REMARK H PARENT 17 5 4 20 4 21 4 22 21 27 80 46 48 57
REMARK Flexibility Score: inf
ROOT
ATOM      1  C   UNL A   1      37.293  22.373  25.264  1.00  0.00     0.118 C 
ENDROOT
BRANCH   1   2
ATOM      2  N   UNL A   1      36.763  22.542  23.944  1.00  0.00    -0.352 N 
ATOM      3  C   UNL A   1      35.469  22.904  23.626  1.00  0.00     0.256 C 
ATOM      4  O   UNL A   1      35.260  23.229  22.456  1.00  0.00    -0.269 OA
ATOM      5  H   UNL A   1      37.380  22.386  23.192  1.00  0.00     0.163 HD
BRANCH   3   6
ATOM      6  C   UNL A   1      34.367  22.710  24.574  1.00  0.00     0.097 A 
ATOM      7  C   UNL A   1      33.534  21.608  24.821  1.00  0.00     0.131 A 
ATOM      8  S   UNL A   1      32.396  22.073  26.031  1.00  0.00    -0.017 S 
ATOM      9  N   UNL A   1      32.891  23.615  26.211  1.00  0.00    -0.195 NA
ATOM     10  C   UNL A   1      33.925  23.836  25.406  1.00  0.00     0.066 A 
ATOM     11  C   UNL A   1      34.468  25.230  25.409  1.00  0.00     0.069 C 
BRANCH   7  12
ATOM     12  N   UNL A   1      33.401  20.268  24.352  1.00  0.00    -0.300 N 
ATOM     13  C   UNL A   1      32.338  19.940  23.392  1.00  0.00     0.154 C 
BRANCH  12  14
ATOM     14  C   UNL A   1      34.333  19.316  24.795  1.00  0.00     0.285 C 
ATOM     15  O   UNL A   1      35.551  19.474  24.643  1.00  0.00    -0.268 OA
BRANCH  14  16
ATOM     16  C   UNL A   1      33.836  17.977  25.476  1.00  0.00     0.271 C 
BRANCH  16  17
ATOM     17  C   UNL A   1      33.591  16.763  24.551  1.00  0.00     0.072 C 
ATOM     18  C   UNL A   1      32.716  15.677  25.172  1.00  0.00     0.011 C 
ENDBRANCH  16  17
BRANCH  16  19
ATOM     19  N   UNL A   1      32.714  18.234  26.390  1.00  0.00    -0.347 N 
ATOM     20  H   UNL A   1      33.047  18.207  27.353  1.00  0.00     0.345 HD
ATOM     21  H   UNL A   1      31.998  17.519  26.258  1.00  0.00     0.345 HD
ATOM     22  H   UNL A   1      32.318  19.152  26.192  1.00  0.00     0.345 HD
ENDBRANCH  16  19
ENDBRANCH  14  16
ENDBRANCH  12  14
ENDBRANCH   7  12
ENDBRANCH   3   6
ENDBRANCH   1   2
BRANCH   1  23
ATOM     23  C   UNL A   1      38.387  21.348  25.474  1.00  0.00     0.042 C 
BRANCH  23  24
ATOM     24  C   UNL A   1      39.429  21.762  26.504  1.00  0.00     0.118 C 
BRANCH  24  25
ATOM     25  N   UNL A   1      40.792  22.032  26.011  1.00  0.00    -0.352 N 
ATOM     26  C   UNL A   1      41.576  23.148  26.279  1.00  0.00     0.251 C 
ATOM     27  H   UNL A   1      41.190  21.347  25.428  1.00  0.00     0.163 HD
ATOM     28  O   UNL A   1      42.650  23.358  25.732  1.00  0.00    -0.269 OA
BRANCH  26  29
ATOM     29  C   UNL A   1      41.074  24.043  27.328  1.00  0.00     0.039 A 
ATOM     30  C   UNL A   1      41.895  24.435  28.384  1.00  0.00     0.014 A 
ATOM     31  C   UNL A   1      39.967  24.779  26.940  1.00  0.00     0.014 A 
ATOM     32  C   UNL A   1      41.697  25.702  28.930  1.00  0.00     0.010 A 
ATOM     33  C   UNL A   1      39.939  26.095  27.324  1.00  0.00     0.010 A 
ATOM     34  C   UNL A   1      40.775  26.580  28.333  1.00  0.00    -0.014 A 
BRANCH  34  35
ATOM     35  C   UNL A   1      40.760  28.010  28.668  1.00  0.00     0.031 A 
ATOM     36  C   UNL A   1      41.835  28.880  28.097  1.00  0.00     0.074 A 
ATOM     37  C   UNL A   1      39.768  28.630  29.346  1.00  0.00     0.049 A 
ATOM     38  N   UNL A   1      42.816  29.425  28.743  1.00  0.00    -0.248 NA
ATOM     39  C   UNL A   1      41.856  29.162  26.655  1.00  0.00     0.031 C 
ATOM     40  C   UNL A   1      38.481  28.108  29.828  1.00  0.00     0.029 A 
ATOM     41  N   UNL A   1      39.705  29.944  29.705  1.00  0.00    -0.354 N 
ATOM     42  C   UNL A   1      43.497  30.240  27.841  1.00  0.00     0.074 A 
ATOM     43  C   UNL A   1      42.924  29.960  26.547  1.00  0.00     0.031 C 
ATOM     44  C   UNL A   1      37.678  29.126  30.196  1.00  0.00     0.029 A 
ATOM     45  C   UNL A   1      38.479  30.330  30.210  1.00  0.00     0.049 A 
ATOM     46  H   UNL A   1      40.466  30.562  29.611  1.00  0.00     0.167 HD
ATOM     47  C   UNL A   1      44.370  31.200  28.267  1.00  0.00     0.037 A 
ATOM     48  C   UNL A   1      38.131  31.533  30.708  1.00  0.00     0.037 A 
ATOM     49  C   UNL A   1      44.719  31.013  29.653  1.00  0.00     0.049 A 
ATOM     50  C   UNL A   1      39.372  32.184  31.180  1.00  0.00     0.074 A 
ATOM     51  C   UNL A   1      45.326  30.009  30.380  1.00  0.00     0.029 A 
ATOM     52  N   UNL A   1      44.121  31.822  30.587  1.00  0.00    -0.354 N 
ATOM     53  N   UNL A   1      40.081  31.748  32.185  1.00  0.00    -0.248 NA
ATOM     54  C   UNL A   1      40.059  33.093  30.280  1.00  0.00     0.031 C 
ATOM     55  C   UNL A   1      44.624  29.983  31.624  1.00  0.00     0.029 A 
ATOM     56  C   UNL A   1      43.672  31.004  31.590  1.00  0.00     0.049 A 
ATOM     57  H   UNL A   1      44.032  32.802  30.544  1.00  0.00     0.167 HD
ATOM     58  C   UNL A   1      41.396  31.979  31.817  1.00  0.00     0.074 A 
ATOM     59  C   UNL A   1      41.313  32.917  30.701  1.00  0.00     0.031 C 
ATOM     60  C   UNL A   1      42.411  31.187  32.274  1.00  0.00     0.037 A 
BRANCH  47  61
ATOM     61  C   UNL A   1      44.694  32.490  27.550  1.00  0.00     0.064 A 
ATOM     62  C   UNL A   1      45.912  32.604  26.839  1.00  0.00     0.173 A 
ATOM     63  C   UNL A   1      44.011  33.701  27.778  1.00  0.00     0.173 A 
ATOM     64  F   UNL A   1      46.656  31.520  26.578  1.00  0.00    -0.203 F 
ATOM     65  C   UNL A   1      46.436  33.844  26.460  1.00  0.00     0.198 A 
ATOM     66  C   UNL A   1      44.513  34.932  27.351  1.00  0.00     0.198 A 
ATOM     67  F   UNL A   1      42.894  33.751  28.513  1.00  0.00    -0.203 F 
ATOM     68  F   UNL A   1      47.652  33.910  25.900  1.00  0.00    -0.200 F 
ATOM     69  C   UNL A   1      45.739  35.008  26.721  1.00  0.00     0.200 A 
ATOM     70  F   UNL A   1      43.832  36.053  27.628  1.00  0.00    -0.200 F 
ATOM     71  F   UNL A   1      46.266  36.201  26.415  1.00  0.00    -0.200 F 
ENDBRANCH  47  61
BRANCH  48  72
ATOM     72  C   UNL A   1      36.815  32.182  30.610  1.00  0.00     0.064 A 
ATOM     73  C   UNL A   1      35.918  32.182  31.683  1.00  0.00     0.173 A 
ATOM     74  C   UNL A   1      36.515  33.036  29.528  1.00  0.00     0.173 A 
ATOM     75  F   UNL A   1      36.154  31.417  32.758  1.00  0.00    -0.203 F 
ATOM     76  C   UNL A   1      34.798  33.017  31.692  1.00  0.00     0.198 A 
ATOM     77  C   UNL A   1      35.395  33.864  29.535  1.00  0.00     0.198 A 
ATOM     78  F   UNL A   1      37.353  33.146  28.486  1.00  0.00    -0.203 F 
ATOM     79  F   UNL A   1      33.992  33.040  32.762  1.00  0.00    -0.200 F 
ATOM     80  C   UNL A   1      34.546  33.867  30.625  1.00  0.00     0.200 A 
ATOM     81  F   UNL A   1      35.181  34.702  28.512  1.00  0.00    -0.200 F 
ATOM     82  F   UNL A   1      33.509  34.715  30.665  1.00  0.00    -0.200 F 
ENDBRANCH  48  72
BRANCH  60  83
ATOM     83  C   UNL A   1      42.118  30.248  33.412  1.00  0.00     0.064 A 
ATOM     84  C   UNL A   1      41.698  28.918  33.244  1.00  0.00     0.173 A 
ATOM     85  C   UNL A   1      42.410  30.666  34.717  1.00  0.00     0.173 A 
ATOM     86  F   UNL A   1      41.497  28.407  32.025  1.00  0.00    -0.203 F 
ATOM     87  C   UNL A   1      41.532  28.065  34.334  1.00  0.00     0.198 A 
ATOM     88  C   UNL A   1      42.277  29.802  35.802  1.00  0.00     0.198 A 
ATOM     89  F   UNL A   1      42.873  31.907  34.937  1.00  0.00    -0.203 F 
ATOM     90  F   UNL A   1      41.118  26.803  34.143  1.00  0.00    -0.200 F 
ATOM     91  C   UNL A   1      41.827  28.506  35.612  1.00  0.00     0.200 A 
ATOM     92  F   UNL A   1      42.612  30.221  37.031  1.00  0.00    -0.200 F 
ATOM     93  F   UNL A   1      41.704  27.676  36.657  1.00  0.00    -0.200 F 
ENDBRANCH  60  83
ENDBRANCH  34  35
ENDBRANCH  26  29
ENDBRANCH  24  25
ENDBRANCH  23  24
ENDBRANCH   1  23
TORSDOF 15
ENDMDL
MODEL 2
REMARK VINA RESULT:     -12.1      1.365      2.730
REMARK SMILES CC[C@H]([NH3+])C(=O)N(C)c1snc(C)c1C(=O)NCCCNC(=O)c1ccc(-c2c3nc(c(-c4c(F)c(F)c(F)c(F)c4F)c4ccc([nH]4)c(-c4c(F)c(F)c(F)c(F)c4F)c4nc(c(-c5c(F)c(F)c(F)c(F)c5F)c5ccc2[nH]5)C=C4)C=C3)cc1
REMARK SMILES IDX 18 1 17 2 15 3 16 4 14 6 9 7 10 8 11 9 12 10 13 11 7 12 8 13
REMARK SMILES IDX 5 14 6 15 3 16 2 17 1 18 4 19 19 23 20 24 21 25 22 26 23 28
REMARK SMILES IDX 24 29 25 30 86 31 26 32 85 33 27 34 28 35 29 36 79 37 30 38
REMARK SMILES IDX 84 39 78 40 80 41 31 42 83 43 77 44 76 45 32 47 64 48 44 49
REMARK SMILES IDX 63 50 45 51 48 52 62 53 81 54 46 55 47 56 61 58 82 59 49 60
REMARK SMILES IDX 33 61 34 62 42 63 35 64 36 65 40 66 43 67 37 68 38 69 41 70
REMARK SMILES IDX 39 71 65 72 66 73 74 74 67 75 68 76 72 77 75 78 69 79 70 80
REMARK SMILES IDX 73 81 71 82 50 83 51 84 59 85 52 86 53 87 57 88 60 89 54 90
REMARK SMILES IDX 55 91 58 92 56 93
REMARK H PARENT 17 5 4 20 4 21 4 22 21 27 80 46 48 57
REMARK Flexibility Score: inf
ROOT
ATOM      1  C   UNL A   1      36.586  21.234  25.285  1.00  0.00     0.118 C 
ENDROOT
BRANCH   1   2
ATOM      2  N   UNL A   1      35.809  21.430  26.472  1.00  0.00    -0.352 N 
ATOM      3  C   UNL A   1      34.430  21.409  26.557  1.00  0.00     0.256 C 
ATOM      4  O   UNL A   1      33.948  21.360  27.690  1.00  0.00    -0.269 OA
ATOM      5  H   UNL A   1      36.303  21.595  27.308  1.00  0.00     0.163 HD
BRANCH   3   6
ATOM      6  C   UNL A   1      33.590  21.642  25.379  1.00  0.00     0.097 A 
ATOM      7  C   UNL A   1      32.917  22.788  24.926  1.00  0.00     0.131 A 
ATOM      8  S   UNL A   1      32.052  22.358  23.497  1.00  0.00    -0.017 S 
ATOM      9  N   UNL A   1      32.462  20.781  23.464  1.00  0.00    -0.195 NA
ATOM     10  C   UNL A   1      33.267  20.520  24.489  1.00  0.00     0.066 A 
ATOM     11  C   UNL A   1      33.693  19.094  24.635  1.00  0.00     0.069 C 
BRANCH   7  12
ATOM     12  N   UNL A   1      32.779  24.150  25.328  1.00  0.00    -0.300 N 
ATOM     13  C   UNL A   1      33.699  25.160  24.787  1.00  0.00     0.154 C 
BRANCH  12  14
ATOM     14  C   UNL A   1      31.725  24.481  26.195  1.00  0.00     0.285 C 
ATOM     15  O   UNL A   1      31.705  24.101  27.372  1.00  0.00    -0.268 OA
BRANCH  14  16
ATOM     16  C   UNL A   1      30.501  25.331  25.666  1.00  0.00     0.271 C 
BRANCH  16  17
ATOM     17  C   UNL A   1      30.723  26.849  25.476  1.00  0.00     0.072 C 
ATOM     18  C   UNL A   1      30.339  27.364  24.092  1.00  0.00     0.011 C 
ENDBRANCH  16  17
BRANCH  16  19
ATOM     19  N   UNL A   1      29.277  25.023  26.421  1.00  0.00    -0.347 N 
ATOM     20  H   UNL A   1      28.992  24.063  26.231  1.00  0.00     0.345 HD
ATOM     21  H   UNL A   1      28.534  25.662  26.138  1.00  0.00     0.345 HD
ATOM     22  H   UNL A   1      29.458  25.133  27.419  1.00  0.00     0.345 HD
ENDBRANCH  16  19
ENDBRANCH  14  16
ENDBRANCH  12  14
ENDBRANCH   7  12
ENDBRANCH   3   6
ENDBRANCH   1   2
BRANCH   1  23
ATOM     23  C   UNL A   1      37.786  22.127  25.057  1.00  0.00     0.042 C 
BRANCH  23  24
ATOM     24  C   UNL A   1      38.791  22.111  26.200  1.00  0.00     0.118 C 
BRANCH  24  25
ATOM     25  N   UNL A   1      40.220  22.141  25.839  1.00  0.00    -0.352 N 
ATOM     26  C   UNL A   1      41.174  23.062  26.260  1.00  0.00     0.251 C 
ATOM     27  H   UNL A   1      40.534  21.431  25.235  1.00  0.00     0.163 HD
ATOM     28  O   UNL A   1      42.314  23.093  25.818  1.00  0.00    -0.269 OA
BRANCH  26  29
ATOM     29  C   UNL A   1      40.756  23.965  27.337  1.00  0.00     0.039 A 
ATOM     30  C   UNL A   1      41.648  24.343  28.339  1.00  0.00     0.014 A 
ATOM     31  C   UNL A   1      39.640  24.722  27.019  1.00  0.00     0.014 A 
ATOM     32  C   UNL A   1      41.508  25.613  28.894  1.00  0.00     0.010 A 
ATOM     33  C   UNL A   1      39.661  26.038  27.402  1.00  0.00     0.010 A 
ATOM     34  C   UNL A   1      40.566  26.508  28.355  1.00  0.00    -0.014 A 
BRANCH  34  35
ATOM     35  C   UNL A   1      40.599  27.938  28.689  1.00  0.00     0.031 A 
ATOM     36  C   UNL A   1      41.698  28.773  28.109  1.00  0.00     0.074 A 
ATOM     37  C   UNL A   1      39.632  28.590  29.373  1.00  0.00     0.049 A 
ATOM     38  N   UNL A   1      42.699  29.287  28.748  1.00  0.00    -0.248 NA
ATOM     39  C   UNL A   1      41.717  29.053  26.666  1.00  0.00     0.031 C 
ATOM     40  C   UNL A   1      38.333  28.110  29.863  1.00  0.00     0.029 A 
ATOM     41  N   UNL A   1      39.614  29.906  29.730  1.00  0.00    -0.354 N 
ATOM     42  C   UNL A   1      43.400  30.079  27.840  1.00  0.00     0.074 A 
ATOM     43  C   UNL A   1      42.809  29.816  26.550  1.00  0.00     0.031 C 
ATOM     44  C   UNL A   1      37.565  29.153  30.236  1.00  0.00     0.029 A 
ATOM     45  C   UNL A   1      38.403  30.331  30.243  1.00  0.00     0.049 A 
ATOM     46  H   UNL A   1      40.393  30.499  29.630  1.00  0.00     0.167 HD
ATOM     47  C   UNL A   1      44.306  31.012  28.259  1.00  0.00     0.037 A 
ATOM     48  C   UNL A   1      38.097  31.545  30.742  1.00  0.00     0.037 A 
ATOM     49  C   UNL A   1      44.658  30.816  29.642  1.00  0.00     0.049 A 
ATOM     50  C   UNL A   1      39.361  32.156  31.204  1.00  0.00     0.074 A 
ATOM     51  C   UNL A   1      45.238  29.794  30.367  1.00  0.00     0.029 A 
ATOM     52  N   UNL A   1      44.092  31.644  30.579  1.00  0.00    -0.354 N 
ATOM     53  N   UNL A   1      40.063  31.700  32.205  1.00  0.00    -0.248 NA
ATOM     54  C   UNL A   1      40.071  33.043  30.298  1.00  0.00     0.031 C 
ATOM     55  C   UNL A   1      44.543  29.791  31.616  1.00  0.00     0.029 A 
ATOM     56  C   UNL A   1      43.624  30.842  31.587  1.00  0.00     0.049 A 
ATOM     57  H   UNL A   1      44.034  32.626  30.536  1.00  0.00     0.167 HD
ATOM     58  C   UNL A   1      41.382  31.889  31.828  1.00  0.00     0.074 A 
ATOM     59  C   UNL A   1      41.321  32.828  30.712  1.00  0.00     0.031 C 
ATOM     60  C   UNL A   1      42.375  31.066  32.279  1.00  0.00     0.037 A 
BRANCH  47  61
ATOM     61  C   UNL A   1      44.665  32.290  27.537  1.00  0.00     0.064 A 
ATOM     62  C   UNL A   1      45.895  32.376  26.844  1.00  0.00     0.173 A 
ATOM     63  C   UNL A   1      44.003  33.516  27.747  1.00  0.00     0.173 A 
ATOM     64  F   UNL A   1      46.622  31.275  26.601  1.00  0.00    -0.203 F 
ATOM     65  C   UNL A   1      46.449  33.602  26.464  1.00  0.00     0.198 A 
ATOM     66  C   UNL A   1      44.535  34.734  27.319  1.00  0.00     0.198 A 
ATOM     67  F   UNL A   1      42.877  33.593  28.466  1.00  0.00    -0.203 F 
ATOM     68  F   UNL A   1      47.674  33.640  25.921  1.00  0.00    -0.200 F 
ATOM     69  C   UNL A   1      45.772  34.781  26.707  1.00  0.00     0.200 A 
ATOM     70  F   UNL A   1      43.872  35.870  27.580  1.00  0.00    -0.200 F 
ATOM     71  F   UNL A   1      46.326  35.961  26.400  1.00  0.00    -0.200 F 
ENDBRANCH  47  61
BRANCH  48  72
ATOM     72  C   UNL A   1      36.801  32.235  30.651  1.00  0.00     0.064 A 
ATOM     73  C   UNL A   1      35.915  32.271  31.734  1.00  0.00     0.173 A 
ATOM     74  C   UNL A   1      36.518  33.091  29.566  1.00  0.00     0.173 A 
ATOM     75  F   UNL A   1      36.138  31.507  32.812  1.00  0.00    -0.203 F 
ATOM     76  C   UNL A   1      34.823  33.142  31.747  1.00  0.00     0.198 A 
ATOM     77  C   UNL A   1      35.426  33.954  29.578  1.00  0.00     0.198 A 
ATOM     78  F   UNL A   1      37.349  33.166  28.515  1.00  0.00    -0.203 F 
ATOM     79  F   UNL A   1      34.029  33.198  32.825  1.00  0.00    -0.200 F 
ATOM     80  C   UNL A   1      34.588  33.992  30.676  1.00  0.00     0.200 A 
ATOM     81  F   UNL A   1      35.228  34.791  28.551  1.00  0.00    -0.200 F 
ATOM     82  F   UNL A   1      33.579  34.873  30.720  1.00  0.00    -0.200 F 
ENDBRANCH  48  72
BRANCH  60  83
ATOM     83  C   UNL A   1      42.060  30.137  33.420  1.00  0.00     0.064 A 
ATOM     84  C   UNL A   1      41.637  28.807  33.257  1.00  0.00     0.173 A 
ATOM     85  C   UNL A   1      42.333  30.566  34.726  1.00  0.00     0.173 A 
ATOM     86  F   UNL A   1      41.453  28.287  32.039  1.00  0.00    -0.203 F 
ATOM     87  C   UNL A   1      41.450  27.964  34.351  1.00  0.00     0.198 A 
ATOM     88  C   UNL A   1      42.179  29.711  35.816  1.00  0.00     0.198 A 
ATOM     89  F   UNL A   1      42.798  31.806  34.942  1.00  0.00    -0.203 F 
ATOM     90  F   UNL A   1      41.034  26.703  34.165  1.00  0.00    -0.200 F 
ATOM     91  C   UNL A   1      41.727  28.416  35.630  1.00  0.00     0.200 A 
ATOM     92  F   UNL A   1      42.498  30.139  37.046  1.00  0.00    -0.200 F 
ATOM     93  F   UNL A   1      41.585  27.595  36.680  1.00  0.00    -0.200 F 
ENDBRANCH  60  83
ENDBRANCH  34  35
ENDBRANCH  26  29
ENDBRANCH  24  25
ENDBRANCH  23  24
ENDBRANCH   1  23
TORSDOF 15
ENDMDL
MODEL 3
REMARK VINA RESULT:     -11.6      6.627     12.996
REMARK SMILES CC[C@H]([NH3+])C(=O)N(C)c1snc(C)c1C(=O)NCCCNC(=O)c1ccc(-c2c3nc(c(-c4c(F)c(F)c(F)c(F)c4F)c4ccc([nH]4)c(-c4c(F)c(F)c(F)c(F)c4F)c4nc(c(-c5c(F)c(F)c(F)c(F)c5F)c5ccc2[nH]5)C=C4)C=C3)cc1
REMARK SMILES IDX 18 1 17 2 15 3 16 4 14 6 9 7 10 8 11 9 12 10 13 11 7 12 8 13
REMARK SMILES IDX 5 14 6 15 3 16 2 17 1 18 4 19 19 23 20 24 21 25 22 26 23 28
REMARK SMILES IDX 24 29 25 30 86 31 26 32 85 33 27 34 28 35 29 36 79 37 30 38
REMARK SMILES IDX 84 39 78 40 80 41 31 42 83 43 77 44 76 45 32 47 64 48 44 49
REMARK SMILES IDX 63 50 45 51 48 52 62 53 81 54 46 55 47 56 61 58 82 59 49 60
REMARK SMILES IDX 33 61 34 62 42 63 35 64 36 65 40 66 43 67 37 68 38 69 41 70
REMARK SMILES IDX 39 71 65 72 66 73 74 74 67 75 68 76 72 77 75 78 69 79 70 80
REMARK SMILES IDX 73 81 71 82 50 83 51 84 59 85 52 86 53 87 57 88 60 89 54 90
REMARK SMILES IDX 55 91 58 92 56 93
REMARK H PARENT 17 5 4 20 4 21 4 22 21 27 80 46 48 57
REMARK Flexibility Score: inf
ROOT
ATOM      1  C   UNL A   1      46.066  38.878  26.391  1.00  0.00     0.118 C 
ENDROOT
BRANCH   1   2
ATOM      2  N   UNL A   1      44.642  38.729  26.422  1.00  0.00    -0.352 N 
ATOM      3  C   UNL A   1      43.726  39.707  26.758  1.00  0.00     0.256 C 
ATOM      4  O   UNL A   1      42.545  39.468  26.501  1.00  0.00    -0.269 OA
ATOM      5  H   UNL A   1      44.280  37.845  26.180  1.00  0.00     0.163 HD
BRANCH   3   6
ATOM      6  C   UNL A   1      44.113  40.869  27.564  1.00  0.00     0.097 A 
ATOM      7  C   UNL A   1      44.550  42.152  27.200  1.00  0.00     0.131 A 
ATOM      8  S   UNL A   1      44.903  43.017  28.650  1.00  0.00    -0.017 S 
ATOM      9  N   UNL A   1      44.568  41.819  29.702  1.00  0.00    -0.195 NA
ATOM     10  C   UNL A   1      44.164  40.749  29.027  1.00  0.00     0.066 A 
ATOM     11  C   UNL A   1      43.867  39.533  29.847  1.00  0.00     0.069 C 
BRANCH   7  12
ATOM     12  N   UNL A   1      44.761  42.885  25.995  1.00  0.00    -0.300 N 
ATOM     13  C   UNL A   1      45.277  44.259  26.065  1.00  0.00     0.154 C 
BRANCH  12  14
ATOM     14  C   UNL A   1      44.511  42.238  24.774  1.00  0.00     0.285 C 
ATOM     15  O   UNL A   1      45.340  41.478  24.256  1.00  0.00    -0.268 OA
BRANCH  14  16
ATOM     16  C   UNL A   1      43.157  42.500  24.001  1.00  0.00     0.271 C 
BRANCH  16  17
ATOM     17  C   UNL A   1      42.966  43.894  23.361  1.00  0.00     0.072 C 
ATOM     18  C   UNL A   1      44.154  44.360  22.523  1.00  0.00     0.011 C 
ENDBRANCH  16  17
BRANCH  16  19
ATOM     19  N   UNL A   1      41.999  42.078  24.803  1.00  0.00    -0.347 N 
ATOM     20  H   UNL A   1      42.293  41.374  25.480  1.00  0.00     0.345 HD
ATOM     21  H   UNL A   1      41.286  41.684  24.189  1.00  0.00     0.345 HD
ATOM     22  H   UNL A   1      41.616  42.884  25.295  1.00  0.00     0.345 HD
ENDBRANCH  16  19
ENDBRANCH  14  16
ENDBRANCH  12  14
ENDBRANCH   7  12
ENDBRANCH   3   6
ENDBRANCH   1   2
BRANCH   1  23
ATOM     23  C   UNL A   1      46.910  37.659  26.091  1.00  0.00     0.042 C 
BRANCH  23  24
ATOM     24  C   UNL A   1      46.314  36.356  26.605  1.00  0.00     0.118 C 
BRANCH  24  25
ATOM     25  N   UNL A   1      45.306  35.696  25.755  1.00  0.00    -0.352 N 
ATOM     26  C   UNL A   1      44.187  34.986  26.176  1.00  0.00     0.251 C 
ATOM     27  H   UNL A   1      45.440  35.767  24.783  1.00  0.00     0.163 HD
ATOM     28  O   UNL A   1      43.465  34.361  25.410  1.00  0.00    -0.269 OA
BRANCH  26  29
ATOM     29  C   UNL A   1      43.868  35.087  27.604  1.00  0.00     0.039 A 
ATOM     30  C   UNL A   1      43.000  36.071  28.073  1.00  0.00     0.014 A 
ATOM     31  C   UNL A   1      44.106  33.917  28.305  1.00  0.00     0.014 A 
ATOM     32  C   UNL A   1      42.210  35.772  29.181  1.00  0.00     0.010 A 
ATOM     33  C   UNL A   1      43.166  33.557  29.236  1.00  0.00     0.010 A 
ATOM     34  C   UNL A   1      42.222  34.469  29.712  1.00  0.00    -0.014 A 
BRANCH  34  35
ATOM     35  C   UNL A   1      41.191  34.026  30.660  1.00  0.00     0.031 A 
ATOM     36  C   UNL A   1      41.581  33.849  32.095  1.00  0.00     0.074 A 
ATOM     37  C   UNL A   1      39.879  33.894  30.363  1.00  0.00     0.049 A 
ATOM     38  N   UNL A   1      41.698  32.729  32.733  1.00  0.00    -0.248 NA
ATOM     39  C   UNL A   1      41.905  35.026  32.912  1.00  0.00     0.031 C 
ATOM     40  C   UNL A   1      39.152  34.216  29.127  1.00  0.00     0.029 A 
ATOM     41  N   UNL A   1      38.881  33.469  31.189  1.00  0.00    -0.354 N 
ATOM     42  C   UNL A   1      41.961  33.044  34.065  1.00  0.00     0.074 A 
ATOM     43  C   UNL A   1      42.179  34.470  34.097  1.00  0.00     0.031 C 
ATOM     44  C   UNL A   1      37.824  34.202  29.355  1.00  0.00     0.029 A 
ATOM     45  C   UNL A   1      37.613  33.634  30.667  1.00  0.00     0.049 A 
ATOM     46  H   UNL A   1      39.050  33.082  32.078  1.00  0.00     0.167 HD
ATOM     47  C   UNL A   1      41.815  32.118  35.058  1.00  0.00     0.037 A 
ATOM     48  C   UNL A   1      36.439  33.252  31.210  1.00  0.00     0.037 A 
ATOM     49  C   UNL A   1      41.706  30.785  34.520  1.00  0.00     0.049 A 
ATOM     50  C   UNL A   1      36.729  32.132  32.130  1.00  0.00     0.074 A 
ATOM     51  C   UNL A   1      42.518  29.972  33.755  1.00  0.00     0.029 A 
ATOM     52  N   UNL A   1      40.461  30.210  34.458  1.00  0.00    -0.354 N 
ATOM     53  N   UNL A   1      37.158  30.964  31.737  1.00  0.00    -0.248 NA
ATOM     54  C   UNL A   1      36.936  32.431  33.537  1.00  0.00     0.031 C 
ATOM     55  C   UNL A   1      41.625  29.286  32.875  1.00  0.00     0.029 A 
ATOM     56  C   UNL A   1      40.327  29.690  33.197  1.00  0.00     0.049 A 
ATOM     57  H   UNL A   1      39.792  30.178  35.180  1.00  0.00     0.167 HD
ATOM     58  C   UNL A   1      38.051  30.565  32.719  1.00  0.00     0.074 A 
ATOM     59  C   UNL A   1      37.776  31.443  33.852  1.00  0.00     0.031 C 
ATOM     60  C   UNL A   1      39.103  29.744  32.430  1.00  0.00     0.037 A 
BRANCH  47  61
ATOM     61  C   UNL A   1      41.466  32.406  36.500  1.00  0.00     0.064 A 
ATOM     62  C   UNL A   1      40.296  33.141  36.799  1.00  0.00     0.173 A 
ATOM     63  C   UNL A   1      42.373  32.254  37.567  1.00  0.00     0.173 A 
ATOM     64  F   UNL A   1      39.368  33.364  35.857  1.00  0.00    -0.203 F 
ATOM     65  C   UNL A   1      40.094  33.741  38.046  1.00  0.00     0.198 A 
ATOM     66  C   UNL A   1      42.143  32.810  38.826  1.00  0.00     0.198 A 
ATOM     67  F   UNL A   1      43.560  31.659  37.401  1.00  0.00    -0.203 F 
ATOM     68  F   UNL A   1      39.029  34.531  38.241  1.00  0.00    -0.200 F 
ATOM     69  C   UNL A   1      41.021  33.580  39.057  1.00  0.00     0.200 A 
ATOM     70  F   UNL A   1      43.062  32.659  39.791  1.00  0.00    -0.200 F 
ATOM     71  F   UNL A   1      40.862  34.203  40.233  1.00  0.00    -0.200 F 
ENDBRANCH  47  61
BRANCH  48  72
ATOM     72  C   UNL A   1      35.146  33.943  31.092  1.00  0.00     0.064 A 
ATOM     73  C   UNL A   1      34.756  34.925  32.010  1.00  0.00     0.173 A 
ATOM     74  C   UNL A   1      34.370  33.821  29.921  1.00  0.00     0.173 A 
ATOM     75  F   UNL A   1      35.464  35.117  33.131  1.00  0.00    -0.203 F 
ATOM     76  C   UNL A   1      33.670  35.766  31.753  1.00  0.00     0.198 A 
ATOM     77  C   UNL A   1      33.285  34.655  29.669  1.00  0.00     0.198 A 
ATOM     78  F   UNL A   1      34.710  32.949  28.959  1.00  0.00    -0.203 F 
ATOM     79  F   UNL A   1      33.361  36.738  32.622  1.00  0.00    -0.200 F 
ATOM     80  C   UNL A   1      32.945  35.639  30.578  1.00  0.00     0.200 A 
ATOM     81  F   UNL A   1      32.612  34.543  28.515  1.00  0.00    -0.200 F 
ATOM     82  F   UNL A   1      31.946  36.490  30.303  1.00  0.00    -0.200 F 
ENDBRANCH  48  72
BRANCH  60  83
ATOM     83  C   UNL A   1      39.109  29.043  31.099  1.00  0.00     0.064 A 
ATOM     84  C   UNL A   1      39.596  29.616  29.912  1.00  0.00     0.173 A 
ATOM     85  C   UNL A   1      38.741  27.692  31.053  1.00  0.00     0.173 A 
ATOM     86  F   UNL A   1      40.064  30.868  29.892  1.00  0.00    -0.203 F 
ATOM     87  C   UNL A   1      39.663  28.885  28.726  1.00  0.00     0.198 A 
ATOM     88  C   UNL A   1      38.842  26.953  29.876  1.00  0.00     0.198 A 
ATOM     89  F   UNL A   1      38.326  27.070  32.168  1.00  0.00    -0.203 F 
ATOM     90  F   UNL A   1      40.121  29.463  27.605  1.00  0.00    -0.200 F 
ATOM     91  C   UNL A   1      39.291  27.552  28.711  1.00  0.00     0.200 A 
ATOM     92  F   UNL A   1      38.528  25.650  29.880  1.00  0.00    -0.200 F 
ATOM     93  F   UNL A   1      39.391  26.838  27.581  1.00  0.00    -0.200 F 
ENDBRANCH  60  83
ENDBRANCH  34  35
ENDBRANCH  26  29
ENDBRANCH  24  25
ENDBRANCH  23  24
ENDBRANCH   1  23
TORSDOF 15
ENDMDL
