MODEL 1
REMARK VINA RESULT:     -13.2      0.000      0.000
REMARK SMILES Cc1nc(=O)[nH]c(C)c1CC(=O)N1CC[C@H](C(=O)NCCCNC(=O)c2ccc(-c3c4nc(c(-c5c(F)c(F)c(F)c(F)c5F)c5ccc([nH]5)c(-c5c(F)c(F)c(F)c(F)c5F)c5nc(c(-c6c(F)c(F)c(F)c(F)c6F)c6ccc3[nH]6)C=C5)C=C4)cc2)[C@@H]1C
REMARK SMILES IDX 20 1 19 2 17 3 18 4 16 6 13 7 14 8 89 9 15 10 90 11 11 12
REMARK SMILES IDX 12 13 10 14 9 15 1 16 2 17 3 18 4 19 7 20 5 21 6 22 8 23
REMARK SMILES IDX 21 25 22 26 23 27 24 28 25 30 26 31 27 32 88 33 28 34 87 35
REMARK SMILES IDX 29 36 30 37 31 38 81 39 32 40 86 41 80 42 82 43 33 44 85 45
REMARK SMILES IDX 79 46 78 47 34 49 66 50 46 51 65 52 47 53 50 54 64 55 83 56
REMARK SMILES IDX 48 57 49 58 63 60 84 61 51 62 35 63 36 64 44 65 37 66 38 67
REMARK SMILES IDX 42 68 45 69 39 70 40 71 43 72 41 73 67 74 68 75 76 76 69 77
REMARK SMILES IDX 70 78 74 79 77 80 71 81 72 82 75 83 73 84 52 85 53 86 61 87
REMARK SMILES IDX 54 88 55 89 59 90 62 91 56 92 57 93 60 94 58 95
REMARK H PARENT 19 5 6 24 23 29 82 48 50 59
REMARK Flexibility Score: inf
ROOT
ATOM      1  C   UNL A   1      31.753  30.787  26.374  1.00  0.00     0.117 C 
ENDROOT
BRANCH   1   2
ATOM      2  N   UNL A   1      31.364  30.453  25.011  1.00  0.00    -0.356 N 
ATOM      3  C   UNL A   1      31.037  29.301  24.379  1.00  0.00     0.225 C 
ATOM      4  O   UNL A   1      30.539  29.445  23.254  1.00  0.00    -0.275 OA
ATOM      5  H   UNL A   1      31.335  31.238  24.417  1.00  0.00     0.163 HD
BRANCH   3   6
ATOM      6  C   UNL A   1      31.328  27.877  24.865  1.00  0.00     0.102 C 
ATOM      7  N   UNL A   1      32.483  26.484  23.327  1.00  0.00    -0.339 N 
ATOM      8  C   UNL A   1      31.068  26.493  22.958  1.00  0.00     0.120 C 
ATOM      9  C   UNL A   1      32.683  27.192  24.615  1.00  0.00     0.094 C 
ATOM     10  C   UNL A   1      30.337  26.922  24.213  1.00  0.00     0.037 C 
ATOM     11  C   UNL A   1      33.824  28.194  24.780  1.00  0.00     0.032 C 
BRANCH   7  12
ATOM     12  C   UNL A   1      33.319  25.762  22.499  1.00  0.00     0.227 C 
ATOM     13  O   UNL A   1      33.653  26.227  21.402  1.00  0.00    -0.275 OA
BRANCH  12  14
ATOM     14  C   UNL A   1      33.718  24.329  22.829  1.00  0.00     0.139 C 
BRANCH  14  15
ATOM     15  C   UNL A   1      33.342  23.829  24.184  1.00  0.00     0.002 A 
ATOM     16  C   UNL A   1      31.028  22.943  23.302  1.00  0.00     0.067 C 
ATOM     17  C   UNL A   1      31.997  23.213  24.440  1.00  0.00     0.049 A 
ATOM     18  N   UNL A   1      31.545  22.907  25.614  1.00  0.00    -0.198 NA
ATOM     19  C   UNL A   1      32.328  23.120  26.709  1.00  0.00     0.345 A 
ATOM     20  C   UNL A   1      34.124  23.914  25.281  1.00  0.00     0.022 A 
ATOM     21  O   UNL A   1      31.935  22.943  27.859  1.00  0.00    -0.246 OA
ATOM     22  N   UNL A   1      33.606  23.562  26.500  1.00  0.00    -0.310 N 
ATOM     23  C   UNL A   1      35.529  24.453  25.328  1.00  0.00     0.065 C 
ATOM     24  H   UNL A   1      34.198  23.632  27.284  1.00  0.00     0.171 HD
ENDBRANCH  14  15
ENDBRANCH  12  14
ENDBRANCH   7  12
ENDBRANCH   3   6
ENDBRANCH   1   2
BRANCH   1  25
ATOM     25  C   UNL A   1      31.497  32.239  26.730  1.00  0.00     0.042 C 
BRANCH  25  26
ATOM     26  C   UNL A   1      32.723  32.928  27.302  1.00  0.00     0.118 C 
BRANCH  26  27
ATOM     27  N   UNL A   1      32.477  34.322  27.666  1.00  0.00    -0.352 N 
ATOM     28  C   UNL A   1      32.993  35.075  28.696  1.00  0.00     0.251 C 
ATOM     29  H   UNL A   1      31.844  34.798  27.082  1.00  0.00     0.163 HD
ATOM     30  O   UNL A   1      32.530  36.182  28.950  1.00  0.00    -0.269 OA
BRANCH  28  31
ATOM     31  C   UNL A   1      34.080  34.519  29.528  1.00  0.00     0.039 A 
ATOM     32  C   UNL A   1      33.775  33.879  30.731  1.00  0.00     0.014 A 
ATOM     33  C   UNL A   1      35.397  34.577  29.080  1.00  0.00     0.014 A 
ATOM     34  C   UNL A   1      34.777  33.190  31.419  1.00  0.00     0.010 A 
ATOM     35  C   UNL A   1      36.356  33.780  29.683  1.00  0.00     0.010 A 
ATOM     36  C   UNL A   1      36.061  33.078  30.862  1.00  0.00    -0.014 A 
BRANCH  36  37
ATOM     37  C   UNL A   1      37.138  32.260  31.479  1.00  0.00     0.031 A 
ATOM     38  C   UNL A   1      37.650  32.635  32.843  1.00  0.00     0.074 A 
ATOM     39  C   UNL A   1      37.735  31.278  30.775  1.00  0.00     0.049 A 
ATOM     40  N   UNL A   1      38.713  32.211  33.478  1.00  0.00    -0.248 NA
ATOM     41  C   UNL A   1      36.891  33.667  33.570  1.00  0.00     0.031 C 
ATOM     42  C   UNL A   1      37.358  30.846  29.429  1.00  0.00     0.029 A 
ATOM     43  N   UNL A   1      38.810  30.481  31.087  1.00  0.00    -0.354 N 
ATOM     44  C   UNL A   1      38.766  32.950  34.652  1.00  0.00     0.074 A 
ATOM     45  C   UNL A   1      37.672  33.893  34.614  1.00  0.00     0.031 C 
ATOM     46  C   UNL A   1      38.173  29.852  29.039  1.00  0.00     0.029 A 
ATOM     47  C   UNL A   1      39.168  29.616  30.081  1.00  0.00     0.049 A 
ATOM     48  H   UNL A   1      39.279  30.526  31.951  1.00  0.00     0.167 HD
ATOM     49  C   UNL A   1      39.634  32.832  35.685  1.00  0.00     0.037 A 
ATOM     50  C   UNL A   1      40.196  28.750  29.999  1.00  0.00     0.037 A 
ATOM     51  C   UNL A   1      40.693  31.861  35.732  1.00  0.00     0.049 A 
ATOM     52  C   UNL A   1      41.159  28.646  31.153  1.00  0.00     0.074 A 
ATOM     53  C   UNL A   1      41.587  31.613  36.756  1.00  0.00     0.029 A 
ATOM     54  N   UNL A   1      40.996  30.977  34.706  1.00  0.00    -0.354 N 
ATOM     55  N   UNL A   1      41.167  29.310  32.284  1.00  0.00    -0.248 NA
ATOM     56  C   UNL A   1      42.255  27.675  31.023  1.00  0.00     0.031 C 
ATOM     57  C   UNL A   1      42.471  30.618  36.329  1.00  0.00     0.029 A 
ATOM     58  C   UNL A   1      42.082  30.196  35.066  1.00  0.00     0.049 A 
ATOM     59  H   UNL A   1      40.513  30.914  33.852  1.00  0.00     0.167 HD
ATOM     60  C   UNL A   1      42.236  28.808  33.015  1.00  0.00     0.074 A 
ATOM     61  C   UNL A   1      42.856  27.785  32.200  1.00  0.00     0.031 C 
ATOM     62  C   UNL A   1      42.662  29.159  34.252  1.00  0.00     0.037 A 
BRANCH  49  63
ATOM     63  C   UNL A   1      39.471  33.772  36.845  1.00  0.00     0.064 A 
ATOM     64  C   UNL A   1      40.039  35.056  36.843  1.00  0.00     0.173 A 
ATOM     65  C   UNL A   1      38.713  33.395  37.964  1.00  0.00     0.173 A 
ATOM     66  F   UNL A   1      40.782  35.464  35.803  1.00  0.00    -0.203 F 
ATOM     67  C   UNL A   1      39.885  35.910  37.930  1.00  0.00     0.198 A 
ATOM     68  C   UNL A   1      38.529  34.267  39.033  1.00  0.00     0.198 A 
ATOM     69  F   UNL A   1      38.143  32.182  38.018  1.00  0.00    -0.203 F 
ATOM     70  F   UNL A   1      40.489  37.107  37.929  1.00  0.00    -0.200 F 
ATOM     71  C   UNL A   1      39.123  35.520  39.021  1.00  0.00     0.200 A 
ATOM     72  F   UNL A   1      37.779  33.893  40.080  1.00  0.00    -0.200 F 
ATOM     73  F   UNL A   1      38.970  36.347  40.063  1.00  0.00    -0.200 F 
ENDBRANCH  49  63
BRANCH  50  74
ATOM     74  C   UNL A   1      40.364  27.900  28.789  1.00  0.00     0.064 A 
ATOM     75  C   UNL A   1      41.157  28.330  27.715  1.00  0.00     0.173 A 
ATOM     76  C   UNL A   1      39.735  26.652  28.672  1.00  0.00     0.173 A 
ATOM     77  F   UNL A   1      41.765  29.524  27.768  1.00  0.00    -0.203 F 
ATOM     78  C   UNL A   1      41.293  27.557  26.563  1.00  0.00     0.198 A 
ATOM     79  C   UNL A   1      39.898  25.865  27.533  1.00  0.00     0.198 A 
ATOM     80  F   UNL A   1      38.970  26.189  29.671  1.00  0.00    -0.203 F 
ATOM     81  F   UNL A   1      42.014  28.017  25.532  1.00  0.00    -0.200 F 
ATOM     82  C   UNL A   1      40.668  26.322  26.475  1.00  0.00     0.200 A 
ATOM     83  F   UNL A   1      39.305  24.665  27.459  1.00  0.00    -0.200 F 
ATOM     84  F   UNL A   1      40.801  25.578  25.368  1.00  0.00    -0.200 F 
ENDBRANCH  50  74
BRANCH  62  85
ATOM     85  C   UNL A   1      43.809  28.393  34.844  1.00  0.00     0.064 A 
ATOM     86  C   UNL A   1      45.130  28.849  34.755  1.00  0.00     0.173 A 
ATOM     87  C   UNL A   1      43.559  27.236  35.602  1.00  0.00     0.173 A 
ATOM     88  F   UNL A   1      45.421  29.941  34.033  1.00  0.00    -0.203 F 
ATOM     89  C   UNL A   1      46.163  28.171  35.398  1.00  0.00     0.198 A 
ATOM     90  C   UNL A   1      44.589  26.581  36.267  1.00  0.00     0.198 A 
ATOM     91  F   UNL A   1      42.309  26.765  35.723  1.00  0.00    -0.203 F 
ATOM     92  F   UNL A   1      47.425  28.606  35.277  1.00  0.00    -0.200 F 
ATOM     93  C   UNL A   1      45.890  27.046  36.164  1.00  0.00     0.200 A 
ATOM     94  F   UNL A   1      44.318  25.507  37.024  1.00  0.00    -0.200 F 
ATOM     95  F   UNL A   1      46.882  26.413  36.804  1.00  0.00    -0.200 F 
ENDBRANCH  62  85
ENDBRANCH  36  37
ENDBRANCH  28  31
ENDBRANCH  26  27
ENDBRANCH  25  26
ENDBRANCH   1  25
TORSDOF 13
ENDMDL
MODEL 2
REMARK VINA RESULT:     -13.2      0.158      1.591
REMARK SMILES Cc1nc(=O)[nH]c(C)c1CC(=O)N1CC[C@H](C(=O)NCCCNC(=O)c2ccc(-c3c4nc(c(-c5c(F)c(F)c(F)c(F)c5F)c5ccc([nH]5)c(-c5c(F)c(F)c(F)c(F)c5F)c5nc(c(-c6c(F)c(F)c(F)c(F)c6F)c6ccc3[nH]6)C=C5)C=C4)cc2)[C@@H]1C
REMARK SMILES IDX 20 1 19 2 17 3 18 4 16 6 13 7 14 8 89 9 15 10 90 11 11 12
REMARK SMILES IDX 12 13 10 14 9 15 1 16 2 17 3 18 4 19 7 20 5 21 6 22 8 23
REMARK SMILES IDX 21 25 22 26 23 27 24 28 25 30 26 31 27 32 88 33 28 34 87 35
REMARK SMILES IDX 29 36 30 37 31 38 81 39 32 40 86 41 80 42 82 43 33 44 85 45
REMARK SMILES IDX 79 46 78 47 34 49 66 50 46 51 65 52 47 53 50 54 64 55 83 56
REMARK SMILES IDX 48 57 49 58 63 60 84 61 51 62 35 63 36 64 44 65 37 66 38 67
REMARK SMILES IDX 42 68 45 69 39 70 40 71 43 72 41 73 67 74 68 75 76 76 69 77
REMARK SMILES IDX 70 78 74 79 77 80 71 81 72 82 75 83 73 84 52 85 53 86 61 87
REMARK SMILES IDX 54 88 55 89 59 90 62 91 56 92 57 93 60 94 58 95
REMARK H PARENT 19 5 6 24 23 29 82 48 50 59
REMARK Flexibility Score: inf
ROOT
ATOM      1  C   UNL A   1      31.729  30.780  26.384  1.00  0.00     0.117 C 
ENDROOT
BRANCH   1   2
ATOM      2  N   UNL A   1      31.366  30.442  25.015  1.00  0.00    -0.356 N 
ATOM      3  C   UNL A   1      31.048  29.290  24.381  1.00  0.00     0.225 C 
ATOM      4  O   UNL A   1      30.572  29.432  23.246  1.00  0.00    -0.275 OA
ATOM      5  H   UNL A   1      31.350  31.226  24.418  1.00  0.00     0.163 HD
BRANCH   3   6
ATOM      6  C   UNL A   1      31.325  27.866  24.876  1.00  0.00     0.102 C 
ATOM      7  N   UNL A   1      32.501  26.463  23.363  1.00  0.00    -0.339 N 
ATOM      8  C   UNL A   1      31.092  26.476  22.971  1.00  0.00     0.120 C 
ATOM      9  C   UNL A   1      32.681  27.175  24.652  1.00  0.00     0.094 C 
ATOM     10  C   UNL A   1      30.341  26.913  24.212  1.00  0.00     0.037 C 
ATOM     11  C   UNL A   1      33.824  28.174  24.830  1.00  0.00     0.032 C 
BRANCH   7  12
ATOM     12  C   UNL A   1      33.347  25.735  22.551  1.00  0.00     0.227 C 
ATOM     13  O   UNL A   1      33.724  26.207  21.471  1.00  0.00    -0.275 OA
BRANCH  12  14
ATOM     14  C   UNL A   1      33.706  24.290  22.873  1.00  0.00     0.139 C 
BRANCH  14  15
ATOM     15  C   UNL A   1      33.316  23.793  24.226  1.00  0.00     0.002 A 
ATOM     16  C   UNL A   1      30.996  22.936  23.329  1.00  0.00     0.067 C 
ATOM     17  C   UNL A   1      31.961  23.193  24.472  1.00  0.00     0.049 A 
ATOM     18  N   UNL A   1      31.498  22.891  25.643  1.00  0.00    -0.198 NA
ATOM     19  C   UNL A   1      32.278  23.094  26.743  1.00  0.00     0.345 A 
ATOM     20  C   UNL A   1      34.092  23.867  25.327  1.00  0.00     0.022 A 
ATOM     21  O   UNL A   1      31.875  22.920  27.890  1.00  0.00    -0.246 OA
ATOM     22  N   UNL A   1      33.562  23.520  26.542  1.00  0.00    -0.310 N 
ATOM     23  C   UNL A   1      35.503  24.389  25.384  1.00  0.00     0.065 C 
ATOM     24  H   UNL A   1      34.150  23.582  27.330  1.00  0.00     0.171 HD
ENDBRANCH  14  15
ENDBRANCH  12  14
ENDBRANCH   7  12
ENDBRANCH   3   6
ENDBRANCH   1   2
BRANCH   1  25
ATOM     25  C   UNL A   1      31.484  32.237  26.726  1.00  0.00     0.042 C 
BRANCH  25  26
ATOM     26  C   UNL A   1      32.721  32.928  27.273  1.00  0.00     0.118 C 
BRANCH  26  27
ATOM     27  N   UNL A   1      32.482  34.323  27.637  1.00  0.00    -0.352 N 
ATOM     28  C   UNL A   1      33.013  35.077  28.659  1.00  0.00     0.251 C 
ATOM     29  H   UNL A   1      31.842  34.799  27.061  1.00  0.00     0.163 HD
ATOM     30  O   UNL A   1      32.555  36.185  28.917  1.00  0.00    -0.269 OA
BRANCH  28  31
ATOM     31  C   UNL A   1      34.111  34.521  29.477  1.00  0.00     0.039 A 
ATOM     32  C   UNL A   1      33.819  33.863  30.674  1.00  0.00     0.014 A 
ATOM     33  C   UNL A   1      35.424  34.598  29.021  1.00  0.00     0.014 A 
ATOM     34  C   UNL A   1      34.832  33.175  31.346  1.00  0.00     0.010 A 
ATOM     35  C   UNL A   1      36.395  33.803  29.609  1.00  0.00     0.010 A 
ATOM     36  C   UNL A   1      36.113  33.083  30.781  1.00  0.00    -0.014 A 
BRANCH  36  37
ATOM     37  C   UNL A   1      37.202  32.268  31.380  1.00  0.00     0.031 A 
ATOM     38  C   UNL A   1      37.721  32.632  32.745  1.00  0.00     0.074 A 
ATOM     39  C   UNL A   1      37.803  31.300  30.661  1.00  0.00     0.049 A 
ATOM     40  N   UNL A   1      38.791  32.210  33.368  1.00  0.00    -0.248 NA
ATOM     41  C   UNL A   1      36.957  33.649  33.490  1.00  0.00     0.031 C 
ATOM     42  C   UNL A   1      37.421  30.880  29.313  1.00  0.00     0.029 A 
ATOM     43  N   UNL A   1      38.887  30.509  30.957  1.00  0.00    -0.354 N 
ATOM     44  C   UNL A   1      38.846  32.936  34.551  1.00  0.00     0.074 A 
ATOM     45  C   UNL A   1      37.743  33.870  34.531  1.00  0.00     0.031 C 
ATOM     46  C   UNL A   1      38.242  29.898  28.906  1.00  0.00     0.029 A 
ATOM     47  C   UNL A   1      39.246  29.659  29.938  1.00  0.00     0.049 A 
ATOM     48  H   UNL A   1      39.362  30.548  31.818  1.00  0.00     0.167 HD
ATOM     49  C   UNL A   1      39.722  32.814  35.575  1.00  0.00     0.037 A 
ATOM     50  C   UNL A   1      40.282  28.803  29.839  1.00  0.00     0.037 A 
ATOM     51  C   UNL A   1      40.790  31.853  35.604  1.00  0.00     0.049 A 
ATOM     52  C   UNL A   1      41.253  28.695  30.986  1.00  0.00     0.074 A 
ATOM     53  C   UNL A   1      41.694  31.601  36.620  1.00  0.00     0.029 A 
ATOM     54  N   UNL A   1      41.095  30.984  34.566  1.00  0.00    -0.354 N 
ATOM     55  N   UNL A   1      41.263  29.346  32.124  1.00  0.00    -0.248 NA
ATOM     56  C   UNL A   1      42.357  27.736  30.836  1.00  0.00     0.031 C 
ATOM     57  C   UNL A   1      42.584  30.619  36.174  1.00  0.00     0.029 A 
ATOM     58  C   UNL A   1      42.189  30.209  34.910  1.00  0.00     0.049 A 
ATOM     59  H   UNL A   1      40.606  30.926  33.714  1.00  0.00     0.167 HD
ATOM     60  C   UNL A   1      42.342  28.846  32.842  1.00  0.00     0.074 A 
ATOM     61  C   UNL A   1      42.965  27.838  32.010  1.00  0.00     0.031 C 
ATOM     62  C   UNL A   1      42.774  29.187  34.080  1.00  0.00     0.037 A 
BRANCH  49  63
ATOM     63  C   UNL A   1      39.558  33.740  36.748  1.00  0.00     0.064 A 
ATOM     64  C   UNL A   1      38.818  33.373  37.883  1.00  0.00     0.173 A 
ATOM     65  C   UNL A   1      40.174  35.000  36.749  1.00  0.00     0.173 A 
ATOM     66  F   UNL A   1      38.200  32.183  37.930  1.00  0.00    -0.203 F 
ATOM     67  C   UNL A   1      38.669  34.246  38.956  1.00  0.00     0.198 A 
ATOM     68  C   UNL A   1      40.055  35.856  37.841  1.00  0.00     0.198 A 
ATOM     69  F   UNL A   1      40.898  35.401  35.694  1.00  0.00    -0.203 F 
ATOM     70  F   UNL A   1      37.906  33.897  40.000  1.00  0.00    -0.200 F 
ATOM     71  C   UNL A   1      39.295  35.483  38.938  1.00  0.00     0.200 A 
ATOM     72  F   UNL A   1      40.674  37.045  37.828  1.00  0.00    -0.200 F 
ATOM     73  F   UNL A   1      39.158  36.320  39.976  1.00  0.00    -0.200 F 
ENDBRANCH  49  63
BRANCH  50  74
ATOM     74  C   UNL A   1      40.449  27.969  28.618  1.00  0.00     0.064 A 
ATOM     75  C   UNL A   1      39.850  26.704  28.526  1.00  0.00     0.173 A 
ATOM     76  C   UNL A   1      41.210  28.408  27.525  1.00  0.00     0.173 A 
ATOM     77  F   UNL A   1      39.127  26.230  29.551  1.00  0.00    -0.203 F 
ATOM     78  C   UNL A   1      40.029  25.901  27.401  1.00  0.00     0.198 A 
ATOM     79  C   UNL A   1      41.362  27.618  26.387  1.00  0.00     0.198 A 
ATOM     80  F   UNL A   1      41.800  29.612  27.557  1.00  0.00    -0.203 F 
ATOM     81  F   UNL A   1      39.489  24.676  27.363  1.00  0.00    -0.200 F 
ATOM     82  C   UNL A   1      40.780  26.361  26.330  1.00  0.00     0.200 A 
ATOM     83  F   UNL A   1      42.074  28.072  25.347  1.00  0.00    -0.200 F 
ATOM     84  F   UNL A   1      40.948  25.589  25.246  1.00  0.00    -0.200 F 
ENDBRANCH  50  74
BRANCH  62  85
ATOM     85  C   UNL A   1      43.931  28.424  34.655  1.00  0.00     0.064 A 
ATOM     86  C   UNL A   1      45.247  28.892  34.561  1.00  0.00     0.173 A 
ATOM     87  C   UNL A   1      43.697  27.257  35.402  1.00  0.00     0.173 A 
ATOM     88  F   UNL A   1      45.524  29.994  33.848  1.00  0.00    -0.203 F 
ATOM     89  C   UNL A   1      46.292  28.216  35.188  1.00  0.00     0.198 A 
ATOM     90  C   UNL A   1      44.737  26.604  36.053  1.00  0.00     0.198 A 
ATOM     91  F   UNL A   1      42.452  26.774  35.528  1.00  0.00    -0.203 F 
ATOM     92  F   UNL A   1      47.548  28.664  35.063  1.00  0.00    -0.200 F 
ATOM     93  C   UNL A   1      46.033  27.082  35.945  1.00  0.00     0.200 A 
ATOM     94  F   UNL A   1      44.482  25.520  36.800  1.00  0.00    -0.200 F 
ATOM     95  F   UNL A   1      47.036  26.450  36.570  1.00  0.00    -0.200 F 
ENDBRANCH  62  85
ENDBRANCH  36  37
ENDBRANCH  28  31
ENDBRANCH  26  27
ENDBRANCH  25  26
ENDBRANCH   1  25
TORSDOF 13
ENDMDL
MODEL 3
REMARK VINA RESULT:     -13.2      0.196      1.595
REMARK SMILES Cc1nc(=O)[nH]c(C)c1CC(=O)N1CC[C@H](C(=O)NCCCNC(=O)c2ccc(-c3c4nc(c(-c5c(F)c(F)c(F)c(F)c5F)c5ccc([nH]5)c(-c5c(F)c(F)c(F)c(F)c5F)c5nc(c(-c6c(F)c(F)c(F)c(F)c6F)c6ccc3[nH]6)C=C5)C=C4)cc2)[C@@H]1C
REMARK SMILES IDX 20 1 19 2 17 3 18 4 16 6 13 7 14 8 89 9 15 10 90 11 11 12
REMARK SMILES IDX 12 13 10 14 9 15 1 16 2 17 3 18 4 19 7 20 5 21 6 22 8 23
REMARK SMILES IDX 21 25 22 26 23 27 24 28 25 30 26 31 27 32 88 33 28 34 87 35
REMARK SMILES IDX 29 36 30 37 31 38 81 39 32 40 86 41 80 42 82 43 33 44 85 45
REMARK SMILES IDX 79 46 78 47 34 49 66 50 46 51 65 52 47 53 50 54 64 55 83 56
REMARK SMILES IDX 48 57 49 58 63 60 84 61 51 62 35 63 36 64 44 65 37 66 38 67
REMARK SMILES IDX 42 68 45 69 39 70 40 71 43 72 41 73 67 74 68 75 76 76 69 77
REMARK SMILES IDX 70 78 74 79 77 80 71 81 72 82 75 83 73 84 52 85 53 86 61 87
REMARK SMILES IDX 54 88 55 89 59 90 62 91 56 92 57 93 60 94 58 95
REMARK H PARENT 19 5 6 24 23 29 82 48 50 59
REMARK Flexibility Score: inf
ROOT
ATOM      1  C   UNL A   1      31.696  30.773  26.455  1.00  0.00     0.117 C 
ENDROOT
BRANCH   1   2
ATOM      2  N   UNL A   1      31.356  30.451  25.075  1.00  0.00    -0.356 N 
ATOM      3  C   UNL A   1      31.059  29.304  24.421  1.00  0.00     0.225 C 
ATOM      4  O   UNL A   1      30.598  29.458  23.281  1.00  0.00    -0.275 OA
ATOM      5  H   UNL A   1      31.340  31.243  24.490  1.00  0.00     0.163 HD
BRANCH   3   6
ATOM      6  C   UNL A   1      31.344  27.877  24.900  1.00  0.00     0.102 C 
ATOM      7  N   UNL A   1      32.482  26.482  23.350  1.00  0.00    -0.339 N 
ATOM      8  C   UNL A   1      31.065  26.501  22.990  1.00  0.00     0.120 C 
ATOM      9  C   UNL A   1      32.694  27.185  24.639  1.00  0.00     0.094 C 
ATOM     10  C   UNL A   1      30.344  26.930  24.251  1.00  0.00     0.037 C 
ATOM     11  C   UNL A   1      33.842  28.180  24.799  1.00  0.00     0.032 C 
BRANCH   7  12
ATOM     12  C   UNL A   1      33.308  25.758  22.514  1.00  0.00     0.227 C 
ATOM     13  O   UNL A   1      33.653  26.233  21.424  1.00  0.00    -0.275 OA
BRANCH  12  14
ATOM     14  C   UNL A   1      33.682  24.315  22.825  1.00  0.00     0.139 C 
BRANCH  14  15
ATOM     15  C   UNL A   1      33.351  23.821  24.194  1.00  0.00     0.002 A 
ATOM     16  C   UNL A   1      31.010  22.929  23.391  1.00  0.00     0.067 C 
ATOM     17  C   UNL A   1      32.014  23.205  24.495  1.00  0.00     0.049 A 
ATOM     18  N   UNL A   1      31.600  22.905  25.684  1.00  0.00    -0.198 NA
ATOM     19  C   UNL A   1      32.419  23.125  26.753  1.00  0.00     0.345 A 
ATOM     20  C   UNL A   1      34.167  23.912  25.264  1.00  0.00     0.022 A 
ATOM     21  O   UNL A   1      32.062  22.953  27.916  1.00  0.00    -0.246 OA
ATOM     22  N   UNL A   1      33.688  23.566  26.501  1.00  0.00    -0.310 N 
ATOM     23  C   UNL A   1      35.572  24.453  25.264  1.00  0.00     0.065 C 
ATOM     24  H   UNL A   1      34.305  23.640  27.265  1.00  0.00     0.171 HD
ENDBRANCH  14  15
ENDBRANCH  12  14
ENDBRANCH   7  12
ENDBRANCH   3   6
ENDBRANCH   1   2
BRANCH   1  25
ATOM     25  C   UNL A   1      31.456  32.228  26.806  1.00  0.00     0.042 C 
BRANCH  25  26
ATOM     26  C   UNL A   1      32.715  32.936  27.272  1.00  0.00     0.118 C 
BRANCH  26  27
ATOM     27  N   UNL A   1      32.487  34.335  27.626  1.00  0.00    -0.352 N 
ATOM     28  C   UNL A   1      33.023  35.093  28.643  1.00  0.00     0.251 C 
ATOM     29  H   UNL A   1      31.851  34.812  27.046  1.00  0.00     0.163 HD
ATOM     30  O   UNL A   1      32.574  36.206  28.892  1.00  0.00    -0.269 OA
BRANCH  28  31
ATOM     31  C   UNL A   1      34.116  34.534  29.465  1.00  0.00     0.039 A 
ATOM     32  C   UNL A   1      33.819  33.898  30.673  1.00  0.00     0.014 A 
ATOM     33  C   UNL A   1      35.429  34.588  29.006  1.00  0.00     0.014 A 
ATOM     34  C   UNL A   1      34.825  33.206  31.352  1.00  0.00     0.010 A 
ATOM     35  C   UNL A   1      36.391  33.789  29.602  1.00  0.00     0.010 A 
ATOM     36  C   UNL A   1      36.103  33.090  30.785  1.00  0.00    -0.014 A 
BRANCH  36  37
ATOM     37  C   UNL A   1      37.183  32.269  31.393  1.00  0.00     0.031 A 
ATOM     38  C   UNL A   1      37.692  32.629  32.763  1.00  0.00     0.074 A 
ATOM     39  C   UNL A   1      37.786  31.299  30.678  1.00  0.00     0.049 A 
ATOM     40  N   UNL A   1      38.755  32.202  33.395  1.00  0.00    -0.248 NA
ATOM     41  C   UNL A   1      36.926  33.649  33.502  1.00  0.00     0.031 C 
ATOM     42  C   UNL A   1      37.413  30.881  29.327  1.00  0.00     0.029 A 
ATOM     43  N   UNL A   1      38.864  30.502  30.983  1.00  0.00    -0.354 N 
ATOM     44  C   UNL A   1      38.803  32.927  34.578  1.00  0.00     0.074 A 
ATOM     45  C   UNL A   1      37.705  33.866  34.549  1.00  0.00     0.031 C 
ATOM     46  C   UNL A   1      38.233  29.896  28.926  1.00  0.00     0.029 A 
ATOM     47  C   UNL A   1      39.228  29.652  29.967  1.00  0.00     0.049 A 
ATOM     48  H   UNL A   1      39.332  30.539  31.848  1.00  0.00     0.167 HD
ATOM     49  C   UNL A   1      39.669  32.801  35.610  1.00  0.00     0.037 A 
ATOM     50  C   UNL A   1      40.260  28.791  29.876  1.00  0.00     0.037 A 
ATOM     51  C   UNL A   1      40.733  31.835  35.648  1.00  0.00     0.049 A 
ATOM     52  C   UNL A   1      41.221  28.678  31.031  1.00  0.00     0.074 A 
ATOM     53  C   UNL A   1      41.627  31.578  36.671  1.00  0.00     0.029 A 
ATOM     54  N   UNL A   1      41.042  30.964  34.612  1.00  0.00    -0.354 N 
ATOM     55  N   UNL A   1      41.225  29.328  32.170  1.00  0.00    -0.248 NA
ATOM     56  C   UNL A   1      42.322  27.713  30.891  1.00  0.00     0.031 C 
ATOM     57  C   UNL A   1      42.516  30.592  36.232  1.00  0.00     0.029 A 
ATOM     58  C   UNL A   1      42.130  30.184  34.964  1.00  0.00     0.049 A 
ATOM     59  H   UNL A   1      40.561  30.910  33.756  1.00  0.00     0.167 HD
ATOM     60  C   UNL A   1      42.294  28.822  32.896  1.00  0.00     0.074 A 
ATOM     61  C   UNL A   1      42.920  27.812  32.070  1.00  0.00     0.031 C 
ATOM     62  C   UNL A   1      42.717  29.160  34.138  1.00  0.00     0.037 A 
BRANCH  49  63
ATOM     63  C   UNL A   1      39.500  33.726  36.782  1.00  0.00     0.064 A 
ATOM     64  C   UNL A   1      40.086  35.002  36.808  1.00  0.00     0.173 A 
ATOM     65  C   UNL A   1      38.718  33.344  37.882  1.00  0.00     0.173 A 
ATOM     66  F   UNL A   1      40.853  35.414  35.787  1.00  0.00    -0.203 F 
ATOM     67  C   UNL A   1      39.926  35.842  37.906  1.00  0.00     0.198 A 
ATOM     68  C   UNL A   1      38.528  34.203  38.961  1.00  0.00     0.198 A 
ATOM     69  F   UNL A   1      38.129  32.139  37.908  1.00  0.00    -0.203 F 
ATOM     70  F   UNL A   1      40.548  37.029  37.933  1.00  0.00    -0.200 F 
ATOM     71  C   UNL A   1      39.141  35.446  38.977  1.00  0.00     0.200 A 
ATOM     72  F   UNL A   1      37.755  33.824  39.989  1.00  0.00    -0.200 F 
ATOM     73  F   UNL A   1      38.981  36.260  40.029  1.00  0.00    -0.200 F 
ENDBRANCH  49  63
BRANCH  50  74
ATOM     74  C   UNL A   1      40.434  27.957  28.656  1.00  0.00     0.064 A 
ATOM     75  C   UNL A   1      39.839  26.690  28.562  1.00  0.00     0.173 A 
ATOM     76  C   UNL A   1      41.198  28.397  27.565  1.00  0.00     0.173 A 
ATOM     77  F   UNL A   1      39.114  26.214  29.585  1.00  0.00    -0.203 F 
ATOM     78  C   UNL A   1      40.024  25.887  27.438  1.00  0.00     0.198 A 
ATOM     79  C   UNL A   1      41.356  27.607  26.428  1.00  0.00     0.198 A 
ATOM     80  F   UNL A   1      41.784  29.603  27.599  1.00  0.00    -0.203 F 
ATOM     81  F   UNL A   1      39.488  24.660  27.399  1.00  0.00    -0.200 F 
ATOM     82  C   UNL A   1      40.777  26.349  26.369  1.00  0.00     0.200 A 
ATOM     83  F   UNL A   1      42.070  28.064  25.390  1.00  0.00    -0.200 F 
ATOM     84  F   UNL A   1      40.952  25.577  25.287  1.00  0.00    -0.200 F 
ENDBRANCH  50  74
BRANCH  62  85
ATOM     85  C   UNL A   1      43.866  28.392  34.723  1.00  0.00     0.064 A 
ATOM     86  C   UNL A   1      43.679  27.185  35.408  1.00  0.00     0.173 A 
ATOM     87  C   UNL A   1      45.183  28.825  34.499  1.00  0.00     0.173 A 
ATOM     88  F   UNL A   1      42.439  26.734  35.658  1.00  0.00    -0.203 F 
ATOM     89  C   UNL A   1      44.768  26.441  35.855  1.00  0.00     0.198 A 
ATOM     90  C   UNL A   1      46.269  28.065  34.918  1.00  0.00     0.198 A 
ATOM     91  F   UNL A   1      45.415  29.971  33.840  1.00  0.00    -0.203 F 
ATOM     92  F   UNL A   1      44.568  25.303  36.533  1.00  0.00    -0.200 F 
ATOM     93  C   UNL A   1      46.061  26.875  35.597  1.00  0.00     0.200 A 
ATOM     94  F   UNL A   1      47.516  28.476  34.650  1.00  0.00    -0.200 F 
ATOM     95  F   UNL A   1      47.108  26.143  36.004  1.00  0.00    -0.200 F 
ENDBRANCH  62  85
ENDBRANCH  36  37
ENDBRANCH  28  31
ENDBRANCH  26  27
ENDBRANCH  25  26
ENDBRANCH   1  25
TORSDOF 13
ENDMDL
