MODEL 1
REMARK VINA RESULT:     -13.3      0.000      0.000
REMARK SMILES O=C(CN1C(=O)/C(=C\c2c(F)cccc2Cl)Oc2ccccc21)NCCCNC(=O)c1ccc(-c2c3nc(c(-c4c(F)c(F)c(F)c(F)c4F)c4ccc([nH]4)c(-c4c(F)c(F)c(F)c(F)c4F)c4nc(c(-c5c(F)c(F)c(F)c(F)c5F)c5ccc2[nH]5)C=C4)C=C3)cc1
REMARK SMILES IDX 26 1 25 2 24 3 1 4 2 5 3 7 4 8 5 9 23 10 6 11 7 12 18 13
REMARK SMILES IDX 22 14 8 15 17 16 19 17 21 18 20 19 9 20 10 21 15 22 11 23
REMARK SMILES IDX 12 24 14 25 16 26 13 27 27 28 28 29 29 30 30 32 31 33 32 34
REMARK SMILES IDX 93 35 33 36 92 37 34 38 35 39 36 40 86 41 37 42 91 43 85 44
REMARK SMILES IDX 87 45 38 46 90 47 84 48 83 49 39 51 71 52 51 53 70 54 52 55
REMARK SMILES IDX 55 56 69 57 88 58 53 59 54 60 68 62 89 63 56 64 40 65 41 66
REMARK SMILES IDX 49 67 42 68 43 69 47 70 50 71 44 72 45 73 48 74 46 75 72 76
REMARK SMILES IDX 73 77 81 78 74 79 75 80 79 81 82 82 76 83 77 84 80 85 78 86
REMARK SMILES IDX 57 87 58 88 66 89 59 90 60 91 64 92 67 93 61 94 62 95 65 96
REMARK SMILES IDX 63 97
REMARK H PARENT 24 6 28 31 87 50 55 61
REMARK Flexibility Score: inf
ROOT
ATOM      1  C   UNL A   1      33.166  31.898  27.983  1.00  0.00     0.042 C 
ENDROOT
BRANCH   1   2
ATOM      2  C   UNL A   1      34.400  31.050  27.667  1.00  0.00     0.117 C 
BRANCH   2   3
ATOM      3  N   UNL A   1      34.259  30.206  26.498  1.00  0.00    -0.354 N 
ATOM      4  O   UNL A   1      33.154  28.526  27.580  1.00  0.00    -0.273 OA
ATOM      5  C   UNL A   1      33.602  28.995  26.533  1.00  0.00     0.240 C 
ATOM      6  H   UNL A   1      34.648  30.509  25.645  1.00  0.00     0.163 HD
BRANCH   5   7
ATOM      7  C   UNL A   1      33.662  28.153  25.253  1.00  0.00     0.226 C 
BRANCH   7   8
ATOM      8  N   UNL A   1      32.591  27.183  25.031  1.00  0.00    -0.293 N 
ATOM      9  C   UNL A   1      32.852  25.874  25.407  1.00  0.00     0.294 C 
ATOM     10  C   UNL A   1      31.365  27.526  24.401  1.00  0.00     0.088 A 
ATOM     11  O   UNL A   1      33.807  25.568  26.119  1.00  0.00    -0.265 OA
ATOM     12  C   UNL A   1      31.914  24.847  24.843  1.00  0.00     0.193 C 
ATOM     13  C   UNL A   1      30.400  26.528  24.204  1.00  0.00     0.151 A 
ATOM     14  C   UNL A   1      31.056  28.835  24.008  1.00  0.00     0.030 A 
ATOM     15  C   UNL A   1      32.325  23.598  24.556  1.00  0.00     0.065 C 
ATOM     16  O   UNL A   1      30.615  25.211  24.522  1.00  0.00    -0.449 OA
ATOM     17  C   UNL A   1      29.156  26.829  23.644  1.00  0.00     0.049 A 
ATOM     18  C   UNL A   1      29.812  29.136  23.444  1.00  0.00     0.002 A 
ATOM     19  C   UNL A   1      28.862  28.135  23.264  1.00  0.00     0.004 A 
BRANCH  15  20
ATOM     20  C   UNL A   1      33.716  23.131  24.653  1.00  0.00     0.033 A 
ATOM     21  C   UNL A   1      34.590  23.330  23.579  1.00  0.00     0.132 A 
ATOM     22  C   UNL A   1      34.188  22.411  25.765  1.00  0.00     0.051 A 
ATOM     23  F   UNL A   1      34.184  24.018  22.501  1.00  0.00    -0.206 F 
ATOM     24  C   UNL A   1      35.885  22.813  23.589  1.00  0.00     0.040 A 
ATOM     25  C   UNL A   1      35.490  21.896  25.784  1.00  0.00     0.021 A 
ATOM     26  Cl  UNL A   1      33.189  22.117  27.149  1.00  0.00    -0.084 Cl
ATOM     27  C   UNL A   1      36.335  22.090  24.691  1.00  0.00     0.005 A 
ENDBRANCH  15  20
ENDBRANCH   7   8
ENDBRANCH   5   7
ENDBRANCH   2   3
ENDBRANCH   1   2
BRANCH   1  28
ATOM     28  C   UNL A   1      32.896  33.038  27.007  1.00  0.00     0.118 C 
BRANCH  28  29
ATOM     29  N   UNL A   1      32.492  34.277  27.656  1.00  0.00    -0.352 N 
ATOM     30  C   UNL A   1      33.026  34.921  28.747  1.00  0.00     0.251 C 
ATOM     31  H   UNL A   1      31.715  34.724  27.250  1.00  0.00     0.163 HD
ATOM     32  O   UNL A   1      32.457  35.909  29.204  1.00  0.00    -0.269 OA
BRANCH  30  33
ATOM     33  C   UNL A   1      34.261  34.426  29.400  1.00  0.00     0.039 A 
ATOM     34  C   UNL A   1      35.519  34.612  28.827  1.00  0.00     0.014 A 
ATOM     35  C   UNL A   1      34.154  33.776  30.637  1.00  0.00     0.014 A 
ATOM     36  C   UNL A   1      36.642  34.021  29.405  1.00  0.00     0.010 A 
ATOM     37  C   UNL A   1      35.291  33.242  31.252  1.00  0.00     0.010 A 
ATOM     38  C   UNL A   1      36.538  33.315  30.616  1.00  0.00    -0.014 A 
BRANCH  38  39
ATOM     39  C   UNL A   1      37.743  32.645  31.173  1.00  0.00     0.031 A 
ATOM     40  C   UNL A   1      38.235  32.979  32.556  1.00  0.00     0.074 A 
ATOM     41  C   UNL A   1      38.353  31.676  30.463  1.00  0.00     0.049 A 
ATOM     42  N   UNL A   1      39.208  32.429  33.242  1.00  0.00    -0.248 NA
ATOM     43  C   UNL A   1      37.552  34.074  33.263  1.00  0.00     0.031 C 
ATOM     44  C   UNL A   1      37.980  31.263  29.112  1.00  0.00     0.029 A 
ATOM     45  N   UNL A   1      39.393  30.842  30.794  1.00  0.00    -0.354 N 
ATOM     46  C   UNL A   1      39.255  33.112  34.450  1.00  0.00     0.074 A 
ATOM     47  C   UNL A   1      38.239  34.140  34.394  1.00  0.00     0.031 C 
ATOM     48  C   UNL A   1      38.733  30.213  28.751  1.00  0.00     0.029 A 
ATOM     49  C   UNL A   1      39.668  29.903  29.829  1.00  0.00     0.049 A 
ATOM     50  H   UNL A   1      39.892  30.910  31.639  1.00  0.00     0.167 HD
ATOM     51  C   UNL A   1      40.060  32.890  35.517  1.00  0.00     0.037 A 
ATOM     52  C   UNL A   1      40.564  28.898  29.819  1.00  0.00     0.037 A 
ATOM     53  C   UNL A   1      41.053  31.851  35.592  1.00  0.00     0.049 A 
ATOM     54  C   UNL A   1      41.457  28.687  31.008  1.00  0.00     0.074 A 
ATOM     55  C   UNL A   1      41.887  31.531  36.649  1.00  0.00     0.029 A 
ATOM     56  N   UNL A   1      41.342  30.962  34.569  1.00  0.00    -0.354 N 
ATOM     57  N   UNL A   1      41.475  29.326  32.151  1.00  0.00    -0.248 NA
ATOM     58  C   UNL A   1      42.463  27.620  30.901  1.00  0.00     0.031 C 
ATOM     59  C   UNL A   1      42.705  30.467  36.254  1.00  0.00     0.029 A 
ATOM     60  C   UNL A   1      42.356  30.105  34.963  1.00  0.00     0.049 A 
ATOM     61  H   UNL A   1      40.893  30.942  33.693  1.00  0.00     0.167 HD
ATOM     62  C   UNL A   1      42.484  28.739  32.900  1.00  0.00     0.074 A 
ATOM     63  C   UNL A   1      43.045  27.677  32.091  1.00  0.00     0.031 C 
ATOM     64  C   UNL A   1      42.910  29.058  34.146  1.00  0.00     0.037 A 
BRANCH  51  65
ATOM     65  C   UNL A   1      39.898  33.786  36.708  1.00  0.00     0.064 A 
ATOM     66  C   UNL A   1      40.579  35.010  36.797  1.00  0.00     0.173 A 
ATOM     67  C   UNL A   1      39.005  33.453  37.736  1.00  0.00     0.173 A 
ATOM     68  F   UNL A   1      41.451  35.367  35.842  1.00  0.00    -0.203 F 
ATOM     69  C   UNL A   1      40.378  35.861  37.879  1.00  0.00     0.198 A 
ATOM     70  C   UNL A   1      38.792  34.316  38.807  1.00  0.00     0.198 A 
ATOM     71  F   UNL A   1      38.326  32.296  37.692  1.00  0.00    -0.203 F 
ATOM     72  F   UNL A   1      41.058  37.013  37.958  1.00  0.00    -0.200 F 
ATOM     73  C   UNL A   1      39.481  35.517  38.879  1.00  0.00     0.200 A 
ATOM     74  F   UNL A   1      37.917  33.987  39.767  1.00  0.00    -0.200 F 
ATOM     75  F   UNL A   1      39.281  36.343  39.915  1.00  0.00    -0.200 F 
ENDBRANCH  51  65
BRANCH  52  76
ATOM     76  C   UNL A   1      40.633  27.994  28.645  1.00  0.00     0.064 A 
ATOM     77  C   UNL A   1      39.898  26.800  28.618  1.00  0.00     0.173 A 
ATOM     78  C   UNL A   1      41.407  28.314  27.522  1.00  0.00     0.173 A 
ATOM     79  F   UNL A   1      39.161  26.444  29.679  1.00  0.00    -0.203 F 
ATOM     80  C   UNL A   1      39.937  25.959  27.508  1.00  0.00     0.198 A 
ATOM     81  C   UNL A   1      41.429  27.484  26.405  1.00  0.00     0.198 A 
ATOM     82  F   UNL A   1      42.126  29.446  27.503  1.00  0.00    -0.203 F 
ATOM     83  F   UNL A   1      39.244  24.814  27.514  1.00  0.00    -0.200 F 
ATOM     84  C   UNL A   1      40.696  26.306  26.400  1.00  0.00     0.200 A 
ATOM     85  F   UNL A   1      42.153  27.826  25.330  1.00  0.00    -0.200 F 
ATOM     86  F   UNL A   1      40.722  25.503  25.326  1.00  0.00    -0.200 F 
ENDBRANCH  52  76
BRANCH  64  87
ATOM     87  C   UNL A   1      44.042  28.259  34.714  1.00  0.00     0.064 A 
ATOM     88  C   UNL A   1      45.370  28.690  34.583  1.00  0.00     0.173 A 
ATOM     89  C   UNL A   1      43.795  27.091  35.452  1.00  0.00     0.173 A 
ATOM     90  F   UNL A   1      45.655  29.793  33.875  1.00  0.00    -0.203 F 
ATOM     91  C   UNL A   1      46.413  27.974  35.165  1.00  0.00     0.198 A 
ATOM     92  C   UNL A   1      44.838  26.390  36.048  1.00  0.00     0.198 A 
ATOM     93  F   UNL A   1      42.541  26.644  35.608  1.00  0.00    -0.203 F 
ATOM     94  F   UNL A   1      47.678  28.388  35.008  1.00  0.00    -0.200 F 
ATOM     95  C   UNL A   1      46.146  26.830  35.903  1.00  0.00     0.200 A 
ATOM     96  F   UNL A   1      44.579  25.290  36.769  1.00  0.00    -0.200 F 
ATOM     97  F   UNL A   1      47.151  26.149  36.471  1.00  0.00    -0.200 F 
ENDBRANCH  64  87
ENDBRANCH  38  39
ENDBRANCH  30  33
ENDBRANCH  28  29
ENDBRANCH   1  28
TORSDOF 12
ENDMDL
MODEL 2
REMARK VINA RESULT:     -13.3      5.767      9.883
REMARK SMILES O=C(CN1C(=O)/C(=C\c2c(F)cccc2Cl)Oc2ccccc21)NCCCNC(=O)c1ccc(-c2c3nc(c(-c4c(F)c(F)c(F)c(F)c4F)c4ccc([nH]4)c(-c4c(F)c(F)c(F)c(F)c4F)c4nc(c(-c5c(F)c(F)c(F)c(F)c5F)c5ccc2[nH]5)C=C4)C=C3)cc1
REMARK SMILES IDX 26 1 25 2 24 3 1 4 2 5 3 7 4 8 5 9 23 10 6 11 7 12 18 13
REMARK SMILES IDX 22 14 8 15 17 16 19 17 21 18 20 19 9 20 10 21 15 22 11 23
REMARK SMILES IDX 12 24 14 25 16 26 13 27 27 28 28 29 29 30 30 32 31 33 32 34
REMARK SMILES IDX 93 35 33 36 92 37 34 38 35 39 36 40 86 41 37 42 91 43 85 44
REMARK SMILES IDX 87 45 38 46 90 47 84 48 83 49 39 51 71 52 51 53 70 54 52 55
REMARK SMILES IDX 55 56 69 57 88 58 53 59 54 60 68 62 89 63 56 64 40 65 41 66
REMARK SMILES IDX 49 67 42 68 43 69 47 70 50 71 44 72 45 73 48 74 46 75 72 76
REMARK SMILES IDX 73 77 81 78 74 79 75 80 79 81 82 82 76 83 77 84 80 85 78 86
REMARK SMILES IDX 57 87 58 88 66 89 59 90 60 91 64 92 67 93 61 94 62 95 65 96
REMARK SMILES IDX 63 97
REMARK H PARENT 24 6 28 31 87 50 55 61
REMARK Flexibility Score: inf
ROOT
ATOM      1  C   UNL A   1      39.627  20.934  26.563  1.00  0.00     0.042 C 
ENDROOT
BRANCH   1   2
ATOM      2  C   UNL A   1      39.363  22.297  25.922  1.00  0.00     0.117 C 
BRANCH   2   3
ATOM      3  N   UNL A   1      38.186  22.340  25.077  1.00  0.00    -0.354 N 
ATOM      4  O   UNL A   1      37.178  24.053  26.200  1.00  0.00    -0.273 OA
ATOM      5  C   UNL A   1      37.175  23.257  25.261  1.00  0.00     0.240 C 
ATOM      6  H   UNL A   1      38.107  21.688  24.343  1.00  0.00     0.163 HD
BRANCH   5   7
ATOM      7  C   UNL A   1      35.932  23.083  24.380  1.00  0.00     0.226 C 
BRANCH   7   8
ATOM      8  N   UNL A   1      34.632  23.036  25.045  1.00  0.00    -0.293 N 
ATOM      9  C   UNL A   1      34.119  21.776  25.315  1.00  0.00     0.294 C 
ATOM     10  C   UNL A   1      33.882  24.204  25.347  1.00  0.00     0.088 A 
ATOM     11  O   UNL A   1      34.800  20.755  25.248  1.00  0.00    -0.265 OA
ATOM     12  C   UNL A   1      32.655  21.739  25.647  1.00  0.00     0.193 C 
ATOM     13  C   UNL A   1      32.632  24.068  25.965  1.00  0.00     0.151 A 
ATOM     14  C   UNL A   1      34.362  25.497  25.096  1.00  0.00     0.030 A 
ATOM     15  C   UNL A   1      31.884  20.686  25.319  1.00  0.00     0.065 C 
ATOM     16  O   UNL A   1      32.056  22.849  26.223  1.00  0.00    -0.449 OA
ATOM     17  C   UNL A   1      31.885  25.189  26.336  1.00  0.00     0.049 A 
ATOM     18  C   UNL A   1      33.614  26.619  25.465  1.00  0.00     0.002 A 
ATOM     19  C   UNL A   1      32.378  26.466  26.086  1.00  0.00     0.004 A 
BRANCH  15  20
ATOM     20  C   UNL A   1      32.335  19.530  24.529  1.00  0.00     0.033 A 
ATOM     21  C   UNL A   1      32.773  18.374  25.182  1.00  0.00     0.132 A 
ATOM     22  C   UNL A   1      32.420  19.570  23.127  1.00  0.00     0.051 A 
ATOM     23  F   UNL A   1      32.703  18.290  26.520  1.00  0.00    -0.206 F 
ATOM     24  C   UNL A   1      33.304  17.296  24.476  1.00  0.00     0.040 A 
ATOM     25  C   UNL A   1      32.945  18.488  22.410  1.00  0.00     0.021 A 
ATOM     26  Cl  UNL A   1      31.895  20.952  22.222  1.00  0.00    -0.084 Cl
ATOM     27  C   UNL A   1      33.396  17.355  23.087  1.00  0.00     0.005 A 
ENDBRANCH  15  20
ENDBRANCH   7   8
ENDBRANCH   5   7
ENDBRANCH   2   3
ENDBRANCH   1   2
BRANCH   1  28
ATOM     28  C   UNL A   1      39.711  19.764  25.588  1.00  0.00     0.118 C 
BRANCH  28  29
ATOM     29  N   UNL A   1      40.750  18.801  25.922  1.00  0.00    -0.352 N 
ATOM     30  C   UNL A   1      42.064  19.000  26.274  1.00  0.00     0.251 C 
ATOM     31  H   UNL A   1      40.468  17.858  25.889  1.00  0.00     0.163 HD
ATOM     32  O   UNL A   1      42.809  18.033  26.407  1.00  0.00    -0.269 OA
BRANCH  30  33
ATOM     33  C   UNL A   1      42.606  20.367  26.466  1.00  0.00     0.039 A 
ATOM     34  C   UNL A   1      42.662  20.963  27.727  1.00  0.00     0.014 A 
ATOM     35  C   UNL A   1      43.096  21.060  25.351  1.00  0.00     0.014 A 
ATOM     36  C   UNL A   1      43.058  22.294  27.850  1.00  0.00     0.010 A 
ATOM     37  C   UNL A   1      43.557  22.373  25.486  1.00  0.00     0.010 A 
ATOM     38  C   UNL A   1      43.494  23.020  26.729  1.00  0.00    -0.014 A 
BRANCH  38  39
ATOM     39  C   UNL A   1      43.850  24.455  26.885  1.00  0.00     0.031 A 
ATOM     40  C   UNL A   1      42.834  25.447  27.385  1.00  0.00     0.074 A 
ATOM     41  C   UNL A   1      45.114  24.857  26.648  1.00  0.00     0.049 A 
ATOM     42  N   UNL A   1      42.991  26.716  27.674  1.00  0.00    -0.248 NA
ATOM     43  C   UNL A   1      41.462  24.955  27.585  1.00  0.00     0.031 C 
ATOM     44  C   UNL A   1      46.189  23.999  26.156  1.00  0.00     0.029 A 
ATOM     45  N   UNL A   1      45.714  26.079  26.824  1.00  0.00    -0.354 N 
ATOM     46  C   UNL A   1      41.743  27.171  28.081  1.00  0.00     0.074 A 
ATOM     47  C   UNL A   1      40.830  26.055  27.970  1.00  0.00     0.031 C 
ATOM     48  C   UNL A   1      47.333  24.700  26.128  1.00  0.00     0.029 A 
ATOM     49  C   UNL A   1      47.063  26.068  26.565  1.00  0.00     0.049 A 
ATOM     50  H   UNL A   1      45.226  26.885  27.109  1.00  0.00     0.167 HD
ATOM     51  C   UNL A   1      41.395  28.402  28.526  1.00  0.00     0.037 A 
ATOM     52  C   UNL A   1      47.983  27.045  26.678  1.00  0.00     0.037 A 
ATOM     53  C   UNL A   1      42.303  29.509  28.667  1.00  0.00     0.049 A 
ATOM     54  C   UNL A   1      47.565  28.407  27.155  1.00  0.00     0.074 A 
ATOM     55  C   UNL A   1      42.043  30.782  29.145  1.00  0.00     0.029 A 
ATOM     56  N   UNL A   1      43.648  29.473  28.334  1.00  0.00    -0.354 N 
ATOM     57  N   UNL A   1      46.388  28.815  27.557  1.00  0.00    -0.248 NA
ATOM     58  C   UNL A   1      48.604  29.447  27.183  1.00  0.00     0.031 C 
ATOM     59  C   UNL A   1      43.225  31.527  29.071  1.00  0.00     0.029 A 
ATOM     60  C   UNL A   1      44.227  30.708  28.578  1.00  0.00     0.049 A 
ATOM     61  H   UNL A   1      44.122  28.687  27.977  1.00  0.00     0.167 HD
ATOM     62  C   UNL A   1      46.542  30.153  27.891  1.00  0.00     0.074 A 
ATOM     63  C   UNL A   1      47.933  30.485  27.665  1.00  0.00     0.031 C 
ATOM     64  C   UNL A   1      45.610  31.027  28.340  1.00  0.00     0.037 A 
BRANCH  51  65
ATOM     65  C   UNL A   1      39.962  28.625  28.905  1.00  0.00     0.064 A 
ATOM     66  C   UNL A   1      39.507  28.384  30.210  1.00  0.00     0.173 A 
ATOM     67  C   UNL A   1      39.052  29.147  27.975  1.00  0.00     0.173 A 
ATOM     68  F   UNL A   1      40.339  27.876  31.131  1.00  0.00    -0.203 F 
ATOM     69  C   UNL A   1      38.187  28.648  30.565  1.00  0.00     0.198 A 
ATOM     70  C   UNL A   1      37.738  29.428  28.340  1.00  0.00     0.198 A 
ATOM     71  F   UNL A   1      39.442  29.400  26.716  1.00  0.00    -0.203 F 
ATOM     72  F   UNL A   1      37.765  28.387  31.810  1.00  0.00    -0.200 F 
ATOM     73  C   UNL A   1      37.307  29.176  29.633  1.00  0.00     0.200 A 
ATOM     74  F   UNL A   1      36.891  29.948  27.441  1.00  0.00    -0.200 F 
ATOM     75  F   UNL A   1      36.040  29.440  29.981  1.00  0.00    -0.200 F 
ENDBRANCH  51  65
BRANCH  52  76
ATOM     76  C   UNL A   1      49.402  26.752  26.360  1.00  0.00     0.064 A 
ATOM     77  C   UNL A   1      49.881  26.874  25.048  1.00  0.00     0.173 A 
ATOM     78  C   UNL A   1      50.310  26.375  27.358  1.00  0.00     0.173 A 
ATOM     79  F   UNL A   1      49.042  27.212  24.058  1.00  0.00    -0.203 F 
ATOM     80  C   UNL A   1      51.219  26.627  24.747  1.00  0.00     0.198 A 
ATOM     81  C   UNL A   1      51.651  26.149  27.059  1.00  0.00     0.198 A 
ATOM     82  F   UNL A   1      49.897  26.246  28.627  1.00  0.00    -0.203 F 
ATOM     83  F   UNL A   1      51.647  26.729  23.483  1.00  0.00    -0.200 F 
ATOM     84  C   UNL A   1      52.104  26.273  25.754  1.00  0.00     0.200 A 
ATOM     85  F   UNL A   1      52.508  25.818  28.036  1.00  0.00    -0.200 F 
ATOM     86  F   UNL A   1      53.394  26.049  25.466  1.00  0.00    -0.200 F 
ENDBRANCH  52  76
BRANCH  64  87
ATOM     87  C   UNL A   1      46.054  32.432  28.611  1.00  0.00     0.064 A 
ATOM     88  C   UNL A   1      45.975  33.420  27.620  1.00  0.00     0.173 A 
ATOM     89  C   UNL A   1      46.500  32.808  29.887  1.00  0.00     0.173 A 
ATOM     90  F   UNL A   1      45.567  33.103  26.381  1.00  0.00    -0.203 F 
ATOM     91  C   UNL A   1      46.333  34.737  27.895  1.00  0.00     0.198 A 
ATOM     92  C   UNL A   1      46.839  34.129  30.163  1.00  0.00     0.198 A 
ATOM     93  F   UNL A   1      46.588  31.898  30.868  1.00  0.00    -0.203 F 
ATOM     94  F   UNL A   1      46.273  35.662  26.927  1.00  0.00    -0.200 F 
ATOM     95  C   UNL A   1      46.757  35.092  29.168  1.00  0.00     0.200 A 
ATOM     96  F   UNL A   1      47.239  34.474  31.395  1.00  0.00    -0.200 F 
ATOM     97  F   UNL A   1      47.090  36.363  29.433  1.00  0.00    -0.200 F 
ENDBRANCH  64  87
ENDBRANCH  38  39
ENDBRANCH  30  33
ENDBRANCH  28  29
ENDBRANCH   1  28
TORSDOF 12
ENDMDL
MODEL 3
REMARK VINA RESULT:     -13.2      5.150     10.266
REMARK SMILES O=C(CN1C(=O)/C(=C\c2c(F)cccc2Cl)Oc2ccccc21)NCCCNC(=O)c1ccc(-c2c3nc(c(-c4c(F)c(F)c(F)c(F)c4F)c4ccc([nH]4)c(-c4c(F)c(F)c(F)c(F)c4F)c4nc(c(-c5c(F)c(F)c(F)c(F)c5F)c5ccc2[nH]5)C=C4)C=C3)cc1
REMARK SMILES IDX 26 1 25 2 24 3 1 4 2 5 3 7 4 8 5 9 23 10 6 11 7 12 18 13
REMARK SMILES IDX 22 14 8 15 17 16 19 17 21 18 20 19 9 20 10 21 15 22 11 23
REMARK SMILES IDX 12 24 14 25 16 26 13 27 27 28 28 29 29 30 30 32 31 33 32 34
REMARK SMILES IDX 93 35 33 36 92 37 34 38 35 39 36 40 86 41 37 42 91 43 85 44
REMARK SMILES IDX 87 45 38 46 90 47 84 48 83 49 39 51 71 52 51 53 70 54 52 55
REMARK SMILES IDX 55 56 69 57 88 58 53 59 54 60 68 62 89 63 56 64 40 65 41 66
REMARK SMILES IDX 49 67 42 68 43 69 47 70 50 71 44 72 45 73 48 74 46 75 72 76
REMARK SMILES IDX 73 77 81 78 74 79 75 80 79 81 82 82 76 83 77 84 80 85 78 86
REMARK SMILES IDX 57 87 58 88 66 89 59 90 60 91 64 92 67 93 61 94 62 95 65 96
REMARK SMILES IDX 63 97
REMARK H PARENT 24 6 28 31 87 50 55 61
REMARK Flexibility Score: inf
ROOT
ATOM      1  C   UNL A   1      39.121  21.168  25.408  1.00  0.00     0.042 C 
ENDROOT
BRANCH   1   2
ATOM      2  C   UNL A   1      38.842  22.481  26.142  1.00  0.00     0.117 C 
BRANCH   2   3
ATOM      3  N   UNL A   1      37.440  22.722  26.418  1.00  0.00    -0.354 N 
ATOM      4  O   UNL A   1      36.994  23.710  24.408  1.00  0.00    -0.273 OA
ATOM      5  C   UNL A   1      36.593  23.300  25.498  1.00  0.00     0.240 C 
ATOM      6  H   UNL A   1      37.079  22.463  27.297  1.00  0.00     0.163 HD
BRANCH   5   7
ATOM      7  C   UNL A   1      35.176  23.620  25.987  1.00  0.00     0.226 C 
BRANCH   7   8
ATOM      8  N   UNL A   1      34.135  23.802  24.977  1.00  0.00    -0.293 N 
ATOM      9  C   UNL A   1      33.775  25.110  24.686  1.00  0.00     0.294 C 
ATOM     10  C   UNL A   1      33.465  22.711  24.361  1.00  0.00     0.088 A 
ATOM     11  O   UNL A   1      34.444  26.077  25.045  1.00  0.00    -0.265 OA
ATOM     12  C   UNL A   1      32.479  25.266  23.944  1.00  0.00     0.193 C 
ATOM     13  C   UNL A   1      32.462  22.975  23.419  1.00  0.00     0.151 A 
ATOM     14  C   UNL A   1      33.798  21.375  24.621  1.00  0.00     0.030 A 
ATOM     15  C   UNL A   1      31.686  26.338  24.127  1.00  0.00     0.065 C 
ATOM     16  O   UNL A   1      32.037  24.244  23.117  1.00  0.00    -0.449 OA
ATOM     17  C   UNL A   1      31.817  21.936  22.743  1.00  0.00     0.049 A 
ATOM     18  C   UNL A   1      33.151  20.335  23.946  1.00  0.00     0.002 A 
ATOM     19  C   UNL A   1      32.163  20.614  23.007  1.00  0.00     0.004 A 
BRANCH  15  20
ATOM     20  C   UNL A   1      31.926  27.398  25.118  1.00  0.00     0.033 A 
ATOM     21  C   UNL A   1      31.508  27.217  26.441  1.00  0.00     0.132 A 
ATOM     22  C   UNL A   1      32.493  28.636  24.768  1.00  0.00     0.051 A 
ATOM     23  F   UNL A   1      30.968  26.048  26.821  1.00  0.00    -0.206 F 
ATOM     24  C   UNL A   1      31.623  28.234  27.386  1.00  0.00     0.040 A 
ATOM     25  C   UNL A   1      32.618  29.660  25.715  1.00  0.00     0.021 A 
ATOM     26  Cl  UNL A   1      33.050  28.959  23.160  1.00  0.00    -0.084 Cl
ATOM     27  C   UNL A   1      32.174  29.461  27.022  1.00  0.00     0.005 A 
ENDBRANCH  15  20
ENDBRANCH   7   8
ENDBRANCH   5   7
ENDBRANCH   2   3
ENDBRANCH   1   2
BRANCH   1  28
ATOM     28  C   UNL A   1      39.312  19.950  26.306  1.00  0.00     0.118 C 
BRANCH  28  29
ATOM     29  N   UNL A   1      40.450  19.123  25.933  1.00  0.00    -0.352 N 
ATOM     30  C   UNL A   1      41.794  19.409  25.939  1.00  0.00     0.251 C 
ATOM     31  H   UNL A   1      40.221  18.216  25.628  1.00  0.00     0.163 HD
ATOM     32  O   UNL A   1      42.588  18.596  25.472  1.00  0.00    -0.269 OA
BRANCH  30  33
ATOM     33  C   UNL A   1      42.300  20.697  26.471  1.00  0.00     0.039 A 
ATOM     34  C   UNL A   1      42.333  20.963  27.840  1.00  0.00     0.014 A 
ATOM     35  C   UNL A   1      42.779  21.657  25.569  1.00  0.00     0.014 A 
ATOM     36  C   UNL A   1      42.695  22.230  28.295  1.00  0.00     0.010 A 
ATOM     37  C   UNL A   1      43.207  22.905  26.031  1.00  0.00     0.010 A 
ATOM     38  C   UNL A   1      43.120  23.221  27.394  1.00  0.00    -0.014 A 
BRANCH  38  39
ATOM     39  C   UNL A   1      43.438  24.581  27.906  1.00  0.00     0.031 A 
ATOM     40  C   UNL A   1      44.866  25.052  27.992  1.00  0.00     0.074 A 
ATOM     41  C   UNL A   1      42.437  25.424  28.223  1.00  0.00     0.049 A 
ATOM     42  N   UNL A   1      45.327  26.235  28.320  1.00  0.00    -0.248 NA
ATOM     43  C   UNL A   1      45.915  24.072  27.671  1.00  0.00     0.031 C 
ATOM     44  C   UNL A   1      41.015  25.089  28.190  1.00  0.00     0.029 A 
ATOM     45  N   UNL A   1      42.462  26.744  28.602  1.00  0.00    -0.354 N 
ATOM     46  C   UNL A   1      46.711  26.137  28.251  1.00  0.00     0.074 A 
ATOM     47  C   UNL A   1      47.019  24.772  27.884  1.00  0.00     0.031 C 
ATOM     48  C   UNL A   1      40.298  26.188  28.471  1.00  0.00     0.029 A 
ATOM     49  C   UNL A   1      41.212  27.295  28.742  1.00  0.00     0.049 A 
ATOM     50  H   UNL A   1      43.294  27.246  28.758  1.00  0.00     0.167 HD
ATOM     51  C   UNL A   1      47.639  27.102  28.456  1.00  0.00     0.037 A 
ATOM     52  C   UNL A   1      40.842  28.555  29.041  1.00  0.00     0.037 A 
ATOM     53  C   UNL A   1      47.339  28.468  28.792  1.00  0.00     0.049 A 
ATOM     54  C   UNL A   1      41.893  29.601  29.283  1.00  0.00     0.074 A 
ATOM     55  C   UNL A   1      48.217  29.522  28.983  1.00  0.00     0.029 A 
ATOM     56  N   UNL A   1      46.062  28.971  28.985  1.00  0.00    -0.354 N 
ATOM     57  N   UNL A   1      43.195  29.499  29.193  1.00  0.00    -0.248 NA
ATOM     58  C   UNL A   1      41.421  30.936  29.680  1.00  0.00     0.031 C 
ATOM     59  C   UNL A   1      47.472  30.656  29.322  1.00  0.00     0.029 A 
ATOM     60  C   UNL A   1      46.129  30.315  29.311  1.00  0.00     0.049 A 
ATOM     61  H   UNL A   1      45.230  28.450  28.903  1.00  0.00     0.167 HD
ATOM     62  C   UNL A   1      43.698  30.751  29.514  1.00  0.00     0.074 A 
ATOM     63  C   UNL A   1      42.561  31.605  29.782  1.00  0.00     0.031 C 
ATOM     64  C   UNL A   1      44.991  31.152  29.585  1.00  0.00     0.037 A 
BRANCH  51  65
ATOM     65  C   UNL A   1      49.081  26.720  28.315  1.00  0.00     0.064 A 
ATOM     66  C   UNL A   1      49.714  26.708  27.063  1.00  0.00     0.173 A 
ATOM     67  C   UNL A   1      49.855  26.429  29.448  1.00  0.00     0.173 A 
ATOM     68  F   UNL A   1      49.012  26.971  25.951  1.00  0.00    -0.203 F 
ATOM     69  C   UNL A   1      51.068  26.408  26.950  1.00  0.00     0.198 A 
ATOM     70  C   UNL A   1      51.214  26.148  29.333  1.00  0.00     0.198 A 
ATOM     71  F   UNL A   1      49.297  26.434  30.667  1.00  0.00    -0.203 F 
ATOM     72  F   UNL A   1      51.648  26.377  25.743  1.00  0.00    -0.200 F 
ATOM     73  C   UNL A   1      51.818  26.135  28.084  1.00  0.00     0.200 A 
ATOM     74  F   UNL A   1      51.940  25.895  30.430  1.00  0.00    -0.200 F 
ATOM     75  F   UNL A   1      53.124  25.856  27.975  1.00  0.00    -0.200 F 
ENDBRANCH  51  65
BRANCH  52  76
ATOM     76  C   UNL A   1      39.399  28.898  29.097  1.00  0.00     0.064 A 
ATOM     77  C   UNL A   1      38.697  28.843  30.309  1.00  0.00     0.173 A 
ATOM     78  C   UNL A   1      38.704  29.313  27.953  1.00  0.00     0.173 A 
ATOM     79  F   UNL A   1      39.318  28.431  31.424  1.00  0.00    -0.203 F 
ATOM     80  C   UNL A   1      37.349  29.191  30.373  1.00  0.00     0.198 A 
ATOM     81  C   UNL A   1      37.363  29.680  28.023  1.00  0.00     0.198 A 
ATOM     82  F   UNL A   1      39.335  29.381  26.772  1.00  0.00    -0.203 F 
ATOM     83  F   UNL A   1      36.695  29.109  31.538  1.00  0.00    -0.200 F 
ATOM     84  C   UNL A   1      36.686  29.617  29.232  1.00  0.00     0.200 A 
ATOM     85  F   UNL A   1      36.727  30.103  26.921  1.00  0.00    -0.200 F 
ATOM     86  F   UNL A   1      35.393  29.964  29.297  1.00  0.00    -0.200 F 
ENDBRANCH  52  76
BRANCH  64  87
ATOM     87  C   UNL A   1      45.251  32.574  29.974  1.00  0.00     0.064 A 
ATOM     88  C   UNL A   1      45.496  32.926  31.310  1.00  0.00     0.173 A 
ATOM     89  C   UNL A   1      45.324  33.582  29.001  1.00  0.00     0.173 A 
ATOM     90  F   UNL A   1      45.425  31.998  32.276  1.00  0.00    -0.203 F 
ATOM     91  C   UNL A   1      45.798  34.240  31.658  1.00  0.00     0.198 A 
ATOM     92  C   UNL A   1      45.643  34.890  29.351  1.00  0.00     0.198 A 
ATOM     93  F   UNL A   1      45.102  33.292  27.711  1.00  0.00    -0.203 F 
ATOM     94  F   UNL A   1      46.004  34.560  32.942  1.00  0.00    -0.200 F 
ATOM     95  C   UNL A   1      45.879  35.219  30.678  1.00  0.00     0.200 A 
ATOM     96  F   UNL A   1      45.731  35.834  28.403  1.00  0.00    -0.200 F 
ATOM     97  F   UNL A   1      46.179  36.480  31.015  1.00  0.00    -0.200 F 
ENDBRANCH  64  87
ENDBRANCH  38  39
ENDBRANCH  30  33
ENDBRANCH  28  29
ENDBRANCH   1  28
TORSDOF 12
ENDMDL
