MODEL 1
REMARK VINA RESULT:     -13.0      0.000      0.000
REMARK SMILES O=C(NCCCNC(=O)[C@@H](NC(=O)c1ccc(C[NH+]2CCCCC2)cc1)c1ccccc1F)c1ccc(-c2c3nc(c(-c4c(F)c(F)c(F)c(F)c4F)c4ccc([nH]4)c(-c4c(F)c(F)c(F)c(F)c4F)c4nc(c(-c5c(F)c(F)c(F)c(F)c5F)c5ccc2[nH]5)C=C4)C=C3)cc1
REMARK SMILES IDX 6 1 5 2 4 3 3 4 1 5 2 6 34 8 35 9 96 10 36 11 95 12 37 13
REMARK SMILES IDX 38 14 39 15 89 16 40 17 94 18 88 19 90 20 41 21 93 22 87 23
REMARK SMILES IDX 86 24 42 26 74 27 54 28 73 29 55 30 58 31 72 32 91 33 56 34
REMARK SMILES IDX 57 35 71 37 92 38 59 39 43 40 44 41 52 42 45 43 46 44 50 45
REMARK SMILES IDX 53 46 47 47 48 48 51 49 49 50 75 51 76 52 84 53 77 54 78 55
REMARK SMILES IDX 82 56 85 57 79 58 80 59 83 60 81 61 60 62 61 63 69 64 62 65
REMARK SMILES IDX 63 66 67 67 70 68 64 69 65 70 68 71 66 72 7 73 8 74 9 76
REMARK SMILES IDX 10 77 11 78 12 79 13 81 14 82 15 83 26 84 16 85 25 86 17 87
REMARK SMILES IDX 18 88 19 89 20 90 24 91 21 93 23 94 22 95 27 96 28 97 32 98
REMARK SMILES IDX 29 99 31 100 33 101 30 102
REMARK H PARENT 3 7 90 25 58 36 7 75 11 80 19 92
REMARK Flexibility Score: inf
ROOT
ATOM      1  C   UNL A   1      31.761  30.776  26.889  1.00  0.00     0.117 C 
ENDROOT
BRANCH   1   2
ATOM      2  C   UNL A   1      31.511  32.267  26.877  1.00  0.00     0.042 C 
BRANCH   2   3
ATOM      3  C   UNL A   1      32.781  33.058  27.129  1.00  0.00     0.118 C 
BRANCH   3   4
ATOM      4  N   UNL A   1      32.520  34.388  27.675  1.00  0.00    -0.352 N 
ATOM      5  O   UNL A   1      32.524  36.064  29.180  1.00  0.00    -0.269 OA
ATOM      6  C   UNL A   1      33.034  35.028  28.781  1.00  0.00     0.251 C 
ATOM      7  H   UNL A   1      31.865  34.917  27.166  1.00  0.00     0.163 HD
BRANCH   6   8
ATOM      8  C   UNL A   1      34.187  34.444  29.501  1.00  0.00     0.039 A 
ATOM      9  C   UNL A   1      35.478  34.605  29.007  1.00  0.00     0.014 A 
ATOM     10  C   UNL A   1      33.978  33.733  30.686  1.00  0.00     0.014 A 
ATOM     11  C   UNL A   1      36.518  33.870  29.549  1.00  0.00     0.010 A 
ATOM     12  C   UNL A   1      35.060  33.114  31.322  1.00  0.00     0.010 A 
ATOM     13  C   UNL A   1      36.332  33.142  30.732  1.00  0.00    -0.014 A 
BRANCH  13  14
ATOM     14  C   UNL A   1      37.507  32.481  31.351  1.00  0.00     0.031 A 
ATOM     15  C   UNL A   1      37.956  32.829  32.741  1.00  0.00     0.074 A 
ATOM     16  C   UNL A   1      38.136  31.514  30.652  1.00  0.00     0.049 A 
ATOM     17  N   UNL A   1      38.965  32.349  33.423  1.00  0.00    -0.248 NA
ATOM     18  C   UNL A   1      37.182  33.855  33.457  1.00  0.00     0.031 C 
ATOM     19  C   UNL A   1      37.784  31.094  29.293  1.00  0.00     0.029 A 
ATOM     20  N   UNL A   1      39.177  30.690  30.991  1.00  0.00    -0.354 N 
ATOM     21  C   UNL A   1      38.969  33.035  34.630  1.00  0.00     0.074 A 
ATOM     22  C   UNL A   1      37.872  33.977  34.583  1.00  0.00     0.031 C 
ATOM     23  C   UNL A   1      38.545  30.051  28.941  1.00  0.00     0.029 A 
ATOM     24  C   UNL A   1      39.499  29.786  30.010  1.00  0.00     0.049 A 
ATOM     25  H   UNL A   1      39.648  30.741  31.854  1.00  0.00     0.167 HD
ATOM     26  C   UNL A   1      39.815  32.886  35.679  1.00  0.00     0.037 A 
ATOM     27  C   UNL A   1      40.474  28.862  29.959  1.00  0.00     0.037 A 
ATOM     28  C   UNL A   1      40.885  31.922  35.724  1.00  0.00     0.049 A 
ATOM     29  C   UNL A   1      41.401  28.729  31.128  1.00  0.00     0.074 A 
ATOM     30  C   UNL A   1      41.778  31.670  36.749  1.00  0.00     0.029 A 
ATOM     31  N   UNL A   1      41.203  31.047  34.694  1.00  0.00    -0.354 N 
ATOM     32  N   UNL A   1      41.395  29.384  32.263  1.00  0.00    -0.248 NA
ATOM     33  C   UNL A   1      42.478  27.739  31.007  1.00  0.00     0.031 C 
ATOM     34  C   UNL A   1      42.663  30.673  36.325  1.00  0.00     0.029 A 
ATOM     35  C   UNL A   1      42.292  30.268  35.054  1.00  0.00     0.049 A 
ATOM     36  H   UNL A   1      40.725  30.987  33.835  1.00  0.00     0.167 HD
ATOM     37  C   UNL A   1      42.458  28.882  32.998  1.00  0.00     0.074 A 
ATOM     38  C   UNL A   1      43.073  27.850  32.187  1.00  0.00     0.031 C 
ATOM     39  C   UNL A   1      42.889  29.247  34.229  1.00  0.00     0.037 A 
BRANCH  26  40
ATOM     40  C   UNL A   1      39.636  33.804  36.854  1.00  0.00     0.064 A 
ATOM     41  C   UNL A   1      38.872  33.439  37.973  1.00  0.00     0.173 A 
ATOM     42  C   UNL A   1      40.276  35.054  36.878  1.00  0.00     0.173 A 
ATOM     43  F   UNL A   1      38.231  32.261  37.996  1.00  0.00    -0.203 F 
ATOM     44  C   UNL A   1      38.735  34.301  39.059  1.00  0.00     0.198 A 
ATOM     45  C   UNL A   1      40.157  35.901  37.977  1.00  0.00     0.198 A 
ATOM     46  F   UNL A   1      41.023  35.451  35.836  1.00  0.00    -0.203 F 
ATOM     47  F   UNL A   1      37.964  33.949  40.097  1.00  0.00    -0.200 F 
ATOM     48  C   UNL A   1      39.382  35.528  39.063  1.00  0.00     0.200 A 
ATOM     49  F   UNL A   1      40.794  37.081  37.983  1.00  0.00    -0.200 F 
ATOM     50  F   UNL A   1      39.253  36.352  40.112  1.00  0.00    -0.200 F 
ENDBRANCH  26  40
BRANCH  27  51
ATOM     51  C   UNL A   1      40.619  28.017  28.746  1.00  0.00     0.064 A 
ATOM     52  C   UNL A   1      39.936  26.799  28.629  1.00  0.00     0.173 A 
ATOM     53  C   UNL A   1      41.411  28.430  27.665  1.00  0.00     0.173 A 
ATOM     54  F   UNL A   1      39.180  26.355  29.644  1.00  0.00    -0.203 F 
ATOM     55  C   UNL A   1      40.046  26.024  27.476  1.00  0.00     0.198 A 
ATOM     56  C   UNL A   1      41.495  27.670  26.501  1.00  0.00     0.198 A 
ATOM     57  F   UNL A   1      42.077  29.593  27.725  1.00  0.00    -0.203 F 
ATOM     58  F   UNL A   1      39.406  24.848  27.401  1.00  0.00    -0.200 F 
ATOM     59  C   UNL A   1      40.817  26.464  26.411  1.00  0.00     0.200 A 
ATOM     60  F   UNL A   1      42.222  28.110  25.466  1.00  0.00    -0.200 F 
ATOM     61  F   UNL A   1      40.906  25.726  25.296  1.00  0.00    -0.200 F 
ENDBRANCH  27  51
BRANCH  39  62
ATOM     62  C   UNL A   1      44.069  28.505  34.779  1.00  0.00     0.064 A 
ATOM     63  C   UNL A   1      43.914  27.308  35.494  1.00  0.00     0.173 A 
ATOM     64  C   UNL A   1      45.369  28.985  34.569  1.00  0.00     0.173 A 
ATOM     65  F   UNL A   1      42.688  26.821  35.737  1.00  0.00    -0.203 F 
ATOM     66  C   UNL A   1      45.020  26.631  36.000  1.00  0.00     0.198 A 
ATOM     67  C   UNL A   1      46.474  28.291  35.052  1.00  0.00     0.198 A 
ATOM     68  F   UNL A   1      45.568  30.125  33.889  1.00  0.00    -0.203 F 
ATOM     69  F   UNL A   1      44.847  25.516  36.722  1.00  0.00    -0.200 F 
ATOM     70  C   UNL A   1      46.298  27.120  35.773  1.00  0.00     0.200 A 
ATOM     71  F   UNL A   1      47.709  28.760  34.824  1.00  0.00    -0.200 F 
ATOM     72  F   UNL A   1      47.362  26.466  36.259  1.00  0.00    -0.200 F 
ENDBRANCH  39  62
ENDBRANCH  13  14
ENDBRANCH   6   8
ENDBRANCH   3   4
ENDBRANCH   2   3
ENDBRANCH   1   2
BRANCH   1  73
ATOM     73  N   UNL A   1      32.806  30.349  25.979  1.00  0.00    -0.354 N 
ATOM     74  C   UNL A   1      32.793  29.317  25.079  1.00  0.00     0.247 C 
ATOM     75  H   UNL A   1      33.639  30.873  26.013  1.00  0.00     0.163 HD
ATOM     76  O   UNL A   1      33.658  29.332  24.198  1.00  0.00    -0.272 OA
BRANCH  74  77
ATOM     77  C   UNL A   1      31.689  28.224  25.115  1.00  0.00     0.205 C 
BRANCH  77  78
ATOM     78  N   UNL A   1      30.818  28.402  23.932  1.00  0.00    -0.336 N 
ATOM     79  C   UNL A   1      30.465  27.685  22.829  1.00  0.00     0.252 C 
ATOM     80  H   UNL A   1      30.370  29.279  23.945  1.00  0.00     0.165 HD
ATOM     81  O   UNL A   1      29.713  28.172  21.991  1.00  0.00    -0.269 OA
BRANCH  79  82
ATOM     82  C   UNL A   1      31.076  26.384  22.576  1.00  0.00     0.039 A 
ATOM     83  C   UNL A   1      32.297  26.363  21.899  1.00  0.00     0.014 A 
ATOM     84  C   UNL A   1      30.501  25.224  23.087  1.00  0.00     0.014 A 
ATOM     85  C   UNL A   1      33.026  25.180  21.861  1.00  0.00     0.010 A 
ATOM     86  C   UNL A   1      31.228  24.039  23.031  1.00  0.00     0.010 A 
ATOM     87  C   UNL A   1      32.515  24.018  22.459  1.00  0.00     0.006 A 
BRANCH  87  88
ATOM     88  C   UNL A   1      33.350  22.755  22.527  1.00  0.00     0.299 C 
BRANCH  88  89
ATOM     89  N   UNL A   1      34.294  22.663  23.647  1.00  0.00    -0.331 N 
ATOM     90  C   UNL A   1      34.156  21.407  24.391  1.00  0.00     0.262 C 
ATOM     91  C   UNL A   1      35.677  22.929  23.243  1.00  0.00     0.262 C 
ATOM     92  H   UNL A   1      34.042  23.410  24.294  1.00  0.00     0.348 HD
ATOM     93  C   UNL A   1      35.067  21.378  25.616  1.00  0.00     0.062 C 
ATOM     94  C   UNL A   1      36.617  22.945  24.446  1.00  0.00     0.062 C 
ATOM     95  C   UNL A   1      36.516  21.638  25.223  1.00  0.00     0.012 C 
ENDBRANCH  88  89
ENDBRANCH  87  88
ENDBRANCH  79  82
ENDBRANCH  77  78
BRANCH  77  96
ATOM     96  C   UNL A   1      32.264  26.881  25.530  1.00  0.00     0.020 A 
ATOM     97  C   UNL A   1      33.609  26.504  25.387  1.00  0.00     0.009 A 
ATOM     98  C   UNL A   1      31.433  25.970  26.198  1.00  0.00     0.129 A 
ATOM     99  C   UNL A   1      34.094  25.283  25.874  1.00  0.00     0.001 A 
ATOM    100  C   UNL A   1      31.903  24.747  26.683  1.00  0.00     0.039 A 
ATOM    101  F   UNL A   1      30.138  26.261  26.386  1.00  0.00    -0.207 F 
ATOM    102  C   UNL A   1      33.240  24.402  26.521  1.00  0.00     0.003 A 
ENDBRANCH  77  96
ENDBRANCH  74  77
ENDBRANCH   1  73
TORSDOF 15
ENDMDL
MODEL 2
REMARK VINA RESULT:     -13.0      0.264      7.138
REMARK SMILES O=C(NCCCNC(=O)[C@@H](NC(=O)c1ccc(C[NH+]2CCCCC2)cc1)c1ccccc1F)c1ccc(-c2c3nc(c(-c4c(F)c(F)c(F)c(F)c4F)c4ccc([nH]4)c(-c4c(F)c(F)c(F)c(F)c4F)c4nc(c(-c5c(F)c(F)c(F)c(F)c5F)c5ccc2[nH]5)C=C4)C=C3)cc1
REMARK SMILES IDX 6 1 5 2 4 3 3 4 1 5 2 6 34 8 35 9 96 10 36 11 95 12 37 13
REMARK SMILES IDX 38 14 39 15 89 16 40 17 94 18 88 19 90 20 41 21 93 22 87 23
REMARK SMILES IDX 86 24 42 26 74 27 54 28 73 29 55 30 58 31 72 32 91 33 56 34
REMARK SMILES IDX 57 35 71 37 92 38 59 39 43 40 44 41 52 42 45 43 46 44 50 45
REMARK SMILES IDX 53 46 47 47 48 48 51 49 49 50 75 51 76 52 84 53 77 54 78 55
REMARK SMILES IDX 82 56 85 57 79 58 80 59 83 60 81 61 60 62 61 63 69 64 62 65
REMARK SMILES IDX 63 66 67 67 70 68 64 69 65 70 68 71 66 72 7 73 8 74 9 76
REMARK SMILES IDX 10 77 11 78 12 79 13 81 14 82 15 83 26 84 16 85 25 86 17 87
REMARK SMILES IDX 18 88 19 89 20 90 24 91 21 93 23 94 22 95 27 96 28 97 32 98
REMARK SMILES IDX 29 99 31 100 33 101 30 102
REMARK H PARENT 3 7 90 25 58 36 7 75 11 80 19 92
REMARK Flexibility Score: inf
ROOT
ATOM      1  C   UNL A   1      31.405  30.981  26.520  1.00  0.00     0.117 C 
ENDROOT
BRANCH   1   2
ATOM      2  C   UNL A   1      31.388  32.490  26.610  1.00  0.00     0.042 C 
BRANCH   2   3
ATOM      3  C   UNL A   1      32.646  33.035  27.261  1.00  0.00     0.118 C 
BRANCH   3   4
ATOM      4  N   UNL A   1      32.493  34.414  27.719  1.00  0.00    -0.352 N 
ATOM      5  O   UNL A   1      32.654  36.184  29.104  1.00  0.00    -0.269 OA
ATOM      6  C   UNL A   1      33.079  35.088  28.768  1.00  0.00     0.251 C 
ATOM      7  H   UNL A   1      31.866  34.954  27.187  1.00  0.00     0.163 HD
BRANCH   6   8
ATOM      8  C   UNL A   1      34.204  34.472  29.504  1.00  0.00     0.039 A 
ATOM      9  C   UNL A   1      35.506  34.595  29.028  1.00  0.00     0.014 A 
ATOM     10  C   UNL A   1      33.958  33.767  30.686  1.00  0.00     0.014 A 
ATOM     11  C   UNL A   1      36.518  33.831  29.584  1.00  0.00     0.010 A 
ATOM     12  C   UNL A   1      35.013  33.118  31.337  1.00  0.00     0.010 A 
ATOM     13  C   UNL A   1      36.294  33.109  30.764  1.00  0.00    -0.014 A 
BRANCH  13  14
ATOM     14  C   UNL A   1      37.441  32.414  31.400  1.00  0.00     0.031 A 
ATOM     15  C   UNL A   1      38.210  31.350  30.671  1.00  0.00     0.074 A 
ATOM     16  C   UNL A   1      37.814  32.801  32.636  1.00  0.00     0.049 A 
ATOM     17  N   UNL A   1      39.231  30.644  31.086  1.00  0.00    -0.248 NA
ATOM     18  C   UNL A   1      37.773  31.025  29.305  1.00  0.00     0.031 C 
ATOM     19  C   UNL A   1      37.139  33.827  33.436  1.00  0.00     0.029 A 
ATOM     20  N   UNL A   1      38.862  32.407  33.425  1.00  0.00    -0.354 N 
ATOM     21  C   UNL A   1      39.536  29.771  30.051  1.00  0.00     0.074 A 
ATOM     22  C   UNL A   1      38.583  30.023  28.992  1.00  0.00     0.031 C 
ATOM     23  C   UNL A   1      37.826  34.029  34.567  1.00  0.00     0.029 A 
ATOM     24  C   UNL A   1      38.936  33.087  34.615  1.00  0.00     0.049 A 
ATOM     25  H   UNL A   1      39.502  31.705  33.164  1.00  0.00     0.167 HD
ATOM     26  C   UNL A   1      40.526  28.846  29.996  1.00  0.00     0.037 A 
ATOM     27  C   UNL A   1      39.784  32.950  35.649  1.00  0.00     0.037 A 
ATOM     28  C   UNL A   1      41.488  28.628  31.046  1.00  0.00     0.049 A 
ATOM     29  C   UNL A   1      40.860  31.911  35.564  1.00  0.00     0.074 A 
ATOM     30  C   UNL A   1      42.546  27.738  31.077  1.00  0.00     0.029 A 
ATOM     31  N   UNL A   1      41.507  29.312  32.255  1.00  0.00    -0.354 N 
ATOM     32  N   UNL A   1      41.138  31.091  34.580  1.00  0.00    -0.248 NA
ATOM     33  C   UNL A   1      41.732  31.767  36.736  1.00  0.00     0.031 C 
ATOM     34  C   UNL A   1      43.180  27.853  32.319  1.00  0.00     0.029 A 
ATOM     35  C   UNL A   1      42.548  28.849  33.044  1.00  0.00     0.049 A 
ATOM     36  H   UNL A   1      40.875  30.022  32.512  1.00  0.00     0.167 HD
ATOM     37  C   UNL A   1      42.222  30.339  35.006  1.00  0.00     0.074 A 
ATOM     38  C   UNL A   1      42.565  30.818  36.330  1.00  0.00     0.031 C 
ATOM     39  C   UNL A   1      42.870  29.339  34.361  1.00  0.00     0.037 A 
BRANCH  26  40
ATOM     40  C   UNL A   1      40.604  27.981  28.771  1.00  0.00     0.064 A 
ATOM     41  C   UNL A   1      39.892  26.777  28.665  1.00  0.00     0.173 A 
ATOM     42  C   UNL A   1      41.374  28.386  27.668  1.00  0.00     0.173 A 
ATOM     43  F   UNL A   1      39.151  26.338  29.693  1.00  0.00    -0.203 F 
ATOM     44  C   UNL A   1      39.967  25.999  27.512  1.00  0.00     0.198 A 
ATOM     45  C   UNL A   1      41.426  27.618  26.507  1.00  0.00     0.198 A 
ATOM     46  F   UNL A   1      42.070  29.531  27.715  1.00  0.00    -0.203 F 
ATOM     47  F   UNL A   1      39.314  24.831  27.450  1.00  0.00    -0.200 F 
ATOM     48  C   UNL A   1      40.728  26.423  26.432  1.00  0.00     0.200 A 
ATOM     49  F   UNL A   1      42.152  28.037  25.461  1.00  0.00    -0.200 F 
ATOM     50  F   UNL A   1      40.794  25.676  25.321  1.00  0.00    -0.200 F 
ENDBRANCH  26  40
BRANCH  27  51
ATOM     51  C   UNL A   1      39.622  33.811  36.848  1.00  0.00     0.064 A 
ATOM     52  C   UNL A   1      40.200  35.086  36.904  1.00  0.00     0.173 A 
ATOM     53  C   UNL A   1      38.853  33.392  37.944  1.00  0.00     0.173 A 
ATOM     54  F   UNL A   1      40.956  35.524  35.887  1.00  0.00    -0.203 F 
ATOM     55  C   UNL A   1      40.018  35.908  38.015  1.00  0.00     0.198 A 
ATOM     56  C   UNL A   1      38.646  34.225  39.040  1.00  0.00     0.198 A 
ATOM     57  F   UNL A   1      38.272  32.183  37.934  1.00  0.00    -0.203 F 
ATOM     58  F   UNL A   1      40.605  37.111  38.057  1.00  0.00    -0.200 F 
ATOM     59  C   UNL A   1      39.234  35.480  39.077  1.00  0.00     0.200 A 
ATOM     60  F   UNL A   1      37.870  33.818  40.053  1.00  0.00    -0.200 F 
ATOM     61  F   UNL A   1      39.046  36.279  40.136  1.00  0.00    -0.200 F 
ENDBRANCH  27  51
BRANCH  39  62
ATOM     62  C   UNL A   1      44.031  28.717  35.075  1.00  0.00     0.064 A 
ATOM     63  C   UNL A   1      45.332  29.219  34.937  1.00  0.00     0.173 A 
ATOM     64  C   UNL A   1      43.834  27.618  35.924  1.00  0.00     0.173 A 
ATOM     65  F   UNL A   1      45.572  30.256  34.120  1.00  0.00    -0.203 F 
ATOM     66  C   UNL A   1      46.401  28.629  35.605  1.00  0.00     0.198 A 
ATOM     67  C   UNL A   1      44.899  27.047  36.613  1.00  0.00     0.198 A 
ATOM     68  F   UNL A   1      42.606  27.103  36.091  1.00  0.00    -0.203 F 
ATOM     69  F   UNL A   1      47.643  29.094  35.422  1.00  0.00    -0.200 F 
ATOM     70  C   UNL A   1      46.182  27.547  36.447  1.00  0.00     0.200 A 
ATOM     71  F   UNL A   1      44.685  26.009  37.433  1.00  0.00    -0.200 F 
ATOM     72  F   UNL A   1      47.211  26.981  37.093  1.00  0.00    -0.200 F 
ENDBRANCH  39  62
ENDBRANCH  13  14
ENDBRANCH   6   8
ENDBRANCH   3   4
ENDBRANCH   2   3
ENDBRANCH   1   2
BRANCH   1  73
ATOM     73  N   UNL A   1      32.643  30.439  25.993  1.00  0.00    -0.354 N 
ATOM     74  C   UNL A   1      32.841  29.289  25.276  1.00  0.00     0.247 C 
ATOM     75  H   UNL A   1      33.451  30.970  26.177  1.00  0.00     0.163 HD
ATOM     76  O   UNL A   1      33.910  29.188  24.667  1.00  0.00    -0.272 OA
BRANCH  74  77
ATOM     77  C   UNL A   1      31.736  28.202  25.165  1.00  0.00     0.205 C 
BRANCH  77  78
ATOM     78  N   UNL A   1      30.969  28.442  23.922  1.00  0.00    -0.336 N 
ATOM     79  C   UNL A   1      30.660  27.757  22.786  1.00  0.00     0.252 C 
ATOM     80  H   UNL A   1      30.573  29.344  23.913  1.00  0.00     0.165 HD
ATOM     81  O   UNL A   1      30.004  28.295  21.900  1.00  0.00    -0.269 OA
BRANCH  79  82
ATOM     82  C   UNL A   1      31.210  26.424  22.563  1.00  0.00     0.039 A 
ATOM     83  C   UNL A   1      32.456  26.334  21.939  1.00  0.00     0.014 A 
ATOM     84  C   UNL A   1      30.553  25.299  23.053  1.00  0.00     0.014 A 
ATOM     85  C   UNL A   1      33.122  25.115  21.935  1.00  0.00     0.010 A 
ATOM     86  C   UNL A   1      31.219  24.077  23.031  1.00  0.00     0.010 A 
ATOM     87  C   UNL A   1      32.525  23.984  22.515  1.00  0.00     0.006 A 
BRANCH  87  88
ATOM     88  C   UNL A   1      33.288  22.679  22.622  1.00  0.00     0.299 C 
BRANCH  88  89
ATOM     89  N   UNL A   1      34.271  22.592  23.707  1.00  0.00    -0.331 N 
ATOM     90  C   UNL A   1      34.176  21.328  24.446  1.00  0.00     0.262 C 
ATOM     91  C   UNL A   1      35.636  22.880  23.258  1.00  0.00     0.262 C 
ATOM     92  H   UNL A   1      34.032  23.330  24.369  1.00  0.00     0.348 HD
ATOM     93  C   UNL A   1      35.129  21.303  25.639  1.00  0.00     0.062 C 
ATOM     94  C   UNL A   1      36.616  22.900  24.428  1.00  0.00     0.062 C 
ATOM     95  C   UNL A   1      36.561  21.586  25.198  1.00  0.00     0.012 C 
ENDBRANCH  88  89
ENDBRANCH  87  88
ENDBRANCH  79  82
ENDBRANCH  77  78
BRANCH  77  96
ATOM     96  C   UNL A   1      32.272  26.838  25.562  1.00  0.00     0.020 A 
ATOM     97  C   UNL A   1      33.608  26.428  25.427  1.00  0.00     0.009 A 
ATOM     98  C   UNL A   1      31.409  25.937  26.204  1.00  0.00     0.129 A 
ATOM     99  C   UNL A   1      34.055  25.187  25.898  1.00  0.00     0.001 A 
ATOM    100  C   UNL A   1      31.842  24.694  26.673  1.00  0.00     0.039 A 
ATOM    101  F   UNL A   1      30.120  26.259  26.384  1.00  0.00    -0.207 F 
ATOM    102  C   UNL A   1      33.171  24.317  26.520  1.00  0.00     0.003 A 
ENDBRANCH  77  96
ENDBRANCH  74  77
ENDBRANCH   1  73
TORSDOF 15
ENDMDL
MODEL 3
REMARK VINA RESULT:     -12.9      2.061      3.356
REMARK SMILES O=C(NCCCNC(=O)[C@@H](NC(=O)c1ccc(C[NH+]2CCCCC2)cc1)c1ccccc1F)c1ccc(-c2c3nc(c(-c4c(F)c(F)c(F)c(F)c4F)c4ccc([nH]4)c(-c4c(F)c(F)c(F)c(F)c4F)c4nc(c(-c5c(F)c(F)c(F)c(F)c5F)c5ccc2[nH]5)C=C4)C=C3)cc1
REMARK SMILES IDX 6 1 5 2 4 3 3 4 1 5 2 6 34 8 35 9 96 10 36 11 95 12 37 13
REMARK SMILES IDX 38 14 39 15 89 16 40 17 94 18 88 19 90 20 41 21 93 22 87 23
REMARK SMILES IDX 86 24 42 26 74 27 54 28 73 29 55 30 58 31 72 32 91 33 56 34
REMARK SMILES IDX 57 35 71 37 92 38 59 39 43 40 44 41 52 42 45 43 46 44 50 45
REMARK SMILES IDX 53 46 47 47 48 48 51 49 49 50 75 51 76 52 84 53 77 54 78 55
REMARK SMILES IDX 82 56 85 57 79 58 80 59 83 60 81 61 60 62 61 63 69 64 62 65
REMARK SMILES IDX 63 66 67 67 70 68 64 69 65 70 68 71 66 72 7 73 8 74 9 76
REMARK SMILES IDX 10 77 11 78 12 79 13 81 14 82 15 83 26 84 16 85 25 86 17 87
REMARK SMILES IDX 18 88 19 89 20 90 24 91 21 93 23 94 22 95 27 96 28 97 32 98
REMARK SMILES IDX 29 99 31 100 33 101 30 102
REMARK H PARENT 3 7 90 25 58 36 7 75 11 80 19 92
REMARK Flexibility Score: inf
ROOT
ATOM      1  C   UNL A   1      31.472  28.986  23.902  1.00  0.00     0.117 C 
ENDROOT
BRANCH   1   2
ATOM      2  C   UNL A   1      31.582  28.945  25.409  1.00  0.00     0.042 C 
BRANCH   2   3
ATOM      3  C   UNL A   1      32.816  29.672  25.909  1.00  0.00     0.118 C 
BRANCH   3   4
ATOM      4  N   UNL A   1      32.546  31.063  26.268  1.00  0.00    -0.352 N 
ATOM      5  O   UNL A   1      32.646  32.966  27.470  1.00  0.00    -0.269 OA
ATOM      6  C   UNL A   1      33.163  31.898  27.173  1.00  0.00     0.251 C 
ATOM      7  H   UNL A   1      31.797  31.473  25.779  1.00  0.00     0.163 HD
BRANCH   6   8
ATOM      8  C   UNL A   1      34.436  31.490  27.805  1.00  0.00     0.039 A 
ATOM      9  C   UNL A   1      34.606  30.188  28.266  1.00  0.00     0.014 A 
ATOM     10  C   UNL A   1      35.476  32.416  27.934  1.00  0.00     0.014 A 
ATOM     11  C   UNL A   1      35.698  29.874  29.057  1.00  0.00     0.010 A 
ATOM     12  C   UNL A   1      36.649  32.050  28.603  1.00  0.00     0.010 A 
ATOM     13  C   UNL A   1      36.749  30.789  29.209  1.00  0.00    -0.014 A 
BRANCH  13  14
ATOM     14  C   UNL A   1      37.960  30.361  29.951  1.00  0.00     0.031 A 
ATOM     15  C   UNL A   1      38.185  30.769  31.378  1.00  0.00     0.074 A 
ATOM     16  C   UNL A   1      38.835  29.545  29.328  1.00  0.00     0.049 A 
ATOM     17  N   UNL A   1      39.192  30.485  32.166  1.00  0.00    -0.248 NA
ATOM     18  C   UNL A   1      37.157  31.614  32.004  1.00  0.00     0.031 C 
ATOM     19  C   UNL A   1      38.715  29.085  27.942  1.00  0.00     0.029 A 
ATOM     20  N   UNL A   1      39.976  28.935  29.779  1.00  0.00    -0.354 N 
ATOM     21  C   UNL A   1      38.938  31.142  33.362  1.00  0.00     0.074 A 
ATOM     22  C   UNL A   1      37.689  31.852  33.195  1.00  0.00     0.031 C 
ATOM     23  C   UNL A   1      39.697  28.215  27.678  1.00  0.00     0.029 A 
ATOM     24  C   UNL A   1      40.568  28.125  28.842  1.00  0.00     0.049 A 
ATOM     25  H   UNL A   1      40.336  29.064  30.686  1.00  0.00     0.167 HD
ATOM     26  C   UNL A   1      39.683  31.145  34.494  1.00  0.00     0.037 A 
ATOM     27  C   UNL A   1      41.705  27.410  28.899  1.00  0.00     0.037 A 
ATOM     28  C   UNL A   1      40.910  30.407  34.657  1.00  0.00     0.049 A 
ATOM     29  C   UNL A   1      42.514  27.443  30.160  1.00  0.00     0.074 A 
ATOM     30  C   UNL A   1      41.723  30.320  35.772  1.00  0.00     0.029 A 
ATOM     31  N   UNL A   1      41.498  29.626  33.671  1.00  0.00    -0.354 N 
ATOM     32  N   UNL A   1      42.262  28.068  31.284  1.00  0.00    -0.248 NA
ATOM     33  C   UNL A   1      43.770  26.684  30.158  1.00  0.00     0.031 C 
ATOM     34  C   UNL A   1      42.826  29.520  35.449  1.00  0.00     0.029 A 
ATOM     35  C   UNL A   1      42.675  29.069  34.148  1.00  0.00     0.049 A 
ATOM     36  H   UNL A   1      41.133  29.487  32.767  1.00  0.00     0.167 HD
ATOM     37  C   UNL A   1      43.320  27.772  32.129  1.00  0.00     0.074 A 
ATOM     38  C   UNL A   1      44.206  26.892  31.393  1.00  0.00     0.031 C 
ATOM     39  C   UNL A   1      43.542  28.196  33.396  1.00  0.00     0.037 A 
BRANCH  26  40
ATOM     40  C   UNL A   1      39.207  31.993  35.639  1.00  0.00     0.064 A 
ATOM     41  C   UNL A   1      38.359  31.488  36.636  1.00  0.00     0.173 A 
ATOM     42  C   UNL A   1      39.642  33.322  35.761  1.00  0.00     0.173 A 
ATOM     43  F   UNL A   1      37.904  30.229  36.560  1.00  0.00    -0.203 F 
ATOM     44  C   UNL A   1      37.944  32.289  37.697  1.00  0.00     0.198 A 
ATOM     45  C   UNL A   1      39.247  34.112  36.838  1.00  0.00     0.198 A 
ATOM     46  F   UNL A   1      40.459  33.854  34.839  1.00  0.00    -0.203 F 
ATOM     47  F   UNL A   1      37.099  31.799  38.614  1.00  0.00    -0.200 F 
ATOM     48  C   UNL A   1      38.394  33.598  37.801  1.00  0.00     0.200 A 
ATOM     49  F   UNL A   1      39.693  35.372  36.943  1.00  0.00    -0.200 F 
ATOM     50  F   UNL A   1      37.998  34.365  38.828  1.00  0.00    -0.200 F 
ENDBRANCH  26  40
BRANCH  27  51
ATOM     51  C   UNL A   1      42.138  26.627  27.714  1.00  0.00     0.064 A 
ATOM     52  C   UNL A   1      43.074  27.144  26.809  1.00  0.00     0.173 A 
ATOM     53  C   UNL A   1      41.655  25.330  27.485  1.00  0.00     0.173 A 
ATOM     54  F   UNL A   1      43.553  28.386  26.977  1.00  0.00    -0.203 F 
ATOM     55  C   UNL A   1      43.506  26.394  25.716  1.00  0.00     0.198 A 
ATOM     56  C   UNL A   1      42.110  24.570  26.411  1.00  0.00     0.198 A 
ATOM     57  F   UNL A   1      40.764  24.786  28.328  1.00  0.00    -0.203 F 
ATOM     58  F   UNL A   1      44.380  26.923  24.849  1.00  0.00    -0.200 F 
ATOM     59  C   UNL A   1      43.030  25.105  25.524  1.00  0.00     0.200 A 
ATOM     60  F   UNL A   1      41.665  23.317  26.243  1.00  0.00    -0.200 F 
ATOM     61  F   UNL A   1      43.460  24.380  24.483  1.00  0.00    -0.200 F 
ENDBRANCH  27  51
BRANCH  39  62
ATOM     62  C   UNL A   1      44.780  27.690  34.071  1.00  0.00     0.064 A 
ATOM     63  C   UNL A   1      46.003  28.365  33.961  1.00  0.00     0.173 A 
ATOM     64  C   UNL A   1      44.735  26.527  34.855  1.00  0.00     0.173 A 
ATOM     65  F   UNL A   1      46.099  29.470  33.206  1.00  0.00    -0.203 F 
ATOM     66  C   UNL A   1      47.146  27.881  34.593  1.00  0.00     0.198 A 
ATOM     67  C   UNL A   1      45.872  26.062  35.508  1.00  0.00     0.198 A 
ATOM     68  F   UNL A   1      43.586  25.848  34.993  1.00  0.00    -0.203 F 
ATOM     69  F   UNL A   1      48.315  28.515  34.435  1.00  0.00    -0.200 F 
ATOM     70  C   UNL A   1      47.077  26.734  35.370  1.00  0.00     0.200 A 
ATOM     71  F   UNL A   1      45.802  24.959  36.267  1.00  0.00    -0.200 F 
ATOM     72  F   UNL A   1      48.176  26.271  35.980  1.00  0.00    -0.200 F 
ENDBRANCH  39  62
ENDBRANCH  13  14
ENDBRANCH   6   8
ENDBRANCH   3   4
ENDBRANCH   2   3
ENDBRANCH   1   2
BRANCH   1  73
ATOM     73  N   UNL A   1      32.719  28.707  23.216  1.00  0.00    -0.354 N 
ATOM     74  C   UNL A   1      33.079  27.592  22.508  1.00  0.00     0.247 C 
ATOM     75  H   UNL A   1      33.399  29.417  23.266  1.00  0.00     0.163 HD
ATOM     76  O   UNL A   1      34.050  27.698  21.753  1.00  0.00    -0.272 OA
BRANCH  74  77
ATOM     77  C   UNL A   1      32.252  26.279  22.587  1.00  0.00     0.205 C 
BRANCH  77  78
ATOM     78  N   UNL A   1      32.635  25.417  21.446  1.00  0.00    -0.336 N 
ATOM     79  C   UNL A   1      33.069  24.140  21.255  1.00  0.00     0.252 C 
ATOM     80  H   UNL A   1      32.553  25.898  20.591  1.00  0.00     0.165 HD
ATOM     81  O   UNL A   1      33.341  23.744  20.127  1.00  0.00    -0.269 OA
BRANCH  79  82
ATOM     82  C   UNL A   1      33.330  23.277  22.402  1.00  0.00     0.039 A 
ATOM     83  C   UNL A   1      32.336  22.366  22.766  1.00  0.00     0.014 A 
ATOM     84  C   UNL A   1      34.569  23.300  23.034  1.00  0.00     0.014 A 
ATOM     85  C   UNL A   1      32.640  21.366  23.681  1.00  0.00     0.010 A 
ATOM     86  C   UNL A   1      34.863  22.306  23.963  1.00  0.00     0.010 A 
ATOM     87  C   UNL A   1      33.919  21.305  24.259  1.00  0.00     0.006 A 
BRANCH  87  88
ATOM     88  C   UNL A   1      34.299  20.152  25.167  1.00  0.00     0.299 C 
BRANCH  88  89
ATOM     89  N   UNL A   1      33.777  18.833  24.791  1.00  0.00    -0.331 N 
ATOM     90  C   UNL A   1      34.836  17.919  24.350  1.00  0.00     0.262 C 
ATOM     91  C   UNL A   1      32.924  18.248  25.828  1.00  0.00     0.262 C 
ATOM     92  H   UNL A   1      33.173  18.985  23.984  1.00  0.00     0.348 HD
ATOM     93  C   UNL A   1      34.262  16.592  23.858  1.00  0.00     0.062 C 
ATOM     94  C   UNL A   1      32.300  16.935  25.362  1.00  0.00     0.062 C 
ATOM     95  C   UNL A   1      33.380  15.953  24.924  1.00  0.00     0.012 C 
ENDBRANCH  88  89
ENDBRANCH  87  88
ENDBRANCH  79  82
ENDBRANCH  77  78
BRANCH  77  96
ATOM     96  C   UNL A   1      32.163  25.775  24.017  1.00  0.00     0.020 A 
ATOM     97  C   UNL A   1      33.206  25.832  24.955  1.00  0.00     0.009 A 
ATOM     98  C   UNL A   1      30.929  25.305  24.490  1.00  0.00     0.129 A 
ATOM     99  C   UNL A   1      33.029  25.432  26.287  1.00  0.00     0.001 A 
ATOM    100  C   UNL A   1      30.742  24.899  25.813  1.00  0.00     0.039 A 
ATOM    101  F   UNL A   1      29.879  25.233  23.659  1.00  0.00    -0.207 F 
ATOM    102  C   UNL A   1      31.797  24.964  26.716  1.00  0.00     0.003 A 
ENDBRANCH  77  96
ENDBRANCH  74  77
ENDBRANCH   1  73
TORSDOF 15
ENDMDL
