MODEL 1
REMARK VINA RESULT:     -12.6      0.000      0.000
REMARK SMILES NS(=O)(=O)c1ccc(N2N=C(C(=O)NCCCNC(=O)c3ccc(-c4c5nc(c(-c6c(F)c(F)c(F)c(F)c6F)c6ccc([nH]6)c(-c6c(F)c(F)c(F)c(F)c6F)c6nc(c(-c7c(F)c(F)c(F)c(F)c7F)c7ccc4[nH]7)C=C6)C=C5)cc3)C[C@H]2c2ccco2)cc1
REMARK SMILES IDX 15 1 14 2 12 3 13 4 11 6 9 7 10 8 85 9 84 10 8 11 5 12 6 13
REMARK SMILES IDX 92 14 7 15 91 16 2 17 3 18 4 19 1 20 86 23 87 24 90 25 88 26
REMARK SMILES IDX 89 27 16 28 17 29 18 30 19 31 20 33 21 34 22 35 83 36 23 37
REMARK SMILES IDX 82 38 24 39 25 40 26 41 76 42 27 43 81 44 75 45 77 46 28 47
REMARK SMILES IDX 80 48 74 49 73 50 29 52 61 53 41 54 60 55 42 56 45 57 59 58
REMARK SMILES IDX 78 59 43 60 44 61 58 63 79 64 46 65 30 66 31 67 39 68 32 69
REMARK SMILES IDX 33 70 37 71 40 72 34 73 35 74 38 75 36 76 62 77 63 78 71 79
REMARK SMILES IDX 64 80 65 81 69 82 72 83 66 84 67 85 70 86 68 87 47 88 48 89
REMARK SMILES IDX 56 90 49 91 50 92 54 93 57 94 51 95 52 96 55 97 53 98
REMARK H PARENT 14 5 1 21 1 22 18 32 77 51 45 62
REMARK Flexibility Score: inf
ROOT
ATOM      1  C   UNL A   1      32.513  27.377  23.757  1.00  0.00     0.118 C 
ENDROOT
BRANCH   1   2
ATOM      2  N   UNL A   1      32.686  26.700  22.483  1.00  0.00    -0.351 N 
ATOM      3  C   UNL A   1      33.224  25.500  22.091  1.00  0.00     0.267 C 
ATOM      4  O   UNL A   1      33.317  25.291  20.884  1.00  0.00    -0.268 OA
ATOM      5  H   UNL A   1      32.336  27.223  21.727  1.00  0.00     0.163 HD
BRANCH   3   6
ATOM      6  C   UNL A   1      33.662  24.411  23.057  1.00  0.00     0.128 C 
ATOM      7  N   UNL A   1      34.963  23.008  24.013  1.00  0.00    -0.254 N 
ATOM      8  N   UNL A   1      34.917  24.119  23.221  1.00  0.00    -0.171 NA
ATOM      9  C   UNL A   1      33.660  22.660  24.601  1.00  0.00     0.180 C 
ATOM     10  C   UNL A   1      32.708  23.586  23.841  1.00  0.00     0.099 C 
BRANCH   7  11
ATOM     11  C   UNL A   1      36.146  22.687  24.679  1.00  0.00     0.060 A 
ATOM     12  C   UNL A   1      38.591  22.125  25.940  1.00  0.00     0.082 A 
ATOM     13  C   UNL A   1      37.922  21.114  25.247  1.00  0.00     0.024 A 
ATOM     14  C   UNL A   1      38.038  23.400  26.041  1.00  0.00     0.024 A 
ATOM     15  C   UNL A   1      36.697  21.397  24.631  1.00  0.00     0.029 A 
ATOM     16  C   UNL A   1      36.820  23.667  25.419  1.00  0.00     0.029 A 
BRANCH  12  17
ATOM     17  S   UNL A   1      40.150  21.794  26.700  1.00  0.00     0.238 S 
ATOM     18  O   UNL A   1      40.254  20.376  26.974  1.00  0.00    -0.207 OA
ATOM     19  O   UNL A   1      40.394  22.797  27.704  1.00  0.00    -0.207 OA
BRANCH  17  20
ATOM     20  N   UNL A   1      41.245  22.080  25.461  1.00  0.00    -0.225 NA
ATOM     21  H   UNL A   1      42.195  21.936  25.807  1.00  0.00     0.137 HD
ATOM     22  H   UNL A   1      41.145  23.040  25.133  1.00  0.00     0.137 HD
ENDBRANCH  17  20
ENDBRANCH  12  17
ENDBRANCH   7  11
BRANCH   9  23
ATOM     23  C   UNL A   1      33.211  21.224  24.546  1.00  0.00     0.128 A 
ATOM     24  C   UNL A   1      32.617  20.457  23.561  1.00  0.00     0.048 A 
ATOM     25  O   UNL A   1      33.438  20.437  25.644  1.00  0.00    -0.467 OA
ATOM     26  C   UNL A   1      32.446  19.158  24.099  1.00  0.00     0.042 A 
ATOM     27  C   UNL A   1      32.979  19.195  25.364  1.00  0.00     0.195 A 
ENDBRANCH   9  23
ENDBRANCH   3   6
ENDBRANCH   1   2
BRANCH   1  28
ATOM     28  C   UNL A   1      33.447  28.573  23.879  1.00  0.00     0.042 C 
BRANCH  28  29
ATOM     29  C   UNL A   1      33.854  28.858  25.319  1.00  0.00     0.118 C 
BRANCH  29  30
ATOM     30  N   UNL A   1      33.215  30.062  25.838  1.00  0.00    -0.352 N 
ATOM     31  C   UNL A   1      33.513  30.821  26.941  1.00  0.00     0.251 C 
ATOM     32  H   UNL A   1      32.447  30.382  25.311  1.00  0.00     0.163 HD
ATOM     33  O   UNL A   1      32.703  31.650  27.346  1.00  0.00    -0.269 OA
BRANCH  31  34
ATOM     34  C   UNL A   1      34.796  30.640  27.649  1.00  0.00     0.039 A 
ATOM     35  C   UNL A   1      35.677  31.720  27.744  1.00  0.00     0.014 A 
ATOM     36  C   UNL A   1      35.147  29.401  28.192  1.00  0.00     0.014 A 
ATOM     37  C   UNL A   1      36.879  31.574  28.439  1.00  0.00     0.010 A 
ATOM     38  C   UNL A   1      36.296  29.284  28.964  1.00  0.00     0.010 A 
ATOM     39  C   UNL A   1      37.180  30.365  29.088  1.00  0.00    -0.014 A 
BRANCH  39  40
ATOM     40  C   UNL A   1      38.416  30.204  29.891  1.00  0.00     0.031 A 
ATOM     41  C   UNL A   1      39.572  29.414  29.343  1.00  0.00     0.074 A 
ATOM     42  C   UNL A   1      38.468  30.705  31.140  1.00  0.00     0.049 A 
ATOM     43  N   UNL A   1      40.701  29.087  29.921  1.00  0.00    -0.248 NA
ATOM     44  C   UNL A   1      39.429  28.895  27.973  1.00  0.00     0.031 C 
ATOM     45  C   UNL A   1      37.392  31.447  31.799  1.00  0.00     0.029 A 
ATOM     46  N   UNL A   1      39.463  30.656  32.084  1.00  0.00    -0.354 N 
ATOM     47  C   UNL A   1      41.389  28.314  28.994  1.00  0.00     0.074 A 
ATOM     48  C   UNL A   1      40.529  28.169  27.840  1.00  0.00     0.031 C 
ATOM     49  C   UNL A   1      37.792  31.804  33.029  1.00  0.00     0.029 A 
ATOM     50  C   UNL A   1      39.134  31.279  33.263  1.00  0.00     0.049 A 
ATOM     51  H   UNL A   1      40.330  30.216  31.931  1.00  0.00     0.167 HD
ATOM     52  C   UNL A   1      42.636  27.794  29.089  1.00  0.00     0.037 A 
ATOM     53  C   UNL A   1      39.832  31.402  34.408  1.00  0.00     0.037 A 
ATOM     54  C   UNL A   1      43.495  27.964  30.231  1.00  0.00     0.049 A 
ATOM     55  C   UNL A   1      41.212  30.805  34.490  1.00  0.00     0.074 A 
ATOM     56  C   UNL A   1      44.798  27.530  30.401  1.00  0.00     0.029 A 
ATOM     57  N   UNL A   1      43.134  28.616  31.400  1.00  0.00    -0.354 N 
ATOM     58  N   UNL A   1      41.881  30.138  33.580  1.00  0.00    -0.248 NA
ATOM     59  C   UNL A   1      41.935  30.985  35.755  1.00  0.00     0.031 C 
ATOM     60  C   UNL A   1      45.206  27.872  31.694  1.00  0.00     0.029 A 
ATOM     61  C   UNL A   1      44.180  28.574  32.308  1.00  0.00     0.049 A 
ATOM     62  H   UNL A   1      42.263  29.046  31.561  1.00  0.00     0.167 HD
ATOM     63  C   UNL A   1      43.113  29.846  34.151  1.00  0.00     0.074 A 
ATOM     64  C   UNL A   1      43.103  30.423  35.479  1.00  0.00     0.031 C 
ATOM     65  C   UNL A   1      44.157  29.162  33.623  1.00  0.00     0.037 A 
BRANCH  52  66
ATOM     66  C   UNL A   1      43.146  26.994  27.924  1.00  0.00     0.064 A 
ATOM     67  C   UNL A   1      43.021  25.596  27.877  1.00  0.00     0.173 A 
ATOM     68  C   UNL A   1      43.734  27.635  26.822  1.00  0.00     0.173 A 
ATOM     69  F   UNL A   1      42.478  24.931  28.907  1.00  0.00    -0.203 F 
ATOM     70  C   UNL A   1      43.496  24.870  26.788  1.00  0.00     0.198 A 
ATOM     71  C   UNL A   1      44.175  26.909  25.720  1.00  0.00     0.198 A 
ATOM     72  F   UNL A   1      43.873  28.969  26.811  1.00  0.00    -0.203 F 
ATOM     73  F   UNL A   1      43.416  23.532  26.791  1.00  0.00    -0.200 F 
ATOM     74  C   UNL A   1      44.065  25.526  25.707  1.00  0.00     0.200 A 
ATOM     75  F   UNL A   1      44.711  27.546  24.670  1.00  0.00    -0.200 F 
ATOM     76  F   UNL A   1      44.513  24.826  24.656  1.00  0.00    -0.200 F 
ENDBRANCH  52  66
BRANCH  53  77
ATOM     77  C   UNL A   1      39.249  32.138  35.560  1.00  0.00     0.064 A 
ATOM     78  C   UNL A   1      39.493  33.507  35.739  1.00  0.00     0.173 A 
ATOM     79  C   UNL A   1      38.442  31.492  36.508  1.00  0.00     0.173 A 
ATOM     80  F   UNL A   1      40.273  34.167  34.870  1.00  0.00    -0.203 F 
ATOM     81  C   UNL A   1      38.975  34.195  36.833  1.00  0.00     0.198 A 
ATOM     82  C   UNL A   1      37.897  32.187  37.585  1.00  0.00     0.198 A 
ATOM     83  F   UNL A   1      38.170  30.184  36.379  1.00  0.00    -0.203 F 
ATOM     84  F   UNL A   1      39.267  35.491  37.007  1.00  0.00    -0.200 F 
ATOM     85  C   UNL A   1      38.172  33.536  37.753  1.00  0.00     0.200 A 
ATOM     86  F   UNL A   1      37.108  31.551  38.460  1.00  0.00    -0.200 F 
ATOM     87  F   UNL A   1      37.671  34.199  38.803  1.00  0.00    -0.200 F 
ENDBRANCH  53  77
BRANCH  65  88
ATOM     88  C   UNL A   1      45.394  29.035  34.466  1.00  0.00     0.064 A 
ATOM     89  C   UNL A   1      45.595  27.945  35.325  1.00  0.00     0.173 A 
ATOM     90  C   UNL A   1      46.411  29.999  34.379  1.00  0.00     0.173 A 
ATOM     91  F   UNL A   1      44.647  27.004  35.456  1.00  0.00    -0.203 F 
ATOM     92  C   UNL A   1      46.755  27.841  36.088  1.00  0.00     0.198 A 
ATOM     93  C   UNL A   1      47.584  29.873  35.116  1.00  0.00     0.198 A 
ATOM     94  F   UNL A   1      46.273  31.057  33.565  1.00  0.00    -0.203 F 
ATOM     95  F   UNL A   1      46.902  26.818  36.942  1.00  0.00    -0.200 F 
ATOM     96  C   UNL A   1      47.752  28.799  35.976  1.00  0.00     0.200 A 
ATOM     97  F   UNL A   1      48.553  30.790  34.994  1.00  0.00    -0.200 F 
ATOM     98  F   UNL A   1      48.871  28.690  36.705  1.00  0.00    -0.200 F 
ENDBRANCH  65  88
ENDBRANCH  39  40
ENDBRANCH  31  34
ENDBRANCH  29  30
ENDBRANCH  28  29
ENDBRANCH   1  28
TORSDOF 14
ENDMDL
MODEL 2
REMARK VINA RESULT:     -12.6      4.190      7.841
REMARK SMILES NS(=O)(=O)c1ccc(N2N=C(C(=O)NCCCNC(=O)c3ccc(-c4c5nc(c(-c6c(F)c(F)c(F)c(F)c6F)c6ccc([nH]6)c(-c6c(F)c(F)c(F)c(F)c6F)c6nc(c(-c7c(F)c(F)c(F)c(F)c7F)c7ccc4[nH]7)C=C6)C=C5)cc3)C[C@H]2c2ccco2)cc1
REMARK SMILES IDX 15 1 14 2 12 3 13 4 11 6 9 7 10 8 85 9 84 10 8 11 5 12 6 13
REMARK SMILES IDX 92 14 7 15 91 16 2 17 3 18 4 19 1 20 86 23 87 24 90 25 88 26
REMARK SMILES IDX 89 27 16 28 17 29 18 30 19 31 20 33 21 34 22 35 83 36 23 37
REMARK SMILES IDX 82 38 24 39 25 40 26 41 76 42 27 43 81 44 75 45 77 46 28 47
REMARK SMILES IDX 80 48 74 49 73 50 29 52 61 53 41 54 60 55 42 56 45 57 59 58
REMARK SMILES IDX 78 59 43 60 44 61 58 63 79 64 46 65 30 66 31 67 39 68 32 69
REMARK SMILES IDX 33 70 37 71 40 72 34 73 35 74 38 75 36 76 62 77 63 78 71 79
REMARK SMILES IDX 64 80 65 81 69 82 72 83 66 84 67 85 70 86 68 87 47 88 48 89
REMARK SMILES IDX 56 90 49 91 50 92 54 93 57 94 51 95 52 96 55 97 53 98
REMARK H PARENT 14 5 1 21 1 22 18 32 77 51 45 62
REMARK Flexibility Score: inf
ROOT
ATOM      1  C   UNL A   1      34.438  23.200  24.557  1.00  0.00     0.118 C 
ENDROOT
BRANCH   1   2
ATOM      2  N   UNL A   1      33.057  22.760  24.671  1.00  0.00    -0.351 N 
ATOM      3  C   UNL A   1      31.879  23.357  25.042  1.00  0.00     0.267 C 
ATOM      4  O   UNL A   1      30.888  22.637  25.142  1.00  0.00    -0.268 OA
ATOM      5  H   UNL A   1      32.940  21.815  24.422  1.00  0.00     0.163 HD
BRANCH   3   6
ATOM      6  C   UNL A   1      31.726  24.849  25.290  1.00  0.00     0.128 C 
ATOM      7  N   UNL A   1      31.377  26.912  24.848  1.00  0.00    -0.254 N 
ATOM      8  N   UNL A   1      31.225  25.636  24.387  1.00  0.00    -0.171 NA
ATOM      9  C   UNL A   1      31.810  26.975  26.252  1.00  0.00     0.180 C 
ATOM     10  C   UNL A   1      32.166  25.515  26.542  1.00  0.00     0.099 C 
BRANCH   7  11
ATOM     11  C   UNL A   1      30.604  27.936  24.302  1.00  0.00     0.060 A 
ATOM     12  C   UNL A   1      29.089  29.962  23.082  1.00  0.00     0.082 A 
ATOM     13  C   UNL A   1      30.138  30.304  23.938  1.00  0.00     0.024 A 
ATOM     14  C   UNL A   1      28.765  28.626  22.856  1.00  0.00     0.024 A 
ATOM     15  C   UNL A   1      30.882  29.289  24.553  1.00  0.00     0.029 A 
ATOM     16  C   UNL A   1      29.517  27.627  23.473  1.00  0.00     0.029 A 
BRANCH  12  17
ATOM     17  S   UNL A   1      28.157  31.227  22.276  1.00  0.00     0.238 S 
ATOM     18  O   UNL A   1      27.182  31.763  23.203  1.00  0.00    -0.207 OA
ATOM     19  O   UNL A   1      27.802  30.767  20.958  1.00  0.00    -0.207 OA
BRANCH  17  20
ATOM     20  N   UNL A   1      29.283  32.454  22.068  1.00  0.00    -0.225 NA
ATOM     21  H   UNL A   1      29.551  32.827  22.979  1.00  0.00     0.137 HD
ATOM     22  H   UNL A   1      28.875  33.198  21.503  1.00  0.00     0.137 HD
ENDBRANCH  17  20
ENDBRANCH  12  17
ENDBRANCH   7  11
BRANCH   9  23
ATOM     23  C   UNL A   1      32.933  27.910  26.613  1.00  0.00     0.128 A 
ATOM     24  C   UNL A   1      34.257  27.993  26.223  1.00  0.00     0.048 A 
ATOM     25  O   UNL A   1      32.658  28.944  27.469  1.00  0.00    -0.467 OA
ATOM     26  C   UNL A   1      34.816  29.104  26.900  1.00  0.00     0.042 A 
ATOM     27  C   UNL A   1      33.795  29.660  27.630  1.00  0.00     0.195 A 
ENDBRANCH   9  23
ENDBRANCH   3   6
ENDBRANCH   1   2
BRANCH   1  28
ATOM     28  C   UNL A   1      35.128  23.210  25.914  1.00  0.00     0.042 C 
BRANCH  28  29
ATOM     29  C   UNL A   1      36.526  23.812  25.859  1.00  0.00     0.118 C 
BRANCH  29  30
ATOM     30  N   UNL A   1      37.563  22.795  25.986  1.00  0.00    -0.352 N 
ATOM     31  C   UNL A   1      38.888  22.913  26.320  1.00  0.00     0.251 C 
ATOM     32  H   UNL A   1      37.264  21.875  25.802  1.00  0.00     0.163 HD
ATOM     33  O   UNL A   1      39.651  21.970  26.128  1.00  0.00    -0.269 OA
BRANCH  31  34
ATOM     34  C   UNL A   1      39.403  24.169  26.902  1.00  0.00     0.039 A 
ATOM     35  C   UNL A   1      40.075  25.074  26.077  1.00  0.00     0.014 A 
ATOM     36  C   UNL A   1      39.252  24.443  28.264  1.00  0.00     0.014 A 
ATOM     37  C   UNL A   1      40.537  26.280  26.606  1.00  0.00     0.010 A 
ATOM     38  C   UNL A   1      39.625  25.682  28.767  1.00  0.00     0.010 A 
ATOM     39  C   UNL A   1      40.282  26.611  27.947  1.00  0.00    -0.014 A 
BRANCH  39  40
ATOM     40  C   UNL A   1      40.700  27.915  28.517  1.00  0.00     0.031 A 
ATOM     41  C   UNL A   1      42.132  28.135  28.922  1.00  0.00     0.074 A 
ATOM     42  C   UNL A   1      39.778  28.871  28.738  1.00  0.00     0.049 A 
ATOM     43  N   UNL A   1      42.676  29.168  29.514  1.00  0.00    -0.248 NA
ATOM     44  C   UNL A   1      43.073  27.035  28.652  1.00  0.00     0.031 C 
ATOM     45  C   UNL A   1      38.350  28.756  28.433  1.00  0.00     0.029 A 
ATOM     46  N   UNL A   1      39.900  30.124  29.281  1.00  0.00    -0.354 N 
ATOM     47  C   UNL A   1      44.011  28.835  29.703  1.00  0.00     0.074 A 
ATOM     48  C   UNL A   1      44.184  27.483  29.217  1.00  0.00     0.031 C 
ATOM     49  C   UNL A   1      37.734  29.899  28.770  1.00  0.00     0.029 A 
ATOM     50  C   UNL A   1      38.712  30.810  29.357  1.00  0.00     0.049 A 
ATOM     51  H   UNL A   1      40.758  30.498  29.589  1.00  0.00     0.167 HD
ATOM     52  C   UNL A   1      45.008  29.597  30.211  1.00  0.00     0.037 A 
ATOM     53  C   UNL A   1      38.441  32.032  29.854  1.00  0.00     0.037 A 
ATOM     54  C   UNL A   1      44.833  30.950  30.670  1.00  0.00     0.049 A 
ATOM     55  C   UNL A   1      39.566  32.855  30.424  1.00  0.00     0.074 A 
ATOM     56  C   UNL A   1      45.790  31.830  31.145  1.00  0.00     0.029 A 
ATOM     57  N   UNL A   1      43.618  31.618  30.715  1.00  0.00    -0.354 N 
ATOM     58  N   UNL A   1      40.839  32.557  30.531  1.00  0.00    -0.248 NA
ATOM     59  C   UNL A   1      39.217  34.186  30.935  1.00  0.00     0.031 C 
ATOM     60  C   UNL A   1      45.145  33.010  31.529  1.00  0.00     0.029 A 
ATOM     61  C   UNL A   1      43.796  32.889  31.235  1.00  0.00     0.049 A 
ATOM     62  H   UNL A   1      42.757  31.243  30.420  1.00  0.00     0.167 HD
ATOM     63  C   UNL A   1      41.446  33.673  31.091  1.00  0.00     0.074 A 
ATOM     64  C   UNL A   1      40.404  34.659  31.287  1.00  0.00     0.031 C 
ATOM     65  C   UNL A   1      42.749  33.863  31.414  1.00  0.00     0.037 A 
BRANCH  52  66
ATOM     66  C   UNL A   1      46.377  28.985  30.297  1.00  0.00     0.064 A 
ATOM     67  C   UNL A   1      47.294  29.076  29.238  1.00  0.00     0.173 A 
ATOM     68  C   UNL A   1      46.793  28.330  31.467  1.00  0.00     0.173 A 
ATOM     69  F   UNL A   1      46.946  29.680  28.092  1.00  0.00    -0.203 F 
ATOM     70  C   UNL A   1      48.561  28.506  29.335  1.00  0.00     0.198 A 
ATOM     71  C   UNL A   1      48.072  27.793  31.574  1.00  0.00     0.198 A 
ATOM     72  F   UNL A   1      45.959  28.219  32.512  1.00  0.00    -0.203 F 
ATOM     73  F   UNL A   1      49.399  28.558  28.290  1.00  0.00    -0.200 F 
ATOM     74  C   UNL A   1      48.953  27.872  30.504  1.00  0.00     0.200 A 
ATOM     75  F   UNL A   1      48.453  27.194  32.710  1.00  0.00    -0.200 F 
ATOM     76  F   UNL A   1      50.175  27.333  30.599  1.00  0.00    -0.200 F 
ENDBRANCH  52  66
BRANCH  53  77
ATOM     77  C   UNL A   1      37.053  32.560  29.816  1.00  0.00     0.064 A 
ATOM     78  C   UNL A   1      36.587  33.285  28.710  1.00  0.00     0.173 A 
ATOM     79  C   UNL A   1      36.164  32.358  30.883  1.00  0.00     0.173 A 
ATOM     80  F   UNL A   1      37.404  33.520  27.672  1.00  0.00    -0.203 F 
ATOM     81  C   UNL A   1      35.297  33.808  28.682  1.00  0.00     0.198 A 
ATOM     82  C   UNL A   1      34.863  32.854  30.840  1.00  0.00     0.198 A 
ATOM     83  F   UNL A   1      36.555  31.664  31.962  1.00  0.00    -0.203 F 
ATOM     84  F   UNL A   1      34.896  34.540  27.634  1.00  0.00    -0.200 F 
ATOM     85  C   UNL A   1      34.433  33.588  29.745  1.00  0.00     0.200 A 
ATOM     86  F   UNL A   1      34.027  32.624  31.861  1.00  0.00    -0.200 F 
ATOM     87  F   UNL A   1      33.191  34.088  29.716  1.00  0.00    -0.200 F 
ENDBRANCH  53  77
BRANCH  65  88
ATOM     88  C   UNL A   1      43.130  35.203  31.975  1.00  0.00     0.064 A 
ATOM     89  C   UNL A   1      43.614  36.236  31.159  1.00  0.00     0.173 A 
ATOM     90  C   UNL A   1      42.968  35.470  33.343  1.00  0.00     0.173 A 
ATOM     91  F   UNL A   1      43.801  36.028  29.846  1.00  0.00    -0.203 F 
ATOM     92  C   UNL A   1      43.949  37.476  31.697  1.00  0.00     0.198 A 
ATOM     93  C   UNL A   1      43.271  36.720  33.872  1.00  0.00     0.198 A 
ATOM     94  F   UNL A   1      42.501  34.518  34.167  1.00  0.00    -0.203 F 
ATOM     95  F   UNL A   1      44.460  38.431  30.908  1.00  0.00    -0.200 F 
ATOM     96  C   UNL A   1      43.769  37.720  33.051  1.00  0.00     0.200 A 
ATOM     97  F   UNL A   1      43.080  36.959  35.177  1.00  0.00    -0.200 F 
ATOM     98  F   UNL A   1      44.084  38.917  33.564  1.00  0.00    -0.200 F 
ENDBRANCH  65  88
ENDBRANCH  39  40
ENDBRANCH  31  34
ENDBRANCH  29  30
ENDBRANCH  28  29
ENDBRANCH   1  28
TORSDOF 14
ENDMDL
MODEL 3
REMARK VINA RESULT:     -12.6      2.287      2.952
REMARK SMILES NS(=O)(=O)c1ccc(N2N=C(C(=O)NCCCNC(=O)c3ccc(-c4c5nc(c(-c6c(F)c(F)c(F)c(F)c6F)c6ccc([nH]6)c(-c6c(F)c(F)c(F)c(F)c6F)c6nc(c(-c7c(F)c(F)c(F)c(F)c7F)c7ccc4[nH]7)C=C6)C=C5)cc3)C[C@H]2c2ccco2)cc1
REMARK SMILES IDX 15 1 14 2 12 3 13 4 11 6 9 7 10 8 85 9 84 10 8 11 5 12 6 13
REMARK SMILES IDX 92 14 7 15 91 16 2 17 3 18 4 19 1 20 86 23 87 24 90 25 88 26
REMARK SMILES IDX 89 27 16 28 17 29 18 30 19 31 20 33 21 34 22 35 83 36 23 37
REMARK SMILES IDX 82 38 24 39 25 40 26 41 76 42 27 43 81 44 75 45 77 46 28 47
REMARK SMILES IDX 80 48 74 49 73 50 29 52 61 53 41 54 60 55 42 56 45 57 59 58
REMARK SMILES IDX 78 59 43 60 44 61 58 63 79 64 46 65 30 66 31 67 39 68 32 69
REMARK SMILES IDX 33 70 37 71 40 72 34 73 35 74 38 75 36 76 62 77 63 78 71 79
REMARK SMILES IDX 64 80 65 81 69 82 72 83 66 84 67 85 70 86 68 87 47 88 48 89
REMARK SMILES IDX 56 90 49 91 50 92 54 93 57 94 51 95 52 96 55 97 53 98
REMARK H PARENT 14 5 1 21 1 22 18 32 77 51 45 62
REMARK Flexibility Score: inf
ROOT
ATOM      1  C   UNL A   1      32.246  28.046  23.124  1.00  0.00     0.118 C 
ENDROOT
BRANCH   1   2
ATOM      2  N   UNL A   1      32.595  27.250  21.960  1.00  0.00    -0.351 N 
ATOM      3  C   UNL A   1      32.896  25.928  21.747  1.00  0.00     0.267 C 
ATOM      4  O   UNL A   1      33.273  25.609  20.622  1.00  0.00    -0.268 OA
ATOM      5  H   UNL A   1      32.622  27.782  21.132  1.00  0.00     0.163 HD
BRANCH   3   6
ATOM      6  C   UNL A   1      32.746  24.844  22.802  1.00  0.00     0.128 C 
ATOM      7  N   UNL A   1      32.460  22.886  23.613  1.00  0.00    -0.254 N 
ATOM      8  N   UNL A   1      32.787  23.585  22.487  1.00  0.00    -0.171 NA
ATOM      9  C   UNL A   1      32.411  23.722  24.822  1.00  0.00     0.180 C 
ATOM     10  C   UNL A   1      32.506  25.134  24.238  1.00  0.00     0.099 C 
BRANCH   7  11
ATOM     11  C   UNL A   1      32.792  21.534  23.703  1.00  0.00     0.060 A 
ATOM     12  C   UNL A   1      33.338  18.788  23.929  1.00  0.00     0.082 A 
ATOM     13  C   UNL A   1      34.025  19.699  24.736  1.00  0.00     0.024 A 
ATOM     14  C   UNL A   1      32.411  19.234  22.989  1.00  0.00     0.024 A 
ATOM     15  C   UNL A   1      33.757  21.067  24.610  1.00  0.00     0.029 A 
ATOM     16  C   UNL A   1      32.153  20.600  22.878  1.00  0.00     0.029 A 
BRANCH  12  17
ATOM     17  S   UNL A   1      33.642  17.057  24.093  1.00  0.00     0.238 S 
ATOM     18  O   UNL A   1      34.006  16.514  22.800  1.00  0.00    -0.207 OA
ATOM     19  O   UNL A   1      32.602  16.483  24.908  1.00  0.00    -0.207 OA
BRANCH  17  20
ATOM     20  N   UNL A   1      35.050  17.003  25.003  1.00  0.00    -0.225 NA
ATOM     21  H   UNL A   1      35.795  16.575  24.451  1.00  0.00     0.137 HD
ATOM     22  H   UNL A   1      34.891  16.450  25.844  1.00  0.00     0.137 HD
ENDBRANCH  17  20
ENDBRANCH  12  17
ENDBRANCH   7  11
BRANCH   9  23
ATOM     23  C   UNL A   1      31.233  23.574  25.747  1.00  0.00     0.128 A 
ATOM     24  C   UNL A   1      30.728  22.509  26.470  1.00  0.00     0.048 A 
ATOM     25  O   UNL A   1      30.479  24.686  26.011  1.00  0.00    -0.467 OA
ATOM     26  C   UNL A   1      29.598  22.990  27.175  1.00  0.00     0.042 A 
ATOM     27  C   UNL A   1      29.501  24.326  26.876  1.00  0.00     0.195 A 
ENDBRANCH   9  23
ENDBRANCH   3   6
ENDBRANCH   1   2
BRANCH   1  28
ATOM     28  C   UNL A   1      33.448  28.821  23.645  1.00  0.00     0.042 C 
BRANCH  28  29
ATOM     29  C   UNL A   1      33.487  28.896  25.166  1.00  0.00     0.118 C 
BRANCH  29  30
ATOM     30  N   UNL A   1      32.952  30.157  25.664  1.00  0.00    -0.352 N 
ATOM     31  C   UNL A   1      33.308  30.904  26.758  1.00  0.00     0.251 C 
ATOM     32  H   UNL A   1      32.217  30.535  25.128  1.00  0.00     0.163 HD
ATOM     33  O   UNL A   1      32.570  31.806  27.145  1.00  0.00    -0.269 OA
BRANCH  31  34
ATOM     34  C   UNL A   1      34.568  30.624  27.476  1.00  0.00     0.039 A 
ATOM     35  C   UNL A   1      35.504  31.650  27.629  1.00  0.00     0.014 A 
ATOM     36  C   UNL A   1      34.842  29.347  27.971  1.00  0.00     0.014 A 
ATOM     37  C   UNL A   1      36.684  31.409  28.335  1.00  0.00     0.010 A 
ATOM     38  C   UNL A   1      35.969  29.135  28.755  1.00  0.00     0.010 A 
ATOM     39  C   UNL A   1      36.908  30.160  28.936  1.00  0.00    -0.014 A 
BRANCH  39  40
ATOM     40  C   UNL A   1      38.120  29.897  29.751  1.00  0.00     0.031 A 
ATOM     41  C   UNL A   1      39.186  28.970  29.236  1.00  0.00     0.074 A 
ATOM     42  C   UNL A   1      38.225  30.436  30.981  1.00  0.00     0.049 A 
ATOM     43  N   UNL A   1      40.273  28.547  29.830  1.00  0.00    -0.248 NA
ATOM     44  C   UNL A   1      38.989  28.419  27.885  1.00  0.00     0.031 C 
ATOM     45  C   UNL A   1      37.233  31.311  31.608  1.00  0.00     0.029 A 
ATOM     46  N   UNL A   1      39.208  30.316  31.929  1.00  0.00    -0.354 N 
ATOM     47  C   UNL A   1      40.876  27.672  28.936  1.00  0.00     0.074 A 
ATOM     48  C   UNL A   1      40.006  27.576  27.784  1.00  0.00     0.031 C 
ATOM     49  C   UNL A   1      37.668  31.669  32.826  1.00  0.00     0.029 A 
ATOM     50  C   UNL A   1      38.947  31.013  33.084  1.00  0.00     0.049 A 
ATOM     51  H   UNL A   1      40.024  29.781  31.797  1.00  0.00     0.167 HD
ATOM     52  C   UNL A   1      42.060  27.026  29.054  1.00  0.00     0.037 A 
ATOM     53  C   UNL A   1      39.654  31.104  34.226  1.00  0.00     0.037 A 
ATOM     54  C   UNL A   1      42.932  27.145  30.193  1.00  0.00     0.049 A 
ATOM     55  C   UNL A   1      40.962  30.367  34.336  1.00  0.00     0.074 A 
ATOM     56  C   UNL A   1      44.182  26.582  30.384  1.00  0.00     0.029 A 
ATOM     57  N   UNL A   1      42.642  27.875  31.336  1.00  0.00    -0.354 N 
ATOM     58  N   UNL A   1      41.557  29.599  33.454  1.00  0.00    -0.248 NA
ATOM     59  C   UNL A   1      41.700  30.515  35.597  1.00  0.00     0.031 C 
ATOM     60  C   UNL A   1      44.623  26.926  31.666  1.00  0.00     0.029 A 
ATOM     61  C   UNL A   1      43.677  27.755  32.249  1.00  0.00     0.049 A 
ATOM     62  H   UNL A   1      41.822  28.400  31.478  1.00  0.00     0.167 HD
ATOM     63  C   UNL A   1      42.751  29.200  34.041  1.00  0.00     0.074 A 
ATOM     64  C   UNL A   1      42.802  29.823  35.347  1.00  0.00     0.031 C 
ATOM     65  C   UNL A   1      43.717  28.390  33.542  1.00  0.00     0.037 A 
BRANCH  52  66
ATOM     66  C   UNL A   1      42.483  26.134  27.921  1.00  0.00     0.064 A 
ATOM     67  C   UNL A   1      42.025  24.811  27.812  1.00  0.00     0.173 A 
ATOM     68  C   UNL A   1      43.327  26.618  26.910  1.00  0.00     0.173 A 
ATOM     69  F   UNL A   1      41.226  24.293  28.756  1.00  0.00    -0.203 F 
ATOM     70  C   UNL A   1      42.424  23.999  26.754  1.00  0.00     0.198 A 
ATOM     71  C   UNL A   1      43.695  25.815  25.835  1.00  0.00     0.198 A 
ATOM     72  F   UNL A   1      43.790  27.877  26.960  1.00  0.00    -0.203 F 
ATOM     73  F   UNL A   1      42.018  22.723  26.702  1.00  0.00    -0.200 F 
ATOM     74  C   UNL A   1      43.251  24.502  25.762  1.00  0.00     0.200 A 
ATOM     75  F   UNL A   1      44.483  26.308  24.870  1.00  0.00    -0.200 F 
ATOM     76  F   UNL A   1      43.626  23.722  24.740  1.00  0.00    -0.200 F 
ENDBRANCH  52  66
BRANCH  53  77
ATOM     77  C   UNL A   1      39.152  31.938  35.349  1.00  0.00     0.064 A 
ATOM     78  C   UNL A   1      39.432  33.311  35.407  1.00  0.00     0.173 A 
ATOM     79  C   UNL A   1      38.388  31.386  36.387  1.00  0.00     0.173 A 
ATOM     80  F   UNL A   1      40.174  33.884  34.447  1.00  0.00    -0.203 F 
ATOM     81  C   UNL A   1      38.990  34.093  36.472  1.00  0.00     0.198 A 
ATOM     82  C   UNL A   1      37.919  32.174  37.436  1.00  0.00     0.198 A 
ATOM     83  F   UNL A   1      38.084  30.079  36.376  1.00  0.00    -0.203 F 
ATOM     84  F   UNL A   1      39.316  35.391  36.528  1.00  0.00    -0.200 F 
ATOM     85  C   UNL A   1      38.229  33.525  37.483  1.00  0.00     0.200 A 
ATOM     86  F   UNL A   1      37.169  31.626  38.400  1.00  0.00    -0.200 F 
ATOM     87  F   UNL A   1      37.801  34.278  38.505  1.00  0.00    -0.200 F 
ENDBRANCH  53  77
BRANCH  65  88
ATOM     88  C   UNL A   1      44.933  28.164  34.394  1.00  0.00     0.064 A 
ATOM     89  C   UNL A   1      46.035  29.030  34.355  1.00  0.00     0.173 A 
ATOM     90  C   UNL A   1      44.976  27.087  35.294  1.00  0.00     0.173 A 
ATOM     91  F   UNL A   1      46.050  30.066  33.502  1.00  0.00    -0.203 F 
ATOM     92  C   UNL A   1      47.148  28.809  35.163  1.00  0.00     0.198 A 
ATOM     93  C   UNL A   1      46.074  26.890  36.125  1.00  0.00     0.198 A 
ATOM     94  F   UNL A   1      43.944  26.233  35.377  1.00  0.00    -0.203 F 
ATOM     95  F   UNL A   1      48.211  29.619  35.071  1.00  0.00    -0.200 F 
ATOM     96  C   UNL A   1      47.162  27.746  36.053  1.00  0.00     0.200 A 
ATOM     97  F   UNL A   1      46.079  25.872  36.996  1.00  0.00    -0.200 F 
ATOM     98  F   UNL A   1      48.230  27.542  36.837  1.00  0.00    -0.200 F 
ENDBRANCH  65  88
ENDBRANCH  39  40
ENDBRANCH  31  34
ENDBRANCH  29  30
ENDBRANCH  28  29
ENDBRANCH   1  28
TORSDOF 14
ENDMDL
