MODEL 1
REMARK VINA RESULT:     -13.0      0.000      0.000
REMARK SMILES Cc1nc(C)c(C(=O)N2CCC([C@H](C)C(=O)NCCCNC(=O)c3ccc(-c4c5nc(c(-c6c(F)c(F)c(F)c(F)c6F)c6ccc([nH]6)c(-c6c(F)c(F)c(F)c(F)c6F)c6nc(c(-c7c(F)c(F)c(F)c(F)c7F)c7ccc4[nH]7)C=C6)C=C5)cc3)CC2)s1
REMARK SMILES IDX 19 1 18 2 17 3 15 4 16 5 13 7 14 8 12 9 7 10 8 11 9 12 10 13
REMARK SMILES IDX 88 14 11 15 87 16 6 17 1 18 2 19 3 20 89 21 4 22 5 23 20 24
REMARK SMILES IDX 21 25 22 26 23 28 24 29 25 30 86 31 26 32 85 33 27 34 28 35
REMARK SMILES IDX 29 36 79 37 30 38 84 39 78 40 80 41 31 42 83 43 77 44 76 45
REMARK SMILES IDX 32 47 64 48 44 49 63 50 45 51 48 52 62 53 81 54 46 55 47 56
REMARK SMILES IDX 61 58 82 59 49 60 33 61 34 62 42 63 35 64 36 65 40 66 43 67
REMARK SMILES IDX 37 68 38 69 41 70 39 71 65 72 66 73 74 74 67 75 68 76 72 77
REMARK SMILES IDX 75 78 69 79 70 80 73 81 71 82 50 83 51 84 59 85 52 86 53 87
REMARK SMILES IDX 57 88 60 89 54 90 55 91 58 92 56 93
REMARK H PARENT 17 6 21 27 80 46 48 57
REMARK Flexibility Score: inf
ROOT
ATOM      1  C   UNL A   1      31.576  31.886  26.543  1.00  0.00     0.042 C 
ENDROOT
BRANCH   1   2
ATOM      2  C   UNL A   1      31.783  30.397  26.395  1.00  0.00     0.117 C 
BRANCH   2   3
ATOM      3  N   UNL A   1      32.481  30.032  25.184  1.00  0.00    -0.356 N 
ATOM      4  C   UNL A   1      32.163  29.088  24.259  1.00  0.00     0.223 C 
ATOM      5  O   UNL A   1      32.830  29.062  23.221  1.00  0.00    -0.275 OA
ATOM      6  H   UNL A   1      33.305  30.539  25.002  1.00  0.00     0.163 HD
BRANCH   4   7
ATOM      7  C   UNL A   1      31.042  28.066  24.490  1.00  0.00     0.078 C 
ATOM      8  C   UNL A   1      29.900  28.325  23.501  1.00  0.00     0.018 C 
BRANCH   7   9
ATOM      9  C   UNL A   1      31.462  26.570  24.706  1.00  0.00     0.005 C 
ATOM     10  C   UNL A   1      34.071  23.608  23.303  1.00  0.00     0.265 C 
ATOM     11  O   UNL A   1      34.001  23.681  22.074  1.00  0.00    -0.268 OA
ATOM     12  N   UNL A   1      33.117  24.268  24.081  1.00  0.00    -0.338 N 
ATOM     13  C   UNL A   1      31.730  24.233  23.667  1.00  0.00     0.120 C 
ATOM     14  C   UNL A   1      33.387  24.962  25.333  1.00  0.00     0.120 C 
ATOM     15  C   UNL A   1      31.133  25.621  23.528  1.00  0.00     0.026 C 
ATOM     16  C   UNL A   1      32.900  26.407  25.257  1.00  0.00     0.026 C 
BRANCH  10  17
ATOM     17  C   UNL A   1      35.052  22.763  23.972  1.00  0.00     0.115 A 
ATOM     18  C   UNL A   1      38.357  21.732  25.751  1.00  0.00     0.079 C 
ATOM     19  C   UNL A   1      37.009  21.916  25.150  1.00  0.00     0.091 A 
ATOM     20  N   UNL A   1      36.017  21.065  25.272  1.00  0.00    -0.246 NA
ATOM     21  S   UNL A   1      36.654  23.328  24.265  1.00  0.00    -0.113 S 
ATOM     22  C   UNL A   1      34.878  21.553  24.635  1.00  0.00     0.061 A 
ATOM     23  C   UNL A   1      33.635  20.743  24.782  1.00  0.00     0.068 C 
ENDBRANCH  10  17
ENDBRANCH   7   9
ENDBRANCH   4   7
ENDBRANCH   2   3
ENDBRANCH   1   2
BRANCH   1  24
ATOM     24  C   UNL A   1      32.723  32.557  27.273  1.00  0.00     0.118 C 
BRANCH  24  25
ATOM     25  N   UNL A   1      32.461  33.964  27.565  1.00  0.00    -0.352 N 
ATOM     26  C   UNL A   1      33.002  34.779  28.528  1.00  0.00     0.251 C 
ATOM     27  H   UNL A   1      31.794  34.393  26.981  1.00  0.00     0.163 HD
ATOM     28  O   UNL A   1      32.528  35.891  28.740  1.00  0.00    -0.269 OA
BRANCH  26  29
ATOM     29  C   UNL A   1      34.147  34.297  29.322  1.00  0.00     0.039 A 
ATOM     30  C   UNL A   1      33.912  33.618  30.519  1.00  0.00     0.014 A 
ATOM     31  C   UNL A   1      35.450  34.488  28.861  1.00  0.00     0.014 A 
ATOM     32  C   UNL A   1      34.987  33.061  31.211  1.00  0.00     0.010 A 
ATOM     33  C   UNL A   1      36.499  33.829  29.480  1.00  0.00     0.010 A 
ATOM     34  C   UNL A   1      36.283  33.122  30.671  1.00  0.00    -0.014 A 
BRANCH  34  35
ATOM     35  C   UNL A   1      37.438  32.482  31.343  1.00  0.00     0.031 A 
ATOM     36  C   UNL A   1      38.154  31.344  30.668  1.00  0.00     0.074 A 
ATOM     37  C   UNL A   1      37.787  32.866  32.585  1.00  0.00     0.049 A 
ATOM     38  N   UNL A   1      39.126  30.592  31.119  1.00  0.00    -0.248 NA
ATOM     39  C   UNL A   1      37.688  30.974  29.321  1.00  0.00     0.031 C 
ATOM     40  C   UNL A   1      37.128  33.917  33.363  1.00  0.00     0.029 A 
ATOM     41  N   UNL A   1      38.777  32.411  33.416  1.00  0.00    -0.354 N 
ATOM     42  C   UNL A   1      39.369  29.656  30.123  1.00  0.00     0.074 A 
ATOM     43  C   UNL A   1      38.396  29.884  29.078  1.00  0.00     0.031 C 
ATOM     44  C   UNL A   1      37.755  34.049  34.542  1.00  0.00     0.029 A 
ATOM     45  C   UNL A   1      38.830  33.065  34.622  1.00  0.00     0.049 A 
ATOM     46  H   UNL A   1      39.394  31.682  33.171  1.00  0.00     0.167 HD
ATOM     47  C   UNL A   1      40.337  28.711  30.069  1.00  0.00     0.037 A 
ATOM     48  C   UNL A   1      39.651  32.886  35.673  1.00  0.00     0.037 A 
ATOM     49  C   UNL A   1      41.319  28.511  31.101  1.00  0.00     0.049 A 
ATOM     50  C   UNL A   1      40.716  31.826  35.593  1.00  0.00     0.074 A 
ATOM     51  C   UNL A   1      42.383  27.630  31.120  1.00  0.00     0.029 A 
ATOM     52  N   UNL A   1      41.350  29.206  32.303  1.00  0.00    -0.354 N 
ATOM     53  N   UNL A   1      40.987  30.996  34.615  1.00  0.00    -0.248 NA
ATOM     54  C   UNL A   1      41.594  31.685  36.762  1.00  0.00     0.031 C 
ATOM     55  C   UNL A   1      43.028  27.752  32.356  1.00  0.00     0.029 A 
ATOM     56  C   UNL A   1      42.400  28.752  33.083  1.00  0.00     0.049 A 
ATOM     57  H   UNL A   1      40.719  29.915  32.563  1.00  0.00     0.167 HD
ATOM     58  C   UNL A   1      42.081  30.253  35.036  1.00  0.00     0.074 A 
ATOM     59  C   UNL A   1      42.433  30.743  36.354  1.00  0.00     0.031 C 
ATOM     60  C   UNL A   1      42.736  29.256  34.392  1.00  0.00     0.037 A 
BRANCH  47  61
ATOM     61  C   UNL A   1      40.375  27.830  28.853  1.00  0.00     0.064 A 
ATOM     62  C   UNL A   1      41.135  28.164  27.721  1.00  0.00     0.173 A 
ATOM     63  C   UNL A   1      39.646  26.630  28.821  1.00  0.00     0.173 A 
ATOM     64  F   UNL A   1      41.838  29.306  27.692  1.00  0.00    -0.203 F 
ATOM     65  C   UNL A   1      41.129  27.355  26.587  1.00  0.00     0.198 A 
ATOM     66  C   UNL A   1      39.674  25.805  27.699  1.00  0.00     0.198 A 
ATOM     67  F   UNL A   1      38.907  26.258  29.876  1.00  0.00    -0.203 F 
ATOM     68  F   UNL A   1      41.808  27.732  25.495  1.00  0.00    -0.200 F 
ATOM     69  C   UNL A   1      40.405  26.174  26.580  1.00  0.00     0.200 A 
ATOM     70  F   UNL A   1      38.984  24.656  27.698  1.00  0.00    -0.200 F 
ATOM     71  F   UNL A   1      40.402  25.394  25.489  1.00  0.00    -0.200 F 
ENDBRANCH  47  61
BRANCH  48  72
ATOM     72  C   UNL A   1      39.520  33.756  36.872  1.00  0.00     0.064 A 
ATOM     73  C   UNL A   1      40.160  35.001  36.926  1.00  0.00     0.173 A 
ATOM     74  C   UNL A   1      38.748  33.369  37.977  1.00  0.00     0.173 A 
ATOM     75  F   UNL A   1      40.924  35.407  35.901  1.00  0.00    -0.203 F 
ATOM     76  C   UNL A   1      40.047  35.820  38.048  1.00  0.00     0.198 A 
ATOM     77  C   UNL A   1      38.613  34.202  39.086  1.00  0.00     0.198 A 
ATOM     78  F   UNL A   1      38.109  32.191  37.971  1.00  0.00    -0.203 F 
ATOM     79  F   UNL A   1      40.704  36.988  38.090  1.00  0.00    -0.200 F 
ATOM     80  C   UNL A   1      39.269  35.423  39.123  1.00  0.00     0.200 A 
ATOM     81  F   UNL A   1      37.846  33.822  40.116  1.00  0.00    -0.200 F 
ATOM     82  F   UNL A   1      39.155  36.214  40.199  1.00  0.00    -0.200 F 
ENDBRANCH  48  72
BRANCH  60  83
ATOM     83  C   UNL A   1      43.921  28.651  35.088  1.00  0.00     0.064 A 
ATOM     84  C   UNL A   1      45.213  29.175  34.937  1.00  0.00     0.173 A 
ATOM     85  C   UNL A   1      43.752  27.557  35.951  1.00  0.00     0.173 A 
ATOM     86  F   UNL A   1      45.429  30.211  34.112  1.00  0.00    -0.203 F 
ATOM     87  C   UNL A   1      46.297  28.609  35.603  1.00  0.00     0.198 A 
ATOM     88  C   UNL A   1      44.833  27.015  36.642  1.00  0.00     0.198 A 
ATOM     89  F   UNL A   1      42.536  27.022  36.136  1.00  0.00    -0.203 F 
ATOM     90  F   UNL A   1      47.530  29.094  35.405  1.00  0.00    -0.200 F 
ATOM     91  C   UNL A   1      46.105  27.536  36.460  1.00  0.00     0.200 A 
ATOM     92  F   UNL A   1      44.642  25.989  37.482  1.00  0.00    -0.200 F 
ATOM     93  F   UNL A   1      47.147  26.998  37.108  1.00  0.00    -0.200 F 
ENDBRANCH  60  83
ENDBRANCH  34  35
ENDBRANCH  26  29
ENDBRANCH  24  25
ENDBRANCH   1  24
TORSDOF 12
ENDMDL
MODEL 2
REMARK VINA RESULT:     -13.0      0.168      1.138
REMARK SMILES Cc1nc(C)c(C(=O)N2CCC([C@H](C)C(=O)NCCCNC(=O)c3ccc(-c4c5nc(c(-c6c(F)c(F)c(F)c(F)c6F)c6ccc([nH]6)c(-c6c(F)c(F)c(F)c(F)c6F)c6nc(c(-c7c(F)c(F)c(F)c(F)c7F)c7ccc4[nH]7)C=C6)C=C5)cc3)CC2)s1
REMARK SMILES IDX 19 1 18 2 17 3 15 4 16 5 13 7 14 8 12 9 7 10 8 11 9 12 10 13
REMARK SMILES IDX 88 14 11 15 87 16 6 17 1 18 2 19 3 20 89 21 4 22 5 23 20 24
REMARK SMILES IDX 21 25 22 26 23 28 24 29 25 30 86 31 26 32 85 33 27 34 28 35
REMARK SMILES IDX 29 36 79 37 30 38 84 39 78 40 80 41 31 42 83 43 77 44 76 45
REMARK SMILES IDX 32 47 64 48 44 49 63 50 45 51 48 52 62 53 81 54 46 55 47 56
REMARK SMILES IDX 61 58 82 59 49 60 33 61 34 62 42 63 35 64 36 65 40 66 43 67
REMARK SMILES IDX 37 68 38 69 41 70 39 71 65 72 66 73 74 74 67 75 68 76 72 77
REMARK SMILES IDX 75 78 69 79 70 80 73 81 71 82 50 83 51 84 59 85 52 86 53 87
REMARK SMILES IDX 57 88 60 89 54 90 55 91 58 92 56 93
REMARK H PARENT 17 6 21 27 80 46 48 57
REMARK Flexibility Score: inf
ROOT
ATOM      1  C   UNL A   1      31.619  31.952  26.546  1.00  0.00     0.042 C 
ENDROOT
BRANCH   1   2
ATOM      2  C   UNL A   1      31.817  30.461  26.422  1.00  0.00     0.117 C 
BRANCH   2   3
ATOM      3  N   UNL A   1      32.575  30.077  25.251  1.00  0.00    -0.356 N 
ATOM      4  C   UNL A   1      32.306  29.114  24.331  1.00  0.00     0.223 C 
ATOM      5  O   UNL A   1      33.022  29.074  23.326  1.00  0.00    -0.275 OA
ATOM      6  H   UNL A   1      33.404  30.586  25.100  1.00  0.00     0.163 HD
BRANCH   4   7
ATOM      7  C   UNL A   1      31.181  28.091  24.527  1.00  0.00     0.078 C 
ATOM      8  C   UNL A   1      30.076  28.337  23.493  1.00  0.00     0.018 C 
BRANCH   7   9
ATOM      9  C   UNL A   1      31.598  26.598  24.771  1.00  0.00     0.005 C 
ATOM     10  C   UNL A   1      34.123  23.571  23.353  1.00  0.00     0.265 C 
ATOM     11  O   UNL A   1      34.004  23.608  22.126  1.00  0.00    -0.268 OA
ATOM     12  N   UNL A   1      33.208  24.264  24.149  1.00  0.00    -0.338 N 
ATOM     13  C   UNL A   1      31.804  24.228  23.793  1.00  0.00     0.120 C 
ATOM     14  C   UNL A   1      33.534  24.992  25.367  1.00  0.00     0.120 C 
ATOM     15  C   UNL A   1      31.213  25.617  23.636  1.00  0.00     0.026 C 
ATOM     16  C   UNL A   1      33.056  26.439  25.267  1.00  0.00     0.026 C 
BRANCH  10  17
ATOM     17  C   UNL A   1      35.125  22.738  24.007  1.00  0.00     0.115 A 
ATOM     18  C   UNL A   1      38.461  21.750  25.750  1.00  0.00     0.079 C 
ATOM     19  C   UNL A   1      37.106  21.915  25.162  1.00  0.00     0.091 A 
ATOM     20  N   UNL A   1      36.129  21.046  25.285  1.00  0.00    -0.246 NA
ATOM     21  S   UNL A   1      36.719  23.328  24.292  1.00  0.00    -0.113 S 
ATOM     22  C   UNL A   1      34.977  21.519  24.661  1.00  0.00     0.061 A 
ATOM     23  C   UNL A   1      33.750  20.687  24.811  1.00  0.00     0.068 C 
ENDBRANCH  10  17
ENDBRANCH   7   9
ENDBRANCH   4   7
ENDBRANCH   2   3
ENDBRANCH   1   2
BRANCH   1  24
ATOM     24  C   UNL A   1      32.739  32.621  27.317  1.00  0.00     0.118 C 
BRANCH  24  25
ATOM     25  N   UNL A   1      32.472  34.030  27.594  1.00  0.00    -0.352 N 
ATOM     26  C   UNL A   1      33.007  34.855  28.552  1.00  0.00     0.251 C 
ATOM     27  H   UNL A   1      31.806  34.451  27.005  1.00  0.00     0.163 HD
ATOM     28  O   UNL A   1      32.528  35.967  28.752  1.00  0.00    -0.269 OA
BRANCH  26  29
ATOM     29  C   UNL A   1      34.150  34.384  29.355  1.00  0.00     0.039 A 
ATOM     30  C   UNL A   1      33.914  33.741  30.571  1.00  0.00     0.014 A 
ATOM     31  C   UNL A   1      35.453  34.549  28.883  1.00  0.00     0.014 A 
ATOM     32  C   UNL A   1      34.986  33.193  31.274  1.00  0.00     0.010 A 
ATOM     33  C   UNL A   1      36.498  33.897  29.517  1.00  0.00     0.010 A 
ATOM     34  C   UNL A   1      36.280  33.226  30.728  1.00  0.00    -0.014 A 
BRANCH  34  35
ATOM     35  C   UNL A   1      37.431  32.593  31.413  1.00  0.00     0.031 A 
ATOM     36  C   UNL A   1      38.148  31.444  30.757  1.00  0.00     0.074 A 
ATOM     37  C   UNL A   1      37.776  32.995  32.651  1.00  0.00     0.049 A 
ATOM     38  N   UNL A   1      39.116  30.697  31.222  1.00  0.00    -0.248 NA
ATOM     39  C   UNL A   1      37.685  31.056  29.414  1.00  0.00     0.031 C 
ATOM     40  C   UNL A   1      37.117  34.058  33.411  1.00  0.00     0.029 A 
ATOM     41  N   UNL A   1      38.763  32.549  33.491  1.00  0.00    -0.354 N 
ATOM     42  C   UNL A   1      39.360  29.746  30.241  1.00  0.00     0.074 A 
ATOM     43  C   UNL A   1      38.392  29.961  29.189  1.00  0.00     0.031 C 
ATOM     44  C   UNL A   1      37.740  34.206  34.590  1.00  0.00     0.029 A 
ATOM     45  C   UNL A   1      38.813  33.221  34.688  1.00  0.00     0.049 A 
ATOM     46  H   UNL A   1      39.379  31.816  33.259  1.00  0.00     0.167 HD
ATOM     47  C   UNL A   1      40.326  28.799  30.203  1.00  0.00     0.037 A 
ATOM     48  C   UNL A   1      39.629  33.055  35.745  1.00  0.00     0.037 A 
ATOM     49  C   UNL A   1      41.304  28.611  31.242  1.00  0.00     0.049 A 
ATOM     50  C   UNL A   1      40.693  31.992  35.684  1.00  0.00     0.074 A 
ATOM     51  C   UNL A   1      42.367  27.728  31.277  1.00  0.00     0.029 A 
ATOM     52  N   UNL A   1      41.333  29.324  32.434  1.00  0.00    -0.354 N 
ATOM     53  N   UNL A   1      40.966  31.147  34.718  1.00  0.00    -0.248 NA
ATOM     54  C   UNL A   1      41.567  31.866  36.857  1.00  0.00     0.031 C 
ATOM     55  C   UNL A   1      43.008  27.867  32.514  1.00  0.00     0.029 A 
ATOM     56  C   UNL A   1      42.380  28.879  33.224  1.00  0.00     0.049 A 
ATOM     57  H   UNL A   1      40.702  30.038  32.681  1.00  0.00     0.167 HD
ATOM     58  C   UNL A   1      42.057  30.408  35.154  1.00  0.00     0.074 A 
ATOM     59  C   UNL A   1      42.405  30.917  36.466  1.00  0.00     0.031 C 
ATOM     60  C   UNL A   1      42.712  29.401  34.527  1.00  0.00     0.037 A 
BRANCH  47  61
ATOM     61  C   UNL A   1      40.367  27.900  29.001  1.00  0.00     0.064 A 
ATOM     62  C   UNL A   1      41.126  28.220  27.864  1.00  0.00     0.173 A 
ATOM     63  C   UNL A   1      39.642  26.698  28.986  1.00  0.00     0.173 A 
ATOM     64  F   UNL A   1      41.826  29.363  27.818  1.00  0.00    -0.203 F 
ATOM     65  C   UNL A   1      41.123  27.394  26.742  1.00  0.00     0.198 A 
ATOM     66  C   UNL A   1      39.672  25.857  27.876  1.00  0.00     0.198 A 
ATOM     67  F   UNL A   1      38.903  26.339  30.046  1.00  0.00    -0.203 F 
ATOM     68  F   UNL A   1      41.800  27.757  25.644  1.00  0.00    -0.200 F 
ATOM     69  C   UNL A   1      40.401  26.211  26.752  1.00  0.00     0.200 A 
ATOM     70  F   UNL A   1      38.985  24.706  27.892  1.00  0.00    -0.200 F 
ATOM     71  F   UNL A   1      40.401  25.415  25.673  1.00  0.00    -0.200 F 
ENDBRANCH  47  61
BRANCH  48  72
ATOM     72  C   UNL A   1      39.496  33.942  36.930  1.00  0.00     0.064 A 
ATOM     73  C   UNL A   1      38.748  33.539  38.045  1.00  0.00     0.173 A 
ATOM     74  C   UNL A   1      40.117  35.198  36.979  1.00  0.00     0.173 A 
ATOM     75  F   UNL A   1      38.121  32.354  38.039  1.00  0.00    -0.203 F 
ATOM     76  C   UNL A   1      38.613  34.367  39.158  1.00  0.00     0.198 A 
ATOM     77  C   UNL A   1      40.004  36.013  38.104  1.00  0.00     0.198 A 
ATOM     78  F   UNL A   1      40.850  35.627  35.941  1.00  0.00    -0.203 F 
ATOM     79  F   UNL A   1      37.859  33.975  40.194  1.00  0.00    -0.200 F 
ATOM     80  C   UNL A   1      39.247  35.600  39.190  1.00  0.00     0.200 A 
ATOM     81  F   UNL A   1      40.632  37.196  38.137  1.00  0.00    -0.200 F 
ATOM     82  F   UNL A   1      39.122  36.392  40.262  1.00  0.00    -0.200 F 
ENDBRANCH  48  72
BRANCH  60  83
ATOM     83  C   UNL A   1      43.893  28.803  35.235  1.00  0.00     0.064 A 
ATOM     84  C   UNL A   1      45.186  29.324  35.083  1.00  0.00     0.173 A 
ATOM     85  C   UNL A   1      43.719  27.721  36.112  1.00  0.00     0.173 A 
ATOM     86  F   UNL A   1      45.407  30.349  34.246  1.00  0.00    -0.203 F 
ATOM     87  C   UNL A   1      46.266  28.766  35.761  1.00  0.00     0.198 A 
ATOM     88  C   UNL A   1      44.796  27.187  36.814  1.00  0.00     0.198 A 
ATOM     89  F   UNL A   1      42.501  27.190  36.299  1.00  0.00    -0.203 F 
ATOM     90  F   UNL A   1      47.502  29.246  35.562  1.00  0.00    -0.200 F 
ATOM     91  C   UNL A   1      46.069  27.703  36.632  1.00  0.00     0.200 A 
ATOM     92  F   UNL A   1      44.600  26.172  37.667  1.00  0.00    -0.200 F 
ATOM     93  F   UNL A   1      47.109  27.173  37.290  1.00  0.00    -0.200 F 
ENDBRANCH  60  83
ENDBRANCH  34  35
ENDBRANCH  26  29
ENDBRANCH  24  25
ENDBRANCH   1  24
TORSDOF 12
ENDMDL
MODEL 3
REMARK VINA RESULT:     -13.0      0.738      1.910
REMARK SMILES Cc1nc(C)c(C(=O)N2CCC([C@H](C)C(=O)NCCCNC(=O)c3ccc(-c4c5nc(c(-c6c(F)c(F)c(F)c(F)c6F)c6ccc([nH]6)c(-c6c(F)c(F)c(F)c(F)c6F)c6nc(c(-c7c(F)c(F)c(F)c(F)c7F)c7ccc4[nH]7)C=C6)C=C5)cc3)CC2)s1
REMARK SMILES IDX 19 1 18 2 17 3 15 4 16 5 13 7 14 8 12 9 7 10 8 11 9 12 10 13
REMARK SMILES IDX 88 14 11 15 87 16 6 17 1 18 2 19 3 20 89 21 4 22 5 23 20 24
REMARK SMILES IDX 21 25 22 26 23 28 24 29 25 30 86 31 26 32 85 33 27 34 28 35
REMARK SMILES IDX 29 36 79 37 30 38 84 39 78 40 80 41 31 42 83 43 77 44 76 45
REMARK SMILES IDX 32 47 64 48 44 49 63 50 45 51 48 52 62 53 81 54 46 55 47 56
REMARK SMILES IDX 61 58 82 59 49 60 33 61 34 62 42 63 35 64 36 65 40 66 43 67
REMARK SMILES IDX 37 68 38 69 41 70 39 71 65 72 66 73 74 74 67 75 68 76 72 77
REMARK SMILES IDX 75 78 69 79 70 80 73 81 71 82 50 83 51 84 59 85 52 86 53 87
REMARK SMILES IDX 57 88 60 89 54 90 55 91 58 92 56 93
REMARK H PARENT 17 6 21 27 80 46 48 57
REMARK Flexibility Score: inf
ROOT
ATOM      1  C   UNL A   1      31.611  31.984  26.842  1.00  0.00     0.042 C 
ENDROOT
BRANCH   1   2
ATOM      2  C   UNL A   1      31.867  30.496  26.840  1.00  0.00     0.117 C 
BRANCH   2   3
ATOM      3  N   UNL A   1      32.714  30.060  25.752  1.00  0.00    -0.356 N 
ATOM      4  C   UNL A   1      32.390  29.343  24.645  1.00  0.00     0.223 C 
ATOM      5  O   UNL A   1      33.255  29.223  23.773  1.00  0.00    -0.275 OA
ATOM      6  H   UNL A   1      33.661  30.320  25.825  1.00  0.00     0.163 HD
BRANCH   4   7
ATOM      7  C   UNL A   1      31.019  28.676  24.477  1.00  0.00     0.078 C 
ATOM      8  C   UNL A   1      30.159  29.504  23.515  1.00  0.00     0.018 C 
BRANCH   7   9
ATOM      9  C   UNL A   1      30.992  27.119  24.285  1.00  0.00     0.005 C 
ATOM     10  C   UNL A   1      33.387  23.855  23.208  1.00  0.00     0.265 C 
ATOM     11  O   UNL A   1      33.997  24.228  22.203  1.00  0.00    -0.268 OA
ATOM     12  N   UNL A   1      32.297  24.602  23.661  1.00  0.00    -0.338 N 
ATOM     13  C   UNL A   1      31.362  25.135  22.691  1.00  0.00     0.120 C 
ATOM     14  C   UNL A   1      31.974  24.856  25.058  1.00  0.00     0.120 C 
ATOM     15  C   UNL A   1      31.183  26.636  22.827  1.00  0.00     0.026 C 
ATOM     16  C   UNL A   1      31.862  26.357  25.315  1.00  0.00     0.026 C 
BRANCH  10  17
ATOM     17  C   UNL A   1      33.697  22.598  23.877  1.00  0.00     0.115 A 
ATOM     18  C   UNL A   1      33.407  18.856  24.907  1.00  0.00     0.079 C 
ATOM     19  C   UNL A   1      33.735  20.276  24.615  1.00  0.00     0.091 A 
ATOM     20  N   UNL A   1      34.876  20.854  24.912  1.00  0.00    -0.246 NA
ATOM     21  S   UNL A   1      32.608  21.264  23.803  1.00  0.00    -0.113 S 
ATOM     22  C   UNL A   1      34.885  22.172  24.463  1.00  0.00     0.061 A 
ATOM     23  C   UNL A   1      36.160  22.925  24.632  1.00  0.00     0.068 C 
ENDBRANCH  10  17
ENDBRANCH   7   9
ENDBRANCH   4   7
ENDBRANCH   2   3
ENDBRANCH   1   2
BRANCH   1  24
ATOM     24  C   UNL A   1      32.830  32.778  27.266  1.00  0.00     0.118 C 
BRANCH  24  25
ATOM     25  N   UNL A   1      32.513  34.160  27.612  1.00  0.00    -0.352 N 
ATOM     26  C   UNL A   1      33.008  34.953  28.619  1.00  0.00     0.251 C 
ATOM     27  H   UNL A   1      31.840  34.590  27.036  1.00  0.00     0.163 HD
ATOM     28  O   UNL A   1      32.490  36.036  28.869  1.00  0.00    -0.269 OA
BRANCH  26  29
ATOM     29  C   UNL A   1      34.157  34.479  29.412  1.00  0.00     0.039 A 
ATOM     30  C   UNL A   1      33.931  33.872  30.648  1.00  0.00     0.014 A 
ATOM     31  C   UNL A   1      35.453  34.604  28.911  1.00  0.00     0.014 A 
ATOM     32  C   UNL A   1      35.006  33.319  31.345  1.00  0.00     0.010 A 
ATOM     33  C   UNL A   1      36.497  33.947  29.542  1.00  0.00     0.010 A 
ATOM     34  C   UNL A   1      36.289  33.312  30.773  1.00  0.00    -0.014 A 
BRANCH  34  35
ATOM     35  C   UNL A   1      37.441  32.673  31.452  1.00  0.00     0.031 A 
ATOM     36  C   UNL A   1      38.152  31.524  30.791  1.00  0.00     0.074 A 
ATOM     37  C   UNL A   1      37.791  33.069  32.691  1.00  0.00     0.049 A 
ATOM     38  N   UNL A   1      39.120  30.773  31.250  1.00  0.00    -0.248 NA
ATOM     39  C   UNL A   1      37.685  31.144  29.447  1.00  0.00     0.031 C 
ATOM     40  C   UNL A   1      37.136  34.130  33.458  1.00  0.00     0.029 A 
ATOM     41  N   UNL A   1      38.778  32.617  33.527  1.00  0.00    -0.354 N 
ATOM     42  C   UNL A   1      39.358  29.825  30.264  1.00  0.00     0.074 A 
ATOM     43  C   UNL A   1      38.388  30.047  29.216  1.00  0.00     0.031 C 
ATOM     44  C   UNL A   1      37.763  34.272  34.636  1.00  0.00     0.029 A 
ATOM     45  C   UNL A   1      38.833  33.284  34.726  1.00  0.00     0.049 A 
ATOM     46  H   UNL A   1      39.392  31.883  33.290  1.00  0.00     0.167 HD
ATOM     47  C   UNL A   1      40.322  28.875  30.220  1.00  0.00     0.037 A 
ATOM     48  C   UNL A   1      39.652  33.111  35.780  1.00  0.00     0.037 A 
ATOM     49  C   UNL A   1      41.302  28.681  31.255  1.00  0.00     0.049 A 
ATOM     50  C   UNL A   1      40.713  32.046  35.712  1.00  0.00     0.074 A 
ATOM     51  C   UNL A   1      42.363  27.795  31.284  1.00  0.00     0.029 A 
ATOM     52  N   UNL A   1      41.336  29.388  32.449  1.00  0.00    -0.354 N 
ATOM     53  N   UNL A   1      40.980  31.204  34.742  1.00  0.00    -0.248 NA
ATOM     54  C   UNL A   1      41.589  31.912  36.883  1.00  0.00     0.031 C 
ATOM     55  C   UNL A   1      43.007  27.927  32.519  1.00  0.00     0.029 A 
ATOM     56  C   UNL A   1      42.384  28.937  33.235  1.00  0.00     0.049 A 
ATOM     57  H   UNL A   1      40.708  30.103  32.701  1.00  0.00     0.167 HD
ATOM     58  C   UNL A   1      42.070  30.460  35.172  1.00  0.00     0.074 A 
ATOM     59  C   UNL A   1      42.424  30.962  36.485  1.00  0.00     0.031 C 
ATOM     60  C   UNL A   1      42.721  29.454  34.539  1.00  0.00     0.037 A 
BRANCH  47  61
ATOM     61  C   UNL A   1      40.357  27.981  29.014  1.00  0.00     0.064 A 
ATOM     62  C   UNL A   1      41.111  28.305  27.875  1.00  0.00     0.173 A 
ATOM     63  C   UNL A   1      39.630  26.780  28.996  1.00  0.00     0.173 A 
ATOM     64  F   UNL A   1      41.813  29.447  27.831  1.00  0.00    -0.203 F 
ATOM     65  C   UNL A   1      41.103  27.484  26.750  1.00  0.00     0.198 A 
ATOM     66  C   UNL A   1      39.654  25.944  27.884  1.00  0.00     0.198 A 
ATOM     67  F   UNL A   1      38.894  26.418  30.058  1.00  0.00    -0.203 F 
ATOM     68  F   UNL A   1      41.776  27.850  25.651  1.00  0.00    -0.200 F 
ATOM     69  C   UNL A   1      40.380  26.301  26.757  1.00  0.00     0.200 A 
ATOM     70  F   UNL A   1      38.966  24.794  27.897  1.00  0.00    -0.200 F 
ATOM     71  F   UNL A   1      40.374  25.510  25.675  1.00  0.00    -0.200 F 
ENDBRANCH  47  61
BRANCH  48  72
ATOM     72  C   UNL A   1      39.525  33.994  36.969  1.00  0.00     0.064 A 
ATOM     73  C   UNL A   1      38.787  33.585  38.089  1.00  0.00     0.173 A 
ATOM     74  C   UNL A   1      40.141  35.252  37.018  1.00  0.00     0.173 A 
ATOM     75  F   UNL A   1      38.164  32.397  38.084  1.00  0.00    -0.203 F 
ATOM     76  C   UNL A   1      38.658  34.408  39.205  1.00  0.00     0.198 A 
ATOM     77  C   UNL A   1      40.034  36.062  38.146  1.00  0.00     0.198 A 
ATOM     78  F   UNL A   1      40.864  35.687  35.976  1.00  0.00    -0.203 F 
ATOM     79  F   UNL A   1      37.912  34.010  40.246  1.00  0.00    -0.200 F 
ATOM     80  C   UNL A   1      39.287  35.643  39.236  1.00  0.00     0.200 A 
ATOM     81  F   UNL A   1      40.658  37.248  38.179  1.00  0.00    -0.200 F 
ATOM     82  F   UNL A   1      39.167  36.431  40.313  1.00  0.00    -0.200 F 
ENDBRANCH  48  72
BRANCH  60  83
ATOM     83  C   UNL A   1      43.903  28.849  35.242  1.00  0.00     0.064 A 
ATOM     84  C   UNL A   1      43.767  27.750  36.100  1.00  0.00     0.173 A 
ATOM     85  C   UNL A   1      45.194  29.353  35.016  1.00  0.00     0.173 A 
ATOM     86  F   UNL A   1      42.553  27.240  36.359  1.00  0.00    -0.203 F 
ATOM     87  C   UNL A   1      44.877  27.193  36.730  1.00  0.00     0.198 A 
ATOM     88  C   UNL A   1      46.305  28.773  35.622  1.00  0.00     0.198 A 
ATOM     89  F   UNL A   1      45.379  30.400  34.197  1.00  0.00    -0.203 F 
ATOM     90  F   UNL A   1      44.719  26.175  37.587  1.00  0.00    -0.200 F 
ATOM     91  C   UNL A   1      46.145  27.700  36.484  1.00  0.00     0.200 A 
ATOM     92  F   UNL A   1      47.530  29.254  35.369  1.00  0.00    -0.200 F 
ATOM     93  F   UNL A   1      47.213  27.157  37.084  1.00  0.00    -0.200 F 
ENDBRANCH  60  83
ENDBRANCH  34  35
ENDBRANCH  26  29
ENDBRANCH  24  25
ENDBRANCH   1  24
TORSDOF 12
ENDMDL
