MODEL 1
REMARK VINA RESULT:     -13.2      0.000      0.000
REMARK SMILES COc1cc([C@H]2[NH2+]CCC3=c4ccccc4=N[C@H]32)ccc1OCC(=O)NCCCNC(=O)c1ccc(-c2c3nc(c(-c4c(F)c(F)c(F)c(F)c4F)c4ccc([nH]4)c(-c4c(F)c(F)c(F)c(F)c4F)c4nc(c(-c5c(F)c(F)c(F)c(F)c5F)c5ccc2[nH]5)C=C4)C=C3)cc1
REMARK SMILES IDX 27 1 26 2 24 3 25 4 23 6 22 7 21 8 3 9 4 10 5 11 20 12 19 13
REMARK SMILES IDX 2 14 1 15 6 16 7 17 18 18 8 19 10 22 17 23 9 24 11 25 16 26
REMARK SMILES IDX 12 27 15 28 13 29 14 30 28 31 29 32 30 33 31 34 32 36 33 37
REMARK SMILES IDX 34 38 95 39 35 40 94 41 36 42 37 43 38 44 88 45 39 46 93 47
REMARK SMILES IDX 87 48 89 49 40 50 92 51 86 52 85 53 41 55 73 56 53 57 72 58
REMARK SMILES IDX 54 59 57 60 71 61 90 62 55 63 56 64 70 66 91 67 58 68 42 69
REMARK SMILES IDX 43 70 51 71 44 72 45 73 49 74 52 75 46 76 47 77 50 78 48 79
REMARK SMILES IDX 74 80 75 81 83 82 76 83 77 84 81 85 84 86 78 87 79 88 82 89
REMARK SMILES IDX 80 90 59 91 60 92 68 93 61 94 62 95 66 96 69 97 63 98 64 99
REMARK SMILES IDX 67 100 65 101
REMARK H PARENT 26 5 7 20 7 21 30 35 89 54 57 65
REMARK Flexibility Score: inf
ROOT
ATOM      1  C   UNL A   1      34.137  33.934  27.908  1.00  0.00     0.117 C 
ENDROOT
BRANCH   1   2
ATOM      2  N   UNL A   1      35.140  32.917  28.151  1.00  0.00    -0.353 N 
ATOM      3  C   UNL A   1      35.090  31.573  27.927  1.00  0.00     0.257 C 
ATOM      4  O   UNL A   1      36.157  30.955  27.992  1.00  0.00    -0.271 OA
ATOM      5  H   UNL A   1      35.985  33.246  28.537  1.00  0.00     0.163 HD
BRANCH   3   6
ATOM      6  C   UNL A   1      33.780  30.880  27.532  1.00  0.00     0.329 C 
BRANCH   6   7
ATOM      7  O   UNL A   1      33.705  30.246  26.276  1.00  0.00    -0.480 OA
BRANCH   7   8
ATOM      8  C   UNL A   1      33.081  29.044  26.136  1.00  0.00     0.161 A 
ATOM      9  C   UNL A   1      33.217  28.066  25.151  1.00  0.00     0.161 A 
ATOM     10  C   UNL A   1      32.338  26.953  25.125  1.00  0.00     0.060 A 
ATOM     11  C   UNL A   1      31.338  26.771  26.108  1.00  0.00     0.016 A 
ATOM     12  C   UNL A   1      32.117  28.851  27.117  1.00  0.00     0.051 A 
ATOM     13  C   UNL A   1      31.312  27.715  27.132  1.00  0.00     0.014 A 
BRANCH   9  14
ATOM     14  O   UNL A   1      34.067  28.246  24.095  1.00  0.00    -0.493 OA
ATOM     15  C   UNL A   1      33.427  28.897  22.996  1.00  0.00     0.278 C 
ENDBRANCH   9  14
BRANCH  11  16
ATOM     16  C   UNL A   1      30.294  25.639  25.981  1.00  0.00     0.243 C 
ATOM     17  N   UNL A   1      29.495  25.784  24.728  1.00  0.00    -0.338 N 
ATOM     18  C   UNL A   1      30.714  24.114  26.160  1.00  0.00     0.196 C 
ATOM     19  C   UNL A   1      30.200  25.283  23.537  1.00  0.00     0.265 C 
ATOM     20  H   UNL A   1      29.283  26.772  24.589  1.00  0.00     0.346 HD
ATOM     21  H   UNL A   1      28.648  25.226  24.839  1.00  0.00     0.346 HD
ATOM     22  C   UNL A   1      31.363  23.589  24.910  1.00  0.00    -0.025 C 
ATOM     23  N   UNL A   1      31.707  23.872  27.249  1.00  0.00    -0.270 NA
ATOM     24  C   UNL A   1      30.624  23.807  23.639  1.00  0.00     0.095 C 
ATOM     25  C   UNL A   1      32.600  23.168  25.152  1.00  0.00     0.001 A 
ATOM     26  C   UNL A   1      32.724  23.367  26.610  1.00  0.00     0.066 A 
ATOM     27  C   UNL A   1      33.716  22.820  24.335  1.00  0.00     0.010 A 
ATOM     28  C   UNL A   1      34.062  23.110  27.190  1.00  0.00     0.028 A 
ATOM     29  C   UNL A   1      34.919  22.697  24.920  1.00  0.00     0.001 A 
ATOM     30  C   UNL A   1      35.084  22.839  26.359  1.00  0.00     0.002 A 
ENDBRANCH  11  16
ENDBRANCH   7   8
ENDBRANCH   6   7
ENDBRANCH   3   6
ENDBRANCH   1   2
BRANCH   1  31
ATOM     31  C   UNL A   1      33.387  34.350  29.168  1.00  0.00     0.042 C 
BRANCH  31  32
ATOM     32  C   UNL A   1      33.390  35.845  29.464  1.00  0.00     0.118 C 
BRANCH  32  33
ATOM     33  N   UNL A   1      32.552  36.211  30.597  1.00  0.00    -0.352 N 
ATOM     34  C   UNL A   1      32.651  35.873  31.923  1.00  0.00     0.251 C 
ATOM     35  H   UNL A   1      31.792  36.796  30.376  1.00  0.00     0.163 HD
ATOM     36  O   UNL A   1      31.742  36.164  32.698  1.00  0.00    -0.269 OA
BRANCH  34  37
ATOM     37  C   UNL A   1      33.828  35.134  32.423  1.00  0.00     0.039 A 
ATOM     38  C   UNL A   1      33.659  33.829  32.895  1.00  0.00     0.014 A 
ATOM     39  C   UNL A   1      35.093  35.725  32.441  1.00  0.00     0.014 A 
ATOM     40  C   UNL A   1      34.769  33.091  33.311  1.00  0.00     0.010 A 
ATOM     41  C   UNL A   1      36.208  34.960  32.771  1.00  0.00     0.010 A 
ATOM     42  C   UNL A   1      36.059  33.636  33.212  1.00  0.00    -0.014 A 
BRANCH  42  43
ATOM     43  C   UNL A   1      37.268  32.853  33.576  1.00  0.00     0.031 A 
ATOM     44  C   UNL A   1      37.990  33.144  34.864  1.00  0.00     0.074 A 
ATOM     45  C   UNL A   1      37.760  31.939  32.717  1.00  0.00     0.049 A 
ATOM     46  N   UNL A   1      39.123  32.663  35.307  1.00  0.00    -0.248 NA
ATOM     47  C   UNL A   1      37.368  34.133  35.758  1.00  0.00     0.031 C 
ATOM     48  C   UNL A   1      37.171  31.588  31.424  1.00  0.00     0.029 A 
ATOM     49  N   UNL A   1      38.880  31.148  32.796  1.00  0.00    -0.354 N 
ATOM     50  C   UNL A   1      39.357  33.302  36.517  1.00  0.00     0.074 A 
ATOM     51  C   UNL A   1      38.280  34.249  36.711  1.00  0.00     0.031 C 
ATOM     52  C   UNL A   1      37.921  30.639  30.842  1.00  0.00     0.029 A 
ATOM     53  C   UNL A   1      39.070  30.349  31.694  1.00  0.00     0.049 A 
ATOM     54  H   UNL A   1      39.489  31.152  33.569  1.00  0.00     0.167 HD
ATOM     55  C   UNL A   1      40.365  33.101  37.400  1.00  0.00     0.037 A 
ATOM     56  C   UNL A   1      40.067  29.492  31.399  1.00  0.00     0.037 A 
ATOM     57  C   UNL A   1      41.421  32.141  37.214  1.00  0.00     0.049 A 
ATOM     58  C   UNL A   1      41.190  29.307  32.386  1.00  0.00     0.074 A 
ATOM     59  C   UNL A   1      42.462  31.828  38.069  1.00  0.00     0.029 A 
ATOM     60  N   UNL A   1      41.569  31.339  36.091  1.00  0.00    -0.354 N 
ATOM     61  N   UNL A   1      41.371  29.876  33.553  1.00  0.00    -0.248 NA
ATOM     62  C   UNL A   1      42.245  28.353  32.017  1.00  0.00     0.031 C 
ATOM     63  C   UNL A   1      43.272  30.877  37.440  1.00  0.00     0.029 A 
ATOM     64  C   UNL A   1      42.699  30.547  36.223  1.00  0.00     0.049 A 
ATOM     65  H   UNL A   1      40.962  31.333  35.316  1.00  0.00     0.167 HD
ATOM     66  C   UNL A   1      42.533  29.323  34.073  1.00  0.00     0.074 A 
ATOM     67  C   UNL A   1      43.010  28.364  33.098  1.00  0.00     0.031 C 
ATOM     68  C   UNL A   1      43.150  29.583  35.252  1.00  0.00     0.037 A 
BRANCH  55  69
ATOM     69  C   UNL A   1      40.375  33.937  38.649  1.00  0.00     0.064 A 
ATOM     70  C   UNL A   1      41.080  35.149  38.720  1.00  0.00     0.173 A 
ATOM     71  C   UNL A   1      39.640  33.541  39.776  1.00  0.00     0.173 A 
ATOM     72  F   UNL A   1      41.809  35.569  37.675  1.00  0.00    -0.203 F 
ATOM     73  C   UNL A   1      41.074  35.915  39.883  1.00  0.00     0.198 A 
ATOM     74  C   UNL A   1      39.607  34.328  40.924  1.00  0.00     0.198 A 
ATOM     75  F   UNL A   1      38.943  32.394  39.761  1.00  0.00    -0.203 F 
ATOM     76  F   UNL A   1      41.800  37.039  39.946  1.00  0.00    -0.200 F 
ATOM     77  C   UNL A   1      40.331  35.509  40.981  1.00  0.00     0.200 A 
ATOM     78  F   UNL A   1      38.875  33.940  41.979  1.00  0.00    -0.200 F 
ATOM     79  F   UNL A   1      40.318  36.252  42.095  1.00  0.00    -0.200 F 
ENDBRANCH  55  69
BRANCH  56  80
ATOM     80  C   UNL A   1      40.046  28.732  30.120  1.00  0.00     0.064 A 
ATOM     81  C   UNL A   1      39.430  27.474  30.041  1.00  0.00     0.173 A 
ATOM     82  C   UNL A   1      40.655  29.232  28.959  1.00  0.00     0.173 A 
ATOM     83  F   UNL A   1      38.847  26.945  31.126  1.00  0.00    -0.203 F 
ATOM     84  C   UNL A   1      39.452  26.734  28.861  1.00  0.00     0.198 A 
ATOM     85  C   UNL A   1      40.647  28.505  27.771  1.00  0.00     0.198 A 
ATOM     86  F   UNL A   1      41.246  30.436  28.975  1.00  0.00    -0.203 F 
ATOM     87  F   UNL A   1      38.905  25.510  28.831  1.00  0.00    -0.200 F 
ATOM     88  C   UNL A   1      40.057  27.251  27.725  1.00  0.00     0.200 A 
ATOM     89  F   UNL A   1      41.212  29.019  26.671  1.00  0.00    -0.200 F 
ATOM     90  F   UNL A   1      40.076  26.539  26.590  1.00  0.00    -0.200 F 
ENDBRANCH  56  80
BRANCH  68  91
ATOM     91  C   UNL A   1      44.375  28.781  35.587  1.00  0.00     0.064 A 
ATOM     92  C   UNL A   1      45.664  29.212  35.236  1.00  0.00     0.173 A 
ATOM     93  C   UNL A   1      44.259  27.586  36.314  1.00  0.00     0.173 A 
ATOM     94  F   UNL A   1      45.829  30.339  34.529  1.00  0.00    -0.203 F 
ATOM     95  C   UNL A   1      46.786  28.462  35.578  1.00  0.00     0.198 A 
ATOM     96  C   UNL A   1      45.385  26.857  36.685  1.00  0.00     0.198 A 
ATOM     97  F   UNL A   1      43.051  27.132  36.681  1.00  0.00    -0.203 F 
ATOM     98  F   UNL A   1      48.003  28.867  35.188  1.00  0.00    -0.200 F 
ATOM     99  C   UNL A   1      46.647  27.292  36.309  1.00  0.00     0.200 A 
ATOM    100  F   UNL A   1      45.250  25.737  37.408  1.00  0.00    -0.200 F 
ATOM    101  F   UNL A   1      47.731  26.578  36.648  1.00  0.00    -0.200 F 
ENDBRANCH  68  91
ENDBRANCH  42  43
ENDBRANCH  34  37
ENDBRANCH  32  33
ENDBRANCH  31  32
ENDBRANCH   1  31
TORSDOF 14
ENDMDL
MODEL 2
REMARK VINA RESULT:     -13.2      0.338      1.587
REMARK SMILES COc1cc([C@H]2[NH2+]CCC3=c4ccccc4=N[C@H]32)ccc1OCC(=O)NCCCNC(=O)c1ccc(-c2c3nc(c(-c4c(F)c(F)c(F)c(F)c4F)c4ccc([nH]4)c(-c4c(F)c(F)c(F)c(F)c4F)c4nc(c(-c5c(F)c(F)c(F)c(F)c5F)c5ccc2[nH]5)C=C4)C=C3)cc1
REMARK SMILES IDX 27 1 26 2 24 3 25 4 23 6 22 7 21 8 3 9 4 10 5 11 20 12 19 13
REMARK SMILES IDX 2 14 1 15 6 16 7 17 18 18 8 19 10 22 17 23 9 24 11 25 16 26
REMARK SMILES IDX 12 27 15 28 13 29 14 30 28 31 29 32 30 33 31 34 32 36 33 37
REMARK SMILES IDX 34 38 95 39 35 40 94 41 36 42 37 43 38 44 88 45 39 46 93 47
REMARK SMILES IDX 87 48 89 49 40 50 92 51 86 52 85 53 41 55 73 56 53 57 72 58
REMARK SMILES IDX 54 59 57 60 71 61 90 62 55 63 56 64 70 66 91 67 58 68 42 69
REMARK SMILES IDX 43 70 51 71 44 72 45 73 49 74 52 75 46 76 47 77 50 78 48 79
REMARK SMILES IDX 74 80 75 81 83 82 76 83 77 84 81 85 84 86 78 87 79 88 82 89
REMARK SMILES IDX 80 90 59 91 60 92 68 93 61 94 62 95 66 96 69 97 63 98 64 99
REMARK SMILES IDX 67 100 65 101
REMARK H PARENT 26 5 7 20 7 21 30 35 89 54 57 65
REMARK Flexibility Score: inf
ROOT
ATOM      1  C   UNL A   1      34.122  34.124  27.890  1.00  0.00     0.117 C 
ENDROOT
BRANCH   1   2
ATOM      2  N   UNL A   1      35.103  33.082  28.119  1.00  0.00    -0.353 N 
ATOM      3  C   UNL A   1      35.006  31.737  27.925  1.00  0.00     0.257 C 
ATOM      4  O   UNL A   1      36.055  31.088  27.966  1.00  0.00    -0.271 OA
ATOM      5  H   UNL A   1      35.969  33.393  28.470  1.00  0.00     0.163 HD
BRANCH   3   6
ATOM      6  C   UNL A   1      33.663  31.075  27.589  1.00  0.00     0.329 C 
BRANCH   6   7
ATOM      7  O   UNL A   1      33.498  30.495  26.316  1.00  0.00    -0.480 OA
BRANCH   7   8
ATOM      8  C   UNL A   1      33.015  29.229  26.183  1.00  0.00     0.161 A 
ATOM      9  C   UNL A   1      33.235  28.280  25.184  1.00  0.00     0.161 A 
ATOM     10  C   UNL A   1      32.492  27.072  25.173  1.00  0.00     0.060 A 
ATOM     11  C   UNL A   1      31.550  26.767  26.183  1.00  0.00     0.016 A 
ATOM     12  C   UNL A   1      32.110  28.918  27.189  1.00  0.00     0.051 A 
ATOM     13  C   UNL A   1      31.445  27.695  27.217  1.00  0.00     0.014 A 
BRANCH   9  14
ATOM     14  O   UNL A   1      34.026  28.564  24.105  1.00  0.00    -0.493 OA
ATOM     15  C   UNL A   1      33.258  28.964  22.968  1.00  0.00     0.278 C 
ENDBRANCH   9  14
BRANCH  11  16
ATOM     16  C   UNL A   1      30.643  25.521  26.075  1.00  0.00     0.243 C 
ATOM     17  N   UNL A   1      29.584  25.716  25.041  1.00  0.00    -0.338 N 
ATOM     18  C   UNL A   1      31.267  24.065  25.918  1.00  0.00     0.196 C 
ATOM     19  C   UNL A   1      30.073  25.492  23.671  1.00  0.00     0.265 C 
ATOM     20  H   UNL A   1      29.233  26.671  25.110  1.00  0.00     0.346 HD
ATOM     21  H   UNL A   1      28.852  25.029  25.220  1.00  0.00     0.346 HD
ATOM     22  C   UNL A   1      31.692  23.817  24.497  1.00  0.00    -0.025 C 
ATOM     23  N   UNL A   1      32.491  23.826  26.741  1.00  0.00    -0.270 NA
ATOM     24  C   UNL A   1      30.678  24.095  23.446  1.00  0.00     0.095 C 
ATOM     25  C   UNL A   1      32.992  23.555  24.424  1.00  0.00     0.001 A 
ATOM     26  C   UNL A   1      33.400  23.570  25.844  1.00  0.00     0.066 A 
ATOM     27  C   UNL A   1      33.942  23.491  23.362  1.00  0.00     0.010 A 
ATOM     28  C   UNL A   1      34.851  23.436  26.104  1.00  0.00     0.028 A 
ATOM     29  C   UNL A   1      35.247  23.468  23.675  1.00  0.00     0.001 A 
ATOM     30  C   UNL A   1      35.697  23.435  25.059  1.00  0.00     0.002 A 
ENDBRANCH  11  16
ENDBRANCH   7   8
ENDBRANCH   6   7
ENDBRANCH   3   6
ENDBRANCH   1   2
BRANCH   1  31
ATOM     31  C   UNL A   1      33.324  34.482  29.139  1.00  0.00     0.042 C 
BRANCH  31  32
ATOM     32  C   UNL A   1      33.354  35.955  29.530  1.00  0.00     0.118 C 
BRANCH  32  33
ATOM     33  N   UNL A   1      32.494  36.270  30.662  1.00  0.00    -0.352 N 
ATOM     34  C   UNL A   1      32.578  35.886  31.976  1.00  0.00     0.251 C 
ATOM     35  H   UNL A   1      31.729  36.851  30.449  1.00  0.00     0.163 HD
ATOM     36  O   UNL A   1      31.652  36.137  32.747  1.00  0.00    -0.269 OA
BRANCH  34  37
ATOM     37  C   UNL A   1      33.758  35.147  32.469  1.00  0.00     0.039 A 
ATOM     38  C   UNL A   1      33.594  33.836  32.924  1.00  0.00     0.014 A 
ATOM     39  C   UNL A   1      35.020  35.743  32.496  1.00  0.00     0.014 A 
ATOM     40  C   UNL A   1      34.707  33.097  33.333  1.00  0.00     0.010 A 
ATOM     41  C   UNL A   1      36.138  34.980  32.819  1.00  0.00     0.010 A 
ATOM     42  C   UNL A   1      35.994  33.650  33.243  1.00  0.00    -0.014 A 
BRANCH  42  43
ATOM     43  C   UNL A   1      37.206  32.868  33.599  1.00  0.00     0.031 A 
ATOM     44  C   UNL A   1      37.941  33.165  34.878  1.00  0.00     0.074 A 
ATOM     45  C   UNL A   1      37.690  31.950  32.739  1.00  0.00     0.049 A 
ATOM     46  N   UNL A   1      39.078  32.685  35.313  1.00  0.00    -0.248 NA
ATOM     47  C   UNL A   1      37.327  34.158  35.774  1.00  0.00     0.031 C 
ATOM     48  C   UNL A   1      37.089  31.594  31.453  1.00  0.00     0.029 A 
ATOM     49  N   UNL A   1      38.810  31.159  32.811  1.00  0.00    -0.354 N 
ATOM     50  C   UNL A   1      39.323  33.330  36.517  1.00  0.00     0.074 A 
ATOM     51  C   UNL A   1      38.249  34.278  36.717  1.00  0.00     0.031 C 
ATOM     52  C   UNL A   1      37.833  30.642  30.868  1.00  0.00     0.029 A 
ATOM     53  C   UNL A   1      38.990  30.355  31.710  1.00  0.00     0.049 A 
ATOM     54  H   UNL A   1      39.427  31.167  33.578  1.00  0.00     0.167 HD
ATOM     55  C   UNL A   1      40.340  33.133  37.391  1.00  0.00     0.037 A 
ATOM     56  C   UNL A   1      39.984  29.497  31.410  1.00  0.00     0.037 A 
ATOM     57  C   UNL A   1      41.394  32.172  37.200  1.00  0.00     0.049 A 
ATOM     58  C   UNL A   1      41.116  29.315  32.388  1.00  0.00     0.074 A 
ATOM     59  C   UNL A   1      42.443  31.862  38.046  1.00  0.00     0.029 A 
ATOM     60  N   UNL A   1      41.531  31.364  36.080  1.00  0.00    -0.354 N 
ATOM     61  N   UNL A   1      41.308  29.890  33.550  1.00  0.00    -0.248 NA
ATOM     62  C   UNL A   1      42.167  28.359  32.013  1.00  0.00     0.031 C 
ATOM     63  C   UNL A   1      43.247  30.908  37.414  1.00  0.00     0.029 A 
ATOM     64  C   UNL A   1      42.662  30.573  36.204  1.00  0.00     0.049 A 
ATOM     65  H   UNL A   1      40.917  31.355  35.311  1.00  0.00     0.167 HD
ATOM     66  C   UNL A   1      42.475  29.339  34.061  1.00  0.00     0.074 A 
ATOM     67  C   UNL A   1      42.943  28.375  33.087  1.00  0.00     0.031 C 
ATOM     68  C   UNL A   1      43.104  29.604  35.234  1.00  0.00     0.037 A 
BRANCH  55  69
ATOM     69  C   UNL A   1      40.362  33.974  38.636  1.00  0.00     0.064 A 
ATOM     70  C   UNL A   1      39.684  33.584  39.803  1.00  0.00     0.173 A 
ATOM     71  C   UNL A   1      41.101  35.166  38.677  1.00  0.00     0.173 A 
ATOM     72  F   UNL A   1      38.953  32.460  39.815  1.00  0.00    -0.203 F 
ATOM     73  C   UNL A   1      39.720  34.373  40.950  1.00  0.00     0.198 A 
ATOM     74  C   UNL A   1      41.164  35.933  39.838  1.00  0.00     0.198 A 
ATOM     75  F   UNL A   1      41.773  35.584  37.593  1.00  0.00    -0.203 F 
ATOM     76  F   UNL A   1      39.019  34.008  42.032  1.00  0.00    -0.200 F 
ATOM     77  C   UNL A   1      40.465  35.541  40.970  1.00  0.00     0.200 A 
ATOM     78  F   UNL A   1      41.898  37.054  39.859  1.00  0.00    -0.200 F 
ATOM     79  F   UNL A   1      40.507  36.293  42.078  1.00  0.00    -0.200 F 
ENDBRANCH  55  69
BRANCH  56  80
ATOM     80  C   UNL A   1      39.950  28.730  30.135  1.00  0.00     0.064 A 
ATOM     81  C   UNL A   1      39.371  27.454  30.078  1.00  0.00     0.173 A 
ATOM     82  C   UNL A   1      40.511  29.244  28.956  1.00  0.00     0.173 A 
ATOM     83  F   UNL A   1      38.835  26.912  31.181  1.00  0.00    -0.203 F 
ATOM     84  C   UNL A   1      39.383  26.709  28.900  1.00  0.00     0.198 A 
ATOM     85  C   UNL A   1      40.492  28.512  27.771  1.00  0.00     0.198 A 
ATOM     86  F   UNL A   1      41.064  30.466  28.951  1.00  0.00    -0.203 F 
ATOM     87  F   UNL A   1      38.873  25.470  28.889  1.00  0.00    -0.200 F 
ATOM     88  C   UNL A   1      39.940  27.240  27.746  1.00  0.00     0.200 A 
ATOM     89  F   UNL A   1      41.010  29.038  26.654  1.00  0.00    -0.200 F 
ATOM     90  F   UNL A   1      39.949  26.524  26.613  1.00  0.00    -0.200 F 
ENDBRANCH  56  80
BRANCH  68  91
ATOM     91  C   UNL A   1      44.332  28.803  35.560  1.00  0.00     0.064 A 
ATOM     92  C   UNL A   1      44.262  27.589  36.260  1.00  0.00     0.173 A 
ATOM     93  C   UNL A   1      45.592  29.235  35.120  1.00  0.00     0.173 A 
ATOM     94  F   UNL A   1      43.083  27.139  36.715  1.00  0.00    -0.203 F 
ATOM     95  C   UNL A   1      45.412  26.853  36.530  1.00  0.00     0.198 A 
ATOM     96  C   UNL A   1      46.736  28.479  35.361  1.00  0.00     0.198 A 
ATOM     97  F   UNL A   1      45.714  30.385  34.439  1.00  0.00    -0.203 F 
ATOM     98  F   UNL A   1      45.328  25.721  37.245  1.00  0.00    -0.200 F 
ATOM     99  C   UNL A   1      46.646  27.292  36.073  1.00  0.00     0.200 A 
ATOM    100  F   UNL A   1      47.924  28.896  34.902  1.00  0.00    -0.200 F 
ATOM    101  F   UNL A   1      47.750  26.575  36.324  1.00  0.00    -0.200 F 
ENDBRANCH  68  91
ENDBRANCH  42  43
ENDBRANCH  34  37
ENDBRANCH  32  33
ENDBRANCH  31  32
ENDBRANCH   1  31
TORSDOF 14
ENDMDL
MODEL 3
REMARK VINA RESULT:     -13.0      4.654      9.534
REMARK SMILES COc1cc([C@H]2[NH2+]CCC3=c4ccccc4=N[C@H]32)ccc1OCC(=O)NCCCNC(=O)c1ccc(-c2c3nc(c(-c4c(F)c(F)c(F)c(F)c4F)c4ccc([nH]4)c(-c4c(F)c(F)c(F)c(F)c4F)c4nc(c(-c5c(F)c(F)c(F)c(F)c5F)c5ccc2[nH]5)C=C4)C=C3)cc1
REMARK SMILES IDX 27 1 26 2 24 3 25 4 23 6 22 7 21 8 3 9 4 10 5 11 20 12 19 13
REMARK SMILES IDX 2 14 1 15 6 16 7 17 18 18 8 19 10 22 17 23 9 24 11 25 16 26
REMARK SMILES IDX 12 27 15 28 13 29 14 30 28 31 29 32 30 33 31 34 32 36 33 37
REMARK SMILES IDX 34 38 95 39 35 40 94 41 36 42 37 43 38 44 88 45 39 46 93 47
REMARK SMILES IDX 87 48 89 49 40 50 92 51 86 52 85 53 41 55 73 56 53 57 72 58
REMARK SMILES IDX 54 59 57 60 71 61 90 62 55 63 56 64 70 66 91 67 58 68 42 69
REMARK SMILES IDX 43 70 51 71 44 72 45 73 49 74 52 75 46 76 47 77 50 78 48 79
REMARK SMILES IDX 74 80 75 81 83 82 76 83 77 84 81 85 84 86 78 87 79 88 82 89
REMARK SMILES IDX 80 90 59 91 60 92 68 93 61 94 62 95 66 96 69 97 63 98 64 99
REMARK SMILES IDX 67 100 65 101
REMARK H PARENT 26 5 7 20 7 21 30 35 89 54 57 65
REMARK Flexibility Score: inf
ROOT
ATOM      1  C   UNL A   1      35.329  21.176  25.043  1.00  0.00     0.117 C 
ENDROOT
BRANCH   1   2
ATOM      2  N   UNL A   1      34.478  20.125  25.563  1.00  0.00    -0.353 N 
ATOM      3  C   UNL A   1      33.173  19.845  25.290  1.00  0.00     0.257 C 
ATOM      4  O   UNL A   1      32.741  18.755  25.676  1.00  0.00    -0.271 OA
ATOM      5  H   UNL A   1      34.908  19.522  26.213  1.00  0.00     0.163 HD
BRANCH   3   6
ATOM      6  C   UNL A   1      32.307  20.808  24.467  1.00  0.00     0.329 C 
BRANCH   6   7
ATOM      7  O   UNL A   1      31.744  21.927  25.112  1.00  0.00    -0.480 OA
BRANCH   7   8
ATOM      8  C   UNL A   1      31.971  23.187  24.649  1.00  0.00     0.161 A 
ATOM      9  C   UNL A   1      31.481  24.414  25.098  1.00  0.00     0.161 A 
ATOM     10  C   UNL A   1      31.731  25.596  24.354  1.00  0.00     0.060 A 
ATOM     11  C   UNL A   1      32.513  25.583  23.176  1.00  0.00     0.016 A 
ATOM     12  C   UNL A   1      32.762  23.179  23.508  1.00  0.00     0.051 A 
ATOM     13  C   UNL A   1      33.071  24.354  22.830  1.00  0.00     0.014 A 
BRANCH   9  14
ATOM     14  O   UNL A   1      30.607  24.481  26.147  1.00  0.00    -0.493 OA
ATOM     15  C   UNL A   1      29.758  25.628  26.066  1.00  0.00     0.278 C 
ENDBRANCH   9  14
BRANCH  11  16
ATOM     16  C   UNL A   1      32.650  26.847  22.298  1.00  0.00     0.243 C 
ATOM     17  N   UNL A   1      31.399  27.099  21.521  1.00  0.00    -0.338 N 
ATOM     18  C   UNL A   1      33.169  28.220  22.915  1.00  0.00     0.196 C 
ATOM     19  C   UNL A   1      30.351  27.754  22.321  1.00  0.00     0.265 C 
ATOM     20  H   UNL A   1      31.041  26.207  21.183  1.00  0.00     0.346 HD
ATOM     21  H   UNL A   1      31.637  27.728  20.755  1.00  0.00     0.346 HD
ATOM     22  C   UNL A   1      32.069  28.919  23.663  1.00  0.00    -0.025 C 
ATOM     23  N   UNL A   1      34.281  28.072  23.900  1.00  0.00    -0.270 NA
ATOM     24  C   UNL A   1      30.783  29.096  22.936  1.00  0.00     0.095 C 
ATOM     25  C   UNL A   1      32.395  29.101  24.938  1.00  0.00     0.001 A 
ATOM     26  C   UNL A   1      33.770  28.563  24.993  1.00  0.00     0.066 A 
ATOM     27  C   UNL A   1      31.675  29.467  26.113  1.00  0.00     0.010 A 
ATOM     28  C   UNL A   1      34.388  28.497  26.337  1.00  0.00     0.028 A 
ATOM     29  C   UNL A   1      32.268  29.289  27.304  1.00  0.00     0.001 A 
ATOM     30  C   UNL A   1      33.637  28.806  27.409  1.00  0.00     0.002 A 
ENDBRANCH  11  16
ENDBRANCH   7   8
ENDBRANCH   6   7
ENDBRANCH   3   6
ENDBRANCH   1   2
BRANCH   1  31
ATOM     31  C   UNL A   1      35.407  22.393  25.957  1.00  0.00     0.042 C 
BRANCH  31  32
ATOM     32  C   UNL A   1      36.699  23.195  25.864  1.00  0.00     0.118 C 
BRANCH  32  33
ATOM     33  N   UNL A   1      37.898  22.378  25.986  1.00  0.00    -0.352 N 
ATOM     34  C   UNL A   1      39.174  22.721  26.355  1.00  0.00     0.251 C 
ATOM     35  H   UNL A   1      37.772  21.426  25.767  1.00  0.00     0.163 HD
ATOM     36  O   UNL A   1      40.084  21.901  26.240  1.00  0.00    -0.269 OA
BRANCH  34  37
ATOM     37  C   UNL A   1      39.470  24.076  26.861  1.00  0.00     0.039 A 
ATOM     38  C   UNL A   1      39.181  24.378  28.195  1.00  0.00     0.014 A 
ATOM     39  C   UNL A   1      40.018  25.052  26.027  1.00  0.00     0.014 A 
ATOM     40  C   UNL A   1      39.514  25.633  28.711  1.00  0.00     0.010 A 
ATOM     41  C   UNL A   1      40.430  26.268  26.563  1.00  0.00     0.010 A 
ATOM     42  C   UNL A   1      40.181  26.574  27.910  1.00  0.00    -0.014 A 
BRANCH  42  43
ATOM     43  C   UNL A   1      40.615  27.889  28.448  1.00  0.00     0.031 A 
ATOM     44  C   UNL A   1      42.058  28.107  28.816  1.00  0.00     0.074 A 
ATOM     45  C   UNL A   1      39.705  28.854  28.679  1.00  0.00     0.049 A 
ATOM     46  N   UNL A   1      42.617  29.131  29.409  1.00  0.00    -0.248 NA
ATOM     47  C   UNL A   1      42.991  27.013  28.501  1.00  0.00     0.031 C 
ATOM     48  C   UNL A   1      38.273  28.754  28.396  1.00  0.00     0.029 A 
ATOM     49  N   UNL A   1      39.848  30.108  29.222  1.00  0.00    -0.354 N 
ATOM     50  C   UNL A   1      43.957  28.797  29.555  1.00  0.00     0.074 A 
ATOM     51  C   UNL A   1      44.116  27.453  29.043  1.00  0.00     0.031 C 
ATOM     52  C   UNL A   1      37.673  29.903  28.746  1.00  0.00     0.029 A 
ATOM     53  C   UNL A   1      38.666  30.803  29.324  1.00  0.00     0.049 A 
ATOM     54  H   UNL A   1      40.714  30.475  29.509  1.00  0.00     0.167 HD
ATOM     55  C   UNL A   1      44.968  29.551  30.048  1.00  0.00     0.037 A 
ATOM     56  C   UNL A   1      38.412  32.021  29.841  1.00  0.00     0.037 A 
ATOM     57  C   UNL A   1      44.809  30.896  30.534  1.00  0.00     0.049 A 
ATOM     58  C   UNL A   1      39.552  32.829  30.407  1.00  0.00     0.074 A 
ATOM     59  C   UNL A   1      45.777  31.761  31.011  1.00  0.00     0.029 A 
ATOM     60  N   UNL A   1      43.599  31.571  30.606  1.00  0.00    -0.354 N 
ATOM     61  N   UNL A   1      40.824  32.524  30.488  1.00  0.00    -0.248 NA
ATOM     62  C   UNL A   1      39.219  34.154  30.948  1.00  0.00     0.031 C 
ATOM     63  C   UNL A   1      45.146  32.939  31.423  1.00  0.00     0.029 A 
ATOM     64  C   UNL A   1      43.794  32.834  31.142  1.00  0.00     0.049 A 
ATOM     65  H   UNL A   1      42.730  31.207  30.320  1.00  0.00     0.167 HD
ATOM     66  C   UNL A   1      41.447  33.630  31.050  1.00  0.00     0.074 A 
ATOM     67  C   UNL A   1      40.414  34.618  31.281  1.00  0.00     0.031 C 
ATOM     68  C   UNL A   1      42.758  33.814  31.347  1.00  0.00     0.037 A 
BRANCH  55  69
ATOM     69  C   UNL A   1      46.340  28.938  30.088  1.00  0.00     0.064 A 
ATOM     70  C   UNL A   1      47.222  29.033  28.999  1.00  0.00     0.173 A 
ATOM     71  C   UNL A   1      46.793  28.281  31.241  1.00  0.00     0.173 A 
ATOM     72  F   UNL A   1      46.835  29.640  27.867  1.00  0.00    -0.203 F 
ATOM     73  C   UNL A   1      48.492  28.464  29.054  1.00  0.00     0.198 A 
ATOM     74  C   UNL A   1      48.078  27.746  31.305  1.00  0.00     0.198 A 
ATOM     75  F   UNL A   1      45.995  28.166  32.313  1.00  0.00    -0.203 F 
ATOM     76  F   UNL A   1      49.294  28.518  27.982  1.00  0.00    -0.200 F 
ATOM     77  C   UNL A   1      48.922  27.829  30.208  1.00  0.00     0.200 A 
ATOM     78  F   UNL A   1      48.496  27.146  32.428  1.00  0.00    -0.200 F 
ATOM     79  F   UNL A   1      50.148  27.292  30.263  1.00  0.00    -0.200 F 
ENDBRANCH  55  69
BRANCH  56  80
ATOM     80  C   UNL A   1      37.026  32.561  29.836  1.00  0.00     0.064 A 
ATOM     81  C   UNL A   1      36.544  33.297  28.743  1.00  0.00     0.173 A 
ATOM     82  C   UNL A   1      36.163  32.375  30.926  1.00  0.00     0.173 A 
ATOM     83  F   UNL A   1      37.336  33.516  27.683  1.00  0.00    -0.203 F 
ATOM     84  C   UNL A   1      35.266  33.850  28.754  1.00  0.00     0.198 A 
ATOM     85  C   UNL A   1      34.873  32.900  30.921  1.00  0.00     0.198 A 
ATOM     86  F   UNL A   1      36.567  31.666  31.991  1.00  0.00    -0.203 F 
ATOM     87  F   UNL A   1      34.853  34.596  27.720  1.00  0.00    -0.200 F 
ATOM     88  C   UNL A   1      34.429  33.648  29.841  1.00  0.00     0.200 A 
ATOM     89  F   UNL A   1      34.060  32.682  31.963  1.00  0.00    -0.200 F 
ATOM     90  F   UNL A   1      33.198  34.179  29.850  1.00  0.00    -0.200 F 
ENDBRANCH  56  80
BRANCH  68  91
ATOM     91  C   UNL A   1      43.164  35.151  31.898  1.00  0.00     0.064 A 
ATOM     92  C   UNL A   1      43.648  36.178  31.073  1.00  0.00     0.173 A 
ATOM     93  C   UNL A   1      43.018  35.423  33.267  1.00  0.00     0.173 A 
ATOM     94  F   UNL A   1      43.819  35.966  29.761  1.00  0.00    -0.203 F 
ATOM     95  C   UNL A   1      43.996  37.417  31.605  1.00  0.00     0.198 A 
ATOM     96  C   UNL A   1      43.335  36.674  33.789  1.00  0.00     0.198 A 
ATOM     97  F   UNL A   1      42.553  34.478  34.099  1.00  0.00    -0.203 F 
ATOM     98  F   UNL A   1      44.505  38.367  30.807  1.00  0.00    -0.200 F 
ATOM     99  C   UNL A   1      43.831  37.667  32.959  1.00  0.00     0.200 A 
ATOM    100  F   UNL A   1      43.156  36.919  35.095  1.00  0.00    -0.200 F 
ATOM    101  F   UNL A   1      44.155  38.865  33.466  1.00  0.00    -0.200 F 
ENDBRANCH  68  91
ENDBRANCH  42  43
ENDBRANCH  34  37
ENDBRANCH  32  33
ENDBRANCH  31  32
ENDBRANCH   1  31
TORSDOF 14
ENDMDL
