MODEL 1
REMARK VINA RESULT:     -14.6      0.000      0.000
REMARK SMILES Cc1nn([C@@H](C)C(=O)NCCCNC(=O)c2ccc(-c3c4nc(c(-c5c(F)c(F)c(F)c(F)c5F)c5ccc([nH]5)c(-c5c(F)c(F)c(F)c(F)c5F)c5nc(c(-c6c(F)c(F)c(F)c(F)c6F)c6ccc3[nH]6)C=C5)C=C4)cc2)c(=O)c2cc3cc(F)ccc3n12
REMARK SMILES IDX 11 1 10 2 9 3 7 4 8 5 5 7 6 8 4 9 1 10 2 11 3 12 90 13 81 14
REMARK SMILES IDX 89 15 79 16 82 17 83 18 88 19 80 20 84 21 87 22 85 23 86 24
REMARK SMILES IDX 12 25 13 26 14 27 15 29 16 30 17 31 78 32 18 33 77 34 19 35
REMARK SMILES IDX 20 36 21 37 71 38 22 39 76 40 70 41 72 42 23 43 75 44 69 45
REMARK SMILES IDX 68 46 24 48 56 49 36 50 55 51 37 52 40 53 54 54 73 55 38 56
REMARK SMILES IDX 39 57 53 59 74 60 41 61 25 62 26 63 34 64 27 65 28 66 32 67
REMARK SMILES IDX 35 68 29 69 30 70 33 71 31 72 57 73 58 74 66 75 59 76 60 77
REMARK SMILES IDX 64 78 67 79 61 80 62 81 65 82 63 83 42 84 43 85 51 86 44 87
REMARK SMILES IDX 45 88 49 89 52 90 46 91 47 92 50 93 48 94
REMARK H PARENT 9 6 13 28 72 47 40 58
REMARK Flexibility Score: inf
ROOT
ATOM      1  C   UNL A   1      31.954  30.434  26.320  1.00  0.00     0.042 C 
ENDROOT
BRANCH   1   2
ATOM      2  C   UNL A   1      31.782  29.485  25.127  1.00  0.00     0.117 C 
BRANCH   2   3
ATOM      3  N   UNL A   1      32.970  29.418  24.299  1.00  0.00    -0.354 N 
ATOM      4  C   UNL A   1      33.300  28.682  23.203  1.00  0.00     0.244 C 
ATOM      5  O   UNL A   1      34.404  28.953  22.707  1.00  0.00    -0.273 OA
ATOM      6  H   UNL A   1      33.685  30.030  24.588  1.00  0.00     0.163 HD
BRANCH   4   7
ATOM      7  C   UNL A   1      32.406  27.608  22.535  1.00  0.00     0.197 C 
ATOM      8  C   UNL A   1      30.944  28.021  22.413  1.00  0.00     0.044 C 
BRANCH   7   9
ATOM      9  N   UNL A   1      32.653  26.230  23.005  1.00  0.00    -0.214 N 
ATOM     10  C   UNL A   1      32.838  24.670  26.377  1.00  0.00     0.090 C 
ATOM     11  C   UNL A   1      32.745  24.860  24.897  1.00  0.00     0.131 A 
ATOM     12  N   UNL A   1      32.640  26.058  24.397  1.00  0.00    -0.155 NA
ATOM     13  N   UNL A   1      32.774  23.717  24.086  1.00  0.00    -0.291 N 
ATOM     14  C   UNL A   1      32.785  23.884  22.723  1.00  0.00     0.115 A 
ATOM     15  C   UNL A   1      32.772  22.344  24.355  1.00  0.00     0.055 A 
ATOM     16  C   UNL A   1      32.945  25.180  22.139  1.00  0.00     0.291 A 
ATOM     17  C   UNL A   1      32.572  22.674  22.112  1.00  0.00     0.043 A 
ATOM     18  C   UNL A   1      32.548  21.694  23.125  1.00  0.00     0.004 A 
ATOM     19  C   UNL A   1      32.926  21.589  25.534  1.00  0.00     0.030 A 
ATOM     20  O   UNL A   1      33.278  25.308  20.963  1.00  0.00    -0.265 OA
ATOM     21  C   UNL A   1      32.390  20.296  23.082  1.00  0.00     0.049 A 
ATOM     22  C   UNL A   1      32.810  20.194  25.459  1.00  0.00     0.041 A 
ATOM     23  C   UNL A   1      32.528  19.570  24.256  1.00  0.00     0.123 A 
ATOM     24  F   UNL A   1      32.409  18.237  24.215  1.00  0.00    -0.207 F 
ENDBRANCH   7   9
ENDBRANCH   4   7
ENDBRANCH   2   3
ENDBRANCH   1   2
BRANCH   1  25
ATOM     25  C   UNL A   1      33.194  30.133  27.159  1.00  0.00     0.118 C 
BRANCH  25  26
ATOM     26  N   UNL A   1      33.648  31.279  27.919  1.00  0.00    -0.352 N 
ATOM     27  C   UNL A   1      34.809  31.674  28.515  1.00  0.00     0.251 C 
ATOM     28  H   UNL A   1      32.933  31.945  28.037  1.00  0.00     0.163 HD
ATOM     29  O   UNL A   1      34.752  32.758  29.104  1.00  0.00    -0.269 OA
BRANCH  27  30
ATOM     30  C   UNL A   1      36.091  30.919  28.549  1.00  0.00     0.039 A 
ATOM     31  C   UNL A   1      36.286  29.585  28.184  1.00  0.00     0.014 A 
ATOM     32  C   UNL A   1      37.196  31.649  29.030  1.00  0.00     0.014 A 
ATOM     33  C   UNL A   1      37.532  28.980  28.379  1.00  0.00     0.010 A 
ATOM     34  C   UNL A   1      38.437  31.057  29.213  1.00  0.00     0.010 A 
ATOM     35  C   UNL A   1      38.590  29.704  28.939  1.00  0.00    -0.014 A 
BRANCH  35  36
ATOM     36  C   UNL A   1      39.875  29.041  29.159  1.00  0.00     0.031 A 
ATOM     37  C   UNL A   1      40.237  28.814  30.590  1.00  0.00     0.074 A 
ATOM     38  C   UNL A   1      40.622  28.540  28.151  1.00  0.00     0.049 A 
ATOM     39  N   UNL A   1      41.285  29.230  31.227  1.00  0.00    -0.248 NA
ATOM     40  C   UNL A   1      39.267  28.105  31.441  1.00  0.00     0.031 C 
ATOM     41  C   UNL A   1      40.279  28.436  26.729  1.00  0.00     0.029 A 
ATOM     42  N   UNL A   1      41.839  27.929  28.208  1.00  0.00    -0.354 N 
ATOM     43  C   UNL A   1      41.187  28.716  32.520  1.00  0.00     0.074 A 
ATOM     44  C   UNL A   1      39.876  28.131  32.628  1.00  0.00     0.031 C 
ATOM     45  C   UNL A   1      41.152  27.606  26.112  1.00  0.00     0.029 A 
ATOM     46  C   UNL A   1      42.194  27.238  27.054  1.00  0.00     0.049 A 
ATOM     47  H   UNL A   1      42.420  27.974  29.001  1.00  0.00     0.167 HD
ATOM     48  C   UNL A   1      42.264  28.651  33.352  1.00  0.00     0.037 A 
ATOM     49  C   UNL A   1      43.237  26.381  26.914  1.00  0.00     0.037 A 
ATOM     50  C   UNL A   1      43.310  29.543  32.930  1.00  0.00     0.049 A 
ATOM     51  C   UNL A   1      44.204  26.689  27.998  1.00  0.00     0.074 A 
ATOM     52  C   UNL A   1      43.425  30.913  32.810  1.00  0.00     0.029 A 
ATOM     53  N   UNL A   1      44.362  29.024  32.221  1.00  0.00    -0.354 N 
ATOM     54  N   UNL A   1      44.884  27.798  28.075  1.00  0.00    -0.248 NA
ATOM     55  C   UNL A   1      44.076  25.941  29.239  1.00  0.00     0.031 C 
ATOM     56  C   UNL A   1      44.212  31.115  31.639  1.00  0.00     0.029 A 
ATOM     57  C   UNL A   1      44.577  29.859  31.155  1.00  0.00     0.049 A 
ATOM     58  H   UNL A   1      44.867  28.207  32.436  1.00  0.00     0.167 HD
ATOM     59  C   UNL A   1      44.895  28.106  29.426  1.00  0.00     0.074 A 
ATOM     60  C   UNL A   1      44.446  26.890  30.100  1.00  0.00     0.031 C 
ATOM     61  C   UNL A   1      44.993  29.398  29.853  1.00  0.00     0.037 A 
BRANCH  48  62
ATOM     62  C   UNL A   1      42.504  27.554  34.361  1.00  0.00     0.064 A 
ATOM     63  C   UNL A   1      43.096  26.343  33.946  1.00  0.00     0.173 A 
ATOM     64  C   UNL A   1      41.904  27.531  35.639  1.00  0.00     0.173 A 
ATOM     65  F   UNL A   1      43.676  26.242  32.740  1.00  0.00    -0.203 F 
ATOM     66  C   UNL A   1      43.027  25.182  34.723  1.00  0.00     0.198 A 
ATOM     67  C   UNL A   1      41.882  26.384  36.432  1.00  0.00     0.198 A 
ATOM     68  F   UNL A   1      41.222  28.577  36.120  1.00  0.00    -0.203 F 
ATOM     69  F   UNL A   1      43.497  24.025  34.235  1.00  0.00    -0.200 F 
ATOM     70  C   UNL A   1      42.414  25.202  35.963  1.00  0.00     0.200 A 
ATOM     71  F   UNL A   1      41.265  26.419  37.621  1.00  0.00    -0.200 F 
ATOM     72  F   UNL A   1      42.293  24.079  36.681  1.00  0.00    -0.200 F 
ENDBRANCH  48  62
BRANCH  49  73
ATOM     73  C   UNL A   1      43.254  25.071  26.207  1.00  0.00     0.064 A 
ATOM     74  C   UNL A   1      44.211  24.809  25.208  1.00  0.00     0.173 A 
ATOM     75  C   UNL A   1      42.559  23.954  26.709  1.00  0.00     0.173 A 
ATOM     76  F   UNL A   1      44.945  25.809  24.700  1.00  0.00    -0.203 F 
ATOM     77  C   UNL A   1      44.492  23.506  24.782  1.00  0.00     0.198 A 
ATOM     78  C   UNL A   1      42.835  22.656  26.277  1.00  0.00     0.198 A 
ATOM     79  F   UNL A   1      41.671  24.084  27.704  1.00  0.00    -0.203 F 
ATOM     80  F   UNL A   1      45.468  23.290  23.888  1.00  0.00    -0.200 F 
ATOM     81  C   UNL A   1      43.815  22.429  25.329  1.00  0.00     0.200 A 
ATOM     82  F   UNL A   1      42.197  21.620  26.839  1.00  0.00    -0.200 F 
ATOM     83  F   UNL A   1      44.135  21.176  24.977  1.00  0.00    -0.200 F 
ENDBRANCH  49  73
BRANCH  61  84
ATOM     84  C   UNL A   1      45.326  30.452  28.833  1.00  0.00     0.064 A 
ATOM     85  C   UNL A   1      44.367  31.115  28.045  1.00  0.00     0.173 A 
ATOM     86  C   UNL A   1      46.646  30.916  28.763  1.00  0.00     0.173 A 
ATOM     87  F   UNL A   1      43.069  30.799  28.128  1.00  0.00    -0.203 F 
ATOM     88  C   UNL A   1      44.723  32.164  27.201  1.00  0.00     0.198 A 
ATOM     89  C   UNL A   1      46.993  31.989  27.948  1.00  0.00     0.198 A 
ATOM     90  F   UNL A   1      47.594  30.358  29.532  1.00  0.00    -0.203 F 
ATOM     91  F   UNL A   1      43.791  32.776  26.457  1.00  0.00    -0.200 F 
ATOM     92  C   UNL A   1      46.034  32.608  27.160  1.00  0.00     0.200 A 
ATOM     93  F   UNL A   1      48.253  32.446  27.949  1.00  0.00    -0.200 F 
ATOM     94  F   UNL A   1      46.370  33.648  26.385  1.00  0.00    -0.200 F 
ENDBRANCH  61  84
ENDBRANCH  35  36
ENDBRANCH  27  30
ENDBRANCH  25  26
ENDBRANCH   1  25
TORSDOF 11
ENDMDL
MODEL 2
REMARK VINA RESULT:     -14.5      3.562      8.936
REMARK SMILES Cc1nn([C@@H](C)C(=O)NCCCNC(=O)c2ccc(-c3c4nc(c(-c5c(F)c(F)c(F)c(F)c5F)c5ccc([nH]5)c(-c5c(F)c(F)c(F)c(F)c5F)c5nc(c(-c6c(F)c(F)c(F)c(F)c6F)c6ccc3[nH]6)C=C5)C=C4)cc2)c(=O)c2cc3cc(F)ccc3n12
REMARK SMILES IDX 11 1 10 2 9 3 7 4 8 5 5 7 6 8 4 9 1 10 2 11 3 12 90 13 81 14
REMARK SMILES IDX 89 15 79 16 82 17 83 18 88 19 80 20 84 21 87 22 85 23 86 24
REMARK SMILES IDX 12 25 13 26 14 27 15 29 16 30 17 31 78 32 18 33 77 34 19 35
REMARK SMILES IDX 20 36 21 37 71 38 22 39 76 40 70 41 72 42 23 43 75 44 69 45
REMARK SMILES IDX 68 46 24 48 56 49 36 50 55 51 37 52 40 53 54 54 73 55 38 56
REMARK SMILES IDX 39 57 53 59 74 60 41 61 25 62 26 63 34 64 27 65 28 66 32 67
REMARK SMILES IDX 35 68 29 69 30 70 33 71 31 72 57 73 58 74 66 75 59 76 60 77
REMARK SMILES IDX 64 78 67 79 61 80 62 81 65 82 63 83 42 84 43 85 51 86 44 87
REMARK SMILES IDX 45 88 49 89 52 90 46 91 47 92 50 93 48 94
REMARK H PARENT 9 6 13 28 72 47 40 58
REMARK Flexibility Score: inf
ROOT
ATOM      1  C   UNL A   1      37.869  22.232  25.317  1.00  0.00     0.042 C 
ENDROOT
BRANCH   1   2
ATOM      2  C   UNL A   1      36.655  23.138  25.559  1.00  0.00     0.117 C 
BRANCH   2   3
ATOM      3  N   UNL A   1      35.813  22.657  26.638  1.00  0.00    -0.354 N 
ATOM      4  C   UNL A   1      34.497  22.319  26.711  1.00  0.00     0.244 C 
ATOM      5  O   UNL A   1      34.136  21.869  27.809  1.00  0.00    -0.273 OA
ATOM      6  H   UNL A   1      36.292  22.553  27.491  1.00  0.00     0.163 HD
BRANCH   4   7
ATOM      7  C   UNL A   1      33.475  22.411  25.550  1.00  0.00     0.197 C 
ATOM      8  C   UNL A   1      33.971  21.787  24.251  1.00  0.00     0.044 C 
BRANCH   7   9
ATOM      9  N   UNL A   1      32.810  23.723  25.426  1.00  0.00    -0.214 N 
ATOM     10  C   UNL A   1      33.900  27.219  26.082  1.00  0.00     0.090 C 
ATOM     11  C   UNL A   1      33.122  26.033  25.609  1.00  0.00     0.131 A 
ATOM     12  N   UNL A   1      33.592  24.831  25.785  1.00  0.00    -0.155 NA
ATOM     13  N   UNL A   1      31.892  26.265  24.979  1.00  0.00    -0.291 N 
ATOM     14  C   UNL A   1      31.126  25.181  24.625  1.00  0.00     0.115 A 
ATOM     15  C   UNL A   1      31.218  27.422  24.574  1.00  0.00     0.055 A 
ATOM     16  C   UNL A   1      31.479  23.859  25.044  1.00  0.00     0.291 A 
ATOM     17  C   UNL A   1      30.094  25.592  23.820  1.00  0.00     0.043 A 
ATOM     18  C   UNL A   1      30.144  27.000  23.765  1.00  0.00     0.004 A 
ATOM     19  C   UNL A   1      31.429  28.795  24.809  1.00  0.00     0.030 A 
ATOM     20  O   UNL A   1      30.656  22.946  25.019  1.00  0.00    -0.265 OA
ATOM     21  C   UNL A   1      29.331  27.949  23.117  1.00  0.00     0.049 A 
ATOM     22  C   UNL A   1      30.578  29.720  24.189  1.00  0.00     0.041 A 
ATOM     23  C   UNL A   1      29.563  29.298  23.346  1.00  0.00     0.123 A 
ATOM     24  F   UNL A   1      28.773  30.204  22.757  1.00  0.00    -0.207 F 
ENDBRANCH   7   9
ENDBRANCH   4   7
ENDBRANCH   2   3
ENDBRANCH   1   2
BRANCH   1  25
ATOM     25  C   UNL A   1      38.843  22.198  26.494  1.00  0.00     0.118 C 
BRANCH  25  26
ATOM     26  N   UNL A   1      40.225  22.098  26.075  1.00  0.00    -0.352 N 
ATOM     27  C   UNL A   1      41.346  22.868  26.171  1.00  0.00     0.251 C 
ATOM     28  H   UNL A   1      40.401  21.256  25.596  1.00  0.00     0.163 HD
ATOM     29  O   UNL A   1      42.352  22.398  25.631  1.00  0.00    -0.269 OA
BRANCH  27  30
ATOM     30  C   UNL A   1      41.452  24.204  26.818  1.00  0.00     0.039 A 
ATOM     31  C   UNL A   1      42.106  24.505  28.014  1.00  0.00     0.014 A 
ATOM     32  C   UNL A   1      40.787  25.245  26.140  1.00  0.00     0.014 A 
ATOM     33  C   UNL A   1      42.023  25.791  28.555  1.00  0.00     0.010 A 
ATOM     34  C   UNL A   1      40.711  26.526  26.666  1.00  0.00     0.010 A 
ATOM     35  C   UNL A   1      41.284  26.785  27.905  1.00  0.00    -0.014 A 
BRANCH  35  36
ATOM     36  C   UNL A   1      41.187  28.116  28.505  1.00  0.00     0.031 A 
ATOM     37  C   UNL A   1      42.217  29.096  28.051  1.00  0.00     0.074 A 
ATOM     38  C   UNL A   1      40.163  28.484  29.306  1.00  0.00     0.049 A 
ATOM     39  N   UNL A   1      43.078  29.745  28.769  1.00  0.00    -0.248 NA
ATOM     40  C   UNL A   1      42.365  29.318  26.603  1.00  0.00     0.031 C 
ATOM     41  C   UNL A   1      38.941  27.737  29.622  1.00  0.00     0.029 A 
ATOM     42  N   UNL A   1      39.962  29.669  29.950  1.00  0.00    -0.354 N 
ATOM     43  C   UNL A   1      43.780  30.569  27.889  1.00  0.00     0.074 A 
ATOM     44  C   UNL A   1      43.380  30.183  26.561  1.00  0.00     0.031 C 
ATOM     45  C   UNL A   1      38.041  28.566  30.199  1.00  0.00     0.029 A 
ATOM     46  C   UNL A   1      38.668  29.856  30.425  1.00  0.00     0.049 A 
ATOM     47  H   UNL A   1      40.674  30.337  30.070  1.00  0.00     0.167 HD
ATOM     48  C   UNL A   1      44.508  31.635  28.327  1.00  0.00     0.037 A 
ATOM     49  C   UNL A   1      38.144  31.011  30.910  1.00  0.00     0.037 A 
ATOM     50  C   UNL A   1      44.818  31.522  29.726  1.00  0.00     0.049 A 
ATOM     51  C   UNL A   1      39.285  31.869  31.318  1.00  0.00     0.074 A 
ATOM     52  C   UNL A   1      45.562  30.641  30.485  1.00  0.00     0.029 A 
ATOM     53  N   UNL A   1      44.049  32.218  30.623  1.00  0.00    -0.354 N 
ATOM     54  N   UNL A   1      40.084  31.596  32.311  1.00  0.00    -0.248 NA
ATOM     55  C   UNL A   1      39.801  32.806  30.333  1.00  0.00     0.031 C 
ATOM     56  C   UNL A   1      44.838  30.503  31.705  1.00  0.00     0.029 A 
ATOM     57  C   UNL A   1      43.733  31.353  31.637  1.00  0.00     0.049 A 
ATOM     58  H   UNL A   1      43.777  33.162  30.551  1.00  0.00     0.167 HD
ATOM     59  C   UNL A   1      41.340  31.972  31.860  1.00  0.00     0.074 A 
ATOM     60  C   UNL A   1      41.092  32.777  30.666  1.00  0.00     0.031 C 
ATOM     61  C   UNL A   1      42.467  31.364  32.329  1.00  0.00     0.037 A 
BRANCH  48  62
ATOM     62  C   UNL A   1      44.666  32.933  27.572  1.00  0.00     0.064 A 
ATOM     63  C   UNL A   1      45.835  33.164  26.819  1.00  0.00     0.173 A 
ATOM     64  C   UNL A   1      43.859  34.068  27.804  1.00  0.00     0.173 A 
ATOM     65  F   UNL A   1      46.689  32.162  26.556  1.00  0.00    -0.203 F 
ATOM     66  C   UNL A   1      46.201  34.446  26.395  1.00  0.00     0.198 A 
ATOM     67  C   UNL A   1      44.202  35.335  27.336  1.00  0.00     0.198 A 
ATOM     68  F   UNL A   1      42.772  34.017  28.583  1.00  0.00    -0.203 F 
ATOM     69  F   UNL A   1      47.382  34.634  25.788  1.00  0.00    -0.200 F 
ATOM     70  C   UNL A   1      45.387  35.531  26.660  1.00  0.00     0.200 A 
ATOM     71  F   UNL A   1      43.409  36.378  27.620  1.00  0.00    -0.200 F 
ATOM     72  F   UNL A   1      45.764  36.767  26.309  1.00  0.00    -0.200 F 
ENDBRANCH  48  62
BRANCH  49  73
ATOM     73  C   UNL A   1      36.796  31.584  30.647  1.00  0.00     0.064 A 
ATOM     74  C   UNL A   1      35.942  31.922  31.713  1.00  0.00     0.173 A 
ATOM     75  C   UNL A   1      36.451  32.105  29.385  1.00  0.00     0.173 A 
ATOM     76  F   UNL A   1      36.214  31.499  32.956  1.00  0.00    -0.203 F 
ATOM     77  C   UNL A   1      34.845  32.773  31.535  1.00  0.00     0.198 A 
ATOM     78  C   UNL A   1      35.352  32.948  29.209  1.00  0.00     0.198 A 
ATOM     79  F   UNL A   1      37.230  31.895  28.315  1.00  0.00    -0.203 F 
ATOM     80  F   UNL A   1      34.103  33.137  32.591  1.00  0.00    -0.200 F 
ATOM     81  C   UNL A   1      34.561  33.298  30.286  1.00  0.00     0.200 A 
ATOM     82  F   UNL A   1      35.109  33.476  28.001  1.00  0.00    -0.200 F 
ATOM     83  F   UNL A   1      33.558  34.174  30.129  1.00  0.00    -0.200 F 
ENDBRANCH  49  73
BRANCH  61  84
ATOM     84  C   UNL A   1      42.331  30.447  33.512  1.00  0.00     0.064 A 
ATOM     85  C   UNL A   1      42.398  30.875  34.851  1.00  0.00     0.173 A 
ATOM     86  C   UNL A   1      41.967  29.114  33.282  1.00  0.00     0.173 A 
ATOM     87  F   UNL A   1      42.642  32.155  35.154  1.00  0.00    -0.203 F 
ATOM     88  C   UNL A   1      42.148  29.998  35.905  1.00  0.00     0.198 A 
ATOM     89  C   UNL A   1      41.681  28.250  34.335  1.00  0.00     0.198 A 
ATOM     90  F   UNL A   1      41.835  28.662  32.025  1.00  0.00    -0.203 F 
ATOM     91  F   UNL A   1      42.223  30.430  37.172  1.00  0.00    -0.200 F 
ATOM     92  C   UNL A   1      41.781  28.688  35.646  1.00  0.00     0.200 A 
ATOM     93  F   UNL A   1      41.279  26.997  34.078  1.00  0.00    -0.200 F 
ATOM     94  F   UNL A   1      41.494  27.857  36.657  1.00  0.00    -0.200 F 
ENDBRANCH  61  84
ENDBRANCH  35  36
ENDBRANCH  27  30
ENDBRANCH  25  26
ENDBRANCH   1  25
TORSDOF 11
ENDMDL
MODEL 3
REMARK VINA RESULT:     -14.2      1.665      2.082
REMARK SMILES Cc1nn([C@@H](C)C(=O)NCCCNC(=O)c2ccc(-c3c4nc(c(-c5c(F)c(F)c(F)c(F)c5F)c5ccc([nH]5)c(-c5c(F)c(F)c(F)c(F)c5F)c5nc(c(-c6c(F)c(F)c(F)c(F)c6F)c6ccc3[nH]6)C=C5)C=C4)cc2)c(=O)c2cc3cc(F)ccc3n12
REMARK SMILES IDX 11 1 10 2 9 3 7 4 8 5 5 7 6 8 4 9 1 10 2 11 3 12 90 13 81 14
REMARK SMILES IDX 89 15 79 16 82 17 83 18 88 19 80 20 84 21 87 22 85 23 86 24
REMARK SMILES IDX 12 25 13 26 14 27 15 29 16 30 17 31 78 32 18 33 77 34 19 35
REMARK SMILES IDX 20 36 21 37 71 38 22 39 76 40 70 41 72 42 23 43 75 44 69 45
REMARK SMILES IDX 68 46 24 48 56 49 36 50 55 51 37 52 40 53 54 54 73 55 38 56
REMARK SMILES IDX 39 57 53 59 74 60 41 61 25 62 26 63 34 64 27 65 28 66 32 67
REMARK SMILES IDX 35 68 29 69 30 70 33 71 31 72 57 73 58 74 66 75 59 76 60 77
REMARK SMILES IDX 64 78 67 79 61 80 62 81 65 82 63 83 42 84 43 85 51 86 44 87
REMARK SMILES IDX 45 88 49 89 52 90 46 91 47 92 50 93 48 94
REMARK H PARENT 9 6 13 28 72 47 40 58
REMARK Flexibility Score: inf
ROOT
ATOM      1  C   UNL A   1      32.495  30.053  27.089  1.00  0.00     0.042 C 
ENDROOT
BRANCH   1   2
ATOM      2  C   UNL A   1      32.329  29.024  25.963  1.00  0.00     0.117 C 
BRANCH   2   3
ATOM      3  N   UNL A   1      31.428  27.948  26.327  1.00  0.00    -0.354 N 
ATOM      4  C   UNL A   1      31.186  26.718  25.798  1.00  0.00     0.244 C 
ATOM      5  O   UNL A   1      30.378  26.027  26.436  1.00  0.00    -0.273 OA
ATOM      6  H   UNL A   1      30.880  28.147  27.120  1.00  0.00     0.163 HD
BRANCH   4   7
ATOM      7  C   UNL A   1      31.858  26.132  24.531  1.00  0.00     0.197 C 
ATOM      8  C   UNL A   1      30.918  26.024  23.336  1.00  0.00     0.044 C 
BRANCH   7   9
ATOM      9  N   UNL A   1      32.720  24.961  24.785  1.00  0.00    -0.214 N 
ATOM     10  C   UNL A   1      32.227  21.292  24.427  1.00  0.00     0.090 C 
ATOM     11  C   UNL A   1      32.859  22.634  24.611  1.00  0.00     0.131 A 
ATOM     12  N   UNL A   1      32.138  23.715  24.515  1.00  0.00    -0.155 NA
ATOM     13  N   UNL A   1      34.233  22.680  24.883  1.00  0.00    -0.291 N 
ATOM     14  C   UNL A   1      34.805  23.900  25.147  1.00  0.00     0.115 A 
ATOM     15  C   UNL A   1      35.239  21.709  24.933  1.00  0.00     0.055 A 
ATOM     16  C   UNL A   1      34.001  25.072  25.319  1.00  0.00     0.291 A 
ATOM     17  C   UNL A   1      36.171  23.774  25.149  1.00  0.00     0.043 A 
ATOM     18  C   UNL A   1      36.464  22.403  25.002  1.00  0.00     0.004 A 
ATOM     19  C   UNL A   1      35.226  20.301  24.911  1.00  0.00     0.030 A 
ATOM     20  O   UNL A   1      34.454  26.076  25.864  1.00  0.00    -0.265 OA
ATOM     21  C   UNL A   1      37.681  21.697  24.962  1.00  0.00     0.049 A 
ATOM     22  C   UNL A   1      36.450  19.617  24.917  1.00  0.00     0.041 A 
ATOM     23  C   UNL A   1      37.649  20.310  24.923  1.00  0.00     0.123 A 
ATOM     24  F   UNL A   1      38.804  19.632  24.916  1.00  0.00    -0.207 F 
ENDBRANCH   7   9
ENDBRANCH   4   7
ENDBRANCH   2   3
ENDBRANCH   1   2
BRANCH   1  25
ATOM     25  C   UNL A   1      33.937  30.520  27.275  1.00  0.00     0.118 C 
BRANCH  25  26
ATOM     26  N   UNL A   1      34.068  31.542  28.292  1.00  0.00    -0.352 N 
ATOM     27  C   UNL A   1      35.020  31.930  29.187  1.00  0.00     0.251 C 
ATOM     28  H   UNL A   1      33.261  32.102  28.353  1.00  0.00     0.163 HD
ATOM     29  O   UNL A   1      34.700  32.874  29.917  1.00  0.00    -0.269 OA
BRANCH  27  30
ATOM     30  C   UNL A   1      36.359  31.311  29.384  1.00  0.00     0.039 A 
ATOM     31  C   UNL A   1      37.590  31.970  29.414  1.00  0.00     0.014 A 
ATOM     32  C   UNL A   1      36.349  29.908  29.522  1.00  0.00     0.014 A 
ATOM     33  C   UNL A   1      38.777  31.235  29.494  1.00  0.00     0.010 A 
ATOM     34  C   UNL A   1      37.523  29.176  29.614  1.00  0.00     0.010 A 
ATOM     35  C   UNL A   1      38.742  29.838  29.544  1.00  0.00    -0.014 A 
BRANCH  35  36
ATOM     36  C   UNL A   1      39.999  29.090  29.598  1.00  0.00     0.031 A 
ATOM     37  C   UNL A   1      40.544  28.860  30.968  1.00  0.00     0.074 A 
ATOM     38  C   UNL A   1      40.560  28.525  28.508  1.00  0.00     0.049 A 
ATOM     39  N   UNL A   1      41.696  29.212  31.442  1.00  0.00    -0.248 NA
ATOM     40  C   UNL A   1      39.660  28.233  31.964  1.00  0.00     0.031 C 
ATOM     41  C   UNL A   1      40.013  28.423  27.151  1.00  0.00     0.029 A 
ATOM     42  N   UNL A   1      41.730  27.832  28.408  1.00  0.00    -0.354 N 
ATOM     43  C   UNL A   1      41.749  28.725  32.749  1.00  0.00     0.074 A 
ATOM     44  C   UNL A   1      40.430  28.234  33.054  1.00  0.00     0.031 C 
ATOM     45  C   UNL A   1      40.733  27.526  26.438  1.00  0.00     0.029 A 
ATOM     46  C   UNL A   1      41.871  27.101  27.233  1.00  0.00     0.049 A 
ATOM     47  H   UNL A   1      42.419  27.848  29.110  1.00  0.00     0.167 HD
ATOM     48  C   UNL A   1      42.927  28.599  33.423  1.00  0.00     0.037 A 
ATOM     49  C   UNL A   1      42.824  26.171  26.969  1.00  0.00     0.037 A 
ATOM     50  C   UNL A   1      43.959  29.409  32.836  1.00  0.00     0.049 A 
ATOM     51  C   UNL A   1      43.953  26.428  27.899  1.00  0.00     0.074 A 
ATOM     52  C   UNL A   1      44.146  30.766  32.668  1.00  0.00     0.029 A 
ATOM     53  N   UNL A   1      44.863  28.809  31.999  1.00  0.00    -0.354 N 
ATOM     54  N   UNL A   1      44.710  27.488  27.852  1.00  0.00    -0.248 NA
ATOM     55  C   UNL A   1      43.953  25.709  29.163  1.00  0.00     0.031 C 
ATOM     56  C   UNL A   1      44.772  30.896  31.394  1.00  0.00     0.029 A 
ATOM     57  C   UNL A   1      44.980  29.610  30.894  1.00  0.00     0.049 A 
ATOM     58  H   UNL A   1      45.338  27.961  32.161  1.00  0.00     0.167 HD
ATOM     59  C   UNL A   1      44.932  27.815  29.181  1.00  0.00     0.074 A 
ATOM     60  C   UNL A   1      44.504  26.642  29.940  1.00  0.00     0.031 C 
ATOM     61  C   UNL A   1      45.176  29.103  29.558  1.00  0.00     0.037 A 
BRANCH  48  62
ATOM     62  C   UNL A   1      43.233  27.502  34.414  1.00  0.00     0.064 A 
ATOM     63  C   UNL A   1      43.562  26.213  33.948  1.00  0.00     0.173 A 
ATOM     64  C   UNL A   1      42.923  27.590  35.788  1.00  0.00     0.173 A 
ATOM     65  F   UNL A   1      43.853  26.005  32.654  1.00  0.00    -0.203 F 
ATOM     66  C   UNL A   1      43.512  25.090  34.781  1.00  0.00     0.198 A 
ATOM     67  C   UNL A   1      42.923  26.476  36.626  1.00  0.00     0.198 A 
ATOM     68  F   UNL A   1      42.500  28.731  36.347  1.00  0.00    -0.203 F 
ATOM     69  F   UNL A   1      43.714  23.869  34.265  1.00  0.00    -0.200 F 
ATOM     70  C   UNL A   1      43.186  25.222  36.118  1.00  0.00     0.200 A 
ATOM     71  F   UNL A   1      42.585  26.623  37.915  1.00  0.00    -0.200 F 
ATOM     72  F   UNL A   1      43.078  24.143  36.903  1.00  0.00    -0.200 F 
ENDBRANCH  48  62
BRANCH  49  73
ATOM     73  C   UNL A   1      42.654  24.853  26.298  1.00  0.00     0.064 A 
ATOM     74  C   UNL A   1      43.541  24.446  25.284  1.00  0.00     0.173 A 
ATOM     75  C   UNL A   1      41.836  23.848  26.849  1.00  0.00     0.173 A 
ATOM     76  F   UNL A   1      44.383  25.331  24.730  1.00  0.00    -0.203 F 
ATOM     77  C   UNL A   1      43.641  23.108  24.888  1.00  0.00     0.198 A 
ATOM     78  C   UNL A   1      41.932  22.514  26.446  1.00  0.00     0.198 A 
ATOM     79  F   UNL A   1      41.000  24.115  27.861  1.00  0.00    -0.203 F 
ATOM     80  F   UNL A   1      44.555  22.746  23.976  1.00  0.00    -0.200 F 
ATOM     81  C   UNL A   1      42.847  22.141  25.481  1.00  0.00     0.200 A 
ATOM     82  F   UNL A   1      41.182  21.584  27.053  1.00  0.00    -0.200 F 
ATOM     83  F   UNL A   1      42.995  20.848  25.157  1.00  0.00    -0.200 F 
ENDBRANCH  49  73
BRANCH  61  84
ATOM     84  C   UNL A   1      45.430  30.116  28.476  1.00  0.00     0.064 A 
ATOM     85  C   UNL A   1      44.416  30.840  27.823  1.00  0.00     0.173 A 
ATOM     86  C   UNL A   1      46.756  30.477  28.202  1.00  0.00     0.173 A 
ATOM     87  F   UNL A   1      43.125  30.626  28.104  1.00  0.00    -0.203 F 
ATOM     88  C   UNL A   1      44.720  31.850  26.912  1.00  0.00     0.198 A 
ATOM     89  C   UNL A   1      47.056  31.510  27.319  1.00  0.00     0.198 A 
ATOM     90  F   UNL A   1      47.764  29.857  28.835  1.00  0.00    -0.203 F 
ATOM     91  F   UNL A   1      43.734  32.522  26.299  1.00  0.00    -0.200 F 
ATOM     92  C   UNL A   1      46.039  32.191  26.667  1.00  0.00     0.200 A 
ATOM     93  F   UNL A   1      48.332  31.869  27.124  1.00  0.00    -0.200 F 
ATOM     94  F   UNL A   1      46.331  33.193  25.827  1.00  0.00    -0.200 F 
ENDBRANCH  61  84
ENDBRANCH  35  36
ENDBRANCH  27  30
ENDBRANCH  25  26
ENDBRANCH   1  25
TORSDOF 11
ENDMDL
