MODEL 1
REMARK VINA RESULT:     -12.8      0.000      0.000
REMARK SMILES CO[C@@H]1C[C@H](C(=O)NCCCNC(=O)c2ccc(-c3c4nc(c(-c5c(F)c(F)c(F)c(F)c5F)c5ccc([nH]5)c(-c5c(F)c(F)c(F)c(F)c5F)c5nc(c(-c6c(F)c(F)c(F)c(F)c6F)c6ccc3[nH]6)C=C5)C=C4)cc2)N(C(=O)c2ccn(C)c(=O)c2)C1
REMARK SMILES IDX 10 1 9 2 8 3 6 4 7 5 5 7 3 8 4 9 89 10 78 11 2 12 1 13 79 14
REMARK SMILES IDX 80 15 81 16 82 17 88 18 83 19 86 20 84 21 87 22 85 23 11 24
REMARK SMILES IDX 12 25 13 26 14 28 15 29 16 30 77 31 17 32 76 33 18 34 19 35
REMARK SMILES IDX 20 36 70 37 21 38 75 39 69 40 71 41 22 42 74 43 68 44 67 45
REMARK SMILES IDX 23 47 55 48 35 49 54 50 36 51 39 52 53 53 72 54 37 55 38 56
REMARK SMILES IDX 52 58 73 59 40 60 24 61 25 62 33 63 26 64 27 65 31 66 34 67
REMARK SMILES IDX 28 68 29 69 32 70 30 71 56 72 57 73 65 74 58 75 59 76 63 77
REMARK SMILES IDX 66 78 60 79 61 80 64 81 62 82 41 83 42 84 50 85 43 86 44 87
REMARK SMILES IDX 48 88 51 89 45 90 46 91 49 92 47 93
REMARK H PARENT 8 6 12 27 71 46 39 57
REMARK Flexibility Score: inf
ROOT
ATOM      1  C   UNL A   1      31.739  31.788  26.839  1.00  0.00     0.042 C 
ENDROOT
BRANCH   1   2
ATOM      2  C   UNL A   1      32.153  30.319  26.817  1.00  0.00     0.117 C 
BRANCH   2   3
ATOM      3  N   UNL A   1      33.022  29.999  25.707  1.00  0.00    -0.354 N 
ATOM      4  C   UNL A   1      32.833  29.232  24.606  1.00  0.00     0.242 C 
ATOM      5  O   UNL A   1      33.638  29.422  23.684  1.00  0.00    -0.273 OA
ATOM      6  H   UNL A   1      33.915  30.413  25.762  1.00  0.00     0.163 HD
BRANCH   4   7
ATOM      7  C   UNL A   1      31.689  28.207  24.414  1.00  0.00     0.177 C 
ATOM      8  C   UNL A   1      29.925  28.137  22.698  1.00  0.00     0.139 C 
ATOM      9  C   UNL A   1      30.310  28.778  24.041  1.00  0.00     0.069 C 
ATOM     10  C   UNL A   1      30.772  26.872  22.641  1.00  0.00     0.152 C 
ATOM     11  N   UNL A   1      31.924  27.094  23.492  1.00  0.00    -0.324 N 
BRANCH   8  12
ATOM     12  O   UNL A   1      30.136  29.098  21.671  1.00  0.00    -0.380 OA
ATOM     13  C   UNL A   1      29.390  30.302  21.751  1.00  0.00     0.195 C 
ENDBRANCH   8  12
BRANCH  11  14
ATOM     14  C   UNL A   1      32.846  26.070  23.557  1.00  0.00     0.254 C 
ATOM     15  O   UNL A   1      33.539  25.771  22.582  1.00  0.00    -0.269 OA
BRANCH  14  16
ATOM     16  C   UNL A   1      33.008  25.270  24.800  1.00  0.00     0.046 A 
ATOM     17  C   UNL A   1      34.290  24.665  25.091  1.00  0.00     0.032 A 
ATOM     18  C   UNL A   1      31.918  24.900  25.488  1.00  0.00     0.085 A 
ATOM     19  C   UNL A   1      34.396  23.756  26.067  1.00  0.00     0.089 A 
ATOM     20  C   UNL A   1      32.036  23.941  26.616  1.00  0.00     0.251 A 
ATOM     21  N   UNL A   1      33.299  23.394  26.828  1.00  0.00    -0.319 N 
ATOM     22  O   UNL A   1      31.026  23.659  27.258  1.00  0.00    -0.269 OA
ATOM     23  C   UNL A   1      33.474  22.389  27.864  1.00  0.00     0.153 C 
ENDBRANCH  14  16
ENDBRANCH  11  14
ENDBRANCH   4   7
ENDBRANCH   2   3
ENDBRANCH   1   2
BRANCH   1  24
ATOM     24  C   UNL A   1      32.889  32.747  27.120  1.00  0.00     0.118 C 
BRANCH  24  25
ATOM     25  N   UNL A   1      32.481  34.059  27.604  1.00  0.00    -0.352 N 
ATOM     26  C   UNL A   1      33.011  34.870  28.584  1.00  0.00     0.251 C 
ATOM     27  H   UNL A   1      31.688  34.431  27.153  1.00  0.00     0.163 HD
ATOM     28  O   UNL A   1      32.458  35.927  28.845  1.00  0.00    -0.269 OA
BRANCH  26  29
ATOM     29  C   UNL A   1      34.210  34.454  29.357  1.00  0.00     0.039 A 
ATOM     30  C   UNL A   1      34.020  33.854  30.608  1.00  0.00     0.014 A 
ATOM     31  C   UNL A   1      35.504  34.636  28.876  1.00  0.00     0.014 A 
ATOM     32  C   UNL A   1      35.115  33.354  31.319  1.00  0.00     0.010 A 
ATOM     33  C   UNL A   1      36.578  34.036  29.524  1.00  0.00     0.010 A 
ATOM     34  C   UNL A   1      36.399  33.388  30.756  1.00  0.00    -0.014 A 
BRANCH  34  35
ATOM     35  C   UNL A   1      37.572  32.761  31.422  1.00  0.00     0.031 A 
ATOM     36  C   UNL A   1      38.280  31.605  30.765  1.00  0.00     0.074 A 
ATOM     37  C   UNL A   1      37.934  33.159  32.658  1.00  0.00     0.049 A 
ATOM     38  N   UNL A   1      39.216  30.824  31.244  1.00  0.00    -0.248 NA
ATOM     39  C   UNL A   1      37.846  31.252  29.404  1.00  0.00     0.031 C 
ATOM     40  C   UNL A   1      37.292  34.226  33.428  1.00  0.00     0.029 A 
ATOM     41  N   UNL A   1      38.920  32.697  33.495  1.00  0.00    -0.354 N 
ATOM     42  C   UNL A   1      39.452  29.872  30.259  1.00  0.00     0.074 A 
ATOM     43  C   UNL A   1      38.523  30.136  29.183  1.00  0.00     0.031 C 
ATOM     44  C   UNL A   1      37.916  34.355  34.610  1.00  0.00     0.029 A 
ATOM     45  C   UNL A   1      38.969  33.349  34.704  1.00  0.00     0.049 A 
ATOM     46  H   UNL A   1      39.536  31.968  33.251  1.00  0.00     0.167 HD
ATOM     47  C   UNL A   1      40.379  28.885  30.243  1.00  0.00     0.037 A 
ATOM     48  C   UNL A   1      39.763  33.149  35.773  1.00  0.00     0.037 A 
ATOM     49  C   UNL A   1      41.334  28.659  31.295  1.00  0.00     0.049 A 
ATOM     50  C   UNL A   1      40.800  32.059  35.719  1.00  0.00     0.074 A 
ATOM     51  C   UNL A   1      42.363  27.735  31.342  1.00  0.00     0.029 A 
ATOM     52  N   UNL A   1      41.380  29.371  32.485  1.00  0.00    -0.354 N 
ATOM     53  N   UNL A   1      41.057  31.207  34.756  1.00  0.00    -0.248 NA
ATOM     54  C   UNL A   1      41.660  31.905  36.901  1.00  0.00     0.031 C 
ATOM     55  C   UNL A   1      43.005  27.859  32.578  1.00  0.00     0.029 A 
ATOM     56  C   UNL A   1      42.410  28.895  33.279  1.00  0.00     0.049 A 
ATOM     57  H   UNL A   1      40.771  30.105  32.728  1.00  0.00     0.167 HD
ATOM     58  C   UNL A   1      42.125  30.439  35.201  1.00  0.00     0.074 A 
ATOM     59  C   UNL A   1      42.478  30.936  36.514  1.00  0.00     0.031 C 
ATOM     60  C   UNL A   1      42.755  29.414  34.578  1.00  0.00     0.037 A 
BRANCH  47  61
ATOM     61  C   UNL A   1      40.414  27.981  29.042  1.00  0.00     0.064 A 
ATOM     62  C   UNL A   1      39.661  26.799  28.986  1.00  0.00     0.173 A 
ATOM     63  C   UNL A   1      41.185  28.319  27.919  1.00  0.00     0.173 A 
ATOM     64  F   UNL A   1      38.916  26.422  30.036  1.00  0.00    -0.203 F 
ATOM     65  C   UNL A   1      39.701  25.974  27.864  1.00  0.00     0.198 A 
ATOM     66  C   UNL A   1      41.196  27.510  26.786  1.00  0.00     0.198 A 
ATOM     67  F   UNL A   1      41.921  29.441  27.916  1.00  0.00    -0.203 F 
ATOM     68  F   UNL A   1      39.015  24.823  27.857  1.00  0.00    -0.200 F 
ATOM     69  C   UNL A   1      40.462  26.334  26.763  1.00  0.00     0.200 A 
ATOM     70  F   UNL A   1      41.922  27.866  25.717  1.00  0.00    -0.200 F 
ATOM     71  F   UNL A   1      40.493  25.544  25.682  1.00  0.00    -0.200 F 
ENDBRANCH  47  61
BRANCH  48  72
ATOM     72  C   UNL A   1      39.630  34.014  36.975  1.00  0.00     0.064 A 
ATOM     73  C   UNL A   1      38.850  33.609  38.068  1.00  0.00     0.173 A 
ATOM     74  C   UNL A   1      40.265  35.262  37.055  1.00  0.00     0.173 A 
ATOM     75  F   UNL A   1      38.207  32.433  38.031  1.00  0.00    -0.203 F 
ATOM     76  C   UNL A   1      38.691  34.429  39.183  1.00  0.00     0.198 A 
ATOM     77  C   UNL A   1      40.129  36.068  38.185  1.00  0.00     0.198 A 
ATOM     78  F   UNL A   1      41.027  35.695  36.041  1.00  0.00    -0.203 F 
ATOM     79  F   UNL A   1      37.898  34.038  40.191  1.00  0.00    -0.200 F 
ATOM     80  C   UNL A   1      39.334  35.655  39.243  1.00  0.00     0.200 A 
ATOM     81  F   UNL A   1      40.766  37.245  38.245  1.00  0.00    -0.200 F 
ATOM     82  F   UNL A   1      39.182  36.442  40.317  1.00  0.00    -0.200 F 
ENDBRANCH  48  72
BRANCH  60  83
ATOM     83  C   UNL A   1      43.920  28.789  35.289  1.00  0.00     0.064 A 
ATOM     84  C   UNL A   1      45.233  29.239  35.092  1.00  0.00     0.173 A 
ATOM     85  C   UNL A   1      43.710  27.754  36.214  1.00  0.00     0.173 A 
ATOM     86  F   UNL A   1      45.486  30.214  34.208  1.00  0.00    -0.203 F 
ATOM     87  C   UNL A   1      46.298  28.657  35.775  1.00  0.00     0.198 A 
ATOM     88  C   UNL A   1      44.774  27.197  36.918  1.00  0.00     0.198 A 
ATOM     89  F   UNL A   1      42.472  27.293  36.445  1.00  0.00    -0.203 F 
ATOM     90  F   UNL A   1      47.550  29.068  35.534  1.00  0.00    -0.200 F 
ATOM     91  C   UNL A   1      46.067  27.643  36.692  1.00  0.00     0.200 A 
ATOM     92  F   UNL A   1      44.546  26.227  37.816  1.00  0.00    -0.200 F 
ATOM     93  F   UNL A   1      47.092  27.091  37.355  1.00  0.00    -0.200 F 
ENDBRANCH  60  83
ENDBRANCH  34  35
ENDBRANCH  26  29
ENDBRANCH  24  25
ENDBRANCH   1  24
TORSDOF 13
ENDMDL
MODEL 2
REMARK VINA RESULT:     -12.7      5.734     11.398
REMARK SMILES CO[C@@H]1C[C@H](C(=O)NCCCNC(=O)c2ccc(-c3c4nc(c(-c5c(F)c(F)c(F)c(F)c5F)c5ccc([nH]5)c(-c5c(F)c(F)c(F)c(F)c5F)c5nc(c(-c6c(F)c(F)c(F)c(F)c6F)c6ccc3[nH]6)C=C5)C=C4)cc2)N(C(=O)c2ccn(C)c(=O)c2)C1
REMARK SMILES IDX 10 1 9 2 8 3 6 4 7 5 5 7 3 8 4 9 89 10 78 11 2 12 1 13 79 14
REMARK SMILES IDX 80 15 81 16 82 17 88 18 83 19 86 20 84 21 87 22 85 23 11 24
REMARK SMILES IDX 12 25 13 26 14 28 15 29 16 30 77 31 17 32 76 33 18 34 19 35
REMARK SMILES IDX 20 36 70 37 21 38 75 39 69 40 71 41 22 42 74 43 68 44 67 45
REMARK SMILES IDX 23 47 55 48 35 49 54 50 36 51 39 52 53 53 72 54 37 55 38 56
REMARK SMILES IDX 52 58 73 59 40 60 24 61 25 62 33 63 26 64 27 65 31 66 34 67
REMARK SMILES IDX 28 68 29 69 32 70 30 71 56 72 57 73 65 74 58 75 59 76 63 77
REMARK SMILES IDX 66 78 60 79 61 80 64 81 62 82 41 83 42 84 50 85 43 86 44 87
REMARK SMILES IDX 48 88 51 89 45 90 46 91 49 92 47 93
REMARK H PARENT 8 6 12 27 71 46 39 57
REMARK Flexibility Score: inf
ROOT
ATOM      1  C   UNL A   1      38.095  19.971  25.001  1.00  0.00     0.042 C 
ENDROOT
BRANCH   1   2
ATOM      2  C   UNL A   1      37.250  21.222  24.773  1.00  0.00     0.117 C 
BRANCH   2   3
ATOM      3  N   UNL A   1      36.487  21.602  25.940  1.00  0.00    -0.354 N 
ATOM      4  C   UNL A   1      35.162  21.826  26.117  1.00  0.00     0.242 C 
ATOM      5  O   UNL A   1      34.775  21.810  27.293  1.00  0.00    -0.273 OA
ATOM      6  H   UNL A   1      37.029  21.721  26.754  1.00  0.00     0.163 HD
BRANCH   4   7
ATOM      7  C   UNL A   1      34.131  22.045  24.983  1.00  0.00     0.177 C 
ATOM      8  C   UNL A   1      32.172  20.688  24.368  1.00  0.00     0.139 C 
ATOM      9  C   UNL A   1      33.695  20.795  24.199  1.00  0.00     0.069 C 
ATOM     10  C   UNL A   1      31.743  22.103  24.732  1.00  0.00     0.152 C 
ATOM     11  N   UNL A   1      32.896  22.758  25.318  1.00  0.00    -0.324 N 
BRANCH   8  12
ATOM     12  O   UNL A   1      31.903  19.670  25.325  1.00  0.00    -0.380 OA
ATOM     13  C   UNL A   1      32.807  18.577  25.376  1.00  0.00     0.195 C 
ENDBRANCH   8  12
BRANCH  11  14
ATOM     14  C   UNL A   1      32.712  24.054  25.751  1.00  0.00     0.254 C 
ATOM     15  O   UNL A   1      32.092  24.300  26.788  1.00  0.00    -0.269 OA
BRANCH  14  16
ATOM     16  C   UNL A   1      33.230  25.202  24.959  1.00  0.00     0.046 A 
ATOM     17  C   UNL A   1      33.419  26.482  25.607  1.00  0.00     0.032 A 
ATOM     18  C   UNL A   1      33.260  25.115  23.621  1.00  0.00     0.085 A 
ATOM     19  C   UNL A   1      33.653  27.576  24.874  1.00  0.00     0.089 A 
ATOM     20  C   UNL A   1      33.585  26.309  22.801  1.00  0.00     0.251 A 
ATOM     21  N   UNL A   1      33.743  27.507  23.495  1.00  0.00    -0.319 N 
ATOM     22  O   UNL A   1      33.653  26.186  21.580  1.00  0.00    -0.269 OA
ATOM     23  C   UNL A   1      33.983  28.733  22.752  1.00  0.00     0.153 C 
ENDBRANCH  14  16
ENDBRANCH  11  14
ENDBRANCH   4   7
ENDBRANCH   2   3
ENDBRANCH   1   2
BRANCH   1  24
ATOM     24  C   UNL A   1      39.253  20.179  25.969  1.00  0.00     0.118 C 
BRANCH  24  25
ATOM     25  N   UNL A   1      40.280  19.147  25.918  1.00  0.00    -0.352 N 
ATOM     26  C   UNL A   1      41.643  19.214  26.109  1.00  0.00     0.251 C 
ATOM     27  H   UNL A   1      39.941  18.245  25.711  1.00  0.00     0.163 HD
ATOM     28  O   UNL A   1      42.313  18.202  25.969  1.00  0.00    -0.269 OA
BRANCH  26  29
ATOM     29  C   UNL A   1      42.310  20.501  26.431  1.00  0.00     0.039 A 
ATOM     30  C   UNL A   1      42.816  21.270  25.376  1.00  0.00     0.014 A 
ATOM     31  C   UNL A   1      42.439  20.965  27.738  1.00  0.00     0.014 A 
ATOM     32  C   UNL A   1      43.357  22.536  25.627  1.00  0.00     0.010 A 
ATOM     33  C   UNL A   1      42.866  22.267  27.976  1.00  0.00     0.010 A 
ATOM     34  C   UNL A   1      43.332  23.070  26.923  1.00  0.00    -0.014 A 
BRANCH  34  35
ATOM     35  C   UNL A   1      43.784  24.456  27.216  1.00  0.00     0.031 A 
ATOM     36  C   UNL A   1      42.802  25.474  27.731  1.00  0.00     0.074 A 
ATOM     37  C   UNL A   1      45.047  24.827  26.921  1.00  0.00     0.049 A 
ATOM     38  N   UNL A   1      42.953  26.765  27.899  1.00  0.00    -0.248 NA
ATOM     39  C   UNL A   1      41.453  24.984  28.058  1.00  0.00     0.031 C 
ATOM     40  C   UNL A   1      46.080  23.953  26.362  1.00  0.00     0.029 A 
ATOM     41  N   UNL A   1      45.672  26.045  27.033  1.00  0.00    -0.354 N 
ATOM     42  C   UNL A   1      41.714  27.238  28.315  1.00  0.00     0.074 A 
ATOM     43  C   UNL A   1      40.808  26.111  28.316  1.00  0.00     0.031 C 
ATOM     44  C   UNL A   1      47.214  24.653  26.204  1.00  0.00     0.029 A 
ATOM     45  C   UNL A   1      46.977  26.037  26.604  1.00  0.00     0.049 A 
ATOM     46  H   UNL A   1      45.227  26.848  27.388  1.00  0.00     0.167 HD
ATOM     47  C   UNL A   1      41.371  28.494  28.688  1.00  0.00     0.037 A 
ATOM     48  C   UNL A   1      47.878  27.035  26.527  1.00  0.00     0.037 A 
ATOM     49  C   UNL A   1      42.290  29.600  28.734  1.00  0.00     0.049 A 
ATOM     50  C   UNL A   1      47.477  28.417  26.969  1.00  0.00     0.074 A 
ATOM     51  C   UNL A   1      42.062  30.893  29.169  1.00  0.00     0.029 A 
ATOM     52  N   UNL A   1      43.617  29.540  28.334  1.00  0.00    -0.354 N 
ATOM     53  N   UNL A   1      46.321  28.839  27.422  1.00  0.00    -0.248 NA
ATOM     54  C   UNL A   1      48.508  29.461  26.894  1.00  0.00     0.031 C 
ATOM     55  C   UNL A   1      43.238  31.628  28.993  1.00  0.00     0.029 A 
ATOM     56  C   UNL A   1      44.215  30.779  28.497  1.00  0.00     0.049 A 
ATOM     57  H   UNL A   1      44.066  28.737  27.986  1.00  0.00     0.167 HD
ATOM     58  C   UNL A   1      46.493  30.185  27.713  1.00  0.00     0.074 A 
ATOM     59  C   UNL A   1      47.870  30.507  27.402  1.00  0.00     0.031 C 
ATOM     60  C   UNL A   1      45.592  31.075  28.195  1.00  0.00     0.037 A 
BRANCH  47  61
ATOM     61  C   UNL A   1      39.943  28.736  29.091  1.00  0.00     0.064 A 
ATOM     62  C   UNL A   1      38.969  29.122  28.159  1.00  0.00     0.173 A 
ATOM     63  C   UNL A   1      39.537  28.547  30.421  1.00  0.00     0.173 A 
ATOM     64  F   UNL A   1      39.306  29.328  26.877  1.00  0.00    -0.203 F 
ATOM     65  C   UNL A   1      37.649  29.339  28.547  1.00  0.00     0.198 A 
ATOM     66  C   UNL A   1      38.210  28.731  30.799  1.00  0.00     0.198 A 
ATOM     67  F   UNL A   1      40.425  28.173  31.354  1.00  0.00    -0.203 F 
ATOM     68  F   UNL A   1      36.749  29.760  27.647  1.00  0.00    -0.200 F 
ATOM     69  C   UNL A   1      37.268  29.135  29.864  1.00  0.00     0.200 A 
ATOM     70  F   UNL A   1      37.841  28.521  32.071  1.00  0.00    -0.200 F 
ATOM     71  F   UNL A   1      35.997  29.336  30.235  1.00  0.00    -0.200 F 
ENDBRANCH  47  61
BRANCH  48  72
ATOM     72  C   UNL A   1      49.256  26.763  26.037  1.00  0.00     0.064 A 
ATOM     73  C   UNL A   1      49.598  26.991  24.696  1.00  0.00     0.173 A 
ATOM     74  C   UNL A   1      50.252  26.262  26.887  1.00  0.00     0.173 A 
ATOM     75  F   UNL A   1      48.675  27.450  23.839  1.00  0.00    -0.203 F 
ATOM     76  C   UNL A   1      50.876  26.704  24.219  1.00  0.00     0.198 A 
ATOM     77  C   UNL A   1      51.539  26.006  26.416  1.00  0.00     0.198 A 
ATOM     78  F   UNL A   1      49.980  26.033  28.179  1.00  0.00    -0.203 F 
ATOM     79  F   UNL A   1      51.160  26.883  22.922  1.00  0.00    -0.200 F 
ATOM     80  C   UNL A   1      51.846  26.217  25.081  1.00  0.00     0.200 A 
ATOM     81  F   UNL A   1      52.478  25.550  27.256  1.00  0.00    -0.200 F 
ATOM     82  F   UNL A   1      53.076  25.944  24.623  1.00  0.00    -0.200 F 
ENDBRANCH  48  72
BRANCH  60  83
ATOM     83  C   UNL A   1      46.076  32.472  28.456  1.00  0.00     0.064 A 
ATOM     84  C   UNL A   1      46.624  32.843  29.692  1.00  0.00     0.173 A 
ATOM     85  C   UNL A   1      46.030  33.438  27.439  1.00  0.00     0.173 A 
ATOM     86  F   UNL A   1      46.676  31.960  30.700  1.00  0.00    -0.203 F 
ATOM     87  C   UNL A   1      47.084  34.140  29.909  1.00  0.00     0.198 A 
ATOM     88  C   UNL A   1      46.520  34.723  27.650  1.00  0.00     0.198 A 
ATOM     89  F   UNL A   1      45.523  33.130  26.236  1.00  0.00    -0.203 F 
ATOM     90  F   UNL A   1      47.558  34.487  31.113  1.00  0.00    -0.200 F 
ATOM     91  C   UNL A   1      47.039  35.075  28.886  1.00  0.00     0.200 A 
ATOM     92  F   UNL A   1      46.490  35.621  26.655  1.00  0.00    -0.200 F 
ATOM     93  F   UNL A   1      47.491  36.319  29.094  1.00  0.00    -0.200 F 
ENDBRANCH  60  83
ENDBRANCH  34  35
ENDBRANCH  26  29
ENDBRANCH  24  25
ENDBRANCH   1  24
TORSDOF 13
ENDMDL
MODEL 3
REMARK VINA RESULT:     -12.7      5.734     11.249
REMARK SMILES CO[C@@H]1C[C@H](C(=O)NCCCNC(=O)c2ccc(-c3c4nc(c(-c5c(F)c(F)c(F)c(F)c5F)c5ccc([nH]5)c(-c5c(F)c(F)c(F)c(F)c5F)c5nc(c(-c6c(F)c(F)c(F)c(F)c6F)c6ccc3[nH]6)C=C5)C=C4)cc2)N(C(=O)c2ccn(C)c(=O)c2)C1
REMARK SMILES IDX 10 1 9 2 8 3 6 4 7 5 5 7 3 8 4 9 89 10 78 11 2 12 1 13 79 14
REMARK SMILES IDX 80 15 81 16 82 17 88 18 83 19 86 20 84 21 87 22 85 23 11 24
REMARK SMILES IDX 12 25 13 26 14 28 15 29 16 30 77 31 17 32 76 33 18 34 19 35
REMARK SMILES IDX 20 36 70 37 21 38 75 39 69 40 71 41 22 42 74 43 68 44 67 45
REMARK SMILES IDX 23 47 55 48 35 49 54 50 36 51 39 52 53 53 72 54 37 55 38 56
REMARK SMILES IDX 52 58 73 59 40 60 24 61 25 62 33 63 26 64 27 65 31 66 34 67
REMARK SMILES IDX 28 68 29 69 32 70 30 71 56 72 57 73 65 74 58 75 59 76 63 77
REMARK SMILES IDX 66 78 60 79 61 80 64 81 62 82 41 83 42 84 50 85 43 86 44 87
REMARK SMILES IDX 48 88 51 89 45 90 46 91 49 92 47 93
REMARK H PARENT 8 6 12 27 71 46 39 57
REMARK Flexibility Score: inf
ROOT
ATOM      1  C   UNL A   1      38.106  20.273  25.000  1.00  0.00     0.042 C 
ENDROOT
BRANCH   1   2
ATOM      2  C   UNL A   1      37.383  21.614  24.902  1.00  0.00     0.117 C 
BRANCH   2   3
ATOM      3  N   UNL A   1      36.523  21.871  26.035  1.00  0.00    -0.354 N 
ATOM      4  C   UNL A   1      35.174  21.890  26.155  1.00  0.00     0.242 C 
ATOM      5  O   UNL A   1      34.744  21.812  27.314  1.00  0.00    -0.273 OA
ATOM      6  H   UNL A   1      37.006  22.068  26.871  1.00  0.00     0.163 HD
BRANCH   4   7
ATOM      7  C   UNL A   1      34.170  21.954  24.978  1.00  0.00     0.177 C 
ATOM      8  C   UNL A   1      32.365  20.392  24.377  1.00  0.00     0.139 C 
ATOM      9  C   UNL A   1      33.878  20.630  24.252  1.00  0.00     0.069 C 
ATOM     10  C   UNL A   1      31.797  21.779  24.648  1.00  0.00     0.152 C 
ATOM     11  N   UNL A   1      32.864  22.567  25.233  1.00  0.00    -0.324 N 
BRANCH   8  12
ATOM     12  O   UNL A   1      32.153  19.405  25.380  1.00  0.00    -0.380 OA
ATOM     13  C   UNL A   1      32.675  18.109  25.130  1.00  0.00     0.195 C 
ENDBRANCH   8  12
BRANCH  11  14
ATOM     14  C   UNL A   1      32.548  23.862  25.587  1.00  0.00     0.254 C 
ATOM     15  O   UNL A   1      31.766  24.100  26.511  1.00  0.00    -0.269 OA
BRANCH  14  16
ATOM     16  C   UNL A   1      33.117  25.015  24.841  1.00  0.00     0.046 A 
ATOM     17  C   UNL A   1      33.329  26.270  25.529  1.00  0.00     0.032 A 
ATOM     18  C   UNL A   1      33.176  24.965  23.502  1.00  0.00     0.085 A 
ATOM     19  C   UNL A   1      33.613  27.377  24.834  1.00  0.00     0.089 A 
ATOM     20  C   UNL A   1      33.555  26.172  22.724  1.00  0.00     0.251 A 
ATOM     21  N   UNL A   1      33.732  27.344  23.456  1.00  0.00    -0.319 N 
ATOM     22  O   UNL A   1      33.647  26.082  21.502  1.00  0.00    -0.269 OA
ATOM     23  C   UNL A   1      34.025  28.584  22.755  1.00  0.00     0.153 C 
ENDBRANCH  14  16
ENDBRANCH  11  14
ENDBRANCH   4   7
ENDBRANCH   2   3
ENDBRANCH   1   2
BRANCH   1  24
ATOM     24  C   UNL A   1      39.131  20.207  26.126  1.00  0.00     0.118 C 
BRANCH  24  25
ATOM     25  N   UNL A   1      40.162  19.194  25.950  1.00  0.00    -0.352 N 
ATOM     26  C   UNL A   1      41.535  19.271  26.042  1.00  0.00     0.251 C 
ATOM     27  H   UNL A   1      39.819  18.298  25.726  1.00  0.00     0.163 HD
ATOM     28  O   UNL A   1      42.204  18.277  25.805  1.00  0.00    -0.269 OA
BRANCH  26  29
ATOM     29  C   UNL A   1      42.211  20.552  26.374  1.00  0.00     0.039 A 
ATOM     30  C   UNL A   1      42.677  21.351  25.323  1.00  0.00     0.014 A 
ATOM     31  C   UNL A   1      42.386  20.981  27.688  1.00  0.00     0.014 A 
ATOM     32  C   UNL A   1      43.223  22.611  25.588  1.00  0.00     0.010 A 
ATOM     33  C   UNL A   1      42.818  22.277  27.945  1.00  0.00     0.010 A 
ATOM     34  C   UNL A   1      43.244  23.110  26.899  1.00  0.00    -0.014 A 
BRANCH  34  35
ATOM     35  C   UNL A   1      43.703  24.489  27.213  1.00  0.00     0.031 A 
ATOM     36  C   UNL A   1      42.719  25.514  27.711  1.00  0.00     0.074 A 
ATOM     37  C   UNL A   1      44.977  24.849  26.952  1.00  0.00     0.049 A 
ATOM     38  N   UNL A   1      42.879  26.801  27.892  1.00  0.00    -0.248 NA
ATOM     39  C   UNL A   1      41.357  25.036  28.001  1.00  0.00     0.031 C 
ATOM     40  C   UNL A   1      46.013  23.968  26.412  1.00  0.00     0.029 A 
ATOM     41  N   UNL A   1      45.611  26.059  27.087  1.00  0.00    -0.354 N 
ATOM     42  C   UNL A   1      41.636  27.285  28.281  1.00  0.00     0.074 A 
ATOM     43  C   UNL A   1      40.719  26.168  28.251  1.00  0.00     0.031 C 
ATOM     44  C   UNL A   1      47.158  24.657  26.286  1.00  0.00     0.029 A 
ATOM     45  C   UNL A   1      46.927  26.040  26.690  1.00  0.00     0.049 A 
ATOM     46  H   UNL A   1      45.166  26.865  27.437  1.00  0.00     0.167 HD
ATOM     47  C   UNL A   1      41.297  28.542  28.654  1.00  0.00     0.037 A 
ATOM     48  C   UNL A   1      47.839  27.030  26.643  1.00  0.00     0.037 A 
ATOM     49  C   UNL A   1      42.225  29.638  28.731  1.00  0.00     0.049 A 
ATOM     50  C   UNL A   1      47.441  28.412  27.085  1.00  0.00     0.074 A 
ATOM     51  C   UNL A   1      42.000  30.931  29.170  1.00  0.00     0.029 A 
ATOM     52  N   UNL A   1      43.561  29.567  28.363  1.00  0.00    -0.354 N 
ATOM     53  N   UNL A   1      46.279  28.844  27.512  1.00  0.00    -0.248 NA
ATOM     54  C   UNL A   1      48.485  29.446  27.042  1.00  0.00     0.031 C 
ATOM     55  C   UNL A   1      43.188  31.654  29.028  1.00  0.00     0.029 A 
ATOM     56  C   UNL A   1      44.168  30.798  28.550  1.00  0.00     0.049 A 
ATOM     57  H   UNL A   1      44.011  28.761  28.020  1.00  0.00     0.167 HD
ATOM     58  C   UNL A   1      46.458  30.185  27.817  1.00  0.00     0.074 A 
ATOM     59  C   UNL A   1      47.846  30.495  27.542  1.00  0.00     0.031 C 
ATOM     60  C   UNL A   1      45.555  31.082  28.283  1.00  0.00     0.037 A 
BRANCH  47  61
ATOM     61  C   UNL A   1      39.862  28.797  29.024  1.00  0.00     0.064 A 
ATOM     62  C   UNL A   1      39.401  28.643  30.340  1.00  0.00     0.173 A 
ATOM     63  C   UNL A   1      38.944  29.234  28.057  1.00  0.00     0.173 A 
ATOM     64  F   UNL A   1      40.234  28.217  31.302  1.00  0.00    -0.203 F 
ATOM     65  C   UNL A   1      38.070  28.887  30.669  1.00  0.00     0.198 A 
ATOM     66  C   UNL A   1      37.622  29.509  28.395  1.00  0.00     0.198 A 
ATOM     67  F   UNL A   1      39.331  29.402  26.784  1.00  0.00    -0.203 F 
ATOM     68  F   UNL A   1      37.642  28.680  31.922  1.00  0.00    -0.200 F 
ATOM     69  C   UNL A   1      37.183  29.327  29.698  1.00  0.00     0.200 A 
ATOM     70  F   UNL A   1      36.769  29.948  27.458  1.00  0.00    -0.200 F 
ATOM     71  F   UNL A   1      35.905  29.569  30.016  1.00  0.00    -0.200 F 
ENDBRANCH  47  61
BRANCH  48  72
ATOM     72  C   UNL A   1      49.226  26.746  26.184  1.00  0.00     0.064 A 
ATOM     73  C   UNL A   1      50.191  26.259  27.077  1.00  0.00     0.173 A 
ATOM     74  C   UNL A   1      49.619  26.965  24.856  1.00  0.00     0.173 A 
ATOM     75  F   UNL A   1      49.869  26.053  28.363  1.00  0.00    -0.203 F 
ATOM     76  C   UNL A   1      51.502  26.026  26.665  1.00  0.00     0.198 A 
ATOM     77  C   UNL A   1      50.922  26.702  24.438  1.00  0.00     0.198 A 
ATOM     78  F   UNL A   1      48.734  27.424  23.960  1.00  0.00    -0.203 F 
ATOM     79  F   UNL A   1      52.416  25.609  27.552  1.00  0.00    -0.200 F 
ATOM     80  C   UNL A   1      51.865  26.242  25.346  1.00  0.00     0.200 A 
ATOM     81  F   UNL A   1      51.265  26.897  23.157  1.00  0.00    -0.200 F 
ATOM     82  F   UNL A   1      53.124  26.015  24.950  1.00  0.00    -0.200 F 
ENDBRANCH  48  72
BRANCH  60  83
ATOM     83  C   UNL A   1      46.047  32.471  28.566  1.00  0.00     0.064 A 
ATOM     84  C   UNL A   1      45.994  33.484  27.598  1.00  0.00     0.173 A 
ATOM     85  C   UNL A   1      46.538  32.802  29.839  1.00  0.00     0.173 A 
ATOM     86  F   UNL A   1      45.548  33.214  26.363  1.00  0.00    -0.203 F 
ATOM     87  C   UNL A   1      46.441  34.771  27.886  1.00  0.00     0.198 A 
ATOM     88  C   UNL A   1      46.953  34.097  30.133  1.00  0.00     0.198 A 
ATOM     89  F   UNL A   1      46.601  31.871  30.803  1.00  0.00    -0.203 F 
ATOM     90  F   UNL A   1      46.428  35.711  26.931  1.00  0.00    -0.200 F 
ATOM     91  C   UNL A   1      46.911  35.078  29.154  1.00  0.00     0.200 A 
ATOM     92  F   UNL A   1      47.393  34.395  31.363  1.00  0.00    -0.200 F 
ATOM     93  F   UNL A   1      47.331  36.320  29.431  1.00  0.00    -0.200 F 
ENDBRANCH  60  83
ENDBRANCH  34  35
ENDBRANCH  26  29
ENDBRANCH  24  25
ENDBRANCH   1  24
TORSDOF 13
ENDMDL
