MODEL 1
REMARK VINA RESULT:     -11.7      0.000      0.000
REMARK SMILES CC(C)Cc1noc(C[NH+]2CCC(CC(=O)NCCCNC(=O)c3ccc(-c4c5nc(c(-c6c(F)c(F)c(F)c(F)c6F)c6ccc([nH]6)c(-c6c(F)c(F)c(F)c(F)c6F)c6nc(c(-c7c(F)c(F)c(F)c(F)c7F)c7ccc4[nH]7)C=C6)C=C5)cc3)CC2)n1
REMARK SMILES IDX 15 1 16 2 17 3 14 5 13 6 10 7 11 8 88 9 12 11 87 12 9 13
REMARK SMILES IDX 8 14 5 15 6 16 89 17 7 18 4 19 2 20 1 21 3 22 18 23 19 24
REMARK SMILES IDX 20 25 21 26 22 27 23 29 24 30 25 31 86 32 26 33 85 34 27 35
REMARK SMILES IDX 28 36 29 37 79 38 30 39 84 40 78 41 80 42 31 43 83 44 77 45
REMARK SMILES IDX 76 46 32 48 64 49 44 50 63 51 45 52 48 53 62 54 81 55 46 56
REMARK SMILES IDX 47 57 61 59 82 60 49 61 33 62 34 63 42 64 35 65 36 66 40 67
REMARK SMILES IDX 43 68 37 69 38 70 41 71 39 72 65 73 66 74 74 75 67 76 68 77
REMARK SMILES IDX 72 78 75 79 69 80 70 81 73 82 71 83 50 84 51 85 59 86 52 87
REMARK SMILES IDX 53 88 57 89 60 90 54 91 55 92 58 93 56 94
REMARK H PARENT 17 4 10 10 21 28 80 47 48 58
REMARK Flexibility Score: inf
ROOT
ATOM      1  C   UNL A   1      37.240  23.301  25.822  1.00  0.00     0.220 C 
ATOM      2  O   UNL A   1      37.905  24.191  26.358  1.00  0.00    -0.275 OA
ATOM      3  N   UNL A   1      37.913  22.274  25.228  1.00  0.00    -0.356 N 
ATOM      4  H   UNL A   1      38.893  22.360  25.263  1.00  0.00     0.163 HD
ENDROOT
BRANCH   1   5
ATOM      5  C   UNL A   1      35.722  23.378  25.797  1.00  0.00     0.104 C 
BRANCH   5   6
ATOM      6  C   UNL A   1      35.194  24.104  24.545  1.00  0.00     0.009 C 
ATOM      7  N   UNL A   1      32.783  24.938  23.084  1.00  0.00    -0.327 N 
ATOM      8  C   UNL A   1      33.586  23.822  22.578  1.00  0.00     0.262 C 
ATOM      9  C   UNL A   1      33.645  25.950  23.704  1.00  0.00     0.262 C 
ATOM     10  H   UNL A   1      32.161  24.588  23.814  1.00  0.00     0.348 HD
ATOM     11  C   UNL A   1      34.350  23.152  23.703  1.00  0.00     0.066 C 
ATOM     12  C   UNL A   1      34.373  25.349  24.917  1.00  0.00     0.066 C 
BRANCH   7  13
ATOM     13  C   UNL A   1      31.890  25.493  22.037  1.00  0.00     0.364 C 
BRANCH  13  14
ATOM     14  C   UNL A   1      30.925  26.537  22.493  1.00  0.00     0.281 A 
ATOM     15  C   UNL A   1      29.996  28.319  23.068  1.00  0.00     0.172 A 
ATOM     16  N   UNL A   1      29.476  27.416  23.912  1.00  0.00    -0.062 NA
ATOM     17  N   UNL A   1      30.868  27.805  22.144  1.00  0.00    -0.191 NA
ATOM     18  O   UNL A   1      30.097  26.222  23.531  1.00  0.00    -0.333 OA
BRANCH  15  19
ATOM     19  C   UNL A   1      29.667  29.768  23.130  1.00  0.00     0.084 C 
BRANCH  19  20
ATOM     20  C   UNL A   1      28.217  30.104  22.723  1.00  0.00    -0.010 C 
ATOM     21  C   UNL A   1      27.593  31.198  23.598  1.00  0.00     0.008 C 
ATOM     22  C   UNL A   1      28.183  30.552  21.259  1.00  0.00     0.008 C 
ENDBRANCH  19  20
ENDBRANCH  15  19
ENDBRANCH  13  14
ENDBRANCH   7  13
ENDBRANCH   5   6
ENDBRANCH   1   5
BRANCH   3  23
ATOM     23  C   UNL A   1      37.441  21.071  24.551  1.00  0.00     0.117 C 
BRANCH  23  24
ATOM     24  C   UNL A   1      38.213  19.808  24.948  1.00  0.00     0.042 C 
BRANCH  24  25
ATOM     25  C   UNL A   1      39.176  19.989  26.117  1.00  0.00     0.118 C 
BRANCH  25  26
ATOM     26  N   UNL A   1      40.365  19.170  25.959  1.00  0.00    -0.352 N 
ATOM     27  C   UNL A   1      41.692  19.527  25.945  1.00  0.00     0.251 C 
ATOM     28  H   UNL A   1      40.193  18.206  25.845  1.00  0.00     0.163 HD
ATOM     29  O   UNL A   1      42.522  18.723  25.528  1.00  0.00    -0.269 OA
BRANCH  27  30
ATOM     30  C   UNL A   1      42.149  20.860  26.413  1.00  0.00     0.039 A 
ATOM     31  C   UNL A   1      42.201  21.104  27.791  1.00  0.00     0.014 A 
ATOM     32  C   UNL A   1      42.432  21.900  25.523  1.00  0.00     0.014 A 
ATOM     33  C   UNL A   1      42.575  22.364  28.273  1.00  0.00     0.010 A 
ATOM     34  C   UNL A   1      42.865  23.139  26.003  1.00  0.00     0.010 A 
ATOM     35  C   UNL A   1      42.930  23.389  27.382  1.00  0.00    -0.014 A 
BRANCH  35  36
ATOM     36  C   UNL A   1      43.346  24.731  27.868  1.00  0.00     0.031 A 
ATOM     37  C   UNL A   1      42.311  25.774  28.196  1.00  0.00     0.074 A 
ATOM     38  C   UNL A   1      44.654  25.040  27.961  1.00  0.00     0.049 A 
ATOM     39  N   UNL A   1      42.474  27.032  28.523  1.00  0.00    -0.248 NA
ATOM     40  C   UNL A   1      40.904  25.351  28.123  1.00  0.00     0.031 C 
ATOM     41  C   UNL A   1      45.759  24.133  27.655  1.00  0.00     0.029 A 
ATOM     42  N   UNL A   1      45.275  26.211  28.323  1.00  0.00    -0.354 N 
ATOM     43  C   UNL A   1      41.195  27.555  28.671  1.00  0.00     0.074 A 
ATOM     44  C   UNL A   1      40.266  26.487  28.366  1.00  0.00     0.031 C 
ATOM     45  C   UNL A   1      46.922  24.776  27.851  1.00  0.00     0.029 A 
ATOM     46  C   UNL A   1      46.645  26.151  28.256  1.00  0.00     0.049 A 
ATOM     47  H   UNL A   1      44.783  27.016  28.603  1.00  0.00     0.167 HD
ATOM     48  C   UNL A   1      40.829  28.805  29.042  1.00  0.00     0.037 A 
ATOM     49  C   UNL A   1      47.573  27.101  28.476  1.00  0.00     0.037 A 
ATOM     50  C   UNL A   1      41.749  29.857  29.386  1.00  0.00     0.049 A 
ATOM     51  C   UNL A   1      47.141  28.486  28.873  1.00  0.00     0.074 A 
ATOM     52  C   UNL A   1      41.470  31.130  29.852  1.00  0.00     0.029 A 
ATOM     53  N   UNL A   1      43.129  29.756  29.301  1.00  0.00    -0.354 N 
ATOM     54  N   UNL A   1      45.930  28.953  29.055  1.00  0.00    -0.248 NA
ATOM     55  C   UNL A   1      48.205  29.479  29.086  1.00  0.00     0.031 C 
ATOM     56  C   UNL A   1      42.680  31.814  30.011  1.00  0.00     0.029 A 
ATOM     57  C   UNL A   1      43.714  30.955  29.678  1.00  0.00     0.049 A 
ATOM     58  H   UNL A   1      43.622  28.952  29.015  1.00  0.00     0.167 HD
ATOM     59  C   UNL A   1      46.085  30.285  29.414  1.00  0.00     0.074 A 
ATOM     60  C   UNL A   1      47.508  30.550  29.442  1.00  0.00     0.031 C 
ATOM     61  C   UNL A   1      45.131  31.208  29.692  1.00  0.00     0.037 A 
BRANCH  48  62
ATOM     62  C   UNL A   1      39.362  29.111  29.097  1.00  0.00     0.064 A 
ATOM     63  C   UNL A   1      38.653  29.101  30.307  1.00  0.00     0.173 A 
ATOM     64  C   UNL A   1      38.666  29.468  27.930  1.00  0.00     0.173 A 
ATOM     65  F   UNL A   1      39.271  28.759  31.447  1.00  0.00    -0.203 F 
ATOM     66  C   UNL A   1      37.295  29.410  30.344  1.00  0.00     0.198 A 
ATOM     67  C   UNL A   1      37.316  29.800  27.976  1.00  0.00     0.198 A 
ATOM     68  F   UNL A   1      39.300  29.501  26.749  1.00  0.00    -0.203 F 
ATOM     69  F   UNL A   1      36.629  29.355  31.505  1.00  0.00    -0.200 F 
ATOM     70  C   UNL A   1      36.630  29.765  29.181  1.00  0.00     0.200 A 
ATOM     71  F   UNL A   1      36.676  30.156  26.853  1.00  0.00    -0.200 F 
ATOM     72  F   UNL A   1      35.326  30.069  29.220  1.00  0.00    -0.200 F 
ENDBRANCH  48  62
BRANCH  49  73
ATOM     73  C   UNL A   1      49.013  26.772  28.329  1.00  0.00     0.064 A 
ATOM     74  C   UNL A   1      49.642  26.851  27.078  1.00  0.00     0.173 A 
ATOM     75  C   UNL A   1      49.787  26.375  29.429  1.00  0.00     0.173 A 
ATOM     76  F   UNL A   1      48.934  27.201  25.995  1.00  0.00    -0.203 F 
ATOM     77  C   UNL A   1      50.990  26.535  26.931  1.00  0.00     0.198 A 
ATOM     78  C   UNL A   1      51.141  26.082  29.284  1.00  0.00     0.198 A 
ATOM     79  F   UNL A   1      49.229  26.282  30.645  1.00  0.00    -0.203 F 
ATOM     80  F   UNL A   1      51.559  26.583  25.720  1.00  0.00    -0.200 F 
ATOM     81  C   UNL A   1      51.740  26.158  28.035  1.00  0.00     0.200 A 
ATOM     82  F   UNL A   1      51.864  25.724  30.355  1.00  0.00    -0.200 F 
ATOM     83  F   UNL A   1      53.039  25.857  27.894  1.00  0.00    -0.200 F 
ENDBRANCH  49  73
BRANCH  61  84
ATOM     84  C   UNL A   1      45.592  32.588  30.052  1.00  0.00     0.064 A 
ATOM     85  C   UNL A   1      45.736  33.585  29.076  1.00  0.00     0.173 A 
ATOM     86  C   UNL A   1      45.842  32.933  31.388  1.00  0.00     0.173 A 
ATOM     87  F   UNL A   1      45.524  33.297  27.782  1.00  0.00    -0.203 F 
ATOM     88  C   UNL A   1      46.126  34.875  29.424  1.00  0.00     0.198 A 
ATOM     89  C   UNL A   1      46.210  34.230  31.736  1.00  0.00     0.198 A 
ATOM     90  F   UNL A   1      45.715  32.015  32.359  1.00  0.00    -0.203 F 
ATOM     91  F   UNL A   1      46.289  35.803  28.472  1.00  0.00    -0.200 F 
ATOM     92  C   UNL A   1      46.355  35.198  30.753  1.00  0.00     0.200 A 
ATOM     93  F   UNL A   1      46.423  34.543  33.021  1.00  0.00    -0.200 F 
ATOM     94  F   UNL A   1      46.722  36.442  31.087  1.00  0.00    -0.200 F 
ENDBRANCH  61  84
ENDBRANCH  35  36
ENDBRANCH  27  30
ENDBRANCH  25  26
ENDBRANCH  24  25
ENDBRANCH  23  24
ENDBRANCH   3  23
TORSDOF 15
ENDMDL
MODEL 2
REMARK VINA RESULT:     -11.7      5.203     10.629
REMARK SMILES CC(C)Cc1noc(C[NH+]2CCC(CC(=O)NCCCNC(=O)c3ccc(-c4c5nc(c(-c6c(F)c(F)c(F)c(F)c6F)c6ccc([nH]6)c(-c6c(F)c(F)c(F)c(F)c6F)c6nc(c(-c7c(F)c(F)c(F)c(F)c7F)c7ccc4[nH]7)C=C6)C=C5)cc3)CC2)n1
REMARK SMILES IDX 15 1 16 2 17 3 14 5 13 6 10 7 11 8 88 9 12 11 87 12 9 13
REMARK SMILES IDX 8 14 5 15 6 16 89 17 7 18 4 19 2 20 1 21 3 22 18 23 19 24
REMARK SMILES IDX 20 25 21 26 22 27 23 29 24 30 25 31 86 32 26 33 85 34 27 35
REMARK SMILES IDX 28 36 29 37 79 38 30 39 84 40 78 41 80 42 31 43 83 44 77 45
REMARK SMILES IDX 76 46 32 48 64 49 44 50 63 51 45 52 48 53 62 54 81 55 46 56
REMARK SMILES IDX 47 57 61 59 82 60 49 61 33 62 34 63 42 64 35 65 36 66 40 67
REMARK SMILES IDX 43 68 37 69 38 70 41 71 39 72 65 73 66 74 74 75 67 76 68 77
REMARK SMILES IDX 72 78 75 79 69 80 70 81 73 82 71 83 50 84 51 85 59 86 52 87
REMARK SMILES IDX 53 88 57 89 60 90 54 91 55 92 58 93 56 94
REMARK H PARENT 17 4 10 10 21 28 80 47 48 58
REMARK Flexibility Score: inf
ROOT
ATOM      1  C   UNL A   1      30.477  29.275  23.359  1.00  0.00     0.220 C 
ATOM      2  O   UNL A   1      29.631  29.396  22.470  1.00  0.00    -0.275 OA
ATOM      3  N   UNL A   1      30.563  30.266  24.293  1.00  0.00    -0.356 N 
ATOM      4  H   UNL A   1      29.941  31.015  24.146  1.00  0.00     0.163 HD
ENDROOT
BRANCH   1   5
ATOM      5  C   UNL A   1      31.413  28.079  23.380  1.00  0.00     0.104 C 
BRANCH   5   6
ATOM      6  C   UNL A   1      30.748  26.824  23.975  1.00  0.00     0.009 C 
ATOM      7  N   UNL A   1      31.227  24.166  25.135  1.00  0.00    -0.327 N 
ATOM      8  C   UNL A   1      30.701  24.277  23.772  1.00  0.00     0.262 C 
ATOM      9  C   UNL A   1      30.697  25.243  25.978  1.00  0.00     0.262 C 
ATOM     10  H   UNL A   1      32.240  24.282  25.104  1.00  0.00     0.348 HD
ATOM     11  C   UNL A   1      31.103  25.596  23.143  1.00  0.00     0.066 C 
ATOM     12  C   UNL A   1      31.158  26.607  25.440  1.00  0.00     0.066 C 
BRANCH   7  13
ATOM     13  C   UNL A   1      31.001  22.814  25.704  1.00  0.00     0.364 C 
BRANCH  13  14
ATOM     14  C   UNL A   1      31.948  21.752  25.249  1.00  0.00     0.281 A 
ATOM     15  C   UNL A   1      33.013  19.975  24.977  1.00  0.00     0.172 A 
ATOM     16  N   UNL A   1      33.958  20.919  24.864  1.00  0.00    -0.062 NA
ATOM     17  N   UNL A   1      31.745  20.454  25.175  1.00  0.00    -0.191 NA
ATOM     18  O   UNL A   1      33.249  22.110  25.047  1.00  0.00    -0.333 OA
BRANCH  15  19
ATOM     19  C   UNL A   1      33.310  18.519  24.908  1.00  0.00     0.084 C 
BRANCH  19  20
ATOM     20  C   UNL A   1      33.619  18.006  23.485  1.00  0.00    -0.010 C 
ATOM     21  C   UNL A   1      34.119  16.557  23.473  1.00  0.00     0.008 C 
ATOM     22  C   UNL A   1      32.362  18.110  22.616  1.00  0.00     0.008 C 
ENDBRANCH  19  20
ENDBRANCH  15  19
ENDBRANCH  13  14
ENDBRANCH   7  13
ENDBRANCH   5   6
ENDBRANCH   1   5
BRANCH   3  23
ATOM     23  C   UNL A   1      31.411  30.415  25.471  1.00  0.00     0.117 C 
BRANCH  23  24
ATOM     24  C   UNL A   1      31.217  31.752  26.195  1.00  0.00     0.042 C 
BRANCH  24  25
ATOM     25  C   UNL A   1      32.417  32.212  27.017  1.00  0.00     0.118 C 
BRANCH  25  26
ATOM     26  N   UNL A   1      32.337  33.628  27.329  1.00  0.00    -0.352 N 
ATOM     27  C   UNL A   1      32.995  34.363  28.285  1.00  0.00     0.251 C 
ATOM     28  H   UNL A   1      31.715  34.143  26.764  1.00  0.00     0.163 HD
ATOM     29  O   UNL A   1      32.584  35.488  28.561  1.00  0.00    -0.269 OA
BRANCH  27  30
ATOM     30  C   UNL A   1      34.184  33.833  29.000  1.00  0.00     0.039 A 
ATOM     31  C   UNL A   1      35.443  34.359  28.688  1.00  0.00     0.014 A 
ATOM     32  C   UNL A   1      34.092  32.764  29.897  1.00  0.00     0.014 A 
ATOM     33  C   UNL A   1      36.595  33.849  29.299  1.00  0.00     0.010 A 
ATOM     34  C   UNL A   1      35.233  32.297  30.554  1.00  0.00     0.010 A 
ATOM     35  C   UNL A   1      36.498  32.826  30.255  1.00  0.00    -0.014 A 
BRANCH  35  36
ATOM     36  C   UNL A   1      37.704  32.279  30.931  1.00  0.00     0.031 A 
ATOM     37  C   UNL A   1      38.516  31.195  30.273  1.00  0.00     0.074 A 
ATOM     38  C   UNL A   1      38.040  32.708  32.162  1.00  0.00     0.049 A 
ATOM     39  N   UNL A   1      39.529  30.513  30.747  1.00  0.00    -0.248 NA
ATOM     40  C   UNL A   1      38.123  30.813  28.908  1.00  0.00     0.031 C 
ATOM     41  C   UNL A   1      37.329  33.735  32.922  1.00  0.00     0.029 A 
ATOM     42  N   UNL A   1      39.058  32.319  33.000  1.00  0.00    -0.354 N 
ATOM     43  C   UNL A   1      39.876  29.608  29.752  1.00  0.00     0.074 A 
ATOM     44  C   UNL A   1      38.947  29.805  28.660  1.00  0.00     0.031 C 
ATOM     45  C   UNL A   1      37.936  33.903  34.108  1.00  0.00     0.029 A 
ATOM     46  C   UNL A   1      39.054  32.968  34.209  1.00  0.00     0.049 A 
ATOM     47  H   UNL A   1      39.727  31.640  32.755  1.00  0.00     0.167 HD
ATOM     48  C   UNL A   1      40.887  28.705  29.742  1.00  0.00     0.037 A 
ATOM     49  C   UNL A   1      39.847  32.814  35.287  1.00  0.00     0.037 A 
ATOM     50  C   UNL A   1      41.839  28.535  30.808  1.00  0.00     0.049 A 
ATOM     51  C   UNL A   1      40.953  31.795  35.257  1.00  0.00     0.074 A 
ATOM     52  C   UNL A   1      42.945  27.704  30.853  1.00  0.00     0.029 A 
ATOM     53  N   UNL A   1      41.796  29.210  32.019  1.00  0.00    -0.354 N 
ATOM     54  N   UNL A   1      41.299  30.980  34.293  1.00  0.00    -0.248 NA
ATOM     55  C   UNL A   1      41.773  31.670  36.472  1.00  0.00     0.031 C 
ATOM     56  C   UNL A   1      43.550  27.845  32.107  1.00  0.00     0.029 A 
ATOM     57  C   UNL A   1      42.841  28.792  32.829  1.00  0.00     0.049 A 
ATOM     58  H   UNL A   1      41.125  29.886  32.267  1.00  0.00     0.167 HD
ATOM     59  C   UNL A   1      42.380  30.255  34.775  1.00  0.00     0.074 A 
ATOM     60  C   UNL A   1      42.646  30.738  36.114  1.00  0.00     0.031 C 
ATOM     61  C   UNL A   1      43.088  29.274  34.163  1.00  0.00     0.037 A 
BRANCH  48  62
ATOM     62  C   UNL A   1      41.021  27.825  28.535  1.00  0.00     0.064 A 
ATOM     63  C   UNL A   1      40.302  26.627  28.415  1.00  0.00     0.173 A 
ATOM     64  C   UNL A   1      41.843  28.210  27.464  1.00  0.00     0.173 A 
ATOM     65  F   UNL A   1      39.510  26.213  29.415  1.00  0.00    -0.203 F 
ATOM     66  C   UNL A   1      40.420  25.833  27.277  1.00  0.00     0.198 A 
ATOM     67  C   UNL A   1      41.939  27.425  26.318  1.00  0.00     0.198 A 
ATOM     68  F   UNL A   1      42.545  29.350  27.527  1.00  0.00    -0.203 F 
ATOM     69  F   UNL A   1      39.754  24.673  27.201  1.00  0.00    -0.200 F 
ATOM     70  C   UNL A   1      41.233  26.235  26.228  1.00  0.00     0.200 A 
ATOM     71  F   UNL A   1      42.715  27.821  25.299  1.00  0.00    -0.200 F 
ATOM     72  F   UNL A   1      41.340  25.472  25.132  1.00  0.00    -0.200 F 
ENDBRANCH  48  62
BRANCH  49  73
ATOM     73  C   UNL A   1      39.622  33.653  36.491  1.00  0.00     0.064 A 
ATOM     74  C   UNL A   1      40.207  34.922  36.600  1.00  0.00     0.173 A 
ATOM     75  C   UNL A   1      38.821  33.206  37.552  1.00  0.00     0.173 A 
ATOM     76  F   UNL A   1      41.002  35.378  35.621  1.00  0.00    -0.203 F 
ATOM     77  C   UNL A   1      40.007  35.711  37.730  1.00  0.00     0.198 A 
ATOM     78  C   UNL A   1      38.604  34.005  38.672  1.00  0.00     0.198 A 
ATOM     79  F   UNL A   1      38.243  31.998  37.495  1.00  0.00    -0.203 F 
ATOM     80  F   UNL A   1      40.607  36.904  37.826  1.00  0.00    -0.200 F 
ATOM     81  C   UNL A   1      39.200  35.255  38.762  1.00  0.00     0.200 A 
ATOM     82  F   UNL A   1      37.817  33.564  39.664  1.00  0.00    -0.200 F 
ATOM     83  F   UNL A   1      39.006  36.015  39.849  1.00  0.00    -0.200 F 
ENDBRANCH  49  73
BRANCH  61  84
ATOM     84  C   UNL A   1      44.216  28.657  34.932  1.00  0.00     0.064 A 
ATOM     85  C   UNL A   1      45.501  29.219  34.916  1.00  0.00     0.173 A 
ATOM     86  C   UNL A   1      44.002  27.525  35.732  1.00  0.00     0.173 A 
ATOM     87  F   UNL A   1      45.758  30.292  34.151  1.00  0.00    -0.203 F 
ATOM     88  C   UNL A   1      46.535  28.663  35.664  1.00  0.00     0.198 A 
ATOM     89  C   UNL A   1      45.033  26.984  36.497  1.00  0.00     0.198 A 
ATOM     90  F   UNL A   1      42.790  26.952  35.784  1.00  0.00    -0.203 F 
ATOM     91  F   UNL A   1      47.762  29.196  35.608  1.00  0.00    -0.200 F 
ATOM     92  C   UNL A   1      46.298  27.551  36.459  1.00  0.00     0.200 A 
ATOM     93  F   UNL A   1      44.801  25.916  37.273  1.00  0.00    -0.200 F 
ATOM     94  F   UNL A   1      47.292  27.022  37.186  1.00  0.00    -0.200 F 
ENDBRANCH  61  84
ENDBRANCH  35  36
ENDBRANCH  27  30
ENDBRANCH  25  26
ENDBRANCH  24  25
ENDBRANCH  23  24
ENDBRANCH   3  23
TORSDOF 15
ENDMDL
MODEL 3
REMARK VINA RESULT:     -11.5      5.477     10.857
REMARK SMILES CC(C)Cc1noc(C[NH+]2CCC(CC(=O)NCCCNC(=O)c3ccc(-c4c5nc(c(-c6c(F)c(F)c(F)c(F)c6F)c6ccc([nH]6)c(-c6c(F)c(F)c(F)c(F)c6F)c6nc(c(-c7c(F)c(F)c(F)c(F)c7F)c7ccc4[nH]7)C=C6)C=C5)cc3)CC2)n1
REMARK SMILES IDX 15 1 16 2 17 3 14 5 13 6 10 7 11 8 88 9 12 11 87 12 9 13
REMARK SMILES IDX 8 14 5 15 6 16 89 17 7 18 4 19 2 20 1 21 3 22 18 23 19 24
REMARK SMILES IDX 20 25 21 26 22 27 23 29 24 30 25 31 86 32 26 33 85 34 27 35
REMARK SMILES IDX 28 36 29 37 79 38 30 39 84 40 78 41 80 42 31 43 83 44 77 45
REMARK SMILES IDX 76 46 32 48 64 49 44 50 63 51 45 52 48 53 62 54 81 55 46 56
REMARK SMILES IDX 47 57 61 59 82 60 49 61 33 62 34 63 42 64 35 65 36 66 40 67
REMARK SMILES IDX 43 68 37 69 38 70 41 71 39 72 65 73 66 74 74 75 67 76 68 77
REMARK SMILES IDX 72 78 75 79 69 80 70 81 73 82 71 83 50 84 51 85 59 86 52 87
REMARK SMILES IDX 53 88 57 89 60 90 54 91 55 92 58 93 56 94
REMARK H PARENT 17 4 10 10 21 28 80 47 48 58
REMARK Flexibility Score: inf
ROOT
ATOM      1  C   UNL A   1      31.513  29.024  24.022  1.00  0.00     0.220 C 
ATOM      2  O   UNL A   1      32.028  28.991  22.902  1.00  0.00    -0.275 OA
ATOM      3  N   UNL A   1      31.852  30.057  24.847  1.00  0.00    -0.356 N 
ATOM      4  H   UNL A   1      32.514  30.678  24.465  1.00  0.00     0.163 HD
ENDROOT
BRANCH   1   5
ATOM      5  C   UNL A   1      30.567  27.924  24.472  1.00  0.00     0.104 C 
BRANCH   5   6
ATOM      6  C   UNL A   1      31.276  26.566  24.621  1.00  0.00     0.009 C 
ATOM      7  N   UNL A   1      31.431  24.091  26.201  1.00  0.00    -0.327 N 
ATOM      8  C   UNL A   1      32.487  25.099  26.329  1.00  0.00     0.262 C 
ATOM      9  C   UNL A   1      30.931  24.045  24.823  1.00  0.00     0.262 C 
ATOM     10  H   UNL A   1      30.646  24.364  26.794  1.00  0.00     0.348 HD
ATOM     11  C   UNL A   1      31.963  26.478  25.981  1.00  0.00     0.066 C 
ATOM     12  C   UNL A   1      30.298  25.394  24.448  1.00  0.00     0.066 C 
BRANCH   7  13
ATOM     13  C   UNL A   1      31.869  22.768  26.709  1.00  0.00     0.364 C 
BRANCH  13  14
ATOM     14  C   UNL A   1      32.410  21.825  25.684  1.00  0.00     0.281 A 
ATOM     15  C   UNL A   1      32.855  20.158  24.506  1.00  0.00     0.172 A 
ATOM     16  N   UNL A   1      34.036  20.782  24.611  1.00  0.00    -0.062 NA
ATOM     17  N   UNL A   1      31.811  20.796  25.123  1.00  0.00    -0.191 NA
ATOM     18  O   UNL A   1      33.743  21.898  25.401  1.00  0.00    -0.333 OA
BRANCH  15  19
ATOM     19  C   UNL A   1      32.682  18.867  23.787  1.00  0.00     0.084 C 
BRANCH  19  20
ATOM     20  C   UNL A   1      33.552  17.717  24.339  1.00  0.00    -0.010 C 
ATOM     21  C   UNL A   1      32.811  16.851  25.364  1.00  0.00     0.008 C 
ATOM     22  C   UNL A   1      34.027  16.831  23.183  1.00  0.00     0.008 C 
ENDBRANCH  19  20
ENDBRANCH  15  19
ENDBRANCH  13  14
ENDBRANCH   7  13
ENDBRANCH   5   6
ENDBRANCH   1   5
BRANCH   3  23
ATOM     23  C   UNL A   1      31.409  30.407  26.192  1.00  0.00     0.117 C 
BRANCH  23  24
ATOM     24  C   UNL A   1      31.405  31.916  26.458  1.00  0.00     0.042 C 
BRANCH  24  25
ATOM     25  C   UNL A   1      32.680  32.455  27.097  1.00  0.00     0.118 C 
BRANCH  25  26
ATOM     26  N   UNL A   1      32.521  33.835  27.522  1.00  0.00    -0.352 N 
ATOM     27  C   UNL A   1      33.081  34.506  28.582  1.00  0.00     0.251 C 
ATOM     28  H   UNL A   1      31.917  34.375  26.961  1.00  0.00     0.163 HD
ATOM     29  O   UNL A   1      32.606  35.587  28.922  1.00  0.00    -0.269 OA
BRANCH  27  30
ATOM     30  C   UNL A   1      34.240  33.958  29.331  1.00  0.00     0.039 A 
ATOM     31  C   UNL A   1      35.530  34.335  28.938  1.00  0.00     0.014 A 
ATOM     32  C   UNL A   1      34.084  33.008  30.345  1.00  0.00     0.014 A 
ATOM     33  C   UNL A   1      36.651  33.798  29.583  1.00  0.00     0.010 A 
ATOM     34  C   UNL A   1      35.199  32.521  31.031  1.00  0.00     0.010 A 
ATOM     35  C   UNL A   1      36.495  32.901  30.650  1.00  0.00    -0.014 A 
BRANCH  35  36
ATOM     36  C   UNL A   1      37.669  32.330  31.363  1.00  0.00     0.031 A 
ATOM     37  C   UNL A   1      38.428  31.174  30.769  1.00  0.00     0.074 A 
ATOM     38  C   UNL A   1      38.021  32.806  32.572  1.00  0.00     0.049 A 
ATOM     39  N   UNL A   1      39.403  30.467  31.286  1.00  0.00    -0.248 NA
ATOM     40  C   UNL A   1      38.021  30.740  29.424  1.00  0.00     0.031 C 
ATOM     41  C   UNL A   1      37.360  33.907  33.272  1.00  0.00     0.029 A 
ATOM     42  N   UNL A   1      39.015  32.412  33.436  1.00  0.00    -0.354 N 
ATOM     43  C   UNL A   1      39.708  29.494  30.342  1.00  0.00     0.074 A 
ATOM     44  C   UNL A   1      38.794  29.679  29.235  1.00  0.00     0.031 C 
ATOM     45  C   UNL A   1      37.970  34.107  34.451  1.00  0.00     0.029 A 
ATOM     46  C   UNL A   1      39.038  33.123  34.610  1.00  0.00     0.049 A 
ATOM     47  H   UNL A   1      39.649  31.688  33.232  1.00  0.00     0.167 HD
ATOM     48  C   UNL A   1      40.671  28.542  30.387  1.00  0.00     0.037 A 
ATOM     49  C   UNL A   1      39.818  32.987  35.700  1.00  0.00     0.037 A 
ATOM     50  C   UNL A   1      41.609  28.381  31.467  1.00  0.00     0.049 A 
ATOM     51  C   UNL A   1      40.871  31.914  35.731  1.00  0.00     0.074 A 
ATOM     52  C   UNL A   1      42.671  27.499  31.564  1.00  0.00     0.029 A 
ATOM     53  N   UNL A   1      41.595  29.121  32.640  1.00  0.00    -0.354 N 
ATOM     54  N   UNL A   1      41.179  31.032  34.814  1.00  0.00    -0.248 NA
ATOM     55  C   UNL A   1      41.678  31.812  36.956  1.00  0.00     0.031 C 
ATOM     56  C   UNL A   1      43.277  27.676  32.812  1.00  0.00     0.029 A 
ATOM     57  C   UNL A   1      42.614  28.694  33.479  1.00  0.00     0.049 A 
ATOM     58  H   UNL A   1      40.958  29.842  32.848  1.00  0.00     0.167 HD
ATOM     59  C   UNL A   1      42.220  30.280  35.341  1.00  0.00     0.074 A 
ATOM     60  C   UNL A   1      42.504  30.820  36.654  1.00  0.00     0.031 C 
ATOM     61  C   UNL A   1      42.879  29.233  34.787  1.00  0.00     0.037 A 
BRANCH  48  62
ATOM     62  C   UNL A   1      40.765  27.593  29.229  1.00  0.00     0.064 A 
ATOM     63  C   UNL A   1      41.763  27.721  28.253  1.00  0.00     0.173 A 
ATOM     64  C   UNL A   1      39.875  26.513  29.123  1.00  0.00     0.173 A 
ATOM     65  F   UNL A   1      42.633  28.741  28.306  1.00  0.00    -0.203 F 
ATOM     66  C   UNL A   1      41.851  26.818  27.196  1.00  0.00     0.198 A 
ATOM     67  C   UNL A   1      39.981  25.598  28.079  1.00  0.00     0.198 A 
ATOM     68  F   UNL A   1      38.908  26.342  30.036  1.00  0.00    -0.203 F 
ATOM     69  F   UNL A   1      42.788  26.982  26.252  1.00  0.00    -0.200 F 
ATOM     70  C   UNL A   1      40.965  25.754  27.114  1.00  0.00     0.200 A 
ATOM     71  F   UNL A   1      39.132  24.564  28.008  1.00  0.00    -0.200 F 
ATOM     72  F   UNL A   1      41.055  24.883  26.100  1.00  0.00    -0.200 F 
ENDBRANCH  48  62
BRANCH  49  73
ATOM     73  C   UNL A   1      39.631  33.899  36.856  1.00  0.00     0.064 A 
ATOM     74  C   UNL A   1      38.841  33.518  37.949  1.00  0.00     0.173 A 
ATOM     75  C   UNL A   1      40.239  35.163  36.894  1.00  0.00     0.173 A 
ATOM     76  F   UNL A   1      38.220  32.330  37.944  1.00  0.00    -0.203 F 
ATOM     77  C   UNL A   1      38.655  34.372  39.034  1.00  0.00     0.198 A 
ATOM     78  C   UNL A   1      40.071  36.006  37.989  1.00  0.00     0.198 A 
ATOM     79  F   UNL A   1      41.003  35.572  35.870  1.00  0.00    -0.203 F 
ATOM     80  F   UNL A   1      37.865  34.000  40.049  1.00  0.00    -0.200 F 
ATOM     81  C   UNL A   1      39.276  35.613  39.056  1.00  0.00     0.200 A 
ATOM     82  F   UNL A   1      40.679  37.201  38.010  1.00  0.00    -0.200 F 
ATOM     83  F   UNL A   1      39.101  36.433  40.101  1.00  0.00    -0.200 F 
ENDBRANCH  49  73
BRANCH  61  84
ATOM     84  C   UNL A   1      43.972  28.601  35.595  1.00  0.00     0.064 A 
ATOM     85  C   UNL A   1      45.308  29.006  35.455  1.00  0.00     0.173 A 
ATOM     86  C   UNL A   1      43.678  27.620  36.553  1.00  0.00     0.173 A 
ATOM     87  F   UNL A   1      45.640  29.930  34.540  1.00  0.00    -0.203 F 
ATOM     88  C   UNL A   1      46.311  28.443  36.239  1.00  0.00     0.198 A 
ATOM     89  C   UNL A   1      44.681  27.075  37.350  1.00  0.00     0.198 A 
ATOM     90  F   UNL A   1      42.415  27.202  36.726  1.00  0.00    -0.203 F 
ATOM     91  F   UNL A   1      47.585  28.821  36.066  1.00  0.00    -0.200 F 
ATOM     92  C   UNL A   1      45.996  27.484  37.189  1.00  0.00     0.200 A 
ATOM     93  F   UNL A   1      44.374  26.155  38.275  1.00  0.00    -0.200 F 
ATOM     94  F   UNL A   1      46.962  26.949  37.948  1.00  0.00    -0.200 F 
ENDBRANCH  61  84
ENDBRANCH  35  36
ENDBRANCH  27  30
ENDBRANCH  25  26
ENDBRANCH  24  25
ENDBRANCH  23  24
ENDBRANCH   3  23
TORSDOF 15
ENDMDL
