MODEL 1
REMARK VINA RESULT:     -10.7      0.000      0.000
REMARK SMILES CCn1cc(/C=C/c2cc(C(=O)NCCCNC(=O)c3ccc(-c4c5nc(c(-c6c(F)c(F)c(F)c(F)c6F)c6ccc([nH]6)c(-c6c(F)c(F)c(F)c(F)c6F)c6nc(c(-c7c(F)c(F)c(F)c(F)c7F)c7ccc4[nH]7)C=C6)C=C5)cc3)ncn2)cn1
REMARK SMILES IDX 14 1 13 2 11 3 12 4 10 6 8 7 9 8 85 9 84 10 83 11 7 12 6 13
REMARK SMILES IDX 5 14 3 15 4 16 87 17 86 18 2 19 1 20 15 21 16 22 17 23 18 24
REMARK SMILES IDX 19 26 20 27 21 28 82 29 22 30 81 31 23 32 24 33 25 34 75 35
REMARK SMILES IDX 26 36 80 37 74 38 76 39 27 40 79 41 73 42 72 43 28 45 60 46
REMARK SMILES IDX 40 47 59 48 41 49 44 50 58 51 77 52 42 53 43 54 57 56 78 57
REMARK SMILES IDX 45 58 29 59 30 60 38 61 31 62 32 63 36 64 39 65 33 66 34 67
REMARK SMILES IDX 37 68 35 69 61 70 62 71 70 72 63 73 64 74 68 75 71 76 65 77
REMARK SMILES IDX 66 78 69 79 67 80 46 81 47 82 55 83 48 84 49 85 53 86 56 87
REMARK SMILES IDX 50 88 51 89 54 90 52 91
REMARK H PARENT 13 5 17 25 76 44 44 55
REMARK Flexibility Score: inf
ROOT
ATOM      1  C   UNL A   1      44.042  22.320  25.446  1.00  0.00     0.118 C 
ENDROOT
BRANCH   1   2
ATOM      2  N   UNL A   1      43.292  23.487  24.999  1.00  0.00    -0.351 N 
ATOM      3  C   UNL A   1      43.454  24.844  25.218  1.00  0.00     0.270 C 
ATOM      4  O   UNL A   1      42.680  25.596  24.623  1.00  0.00    -0.268 OA
ATOM      5  H   UNL A   1      42.519  23.268  24.431  1.00  0.00     0.163 HD
BRANCH   3   6
ATOM      6  C   UNL A   1      44.530  25.413  26.100  1.00  0.00     0.132 A 
ATOM      7  C   UNL A   1      45.597  25.716  28.158  1.00  0.00     0.067 A 
ATOM      8  C   UNL A   1      44.468  25.346  27.466  1.00  0.00     0.062 A 
ATOM      9  N   UNL A   1      46.650  26.299  27.573  1.00  0.00    -0.237 NA
ATOM     10  C   UNL A   1      46.573  26.424  26.240  1.00  0.00     0.223 A 
ATOM     11  N   UNL A   1      45.577  25.980  25.463  1.00  0.00    -0.231 NA
BRANCH   7  12
ATOM     12  C   UNL A   1      45.678  25.458  29.598  1.00  0.00     0.029 C 
ATOM     13  C   UNL A   1      44.653  24.898  30.268  1.00  0.00     0.013 C 
BRANCH  13  14
ATOM     14  C   UNL A   1      44.584  24.692  31.673  1.00  0.00     0.013 A 
ATOM     15  N   UNL A   1      44.266  23.757  33.629  1.00  0.00    -0.272 N 
ATOM     16  C   UNL A   1      44.235  23.509  32.284  1.00  0.00     0.116 A 
ATOM     17  N   UNL A   1      44.569  25.036  33.925  1.00  0.00    -0.181 NA
ATOM     18  C   UNL A   1      44.788  25.596  32.733  1.00  0.00     0.143 A 
BRANCH  15  19
ATOM     19  C   UNL A   1      43.973  22.821  34.697  1.00  0.00     0.141 C 
ATOM     20  C   UNL A   1      44.755  23.108  35.968  1.00  0.00     0.029 C 
ENDBRANCH  15  19
ENDBRANCH  13  14
ENDBRANCH   7  12
ENDBRANCH   3   6
ENDBRANCH   1   2
BRANCH   1  21
ATOM     21  C   UNL A   1      43.139  21.088  25.616  1.00  0.00     0.042 C 
BRANCH  21  22
ATOM     22  C   UNL A   1      42.141  21.255  26.746  1.00  0.00     0.118 C 
BRANCH  22  23
ATOM     23  N   UNL A   1      40.762  21.312  26.258  1.00  0.00    -0.352 N 
ATOM     24  C   UNL A   1      39.807  22.290  26.471  1.00  0.00     0.251 C 
ATOM     25  H   UNL A   1      40.475  20.551  25.703  1.00  0.00     0.163 HD
ATOM     26  O   UNL A   1      38.625  22.060  26.306  1.00  0.00    -0.269 OA
BRANCH  24  27
ATOM     27  C   UNL A   1      40.257  23.622  26.911  1.00  0.00     0.039 A 
ATOM     28  C   UNL A   1      39.706  24.790  26.372  1.00  0.00     0.014 A 
ATOM     29  C   UNL A   1      41.214  23.680  27.916  1.00  0.00     0.014 A 
ATOM     30  C   UNL A   1      40.066  26.019  26.919  1.00  0.00     0.010 A 
ATOM     31  C   UNL A   1      41.426  24.862  28.568  1.00  0.00     0.010 A 
ATOM     32  C   UNL A   1      40.911  26.043  28.035  1.00  0.00    -0.014 A 
BRANCH  32  33
ATOM     33  C   UNL A   1      41.189  27.278  28.762  1.00  0.00     0.031 A 
ATOM     34  C   UNL A   1      42.336  28.078  28.239  1.00  0.00     0.074 A 
ATOM     35  C   UNL A   1      40.278  27.774  29.630  1.00  0.00     0.049 A 
ATOM     36  N   UNL A   1      43.354  28.525  28.897  1.00  0.00    -0.248 NA
ATOM     37  C   UNL A   1      42.420  28.327  26.787  1.00  0.00     0.031 C 
ATOM     38  C   UNL A   1      38.979  27.193  30.001  1.00  0.00     0.029 A 
ATOM     39  N   UNL A   1      40.235  28.988  30.241  1.00  0.00    -0.354 N 
ATOM     40  C   UNL A   1      44.112  29.265  27.991  1.00  0.00     0.074 A 
ATOM     41  C   UNL A   1      43.585  28.970  26.686  1.00  0.00     0.031 C 
ATOM     42  C   UNL A   1      38.188  28.149  30.528  1.00  0.00     0.029 A 
ATOM     43  C   UNL A   1      38.968  29.362  30.681  1.00  0.00     0.049 A 
ATOM     44  H   UNL A   1      41.031  29.552  30.364  1.00  0.00     0.167 HD
ATOM     45  C   UNL A   1      44.960  30.244  28.417  1.00  0.00     0.037 A 
ATOM     46  C   UNL A   1      38.581  30.598  31.085  1.00  0.00     0.037 A 
ATOM     47  C   UNL A   1      45.248  30.102  29.821  1.00  0.00     0.049 A 
ATOM     48  C   UNL A   1      39.818  31.347  31.423  1.00  0.00     0.074 A 
ATOM     49  C   UNL A   1      45.807  29.101  30.592  1.00  0.00     0.029 A 
ATOM     50  N   UNL A   1      44.597  30.931  30.702  1.00  0.00    -0.354 N 
ATOM     51  N   UNL A   1      40.588  31.046  32.433  1.00  0.00    -0.248 NA
ATOM     52  C   UNL A   1      40.457  32.112  30.360  1.00  0.00     0.031 C 
ATOM     53  C   UNL A   1      45.041  29.096  31.795  1.00  0.00     0.029 A 
ATOM     54  C   UNL A   1      44.124  30.146  31.723  1.00  0.00     0.049 A 
ATOM     55  H   UNL A   1      44.490  31.906  30.619  1.00  0.00     0.167 HD
ATOM     56  C   UNL A   1      41.878  31.181  31.944  1.00  0.00     0.074 A 
ATOM     57  C   UNL A   1      41.736  31.920  30.691  1.00  0.00     0.031 C 
ATOM     58  C   UNL A   1      42.899  30.416  32.433  1.00  0.00     0.037 A 
BRANCH  45  59
ATOM     59  C   UNL A   1      45.232  31.531  27.674  1.00  0.00     0.064 A 
ATOM     60  C   UNL A   1      46.493  31.718  27.069  1.00  0.00     0.173 A 
ATOM     61  C   UNL A   1      44.443  32.695  27.801  1.00  0.00     0.173 A 
ATOM     62  F   UNL A   1      47.332  30.685  26.904  1.00  0.00    -0.203 F 
ATOM     63  C   UNL A   1      46.961  32.986  26.712  1.00  0.00     0.198 A 
ATOM     64  C   UNL A   1      44.892  33.949  27.393  1.00  0.00     0.198 A 
ATOM     65  F   UNL A   1      43.259  32.691  28.424  1.00  0.00    -0.203 F 
ATOM     66  F   UNL A   1      48.217  33.131  26.270  1.00  0.00    -0.200 F 
ATOM     67  C   UNL A   1      46.164  34.102  26.883  1.00  0.00     0.200 A 
ATOM     68  F   UNL A   1      44.109  35.021  27.582  1.00  0.00    -0.200 F 
ATOM     69  F   UNL A   1      46.634  35.325  26.607  1.00  0.00    -0.200 F 
ENDBRANCH  45  59
BRANCH  46  70
ATOM     70  C   UNL A   1      37.256  31.251  30.919  1.00  0.00     0.064 A 
ATOM     71  C   UNL A   1      36.438  31.522  32.029  1.00  0.00     0.173 A 
ATOM     72  C   UNL A   1      36.870  31.856  29.705  1.00  0.00     0.173 A 
ATOM     73  F   UNL A   1      36.751  31.023  33.235  1.00  0.00    -0.203 F 
ATOM     74  C   UNL A   1      35.325  32.367  31.937  1.00  0.00     0.198 A 
ATOM     75  C   UNL A   1      35.753  32.688  29.611  1.00  0.00     0.198 A 
ATOM     76  F   UNL A   1      37.618  31.730  28.600  1.00  0.00    -0.203 F 
ATOM     77  F   UNL A   1      34.610  32.652  33.034  1.00  0.00    -0.200 F 
ATOM     78  C   UNL A   1      34.989  32.956  30.730  1.00  0.00     0.200 A 
ATOM     79  F   UNL A   1      35.458  33.275  28.442  1.00  0.00    -0.200 F 
ATOM     80  F   UNL A   1      33.960  33.812  30.654  1.00  0.00    -0.200 F 
ENDBRANCH  46  70
BRANCH  58  81
ATOM     81  C   UNL A   1      42.645  29.600  33.671  1.00  0.00     0.064 A 
ATOM     82  C   UNL A   1      42.187  28.270  33.659  1.00  0.00     0.173 A 
ATOM     83  C   UNL A   1      43.042  30.126  34.907  1.00  0.00     0.173 A 
ATOM     84  F   UNL A   1      41.893  27.651  32.512  1.00  0.00    -0.203 F 
ATOM     85  C   UNL A   1      42.088  27.522  34.830  1.00  0.00     0.198 A 
ATOM     86  C   UNL A   1      42.980  29.366  36.071  1.00  0.00     0.198 A 
ATOM     87  F   UNL A   1      43.546  31.368  34.976  1.00  0.00    -0.203 F 
ATOM     88  F   UNL A   1      41.639  26.259  34.786  1.00  0.00    -0.200 F 
ATOM     89  C   UNL A   1      42.492  28.069  36.035  1.00  0.00     0.200 A 
ATOM     90  F   UNL A   1      43.424  29.880  37.226  1.00  0.00    -0.200 F 
ATOM     91  F   UNL A   1      42.442  27.336  37.157  1.00  0.00    -0.200 F 
ENDBRANCH  58  81
ENDBRANCH  32  33
ENDBRANCH  24  27
ENDBRANCH  22  23
ENDBRANCH  21  22
ENDBRANCH   1  21
TORSDOF 13
ENDMDL
MODEL 2
REMARK VINA RESULT:     -10.4      3.823     10.471
REMARK SMILES CCn1cc(/C=C/c2cc(C(=O)NCCCNC(=O)c3ccc(-c4c5nc(c(-c6c(F)c(F)c(F)c(F)c6F)c6ccc([nH]6)c(-c6c(F)c(F)c(F)c(F)c6F)c6nc(c(-c7c(F)c(F)c(F)c(F)c7F)c7ccc4[nH]7)C=C6)C=C5)cc3)ncn2)cn1
REMARK SMILES IDX 14 1 13 2 11 3 12 4 10 6 8 7 9 8 85 9 84 10 83 11 7 12 6 13
REMARK SMILES IDX 5 14 3 15 4 16 87 17 86 18 2 19 1 20 15 21 16 22 17 23 18 24
REMARK SMILES IDX 19 26 20 27 21 28 82 29 22 30 81 31 23 32 24 33 25 34 75 35
REMARK SMILES IDX 26 36 80 37 74 38 76 39 27 40 79 41 73 42 72 43 28 45 60 46
REMARK SMILES IDX 40 47 59 48 41 49 44 50 58 51 77 52 42 53 43 54 57 56 78 57
REMARK SMILES IDX 45 58 29 59 30 60 38 61 31 62 32 63 36 64 39 65 33 66 34 67
REMARK SMILES IDX 37 68 35 69 61 70 62 71 70 72 63 73 64 74 68 75 71 76 65 77
REMARK SMILES IDX 66 78 69 79 67 80 46 81 47 82 55 83 48 84 49 85 53 86 56 87
REMARK SMILES IDX 50 88 51 89 54 90 52 91
REMARK H PARENT 13 5 17 25 76 44 44 55
REMARK Flexibility Score: inf
ROOT
ATOM      1  C   UNL A   1      35.154  34.583  28.397  1.00  0.00     0.118 C 
ENDROOT
BRANCH   1   2
ATOM      2  N   UNL A   1      33.868  35.254  28.254  1.00  0.00    -0.351 N 
ATOM      3  C   UNL A   1      33.071  35.951  29.144  1.00  0.00     0.270 C 
ATOM      4  O   UNL A   1      32.055  36.475  28.685  1.00  0.00    -0.268 OA
ATOM      5  H   UNL A   1      33.492  35.199  27.346  1.00  0.00     0.163 HD
BRANCH   3   6
ATOM      6  C   UNL A   1      33.412  36.115  30.600  1.00  0.00     0.132 A 
ATOM      7  C   UNL A   1      34.360  35.400  32.614  1.00  0.00     0.067 A 
ATOM      8  C   UNL A   1      33.896  35.084  31.359  1.00  0.00     0.062 A 
ATOM      9  N   UNL A   1      34.187  36.605  33.170  1.00  0.00    -0.237 NA
ATOM     10  C   UNL A   1      33.601  37.523  32.388  1.00  0.00     0.223 A 
ATOM     11  N   UNL A   1      33.231  37.352  31.113  1.00  0.00    -0.231 NA
BRANCH   7  12
ATOM     12  C   UNL A   1      35.091  34.394  33.388  1.00  0.00     0.029 C 
ATOM     13  C   UNL A   1      36.013  33.600  32.810  1.00  0.00     0.013 C 
BRANCH  13  14
ATOM     14  C   UNL A   1      36.709  32.532  33.439  1.00  0.00     0.013 A 
ATOM     15  N   UNL A   1      37.908  31.379  34.867  1.00  0.00    -0.272 N 
ATOM     16  C   UNL A   1      37.348  32.610  34.656  1.00  0.00     0.116 A 
ATOM     17  N   UNL A   1      37.710  30.526  33.843  1.00  0.00    -0.181 NA
ATOM     18  C   UNL A   1      36.957  31.222  32.988  1.00  0.00     0.143 A 
BRANCH  15  19
ATOM     19  C   UNL A   1      38.689  30.960  36.014  1.00  0.00     0.141 C 
ATOM     20  C   UNL A   1      40.146  30.694  35.673  1.00  0.00     0.029 C 
ENDBRANCH  15  19
ENDBRANCH  13  14
ENDBRANCH   7  12
ENDBRANCH   3   6
ENDBRANCH   1   2
BRANCH   1  21
ATOM     21  C   UNL A   1      35.094  33.120  27.931  1.00  0.00     0.042 C 
BRANCH  21  22
ATOM     22  C   UNL A   1      34.484  32.205  28.977  1.00  0.00     0.118 C 
BRANCH  22  23
ATOM     23  N   UNL A   1      34.048  30.930  28.406  1.00  0.00    -0.352 N 
ATOM     24  C   UNL A   1      34.820  29.876  27.951  1.00  0.00     0.251 C 
ATOM     25  H   UNL A   1      33.074  30.806  28.334  1.00  0.00     0.163 HD
ATOM     26  O   UNL A   1      34.359  29.040  27.198  1.00  0.00    -0.269 OA
BRANCH  24  27
ATOM     27  C   UNL A   1      36.221  29.792  28.396  1.00  0.00     0.039 A 
ATOM     28  C   UNL A   1      36.548  29.404  29.700  1.00  0.00     0.014 A 
ATOM     29  C   UNL A   1      37.212  30.067  27.463  1.00  0.00     0.014 A 
ATOM     30  C   UNL A   1      37.886  29.207  30.029  1.00  0.00     0.010 A 
ATOM     31  C   UNL A   1      38.501  29.700  27.730  1.00  0.00     0.010 A 
ATOM     32  C   UNL A   1      38.857  29.336  29.027  1.00  0.00    -0.014 A 
BRANCH  32  33
ATOM     33  C   UNL A   1      40.253  28.978  29.259  1.00  0.00     0.031 A 
ATOM     34  C   UNL A   1      40.650  28.863  30.693  1.00  0.00     0.074 A 
ATOM     35  C   UNL A   1      41.007  28.496  28.244  1.00  0.00     0.049 A 
ATOM     36  N   UNL A   1      41.641  29.441  31.288  1.00  0.00    -0.248 NA
ATOM     37  C   UNL A   1      39.782  28.096  31.608  1.00  0.00     0.031 C 
ATOM     38  C   UNL A   1      40.610  28.305  26.841  1.00  0.00     0.029 A 
ATOM     39  N   UNL A   1      42.235  27.915  28.277  1.00  0.00    -0.354 N 
ATOM     40  C   UNL A   1      41.636  28.973  32.601  1.00  0.00     0.074 A 
ATOM     41  C   UNL A   1      40.385  28.288  32.783  1.00  0.00     0.031 C 
ATOM     42  C   UNL A   1      41.446  27.429  26.249  1.00  0.00     0.029 A 
ATOM     43  C   UNL A   1      42.522  27.121  27.170  1.00  0.00     0.049 A 
ATOM     44  H   UNL A   1      42.867  28.047  29.019  1.00  0.00     0.167 HD
ATOM     45  C   UNL A   1      42.771  28.986  33.356  1.00  0.00     0.037 A 
ATOM     46  C   UNL A   1      43.541  26.233  27.050  1.00  0.00     0.037 A 
ATOM     47  C   UNL A   1      43.756  29.874  32.794  1.00  0.00     0.049 A 
ATOM     48  C   UNL A   1      44.546  26.589  28.084  1.00  0.00     0.074 A 
ATOM     49  C   UNL A   1      43.778  31.225  32.503  1.00  0.00     0.029 A 
ATOM     50  N   UNL A   1      44.794  29.323  32.083  1.00  0.00    -0.354 N 
ATOM     51  N   UNL A   1      45.246  27.691  28.056  1.00  0.00    -0.248 NA
ATOM     52  C   UNL A   1      44.419  25.964  29.394  1.00  0.00     0.031 C 
ATOM     53  C   UNL A   1      44.477  31.319  31.263  1.00  0.00     0.029 A 
ATOM     54  C   UNL A   1      44.913  30.039  30.919  1.00  0.00     0.049 A 
ATOM     55  H   UNL A   1      45.350  28.558  32.357  1.00  0.00     0.167 HD
ATOM     56  C   UNL A   1      45.262  28.129  29.372  1.00  0.00     0.074 A 
ATOM     57  C   UNL A   1      44.812  26.984  30.162  1.00  0.00     0.031 C 
ATOM     58  C   UNL A   1      45.337  29.460  29.668  1.00  0.00     0.037 A 
BRANCH  45  59
ATOM     59  C   UNL A   1      43.139  27.934  34.377  1.00  0.00     0.064 A 
ATOM     60  C   UNL A   1      43.437  28.336  35.697  1.00  0.00     0.173 A 
ATOM     61  C   UNL A   1      43.516  26.615  34.047  1.00  0.00     0.173 A 
ATOM     62  F   UNL A   1      43.132  29.572  36.119  1.00  0.00    -0.203 F 
ATOM     63  C   UNL A   1      44.144  27.515  36.578  1.00  0.00     0.198 A 
ATOM     64  C   UNL A   1      44.173  25.778  34.948  1.00  0.00     0.198 A 
ATOM     65  F   UNL A   1      43.371  26.118  32.813  1.00  0.00    -0.203 F 
ATOM     66  F   UNL A   1      44.525  27.991  37.771  1.00  0.00    -0.200 F 
ATOM     67  C   UNL A   1      44.520  26.239  36.200  1.00  0.00     0.200 A 
ATOM     68  F   UNL A   1      44.542  24.551  34.556  1.00  0.00    -0.200 F 
ATOM     69  F   UNL A   1      45.257  25.475  37.016  1.00  0.00    -0.200 F 
ENDBRANCH  45  59
BRANCH  46  70
ATOM     70  C   UNL A   1      43.561  24.945  26.308  1.00  0.00     0.064 A 
ATOM     71  C   UNL A   1      44.476  24.725  25.265  1.00  0.00     0.173 A 
ATOM     72  C   UNL A   1      42.862  23.810  26.767  1.00  0.00     0.173 A 
ATOM     73  F   UNL A   1      45.216  25.739  24.792  1.00  0.00    -0.203 F 
ATOM     74  C   UNL A   1      44.699  23.448  24.736  1.00  0.00     0.198 A 
ATOM     75  C   UNL A   1      43.075  22.538  26.231  1.00  0.00     0.198 A 
ATOM     76  F   UNL A   1      42.022  23.888  27.808  1.00  0.00    -0.203 F 
ATOM     77  F   UNL A   1      45.629  23.270  23.788  1.00  0.00    -0.200 F 
ATOM     78  C   UNL A   1      44.005  22.354  25.226  1.00  0.00     0.200 A 
ATOM     79  F   UNL A   1      42.418  21.485  26.737  1.00  0.00    -0.200 F 
ATOM     80  F   UNL A   1      44.261  21.122  24.763  1.00  0.00    -0.200 F 
ENDBRANCH  46  70
BRANCH  58  81
ATOM     81  C   UNL A   1      45.640  30.421  28.551  1.00  0.00     0.064 A 
ATOM     82  C   UNL A   1      44.661  31.031  27.747  1.00  0.00     0.173 A 
ATOM     83  C   UNL A   1      46.959  30.870  28.401  1.00  0.00     0.173 A 
ATOM     84  F   UNL A   1      43.364  30.744  27.901  1.00  0.00    -0.203 F 
ATOM     85  C   UNL A   1      44.990  32.007  26.810  1.00  0.00     0.198 A 
ATOM     86  C   UNL A   1      47.282  31.873  27.491  1.00  0.00     0.198 A 
ATOM     87  F   UNL A   1      47.929  30.372  29.182  1.00  0.00    -0.203 F 
ATOM     88  F   UNL A   1      44.034  32.563  26.052  1.00  0.00    -0.200 F 
ATOM     89  C   UNL A   1      46.301  32.433  26.688  1.00  0.00     0.200 A 
ATOM     90  F   UNL A   1      48.542  32.322  27.416  1.00  0.00    -0.200 F 
ATOM     91  F   UNL A   1      46.615  33.405  25.820  1.00  0.00    -0.200 F 
ENDBRANCH  58  81
ENDBRANCH  32  33
ENDBRANCH  24  27
ENDBRANCH  22  23
ENDBRANCH  21  22
ENDBRANCH   1  21
TORSDOF 13
ENDMDL
MODEL 3
REMARK VINA RESULT:     -10.4      4.214     10.802
REMARK SMILES CCn1cc(/C=C/c2cc(C(=O)NCCCNC(=O)c3ccc(-c4c5nc(c(-c6c(F)c(F)c(F)c(F)c6F)c6ccc([nH]6)c(-c6c(F)c(F)c(F)c(F)c6F)c6nc(c(-c7c(F)c(F)c(F)c(F)c7F)c7ccc4[nH]7)C=C6)C=C5)cc3)ncn2)cn1
REMARK SMILES IDX 14 1 13 2 11 3 12 4 10 6 8 7 9 8 85 9 84 10 83 11 7 12 6 13
REMARK SMILES IDX 5 14 3 15 4 16 87 17 86 18 2 19 1 20 15 21 16 22 17 23 18 24
REMARK SMILES IDX 19 26 20 27 21 28 82 29 22 30 81 31 23 32 24 33 25 34 75 35
REMARK SMILES IDX 26 36 80 37 74 38 76 39 27 40 79 41 73 42 72 43 28 45 60 46
REMARK SMILES IDX 40 47 59 48 41 49 44 50 58 51 77 52 42 53 43 54 57 56 78 57
REMARK SMILES IDX 45 58 29 59 30 60 38 61 31 62 32 63 36 64 39 65 33 66 34 67
REMARK SMILES IDX 37 68 35 69 61 70 62 71 70 72 63 73 64 74 68 75 71 76 65 77
REMARK SMILES IDX 66 78 69 79 67 80 46 81 47 82 55 83 48 84 49 85 53 86 56 87
REMARK SMILES IDX 50 88 51 89 54 90 52 91
REMARK H PARENT 13 5 17 25 76 44 44 55
REMARK Flexibility Score: inf
ROOT
ATOM      1  C   UNL A   1      35.085  34.279  28.855  1.00  0.00     0.118 C 
ENDROOT
BRANCH   1   2
ATOM      2  N   UNL A   1      33.850  35.000  28.577  1.00  0.00    -0.351 N 
ATOM      3  C   UNL A   1      33.062  35.839  29.345  1.00  0.00     0.270 C 
ATOM      4  O   UNL A   1      32.100  36.364  28.781  1.00  0.00    -0.268 OA
ATOM      5  H   UNL A   1      33.509  34.863  27.664  1.00  0.00     0.163 HD
BRANCH   3   6
ATOM      6  C   UNL A   1      33.352  36.149  30.787  1.00  0.00     0.132 A 
ATOM      7  C   UNL A   1      34.116  35.597  32.927  1.00  0.00     0.067 A 
ATOM      8  C   UNL A   1      33.677  35.176  31.694  1.00  0.00     0.062 A 
ATOM      9  N   UNL A   1      34.059  36.875  33.321  1.00  0.00    -0.237 NA
ATOM     10  C   UNL A   1      33.621  37.745  32.399  1.00  0.00     0.223 A 
ATOM     11  N   UNL A   1      33.293  37.453  31.134  1.00  0.00    -0.231 NA
BRANCH   7  12
ATOM     12  C   UNL A   1      34.688  34.624  33.861  1.00  0.00     0.029 C 
ATOM     13  C   UNL A   1      35.981  34.689  34.234  1.00  0.00     0.013 C 
BRANCH  13  14
ATOM     14  C   UNL A   1      36.663  33.748  35.052  1.00  0.00     0.013 A 
ATOM     15  N   UNL A   1      37.885  32.047  35.699  1.00  0.00    -0.272 N 
ATOM     16  C   UNL A   1      37.453  32.720  34.589  1.00  0.00     0.116 A 
ATOM     17  N   UNL A   1      37.387  32.547  36.847  1.00  0.00    -0.181 NA
ATOM     18  C   UNL A   1      36.667  33.598  36.452  1.00  0.00     0.143 A 
BRANCH  15  19
ATOM     19  C   UNL A   1      38.746  30.880  35.733  1.00  0.00     0.141 C 
ATOM     20  C   UNL A   1      39.114  30.376  34.348  1.00  0.00     0.029 C 
ENDBRANCH  15  19
ENDBRANCH  13  14
ENDBRANCH   7  12
ENDBRANCH   3   6
ENDBRANCH   1   2
BRANCH   1  21
ATOM     21  C   UNL A   1      35.264  33.065  27.929  1.00  0.00     0.042 C 
BRANCH  21  22
ATOM     22  C   UNL A   1      35.329  31.758  28.697  1.00  0.00     0.118 C 
BRANCH  22  23
ATOM     23  N   UNL A   1      35.239  31.965  30.144  1.00  0.00    -0.352 N 
ATOM     24  C   UNL A   1      35.934  31.326  31.154  1.00  0.00     0.251 C 
ATOM     25  H   UNL A   1      34.597  32.651  30.436  1.00  0.00     0.163 HD
ATOM     26  O   UNL A   1      35.529  31.341  32.301  1.00  0.00    -0.269 OA
BRANCH  24  27
ATOM     27  C   UNL A   1      37.178  30.617  30.809  1.00  0.00     0.039 A 
ATOM     28  C   UNL A   1      38.401  31.293  30.727  1.00  0.00     0.014 A 
ATOM     29  C   UNL A   1      37.105  29.244  30.612  1.00  0.00     0.014 A 
ATOM     30  C   UNL A   1      39.566  30.555  30.534  1.00  0.00     0.010 A 
ATOM     31  C   UNL A   1      38.256  28.509  30.605  1.00  0.00     0.010 A 
ATOM     32  C   UNL A   1      39.485  29.157  30.497  1.00  0.00    -0.014 A 
BRANCH  32  33
ATOM     33  C   UNL A   1      40.680  28.319  30.470  1.00  0.00     0.031 A 
ATOM     34  C   UNL A   1      41.266  28.005  31.806  1.00  0.00     0.074 A 
ATOM     35  C   UNL A   1      41.013  27.650  29.342  1.00  0.00     0.049 A 
ATOM     36  N   UNL A   1      42.489  28.168  32.192  1.00  0.00    -0.248 NA
ATOM     37  C   UNL A   1      40.366  27.553  32.885  1.00  0.00     0.031 C 
ATOM     38  C   UNL A   1      40.325  27.676  28.044  1.00  0.00     0.029 A 
ATOM     39  N   UNL A   1      41.939  26.672  29.157  1.00  0.00    -0.354 N 
ATOM     40  C   UNL A   1      42.560  27.671  33.492  1.00  0.00     0.074 A 
ATOM     41  C   UNL A   1      41.203  27.464  33.921  1.00  0.00     0.031 C 
ATOM     42  C   UNL A   1      40.671  26.589  27.325  1.00  0.00     0.029 A 
ATOM     43  C   UNL A   1      41.716  25.879  28.034  1.00  0.00     0.049 A 
ATOM     44  H   UNL A   1      42.701  26.536  29.764  1.00  0.00     0.167 HD
ATOM     45  C   UNL A   1      43.743  27.247  34.020  1.00  0.00     0.037 A 
ATOM     46  C   UNL A   1      42.312  24.695  27.744  1.00  0.00     0.037 A 
ATOM     47  C   UNL A   1      44.858  27.756  33.263  1.00  0.00     0.049 A 
ATOM     48  C   UNL A   1      43.550  24.625  28.563  1.00  0.00     0.074 A 
ATOM     49  C   UNL A   1      45.305  29.024  32.943  1.00  0.00     0.029 A 
ATOM     50  N   UNL A   1      45.483  26.907  32.382  1.00  0.00    -0.354 N 
ATOM     51  N   UNL A   1      44.578  25.408  28.380  1.00  0.00    -0.248 NA
ATOM     52  C   UNL A   1      43.452  24.025  29.887  1.00  0.00     0.031 C 
ATOM     53  C   UNL A   1      45.751  28.922  31.592  1.00  0.00     0.029 A 
ATOM     54  C   UNL A   1      45.633  27.588  31.201  1.00  0.00     0.049 A 
ATOM     55  H   UNL A   1      45.771  25.983  32.564  1.00  0.00     0.167 HD
ATOM     56  C   UNL A   1      44.990  25.751  29.659  1.00  0.00     0.074 A 
ATOM     57  C   UNL A   1      44.315  24.804  30.544  1.00  0.00     0.031 C 
ATOM     58  C   UNL A   1      45.586  26.955  29.905  1.00  0.00     0.037 A 
BRANCH  45  59
ATOM     59  C   UNL A   1      43.893  26.088  34.977  1.00  0.00     0.064 A 
ATOM     60  C   UNL A   1      44.535  26.301  36.215  1.00  0.00     0.173 A 
ATOM     61  C   UNL A   1      43.727  24.735  34.608  1.00  0.00     0.173 A 
ATOM     62  F   UNL A   1      44.756  27.546  36.664  1.00  0.00    -0.203 F 
ATOM     63  C   UNL A   1      45.054  25.247  36.971  1.00  0.00     0.198 A 
ATOM     64  C   UNL A   1      44.198  23.684  35.391  1.00  0.00     0.198 A 
ATOM     65  F   UNL A   1      43.208  24.376  33.427  1.00  0.00    -0.203 F 
ATOM     66  F   UNL A   1      45.777  25.508  38.069  1.00  0.00    -0.200 F 
ATOM     67  C   UNL A   1      44.894  23.939  36.554  1.00  0.00     0.200 A 
ATOM     68  F   UNL A   1      44.045  22.424  34.960  1.00  0.00    -0.200 F 
ATOM     69  F   UNL A   1      45.449  22.931  37.238  1.00  0.00    -0.200 F 
ENDBRANCH  45  59
BRANCH  46  70
ATOM     70  C   UNL A   1      41.736  23.519  27.041  1.00  0.00     0.064 A 
ATOM     71  C   UNL A   1      42.565  22.517  26.510  1.00  0.00     0.173 A 
ATOM     72  C   UNL A   1      40.360  23.218  27.096  1.00  0.00     0.173 A 
ATOM     73  F   UNL A   1      43.893  22.698  26.456  1.00  0.00    -0.203 F 
ATOM     74  C   UNL A   1      42.054  21.283  26.088  1.00  0.00     0.198 A 
ATOM     75  C   UNL A   1      39.849  21.993  26.664  1.00  0.00     0.198 A 
ATOM     76  F   UNL A   1      39.487  24.068  27.654  1.00  0.00    -0.203 F 
ATOM     77  F   UNL A   1      42.886  20.329  25.649  1.00  0.00    -0.200 F 
ATOM     78  C   UNL A   1      40.697  21.019  26.174  1.00  0.00     0.200 A 
ATOM     79  F   UNL A   1      38.537  21.741  26.782  1.00  0.00    -0.200 F 
ATOM     80  F   UNL A   1      40.214  19.817  25.828  1.00  0.00    -0.200 F 
ENDBRANCH  46  70
BRANCH  58  81
ATOM     81  C   UNL A   1      46.000  27.798  28.730  1.00  0.00     0.064 A 
ATOM     82  C   UNL A   1      47.170  27.583  27.979  1.00  0.00     0.173 A 
ATOM     83  C   UNL A   1      45.096  28.751  28.243  1.00  0.00     0.173 A 
ATOM     84  F   UNL A   1      48.034  26.618  28.308  1.00  0.00    -0.203 F 
ATOM     85  C   UNL A   1      47.441  28.316  26.826  1.00  0.00     0.198 A 
ATOM     86  C   UNL A   1      45.348  29.455  27.070  1.00  0.00     0.198 A 
ATOM     87  F   UNL A   1      43.933  28.957  28.881  1.00  0.00    -0.203 F 
ATOM     88  F   UNL A   1      48.569  28.093  26.137  1.00  0.00    -0.200 F 
ATOM     89  C   UNL A   1      46.526  29.247  26.368  1.00  0.00     0.200 A 
ATOM     90  F   UNL A   1      44.435  30.315  26.600  1.00  0.00    -0.200 F 
ATOM     91  F   UNL A   1      46.762  29.921  25.234  1.00  0.00    -0.200 F 
ENDBRANCH  58  81
ENDBRANCH  32  33
ENDBRANCH  24  27
ENDBRANCH  22  23
ENDBRANCH  21  22
ENDBRANCH   1  21
TORSDOF 13
ENDMDL
