MODEL 1
REMARK VINA RESULT:     -13.6      0.000      0.000
REMARK SMILES Cc1ccc(C(c2ccccc2)(c2ccccc2)n2cnc(C[C@H]([NH3+])C(=O)NCCCNC(=O)c3ccc(-c4c5nc(c(-c6c(F)c(F)c(F)c(F)c6F)c6ccc([nH]6)c(-c6c(F)c(F)c(F)c(F)c6F)c6nc(c(-c7c(F)c(F)c(F)c(F)c7F)c7ccc4[nH]7)C=C6)C=C5)cc3)c2)cc1
REMARK SMILES IDX 29 1 28 2 26 3 27 4 24 6 23 7 22 8 19 9 20 10 98 11 21 12
REMARK SMILES IDX 6 13 5 14 1 15 2 16 3 17 100 18 4 19 99 20 7 21 8 22 12 23
REMARK SMILES IDX 9 24 11 25 10 26 13 27 14 28 18 29 15 30 17 31 16 32 25 33
REMARK SMILES IDX 30 37 31 38 32 39 33 40 34 42 35 43 36 44 97 45 37 46 96 47
REMARK SMILES IDX 38 48 39 49 40 50 90 51 41 52 95 53 89 54 91 55 42 56 94 57
REMARK SMILES IDX 88 58 87 59 43 61 75 62 55 63 74 64 56 65 59 66 73 67 92 68
REMARK SMILES IDX 57 69 58 70 72 72 93 73 60 74 44 75 45 76 53 77 46 78 47 79
REMARK SMILES IDX 51 80 54 81 48 82 49 83 52 84 50 85 76 86 77 87 85 88 78 89
REMARK SMILES IDX 79 90 83 91 86 92 80 93 81 94 84 95 82 96 61 97 62 98 70 99
REMARK SMILES IDX 63 100 64 101 68 102 71 103 65 104 66 105 69 106 67 107
REMARK H PARENT 28 5 25 34 25 35 25 36 32 41 91 60 59 71
REMARK Flexibility Score: inf
ROOT
ATOM      1  C   UNL A   1      37.806  20.861  25.072  1.00  0.00     0.118 C 
ENDROOT
BRANCH   1   2
ATOM      2  N   UNL A   1      36.822  21.640  25.798  1.00  0.00    -0.351 N 
ATOM      3  C   UNL A   1      35.690  22.287  25.394  1.00  0.00     0.278 C 
ATOM      4  O   UNL A   1      35.142  23.006  26.240  1.00  0.00    -0.268 OA
ATOM      5  H   UNL A   1      37.003  21.715  26.762  1.00  0.00     0.163 HD
BRANCH   3   6
ATOM      6  C   UNL A   1      35.154  22.228  23.944  1.00  0.00     0.276 C 
BRANCH   6   7
ATOM      7  C   UNL A   1      35.274  23.502  23.103  1.00  0.00     0.133 C 
BRANCH   7   8
ATOM      8  C   UNL A   1      34.128  24.443  23.176  1.00  0.00     0.065 A 
ATOM      9  N   UNL A   1      32.555  25.764  23.950  1.00  0.00    -0.319 N 
ATOM     10  C   UNL A   1      32.309  25.422  22.637  1.00  0.00     0.201 A 
ATOM     11  C   UNL A   1      33.791  25.240  24.245  1.00  0.00     0.112 A 
ATOM     12  N   UNL A   1      33.235  24.623  22.159  1.00  0.00    -0.241 NA
BRANCH   9  13
ATOM     13  C   UNL A   1      31.600  26.453  24.883  1.00  0.00     0.121 C 
BRANCH  13  14
ATOM     14  C   UNL A   1      30.616  27.366  24.047  1.00  0.00    -0.013 A 
ATOM     15  C   UNL A   1      28.027  30.000  21.747  1.00  0.00     0.044 C 
ATOM     16  C   UNL A   1      28.934  29.090  22.520  1.00  0.00    -0.051 A 
ATOM     17  C   UNL A   1      28.425  27.931  23.111  1.00  0.00     0.004 A 
ATOM     18  C   UNL A   1      30.290  29.378  22.666  1.00  0.00     0.004 A 
ATOM     19  C   UNL A   1      29.250  27.080  23.860  1.00  0.00     0.007 A 
ATOM     20  C   UNL A   1      31.117  28.526  23.404  1.00  0.00     0.007 A 
ENDBRANCH  13  14
BRANCH  13  21
ATOM     21  C   UNL A   1      30.811  25.305  25.659  1.00  0.00    -0.013 A 
ATOM     22  C   UNL A   1      29.517  25.538  26.189  1.00  0.00     0.007 A 
ATOM     23  C   UNL A   1      31.367  24.043  25.953  1.00  0.00     0.007 A 
ATOM     24  C   UNL A   1      28.799  24.552  26.876  1.00  0.00     0.000 A 
ATOM     25  C   UNL A   1      30.655  23.057  26.650  1.00  0.00     0.000 A 
ATOM     26  C   UNL A   1      29.365  23.305  27.096  1.00  0.00     0.000 A 
ENDBRANCH  13  21
BRANCH  13  27
ATOM     27  C   UNL A   1      32.484  27.368  25.853  1.00  0.00    -0.013 A 
ATOM     28  C   UNL A   1      31.886  28.116  26.898  1.00  0.00     0.007 A 
ATOM     29  C   UNL A   1      33.841  27.660  25.589  1.00  0.00     0.007 A 
ATOM     30  C   UNL A   1      32.595  29.080  27.626  1.00  0.00     0.000 A 
ATOM     31  C   UNL A   1      34.540  28.648  26.296  1.00  0.00     0.000 A 
ATOM     32  C   UNL A   1      33.918  29.356  27.315  1.00  0.00     0.000 A 
ENDBRANCH  13  27
ENDBRANCH   9  13
ENDBRANCH   7   8
ENDBRANCH   6   7
BRANCH   6  33
ATOM     33  N   UNL A   1      33.755  21.717  23.948  1.00  0.00    -0.347 N 
ATOM     34  H   UNL A   1      33.383  21.739  22.999  1.00  0.00     0.345 HD
ATOM     35  H   UNL A   1      33.181  22.304  24.552  1.00  0.00     0.345 HD
ATOM     36  H   UNL A   1      33.744  20.758  24.295  1.00  0.00     0.345 HD
ENDBRANCH   6  33
ENDBRANCH   3   6
ENDBRANCH   1   2
BRANCH   1  37
ATOM     37  C   UNL A   1      39.166  20.882  25.754  1.00  0.00     0.042 C 
BRANCH  37  38
ATOM     38  C   UNL A   1      39.476  22.228  26.386  1.00  0.00     0.118 C 
BRANCH  38  39
ATOM     39  N   UNL A   1      40.896  22.562  26.429  1.00  0.00    -0.352 N 
ATOM     40  C   UNL A   1      41.517  23.797  26.567  1.00  0.00     0.251 C 
ATOM     41  H   UNL A   1      41.508  21.794  26.347  1.00  0.00     0.163 HD
ATOM     42  O   UNL A   1      42.727  23.878  26.518  1.00  0.00    -0.269 OA
BRANCH  40  43
ATOM     43  C   UNL A   1      40.701  24.989  26.924  1.00  0.00     0.039 A 
ATOM     44  C   UNL A   1      40.824  26.134  26.126  1.00  0.00     0.014 A 
ATOM     45  C   UNL A   1      40.033  25.059  28.138  1.00  0.00     0.014 A 
ATOM     46  C   UNL A   1      40.529  27.380  26.672  1.00  0.00     0.010 A 
ATOM     47  C   UNL A   1      39.887  26.291  28.734  1.00  0.00     0.010 A 
ATOM     48  C   UNL A   1      40.192  27.453  28.021  1.00  0.00    -0.014 A 
BRANCH  48  49
ATOM     49  C   UNL A   1      40.238  28.677  28.809  1.00  0.00     0.031 A 
ATOM     50  C   UNL A   1      39.179  29.698  28.668  1.00  0.00     0.074 A 
ATOM     51  C   UNL A   1      41.153  28.785  29.800  1.00  0.00     0.049 A 
ATOM     52  N   UNL A   1      39.299  30.925  29.046  1.00  0.00    -0.248 NA
ATOM     53  C   UNL A   1      37.888  29.416  28.054  1.00  0.00     0.031 C 
ATOM     54  C   UNL A   1      41.135  29.727  30.916  1.00  0.00     0.029 A 
ATOM     55  N   UNL A   1      42.405  28.151  29.901  1.00  0.00    -0.354 N 
ATOM     56  C   UNL A   1      38.048  31.499  29.016  1.00  0.00     0.074 A 
ATOM     57  C   UNL A   1      37.220  30.541  28.324  1.00  0.00     0.031 C 
ATOM     58  C   UNL A   1      42.381  29.848  31.402  1.00  0.00     0.029 A 
ATOM     59  C   UNL A   1      43.254  29.101  30.516  1.00  0.00     0.049 A 
ATOM     60  H   UNL A   1      42.640  27.241  29.606  1.00  0.00     0.167 HD
ATOM     61  C   UNL A   1      37.838  32.655  29.711  1.00  0.00     0.037 A 
ATOM     62  C   UNL A   1      44.329  29.629  29.865  1.00  0.00     0.037 A 
ATOM     63  C   UNL A   1      39.080  33.135  30.317  1.00  0.00     0.049 A 
ATOM     64  C   UNL A   1      44.295  31.132  29.740  1.00  0.00     0.074 A 
ATOM     65  C   UNL A   1      39.583  33.066  31.607  1.00  0.00     0.029 A 
ATOM     66  N   UNL A   1      40.141  33.521  29.504  1.00  0.00    -0.354 N 
ATOM     67  N   UNL A   1      43.205  31.844  29.813  1.00  0.00    -0.248 NA
ATOM     68  C   UNL A   1      45.481  31.946  29.505  1.00  0.00     0.031 C 
ATOM     69  C   UNL A   1      40.956  33.411  31.566  1.00  0.00     0.029 A 
ATOM     70  C   UNL A   1      41.288  33.694  30.253  1.00  0.00     0.049 A 
ATOM     71  H   UNL A   1      40.081  33.653  28.531  1.00  0.00     0.167 HD
ATOM     72  C   UNL A   1      43.511  33.172  29.633  1.00  0.00     0.074 A 
ATOM     73  C   UNL A   1      44.951  33.181  29.462  1.00  0.00     0.031 C 
ATOM     74  C   UNL A   1      42.536  34.132  29.639  1.00  0.00     0.037 A 
BRANCH  61  75
ATOM     75  C   UNL A   1      36.469  33.192  30.096  1.00  0.00     0.064 A 
ATOM     76  C   UNL A   1      35.619  33.771  29.126  1.00  0.00     0.173 A 
ATOM     77  C   UNL A   1      35.955  33.224  31.405  1.00  0.00     0.173 A 
ATOM     78  F   UNL A   1      35.893  33.699  27.817  1.00  0.00    -0.203 F 
ATOM     79  C   UNL A   1      34.439  34.444  29.457  1.00  0.00     0.198 A 
ATOM     80  C   UNL A   1      34.803  33.942  31.747  1.00  0.00     0.198 A 
ATOM     81  F   UNL A   1      36.502  32.502  32.389  1.00  0.00    -0.203 F 
ATOM     82  F   UNL A   1      33.686  34.982  28.488  1.00  0.00    -0.200 F 
ATOM     83  C   UNL A   1      34.053  34.567  30.774  1.00  0.00     0.200 A 
ATOM     84  F   UNL A   1      34.422  34.014  33.031  1.00  0.00    -0.200 F 
ATOM     85  F   UNL A   1      32.946  35.248  31.099  1.00  0.00    -0.200 F 
ENDBRANCH  61  75
BRANCH  62  86
ATOM     86  C   UNL A   1      44.925  28.702  28.871  1.00  0.00     0.064 A 
ATOM     87  C   UNL A   1      45.799  27.701  29.335  1.00  0.00     0.173 A 
ATOM     88  C   UNL A   1      44.356  28.530  27.604  1.00  0.00     0.173 A 
ATOM     89  F   UNL A   1      46.372  27.821  30.543  1.00  0.00    -0.203 F 
ATOM     90  C   UNL A   1      45.998  26.524  28.618  1.00  0.00     0.198 A 
ATOM     91  C   UNL A   1      44.567  27.354  26.882  1.00  0.00     0.198 A 
ATOM     92  F   UNL A   1      43.500  29.439  27.115  1.00  0.00    -0.203 F 
ATOM     93  F   UNL A   1      46.750  25.543  29.137  1.00  0.00    -0.200 F 
ATOM     94  C   UNL A   1      45.357  26.338  27.405  1.00  0.00     0.200 A 
ATOM     95  F   UNL A   1      43.925  27.159  25.721  1.00  0.00    -0.200 F 
ATOM     96  F   UNL A   1      45.466  25.169  26.760  1.00  0.00    -0.200 F 
ENDBRANCH  62  86
BRANCH  74  97
ATOM     97  C   UNL A   1      42.654  35.582  29.200  1.00  0.00     0.064 A 
ATOM     98  C   UNL A   1      42.018  36.135  28.075  1.00  0.00     0.173 A 
ATOM     99  C   UNL A   1      43.343  36.525  30.010  1.00  0.00     0.173 A 
ATOM    100  F   UNL A   1      41.219  35.407  27.288  1.00  0.00    -0.203 F 
ATOM    101  C   UNL A   1      42.126  37.493  27.746  1.00  0.00     0.198 A 
ATOM    102  C   UNL A   1      43.395  37.887  29.714  1.00  0.00     0.198 A 
ATOM    103  F   UNL A   1      43.968  36.166  31.141  1.00  0.00    -0.203 F 
ATOM    104  F   UNL A   1      41.537  37.951  26.632  1.00  0.00    -0.200 F 
ATOM    105  C   UNL A   1      42.803  38.370  28.570  1.00  0.00     0.200 A 
ATOM    106  F   UNL A   1      44.006  38.730  30.561  1.00  0.00    -0.200 F 
ATOM    107  F   UNL A   1      42.862  39.675  28.276  1.00  0.00    -0.200 F 
ENDBRANCH  74  97
ENDBRANCH  48  49
ENDBRANCH  40  43
ENDBRANCH  38  39
ENDBRANCH  37  38
ENDBRANCH   1  37
TORSDOF 17
ENDMDL
MODEL 2
REMARK VINA RESULT:     -13.1      1.464      3.123
REMARK SMILES Cc1ccc(C(c2ccccc2)(c2ccccc2)n2cnc(C[C@H]([NH3+])C(=O)NCCCNC(=O)c3ccc(-c4c5nc(c(-c6c(F)c(F)c(F)c(F)c6F)c6ccc([nH]6)c(-c6c(F)c(F)c(F)c(F)c6F)c6nc(c(-c7c(F)c(F)c(F)c(F)c7F)c7ccc4[nH]7)C=C6)C=C5)cc3)c2)cc1
REMARK SMILES IDX 29 1 28 2 26 3 27 4 24 6 23 7 22 8 19 9 20 10 98 11 21 12
REMARK SMILES IDX 6 13 5 14 1 15 2 16 3 17 100 18 4 19 99 20 7 21 8 22 12 23
REMARK SMILES IDX 9 24 11 25 10 26 13 27 14 28 18 29 15 30 17 31 16 32 25 33
REMARK SMILES IDX 30 37 31 38 32 39 33 40 34 42 35 43 36 44 97 45 37 46 96 47
REMARK SMILES IDX 38 48 39 49 40 50 90 51 41 52 95 53 89 54 91 55 42 56 94 57
REMARK SMILES IDX 88 58 87 59 43 61 75 62 55 63 74 64 56 65 59 66 73 67 92 68
REMARK SMILES IDX 57 69 58 70 72 72 93 73 60 74 44 75 45 76 53 77 46 78 47 79
REMARK SMILES IDX 51 80 54 81 48 82 49 83 52 84 50 85 76 86 77 87 85 88 78 89
REMARK SMILES IDX 79 90 83 91 86 92 80 93 81 94 84 95 82 96 61 97 62 98 70 99
REMARK SMILES IDX 63 100 64 101 68 102 71 103 65 104 66 105 69 106 67 107
REMARK H PARENT 28 5 25 34 25 35 25 36 32 41 91 60 59 71
REMARK Flexibility Score: inf
ROOT
ATOM      1  C   UNL A   1      35.964  21.433  25.834  1.00  0.00     0.118 C 
ENDROOT
BRANCH   1   2
ATOM      2  N   UNL A   1      34.908  21.348  24.844  1.00  0.00    -0.351 N 
ATOM      3  C   UNL A   1      33.548  21.341  24.956  1.00  0.00     0.278 C 
ATOM      4  O   UNL A   1      32.917  21.095  23.920  1.00  0.00    -0.268 OA
ATOM      5  H   UNL A   1      35.234  21.284  23.917  1.00  0.00     0.163 HD
BRANCH   3   6
ATOM      6  C   UNL A   1      32.811  21.526  26.303  1.00  0.00     0.276 C 
BRANCH   6   7
ATOM      7  C   UNL A   1      31.317  21.857  26.241  1.00  0.00     0.133 C 
BRANCH   7   8
ATOM      8  C   UNL A   1      30.972  23.278  25.986  1.00  0.00     0.065 A 
ATOM      9  N   UNL A   1      30.900  25.284  25.096  1.00  0.00    -0.319 N 
ATOM     10  C   UNL A   1      30.391  25.295  26.377  1.00  0.00     0.201 A 
ATOM     11  C   UNL A   1      31.147  23.963  24.806  1.00  0.00     0.112 A 
ATOM     12  N   UNL A   1      30.435  24.104  26.931  1.00  0.00    -0.241 NA
BRANCH   9  13
ATOM     13  C   UNL A   1      31.231  26.487  24.260  1.00  0.00     0.121 C 
BRANCH  13  14
ATOM     14  C   UNL A   1      32.235  27.417  25.054  1.00  0.00    -0.013 A 
ATOM     15  C   UNL A   1      34.901  29.951  27.376  1.00  0.00     0.044 C 
ATOM     16  C   UNL A   1      33.990  29.059  26.589  1.00  0.00    -0.051 A 
ATOM     17  C   UNL A   1      34.072  29.029  25.194  1.00  0.00     0.004 A 
ATOM     18  C   UNL A   1      33.050  28.248  27.224  1.00  0.00     0.004 A 
ATOM     19  C   UNL A   1      33.213  28.221  24.438  1.00  0.00     0.007 A 
ATOM     20  C   UNL A   1      32.198  27.434  26.471  1.00  0.00     0.007 A 
ENDBRANCH  13  14
BRANCH  13  21
ATOM     21  C   UNL A   1      31.886  25.942  22.912  1.00  0.00    -0.013 A 
ATOM     22  C   UNL A   1      31.429  26.387  21.647  1.00  0.00     0.007 A 
ATOM     23  C   UNL A   1      32.868  24.931  22.881  1.00  0.00     0.007 A 
ATOM     24  C   UNL A   1      31.982  25.927  20.446  1.00  0.00     0.000 A 
ATOM     25  C   UNL A   1      33.416  24.460  21.679  1.00  0.00     0.000 A 
ATOM     26  C   UNL A   1      32.986  24.970  20.463  1.00  0.00     0.000 A 
ENDBRANCH  13  21
BRANCH  13  27
ATOM     27  C   UNL A   1      29.857  27.270  24.016  1.00  0.00    -0.013 A 
ATOM     28  C   UNL A   1      28.618  26.582  23.996  1.00  0.00     0.007 A 
ATOM     29  C   UNL A   1      29.818  28.616  23.590  1.00  0.00     0.007 A 
ATOM     30  C   UNL A   1      27.429  27.197  23.583  1.00  0.00     0.000 A 
ATOM     31  C   UNL A   1      28.634  29.221  23.146  1.00  0.00     0.000 A 
ATOM     32  C   UNL A   1      27.441  28.513  23.143  1.00  0.00     0.000 A 
ENDBRANCH  13  27
ENDBRANCH   9  13
ENDBRANCH   7   8
ENDBRANCH   6   7
BRANCH   6  33
ATOM     33  N   UNL A   1      33.543  22.514  27.144  1.00  0.00    -0.347 N 
ATOM     34  H   UNL A   1      33.446  23.444  26.739  1.00  0.00     0.345 HD
ATOM     35  H   UNL A   1      34.531  22.261  27.182  1.00  0.00     0.345 HD
ATOM     36  H   UNL A   1      33.155  22.511  28.087  1.00  0.00     0.345 HD
ENDBRANCH   6  33
ENDBRANCH   3   6
ENDBRANCH   1   2
BRANCH   1  37
ATOM     37  C   UNL A   1      37.319  21.710  25.201  1.00  0.00     0.042 C 
BRANCH  37  38
ATOM     38  C   UNL A   1      37.992  22.940  25.786  1.00  0.00     0.118 C 
BRANCH  38  39
ATOM     39  N   UNL A   1      39.357  22.718  26.252  1.00  0.00    -0.352 N 
ATOM     40  C   UNL A   1      40.269  23.613  26.797  1.00  0.00     0.251 C 
ATOM     41  H   UNL A   1      39.681  21.792  26.166  1.00  0.00     0.163 HD
ATOM     42  O   UNL A   1      41.392  23.245  27.071  1.00  0.00    -0.269 OA
BRANCH  40  43
ATOM     43  C   UNL A   1      39.812  24.976  27.181  1.00  0.00     0.039 A 
ATOM     44  C   UNL A   1      40.232  26.056  26.393  1.00  0.00     0.014 A 
ATOM     45  C   UNL A   1      39.206  25.207  28.407  1.00  0.00     0.014 A 
ATOM     46  C   UNL A   1      40.295  27.327  26.958  1.00  0.00     0.010 A 
ATOM     47  C   UNL A   1      39.409  26.424  29.019  1.00  0.00     0.010 A 
ATOM     48  C   UNL A   1      40.009  27.470  28.313  1.00  0.00    -0.014 A 
BRANCH  48  49
ATOM     49  C   UNL A   1      40.398  28.623  29.113  1.00  0.00     0.031 A 
ATOM     50  C   UNL A   1      39.402  29.655  29.469  1.00  0.00     0.074 A 
ATOM     51  C   UNL A   1      41.626  28.645  29.679  1.00  0.00     0.049 A 
ATOM     52  N   UNL A   1      39.702  30.845  29.864  1.00  0.00    -0.248 NA
ATOM     53  C   UNL A   1      37.966  29.430  29.381  1.00  0.00     0.031 C 
ATOM     54  C   UNL A   1      42.072  29.489  30.784  1.00  0.00     0.029 A 
ATOM     55  N   UNL A   1      42.798  28.000  29.241  1.00  0.00    -0.354 N 
ATOM     56  C   UNL A   1      38.557  31.424  30.363  1.00  0.00     0.074 A 
ATOM     57  C   UNL A   1      37.493  30.530  29.973  1.00  0.00     0.031 C 
ATOM     58  C   UNL A   1      43.412  29.565  30.760  1.00  0.00     0.029 A 
ATOM     59  C   UNL A   1      43.851  28.893  29.551  1.00  0.00     0.049 A 
ATOM     60  H   UNL A   1      42.869  27.118  28.810  1.00  0.00     0.167 HD
ATOM     61  C   UNL A   1      38.670  32.519  31.172  1.00  0.00     0.037 A 
ATOM     62  C   UNL A   1      44.611  29.471  28.578  1.00  0.00     0.037 A 
ATOM     63  C   UNL A   1      40.066  32.941  31.286  1.00  0.00     0.049 A 
ATOM     64  C   UNL A   1      44.584  30.978  28.591  1.00  0.00     0.074 A 
ATOM     65  C   UNL A   1      41.024  32.763  32.273  1.00  0.00     0.029 A 
ATOM     66  N   UNL A   1      40.746  33.391  30.159  1.00  0.00    -0.354 N 
ATOM     67  N   UNL A   1      43.632  31.685  29.132  1.00  0.00    -0.248 NA
ATOM     68  C   UNL A   1      45.617  31.805  27.979  1.00  0.00     0.031 C 
ATOM     69  C   UNL A   1      42.286  33.107  31.732  1.00  0.00     0.029 A 
ATOM     70  C   UNL A   1      42.098  33.497  30.418  1.00  0.00     0.049 A 
ATOM     71  H   UNL A   1      40.321  33.605  29.297  1.00  0.00     0.167 HD
ATOM     72  C   UNL A   1      43.892  33.023  28.950  1.00  0.00     0.074 A 
ATOM     73  C   UNL A   1      45.155  33.041  28.239  1.00  0.00     0.031 C 
ATOM     74  C   UNL A   1      43.029  33.982  29.406  1.00  0.00     0.037 A 
BRANCH  61  75
ATOM     75  C   UNL A   1      37.574  33.025  32.095  1.00  0.00     0.064 A 
ATOM     76  C   UNL A   1      36.517  33.820  31.595  1.00  0.00     0.173 A 
ATOM     77  C   UNL A   1      37.532  32.819  33.485  1.00  0.00     0.173 A 
ATOM     78  F   UNL A   1      36.329  33.998  30.281  1.00  0.00    -0.203 F 
ATOM     79  C   UNL A   1      35.594  34.463  32.427  1.00  0.00     0.198 A 
ATOM     80  C   UNL A   1      36.644  33.502  34.325  1.00  0.00     0.198 A 
ATOM     81  F   UNL A   1      38.295  31.894  34.078  1.00  0.00    -0.203 F 
ATOM     82  F   UNL A   1      34.624  35.214  31.888  1.00  0.00    -0.200 F 
ATOM     83  C   UNL A   1      35.685  34.339  33.796  1.00  0.00     0.200 A 
ATOM     84  F   UNL A   1      36.724  33.334  35.653  1.00  0.00    -0.200 F 
ATOM     85  F   UNL A   1      34.830  34.988  34.597  1.00  0.00    -0.200 F 
ENDBRANCH  61  75
BRANCH  62  86
ATOM     86  C   UNL A   1      44.746  28.628  27.363  1.00  0.00     0.064 A 
ATOM     87  C   UNL A   1      45.628  27.532  27.409  1.00  0.00     0.173 A 
ATOM     88  C   UNL A   1      43.769  28.634  26.361  1.00  0.00     0.173 A 
ATOM     89  F   UNL A   1      46.584  27.481  28.350  1.00  0.00    -0.203 F 
ATOM     90  C   UNL A   1      45.462  26.434  26.568  1.00  0.00     0.198 A 
ATOM     91  C   UNL A   1      43.613  27.536  25.513  1.00  0.00     0.198 A 
ATOM     92  F   UNL A   1      42.888  29.640  26.279  1.00  0.00    -0.203 F 
ATOM     93  F   UNL A   1      46.250  25.358  26.709  1.00  0.00    -0.200 F 
ATOM     94  C   UNL A   1      44.434  26.424  25.641  1.00  0.00     0.200 A 
ATOM     95  F   UNL A   1      42.600  27.511  24.633  1.00  0.00    -0.200 F 
ATOM     96  F   UNL A   1      44.208  25.330  24.900  1.00  0.00    -0.200 F 
ENDBRANCH  62  86
BRANCH  74  97
ATOM     97  C   UNL A   1      43.020  35.464  29.067  1.00  0.00     0.064 A 
ATOM     98  C   UNL A   1      42.328  36.036  27.986  1.00  0.00     0.173 A 
ATOM     99  C   UNL A   1      43.636  36.403  29.937  1.00  0.00     0.173 A 
ATOM    100  F   UNL A   1      41.584  35.298  27.155  1.00  0.00    -0.203 F 
ATOM    101  C   UNL A   1      42.317  37.417  27.751  1.00  0.00     0.198 A 
ATOM    102  C   UNL A   1      43.571  37.782  29.735  1.00  0.00     0.198 A 
ATOM    103  F   UNL A   1      44.301  36.022  31.037  1.00  0.00    -0.203 F 
ATOM    104  F   UNL A   1      41.680  37.899  26.675  1.00  0.00    -0.200 F 
ATOM    105  C   UNL A   1      42.928  38.290  28.630  1.00  0.00     0.200 A 
ATOM    106  F   UNL A   1      44.118  38.613  30.635  1.00  0.00    -0.200 F 
ATOM    107  F   UNL A   1      42.873  39.612  28.426  1.00  0.00    -0.200 F 
ENDBRANCH  74  97
ENDBRANCH  48  49
ENDBRANCH  40  43
ENDBRANCH  38  39
ENDBRANCH  37  38
ENDBRANCH   1  37
TORSDOF 17
ENDMDL
MODEL 3
REMARK VINA RESULT:     -12.7      1.472      3.409
REMARK SMILES Cc1ccc(C(c2ccccc2)(c2ccccc2)n2cnc(C[C@H]([NH3+])C(=O)NCCCNC(=O)c3ccc(-c4c5nc(c(-c6c(F)c(F)c(F)c(F)c6F)c6ccc([nH]6)c(-c6c(F)c(F)c(F)c(F)c6F)c6nc(c(-c7c(F)c(F)c(F)c(F)c7F)c7ccc4[nH]7)C=C6)C=C5)cc3)c2)cc1
REMARK SMILES IDX 29 1 28 2 26 3 27 4 24 6 23 7 22 8 19 9 20 10 98 11 21 12
REMARK SMILES IDX 6 13 5 14 1 15 2 16 3 17 100 18 4 19 99 20 7 21 8 22 12 23
REMARK SMILES IDX 9 24 11 25 10 26 13 27 14 28 18 29 15 30 17 31 16 32 25 33
REMARK SMILES IDX 30 37 31 38 32 39 33 40 34 42 35 43 36 44 97 45 37 46 96 47
REMARK SMILES IDX 38 48 39 49 40 50 90 51 41 52 95 53 89 54 91 55 42 56 94 57
REMARK SMILES IDX 88 58 87 59 43 61 75 62 55 63 74 64 56 65 59 66 73 67 92 68
REMARK SMILES IDX 57 69 58 70 72 72 93 73 60 74 44 75 45 76 53 77 46 78 47 79
REMARK SMILES IDX 51 80 54 81 48 82 49 83 52 84 50 85 76 86 77 87 85 88 78 89
REMARK SMILES IDX 79 90 83 91 86 92 80 93 81 94 84 95 82 96 61 97 62 98 70 99
REMARK SMILES IDX 63 100 64 101 68 102 71 103 65 104 66 105 69 106 67 107
REMARK H PARENT 28 5 25 34 25 35 25 36 32 41 91 60 59 71
REMARK Flexibility Score: inf
ROOT
ATOM      1  C   UNL A   1      35.798  21.036  25.676  1.00  0.00     0.118 C 
ENDROOT
BRANCH   1   2
ATOM      2  N   UNL A   1      34.736  21.046  24.689  1.00  0.00    -0.351 N 
ATOM      3  C   UNL A   1      33.382  21.175  24.804  1.00  0.00     0.278 C 
ATOM      4  O   UNL A   1      32.727  20.981  23.772  1.00  0.00    -0.268 OA
ATOM      5  H   UNL A   1      35.050  20.940  23.762  1.00  0.00     0.163 HD
BRANCH   3   6
ATOM      6  C   UNL A   1      32.671  21.447  26.151  1.00  0.00     0.276 C 
BRANCH   6   7
ATOM      7  C   UNL A   1      31.181  21.795  26.095  1.00  0.00     0.133 C 
BRANCH   7   8
ATOM      8  C   UNL A   1      30.852  23.221  25.845  1.00  0.00     0.065 A 
ATOM      9  N   UNL A   1      30.729  25.204  24.913  1.00  0.00    -0.319 N 
ATOM     10  C   UNL A   1      30.392  25.266  26.248  1.00  0.00     0.201 A 
ATOM     11  C   UNL A   1      30.893  23.869  24.633  1.00  0.00     0.112 A 
ATOM     12  N   UNL A   1      30.469  24.089  26.826  1.00  0.00    -0.241 NA
BRANCH   9  13
ATOM     13  C   UNL A   1      30.987  26.374  24.006  1.00  0.00     0.121 C 
BRANCH  13  14
ATOM     14  C   UNL A   1      31.874  27.442  24.765  1.00  0.00    -0.013 A 
ATOM     15  C   UNL A   1      34.170  30.437  26.929  1.00  0.00     0.044 C 
ATOM     16  C   UNL A   1      33.374  29.393  26.205  1.00  0.00    -0.051 A 
ATOM     17  C   UNL A   1      33.949  28.683  25.147  1.00  0.00     0.004 A 
ATOM     18  C   UNL A   1      32.057  29.112  26.565  1.00  0.00     0.004 A 
ATOM     19  C   UNL A   1      33.214  27.721  24.440  1.00  0.00     0.007 A 
ATOM     20  C   UNL A   1      31.326  28.146  25.868  1.00  0.00     0.007 A 
ENDBRANCH  13  14
BRANCH  13  21
ATOM     21  C   UNL A   1      31.740  25.801  22.723  1.00  0.00    -0.013 A 
ATOM     22  C   UNL A   1      32.718  24.783  22.844  1.00  0.00     0.007 A 
ATOM     23  C   UNL A   1      31.565  26.321  21.424  1.00  0.00     0.007 A 
ATOM     24  C   UNL A   1      33.397  24.260  21.738  1.00  0.00     0.000 A 
ATOM     25  C   UNL A   1      32.252  25.807  20.315  1.00  0.00     0.000 A 
ATOM     26  C   UNL A   1      33.154  24.765  20.469  1.00  0.00     0.000 A 
ENDBRANCH  13  21
BRANCH  13  27
ATOM     27  C   UNL A   1      29.561  27.012  23.662  1.00  0.00    -0.013 A 
ATOM     28  C   UNL A   1      29.451  28.345  23.192  1.00  0.00     0.007 A 
ATOM     29  C   UNL A   1      28.346  26.384  24.014  1.00  0.00     0.007 A 
ATOM     30  C   UNL A   1      28.217  28.998  23.079  1.00  0.00     0.000 A 
ATOM     31  C   UNL A   1      27.114  27.049  23.933  1.00  0.00     0.000 A 
ATOM     32  C   UNL A   1      27.050  28.355  23.465  1.00  0.00     0.000 A 
ENDBRANCH  13  27
ENDBRANCH   9  13
ENDBRANCH   7   8
ENDBRANCH   6   7
BRANCH   6  33
ATOM     33  N   UNL A   1      33.432  22.469  26.921  1.00  0.00    -0.347 N 
ATOM     34  H   UNL A   1      32.831  22.869  27.642  1.00  0.00     0.345 HD
ATOM     35  H   UNL A   1      33.744  23.208  26.291  1.00  0.00     0.345 HD
ATOM     36  H   UNL A   1      34.242  22.031  27.359  1.00  0.00     0.345 HD
ENDBRANCH   6  33
ENDBRANCH   3   6
ENDBRANCH   1   2
BRANCH   1  37
ATOM     37  C   UNL A   1      37.176  21.059  25.031  1.00  0.00     0.042 C 
BRANCH  37  38
ATOM     38  C   UNL A   1      37.966  22.305  25.395  1.00  0.00     0.118 C 
BRANCH  38  39
ATOM     39  N   UNL A   1      39.274  22.040  25.984  1.00  0.00    -0.352 N 
ATOM     40  C   UNL A   1      40.186  22.917  26.559  1.00  0.00     0.251 C 
ATOM     41  H   UNL A   1      39.553  21.096  25.973  1.00  0.00     0.163 HD
ATOM     42  O   UNL A   1      41.261  22.508  26.945  1.00  0.00    -0.269 OA
BRANCH  40  43
ATOM     43  C   UNL A   1      39.775  24.320  26.835  1.00  0.00     0.039 A 
ATOM     44  C   UNL A   1      40.455  25.347  26.166  1.00  0.00     0.014 A 
ATOM     45  C   UNL A   1      38.930  24.622  27.892  1.00  0.00     0.014 A 
ATOM     46  C   UNL A   1      40.499  26.617  26.734  1.00  0.00     0.010 A 
ATOM     47  C   UNL A   1      39.095  25.826  28.538  1.00  0.00     0.010 A 
ATOM     48  C   UNL A   1      39.928  26.806  27.990  1.00  0.00    -0.014 A 
BRANCH  48  49
ATOM     49  C   UNL A   1      40.225  27.934  28.861  1.00  0.00     0.031 A 
ATOM     50  C   UNL A   1      39.332  29.112  28.890  1.00  0.00     0.074 A 
ATOM     51  C   UNL A   1      41.216  27.816  29.774  1.00  0.00     0.049 A 
ATOM     52  N   UNL A   1      39.672  30.268  29.347  1.00  0.00    -0.248 NA
ATOM     53  C   UNL A   1      37.971  29.084  28.370  1.00  0.00     0.031 C 
ATOM     54  C   UNL A   1      41.429  28.647  30.956  1.00  0.00     0.029 A 
ATOM     55  N   UNL A   1      42.356  26.992  29.719  1.00  0.00    -0.354 N 
ATOM     56  C   UNL A   1      38.529  31.025  29.470  1.00  0.00     0.074 A 
ATOM     57  C   UNL A   1      37.511  30.268  28.781  1.00  0.00     0.031 C 
ATOM     58  C   UNL A   1      42.711  28.535  31.340  1.00  0.00     0.029 A 
ATOM     59  C   UNL A   1      43.387  27.746  30.328  1.00  0.00     0.049 A 
ATOM     60  H   UNL A   1      42.422  26.088  29.336  1.00  0.00     0.167 HD
ATOM     61  C   UNL A   1      38.555  32.134  30.266  1.00  0.00     0.037 A 
ATOM     62  C   UNL A   1      44.481  28.161  29.628  1.00  0.00     0.037 A 
ATOM     63  C   UNL A   1      39.899  32.365  30.796  1.00  0.00     0.049 A 
ATOM     64  C   UNL A   1      44.675  29.656  29.620  1.00  0.00     0.074 A 
ATOM     65  C   UNL A   1      40.479  32.108  32.029  1.00  0.00     0.029 A 
ATOM     66  N   UNL A   1      40.944  32.657  29.926  1.00  0.00    -0.354 N 
ATOM     67  N   UNL A   1      43.720  30.516  29.840  1.00  0.00    -0.248 NA
ATOM     68  C   UNL A   1      45.954  30.299  29.345  1.00  0.00     0.031 C 
ATOM     69  C   UNL A   1      41.882  32.244  31.896  1.00  0.00     0.029 A 
ATOM     70  C   UNL A   1      42.157  32.588  30.583  1.00  0.00     0.049 A 
ATOM     71  H   UNL A   1      40.834  32.881  28.974  1.00  0.00     0.167 HD
ATOM     72  C   UNL A   1      44.217  31.793  29.735  1.00  0.00     0.074 A 
ATOM     73  C   UNL A   1      45.624  31.599  29.442  1.00  0.00     0.031 C 
ATOM     74  C   UNL A   1      43.409  32.885  29.899  1.00  0.00     0.037 A 
BRANCH  61  75
ATOM     75  C   UNL A   1      37.320  32.835  30.807  1.00  0.00     0.064 A 
ATOM     76  C   UNL A   1      36.856  32.576  32.117  1.00  0.00     0.173 A 
ATOM     77  C   UNL A   1      36.513  33.725  30.076  1.00  0.00     0.173 A 
ATOM     78  F   UNL A   1      37.578  31.863  32.992  1.00  0.00    -0.203 F 
ATOM     79  C   UNL A   1      35.628  33.047  32.593  1.00  0.00     0.198 A 
ATOM     80  C   UNL A   1      35.260  34.156  30.529  1.00  0.00     0.198 A 
ATOM     81  F   UNL A   1      36.936  34.273  28.932  1.00  0.00    -0.203 F 
ATOM     82  F   UNL A   1      35.242  32.753  33.842  1.00  0.00    -0.200 F 
ATOM     83  C   UNL A   1      34.809  33.803  31.782  1.00  0.00     0.200 A 
ATOM     84  F   UNL A   1      34.497  34.924  29.738  1.00  0.00    -0.200 F 
ATOM     85  F   UNL A   1      33.614  34.219  32.220  1.00  0.00    -0.200 F 
ENDBRANCH  61  75
BRANCH  62  86
ATOM     86  C   UNL A   1      44.848  27.245  28.519  1.00  0.00     0.064 A 
ATOM     87  C   UNL A   1      44.436  27.580  27.215  1.00  0.00     0.173 A 
ATOM     88  C   UNL A   1      45.891  26.321  28.652  1.00  0.00     0.173 A 
ATOM     89  F   UNL A   1      43.437  28.459  27.035  1.00  0.00    -0.203 F 
ATOM     90  C   UNL A   1      45.118  27.107  26.096  1.00  0.00     0.198 A 
ATOM     91  C   UNL A   1      46.565  25.841  27.528  1.00  0.00     0.198 A 
ATOM     92  F   UNL A   1      46.342  25.978  29.867  1.00  0.00    -0.203 F 
ATOM     93  F   UNL A   1      44.770  27.531  24.872  1.00  0.00    -0.200 F 
ATOM     94  C   UNL A   1      46.203  26.262  26.255  1.00  0.00     0.200 A 
ATOM     95  F   UNL A   1      47.634  25.045  27.680  1.00  0.00    -0.200 F 
ATOM     96  F   UNL A   1      46.922  25.885  25.190  1.00  0.00    -0.200 F 
ENDBRANCH  62  86
BRANCH  74  97
ATOM     97  C   UNL A   1      43.721  34.334  29.562  1.00  0.00     0.064 A 
ATOM     98  C   UNL A   1      43.716  34.876  28.265  1.00  0.00     0.173 A 
ATOM     99  C   UNL A   1      43.922  35.286  30.598  1.00  0.00     0.173 A 
ATOM    100  F   UNL A   1      43.407  34.137  27.194  1.00  0.00    -0.203 F 
ATOM    101  C   UNL A   1      43.965  36.233  28.020  1.00  0.00     0.198 A 
ATOM    102  C   UNL A   1      44.106  36.647  30.354  1.00  0.00     0.198 A 
ATOM    103  F   UNL A   1      43.914  34.937  31.893  1.00  0.00    -0.203 F 
ATOM    104  F   UNL A   1      43.995  36.680  26.757  1.00  0.00    -0.200 F 
ATOM    105  C   UNL A   1      44.149  37.119  29.063  1.00  0.00     0.200 A 
ATOM    106  F   UNL A   1      44.221  37.498  31.385  1.00  0.00    -0.200 F 
ATOM    107  F   UNL A   1      44.338  38.423  28.824  1.00  0.00    -0.200 F 
ENDBRANCH  74  97
ENDBRANCH  48  49
ENDBRANCH  40  43
ENDBRANCH  38  39
ENDBRANCH  37  38
ENDBRANCH   1  37
TORSDOF 17
ENDMDL
