MODEL 1
REMARK VINA RESULT:     -12.2      0.000      0.000
REMARK SMILES CSCC[C@H](C(=O)NCCCNC(=O)c1ccc(-c2c3nc(c(-c4c(F)c(F)c(F)c(F)c4F)c4ccc([nH]4)c(-c4c(F)c(F)c(F)c(F)c4F)c4nc(c(-c5c(F)c(F)c(F)c(F)c5F)c5ccc2[nH]5)C=C4)C=C3)cc1)N1C(=O)/C(=C/c2cn(C)c3ccccc23)SC1=S
REMARK SMILES IDX 9 1 8 2 6 3 7 4 5 6 4 7 3 8 2 9 1 10 78 11 79 12 94 13 80 14
REMARK SMILES IDX 81 15 93 16 95 17 82 18 83 19 84 20 92 21 85 22 87 23 91 24
REMARK SMILES IDX 86 25 88 26 90 27 89 28 10 29 11 30 12 31 13 32 14 34 15 35
REMARK SMILES IDX 16 36 77 37 17 38 76 39 18 40 19 41 20 42 70 43 21 44 75 45
REMARK SMILES IDX 69 46 71 47 22 48 74 49 68 50 67 51 23 53 55 54 35 55 54 56
REMARK SMILES IDX 36 57 39 58 53 59 72 60 37 61 38 62 52 64 73 65 40 66 24 67
REMARK SMILES IDX 25 68 33 69 26 70 27 71 31 72 34 73 28 74 29 75 32 76 30 77
REMARK SMILES IDX 56 78 57 79 65 80 58 81 59 82 63 83 66 84 60 85 61 86 64 87
REMARK SMILES IDX 62 88 41 89 42 90 50 91 43 92 44 93 48 94 51 95 45 96 46 97
REMARK SMILES IDX 49 98 47 99
REMARK H PARENT 8 5 12 33 71 52 39 63
REMARK Flexibility Score: inf
ROOT
ATOM      1  C   UNL A   1      35.748  20.682  24.995  1.00  0.00     0.117 C 
ENDROOT
BRANCH   1   2
ATOM      2  N   UNL A   1      35.074  20.856  26.239  1.00  0.00    -0.354 N 
ATOM      3  C   UNL A   1      33.980  21.587  26.530  1.00  0.00     0.243 C 
ATOM      4  O   UNL A   1      33.819  21.781  27.746  1.00  0.00    -0.273 OA
ATOM      5  H   UNL A   1      35.466  20.368  26.999  1.00  0.00     0.163 HD
BRANCH   3   6
ATOM      6  C   UNL A   1      32.871  22.077  25.514  1.00  0.00     0.182 C 
BRANCH   6   7
ATOM      7  C   UNL A   1      32.132  20.750  25.041  1.00  0.00     0.046 C 
BRANCH   7   8
ATOM      8  C   UNL A   1      32.435  20.024  23.720  1.00  0.00     0.072 C 
BRANCH   8   9
ATOM      9  S   UNL A   1      32.506  18.176  23.794  1.00  0.00    -0.165 SA
ATOM     10  C   UNL A   1      32.772  17.769  25.552  1.00  0.00     0.085 C 
ENDBRANCH   8   9
ENDBRANCH   7   8
ENDBRANCH   6   7
BRANCH   6  11
ATOM     11  N   UNL A   1      31.824  23.500  25.782  1.00  0.00    -0.280 N 
ATOM     12  C   UNL A   1      32.624  24.411  25.339  1.00  0.00     0.266 C 
ATOM     13  C   UNL A   1      30.002  23.489  26.642  1.00  0.00     0.149 C 
ATOM     14  O   UNL A   1      33.730  24.532  24.894  1.00  0.00    -0.268 OA
ATOM     15  C   UNL A   1      31.675  25.158  25.956  1.00  0.00     0.081 C 
ATOM     16  S   UNL A   1      29.449  24.812  27.022  1.00  0.00    -0.054 SA
ATOM     17  S   UNL A   1      28.693  22.176  27.290  1.00  0.00    -0.052 S 
ATOM     18  C   UNL A   1      32.329  26.434  26.009  1.00  0.00     0.031 C 
BRANCH  18  19
ATOM     19  C   UNL A   1      31.516  27.335  26.701  1.00  0.00     0.001 A 
ATOM     20  C   UNL A   1      32.032  28.401  27.465  1.00  0.00     0.094 A 
ATOM     21  C   UNL A   1      31.279  27.906  25.439  1.00  0.00     0.007 A 
ATOM     22  N   UNL A   1      33.000  29.168  26.771  1.00  0.00    -0.350 N 
ATOM     23  C   UNL A   1      33.125  28.623  25.502  1.00  0.00     0.048 A 
ATOM     24  C   UNL A   1      30.930  27.175  23.617  1.00  0.00     0.011 A 
ATOM     25  C   UNL A   1      33.209  30.585  27.007  1.00  0.00     0.149 C 
ATOM     26  C   UNL A   1      34.171  28.567  23.858  1.00  0.00     0.027 A 
ATOM     27  C   UNL A   1      31.930  27.174  21.918  1.00  0.00     0.001 A 
ATOM     28  C   UNL A   1      33.800  27.938  22.032  1.00  0.00     0.002 A 
ENDBRANCH  18  19
ENDBRANCH   6  11
ENDBRANCH   3   6
ENDBRANCH   1   2
BRANCH   1  29
ATOM     29  C   UNL A   1      36.553  21.897  24.607  1.00  0.00     0.042 C 
BRANCH  29  30
ATOM     30  C   UNL A   1      37.446  22.302  25.744  1.00  0.00     0.118 C 
BRANCH  30  31
ATOM     31  N   UNL A   1      38.341  21.208  26.126  1.00  0.00    -0.352 N 
ATOM     32  C   UNL A   1      39.658  21.256  26.493  1.00  0.00     0.251 C 
ATOM     33  H   UNL A   1      37.937  20.310  26.117  1.00  0.00     0.163 HD
ATOM     34  O   UNL A   1      40.350  20.248  26.473  1.00  0.00    -0.269 OA
BRANCH  32  35
ATOM     35  C   UNL A   1      40.208  22.552  26.910  1.00  0.00     0.039 A 
ATOM     36  C   UNL A   1      41.153  22.607  27.930  1.00  0.00     0.014 A 
ATOM     37  C   UNL A   1      39.806  23.709  26.241  1.00  0.00     0.014 A 
ATOM     38  C   UNL A   1      41.714  23.838  28.247  1.00  0.00     0.010 A 
ATOM     39  C   UNL A   1      40.513  24.876  26.411  1.00  0.00     0.010 A 
ATOM     40  C   UNL A   1      41.417  24.971  27.469  1.00  0.00    -0.014 A 
BRANCH  40  41
ATOM     41  C   UNL A   1      41.969  26.297  27.800  1.00  0.00     0.031 A 
ATOM     42  C   UNL A   1      43.337  26.671  27.300  1.00  0.00     0.074 A 
ATOM     43  C   UNL A   1      41.244  27.134  28.562  1.00  0.00     0.049 A 
ATOM     44  N   UNL A   1      43.999  27.787  27.465  1.00  0.00    -0.248 NA
ATOM     45  C   UNL A   1      44.087  25.647  26.548  1.00  0.00     0.031 C 
ATOM     46  C   UNL A   1      39.939  26.828  29.154  1.00  0.00     0.029 A 
ATOM     47  N   UNL A   1      41.495  28.419  28.954  1.00  0.00    -0.354 N 
ATOM     48  C   UNL A   1      45.228  27.587  26.851  1.00  0.00     0.074 A 
ATOM     49  C   UNL A   1      45.269  26.219  26.400  1.00  0.00     0.031 C 
ATOM     50  C   UNL A   1      39.474  27.920  29.776  1.00  0.00     0.029 A 
ATOM     51  C   UNL A   1      40.470  28.980  29.672  1.00  0.00     0.049 A 
ATOM     52  H   UNL A   1      42.330  28.895  28.741  1.00  0.00     0.167 HD
ATOM     53  C   UNL A   1      46.217  28.483  26.639  1.00  0.00     0.037 A 
ATOM     54  C   UNL A   1      40.356  30.218  30.183  1.00  0.00     0.037 A 
ATOM     55  C   UNL A   1      46.147  29.849  27.078  1.00  0.00     0.049 A 
ATOM     56  C   UNL A   1      41.477  31.192  29.943  1.00  0.00     0.074 A 
ATOM     57  C   UNL A   1      47.064  30.865  26.887  1.00  0.00     0.029 A 
ATOM     58  N   UNL A   1      45.095  30.386  27.808  1.00  0.00    -0.354 N 
ATOM     59  N   UNL A   1      42.604  31.020  29.292  1.00  0.00    -0.248 NA
ATOM     60  C   UNL A   1      41.301  32.539  30.495  1.00  0.00     0.031 C 
ATOM     61  C   UNL A   1      46.602  31.995  27.566  1.00  0.00     0.029 A 
ATOM     62  C   UNL A   1      45.354  31.713  28.101  1.00  0.00     0.049 A 
ATOM     63  H   UNL A   1      44.285  29.895  28.077  1.00  0.00     0.167 HD
ATOM     64  C   UNL A   1      43.254  32.246  29.325  1.00  0.00     0.074 A 
ATOM     65  C   UNL A   1      42.380  33.155  30.040  1.00  0.00     0.031 C 
ATOM     66  C   UNL A   1      44.462  32.594  28.813  1.00  0.00     0.037 A 
BRANCH  53  67
ATOM     67  C   UNL A   1      47.442  28.009  25.910  1.00  0.00     0.064 A 
ATOM     68  C   UNL A   1      48.632  27.684  26.585  1.00  0.00     0.173 A 
ATOM     69  C   UNL A   1      47.427  27.869  24.515  1.00  0.00     0.173 A 
ATOM     70  F   UNL A   1      48.711  27.819  27.918  1.00  0.00    -0.203 F 
ATOM     71  C   UNL A   1      49.764  27.271  25.889  1.00  0.00     0.198 A 
ATOM     72  C   UNL A   1      48.549  27.416  23.825  1.00  0.00     0.198 A 
ATOM     73  F   UNL A   1      46.321  28.172  23.816  1.00  0.00    -0.203 F 
ATOM     74  F   UNL A   1      50.905  27.033  26.549  1.00  0.00    -0.200 F 
ATOM     75  C   UNL A   1      49.718  27.128  24.511  1.00  0.00     0.200 A 
ATOM     76  F   UNL A   1      48.498  27.265  22.495  1.00  0.00    -0.200 F 
ATOM     77  F   UNL A   1      50.806  26.722  23.841  1.00  0.00    -0.200 F 
ENDBRANCH  53  67
BRANCH  54  78
ATOM     78  C   UNL A   1      39.135  30.606  30.934  1.00  0.00     0.064 A 
ATOM     79  C   UNL A   1      38.026  31.159  30.278  1.00  0.00     0.173 A 
ATOM     80  C   UNL A   1      39.054  30.442  32.324  1.00  0.00     0.173 A 
ATOM     81  F   UNL A   1      38.055  31.344  28.950  1.00  0.00    -0.203 F 
ATOM     82  C   UNL A   1      36.899  31.569  30.989  1.00  0.00     0.198 A 
ATOM     83  C   UNL A   1      37.912  30.815  33.029  1.00  0.00     0.198 A 
ATOM     84  F   UNL A   1      40.079  29.902  32.999  1.00  0.00    -0.203 F 
ATOM     85  F   UNL A   1      35.880  32.153  30.345  1.00  0.00    -0.200 F 
ATOM     86  C   UNL A   1      36.842  31.392  32.363  1.00  0.00     0.200 A 
ATOM     87  F   UNL A   1      37.851  30.620  34.353  1.00  0.00    -0.200 F 
ATOM     88  F   UNL A   1      35.758  31.785  33.046  1.00  0.00    -0.200 F 
ENDBRANCH  54  78
BRANCH  66  89
ATOM     89  C   UNL A   1      44.874  34.032  28.959  1.00  0.00     0.064 A 
ATOM     90  C   UNL A   1      45.624  34.486  30.054  1.00  0.00     0.173 A 
ATOM     91  C   UNL A   1      44.510  34.970  27.980  1.00  0.00     0.173 A 
ATOM     92  F   UNL A   1      45.993  33.633  31.022  1.00  0.00    -0.203 F 
ATOM     93  C   UNL A   1      45.940  35.834  30.195  1.00  0.00     0.198 A 
ATOM     94  C   UNL A   1      44.872  36.308  28.098  1.00  0.00     0.198 A 
ATOM     95  F   UNL A   1      43.809  34.588  26.902  1.00  0.00    -0.203 F 
ATOM     96  F   UNL A   1      46.579  36.258  31.294  1.00  0.00    -0.200 F 
ATOM     97  C   UNL A   1      45.569  36.742  29.215  1.00  0.00     0.200 A 
ATOM     98  F   UNL A   1      44.535  37.178  27.137  1.00  0.00    -0.200 F 
ATOM     99  F   UNL A   1      45.873  38.040  29.352  1.00  0.00    -0.200 F 
ENDBRANCH  66  89
ENDBRANCH  40  41
ENDBRANCH  32  35
ENDBRANCH  30  31
ENDBRANCH  29  30
ENDBRANCH   1  29
TORSDOF 15
ENDMDL
MODEL 2
REMARK VINA RESULT:     -12.0      1.140      2.103
REMARK SMILES CSCC[C@H](C(=O)NCCCNC(=O)c1ccc(-c2c3nc(c(-c4c(F)c(F)c(F)c(F)c4F)c4ccc([nH]4)c(-c4c(F)c(F)c(F)c(F)c4F)c4nc(c(-c5c(F)c(F)c(F)c(F)c5F)c5ccc2[nH]5)C=C4)C=C3)cc1)N1C(=O)/C(=C/c2cn(C)c3ccccc23)SC1=S
REMARK SMILES IDX 9 1 8 2 6 3 7 4 5 6 4 7 3 8 2 9 1 10 78 11 79 12 94 13 80 14
REMARK SMILES IDX 81 15 93 16 95 17 82 18 83 19 84 20 92 21 85 22 87 23 91 24
REMARK SMILES IDX 86 25 88 26 90 27 89 28 10 29 11 30 12 31 13 32 14 34 15 35
REMARK SMILES IDX 16 36 77 37 17 38 76 39 18 40 19 41 20 42 70 43 21 44 75 45
REMARK SMILES IDX 69 46 71 47 22 48 74 49 68 50 67 51 23 53 55 54 35 55 54 56
REMARK SMILES IDX 36 57 39 58 53 59 72 60 37 61 38 62 52 64 73 65 40 66 24 67
REMARK SMILES IDX 25 68 33 69 26 70 27 71 31 72 34 73 28 74 29 75 32 76 30 77
REMARK SMILES IDX 56 78 57 79 65 80 58 81 59 82 63 83 66 84 60 85 61 86 64 87
REMARK SMILES IDX 62 88 41 89 42 90 50 91 43 92 44 93 48 94 51 95 45 96 46 97
REMARK SMILES IDX 49 98 47 99
REMARK H PARENT 8 5 12 33 71 52 39 63
REMARK Flexibility Score: inf
ROOT
ATOM      1  C   UNL A   1      35.942  21.064  24.931  1.00  0.00     0.117 C 
ENDROOT
BRANCH   1   2
ATOM      2  N   UNL A   1      35.233  21.036  26.168  1.00  0.00    -0.354 N 
ATOM      3  C   UNL A   1      34.061  21.614  26.500  1.00  0.00     0.243 C 
ATOM      4  O   UNL A   1      33.861  21.664  27.725  1.00  0.00    -0.273 OA
ATOM      5  H   UNL A   1      35.663  20.518  26.886  1.00  0.00     0.163 HD
BRANCH   3   6
ATOM      6  C   UNL A   1      32.923  22.084  25.508  1.00  0.00     0.182 C 
BRANCH   6   7
ATOM      7  C   UNL A   1      32.176  20.748  25.077  1.00  0.00     0.046 C 
BRANCH   7   8
ATOM      8  C   UNL A   1      32.598  19.875  23.884  1.00  0.00     0.072 C 
BRANCH   8   9
ATOM      9  S   UNL A   1      32.690  18.052  24.188  1.00  0.00    -0.165 SA
ATOM     10  C   UNL A   1      34.469  17.653  24.212  1.00  0.00     0.085 C 
ENDBRANCH   8   9
ENDBRANCH   7   8
ENDBRANCH   6   7
BRANCH   6  11
ATOM     11  N   UNL A   1      31.879  23.508  25.783  1.00  0.00    -0.280 N 
ATOM     12  C   UNL A   1      32.682  24.420  25.346  1.00  0.00     0.266 C 
ATOM     13  C   UNL A   1      30.056  23.496  26.642  1.00  0.00     0.149 C 
ATOM     14  O   UNL A   1      33.788  24.541  24.903  1.00  0.00    -0.268 OA
ATOM     15  C   UNL A   1      31.733  25.166  25.967  1.00  0.00     0.081 C 
ATOM     16  S   UNL A   1      29.506  24.818  27.029  1.00  0.00    -0.054 SA
ATOM     17  S   UNL A   1      28.744  22.182  27.281  1.00  0.00    -0.052 S 
ATOM     18  C   UNL A   1      32.391  26.440  26.027  1.00  0.00     0.031 C 
BRANCH  18  19
ATOM     19  C   UNL A   1      31.579  27.338  26.724  1.00  0.00     0.001 A 
ATOM     20  C   UNL A   1      32.095  28.418  27.469  1.00  0.00     0.094 A 
ATOM     21  C   UNL A   1      31.315  27.895  25.460  1.00  0.00     0.007 A 
ATOM     22  N   UNL A   1      33.043  29.188  26.752  1.00  0.00    -0.350 N 
ATOM     23  C   UNL A   1      33.154  28.632  25.487  1.00  0.00     0.048 A 
ATOM     24  C   UNL A   1      30.945  27.142  23.652  1.00  0.00     0.011 A 
ATOM     25  C   UNL A   1      33.241  30.610  26.971  1.00  0.00     0.149 C 
ATOM     26  C   UNL A   1      34.174  28.571  23.826  1.00  0.00     0.027 A 
ATOM     27  C   UNL A   1      31.917  27.136  21.937  1.00  0.00     0.001 A 
ATOM     28  C   UNL A   1      33.781  27.921  22.013  1.00  0.00     0.002 A 
ENDBRANCH  18  19
ENDBRANCH   6  11
ENDBRANCH   3   6
ENDBRANCH   1   2
BRANCH   1  29
ATOM     29  C   UNL A   1      36.534  22.420  24.642  1.00  0.00     0.042 C 
BRANCH  29  30
ATOM     30  C   UNL A   1      37.413  22.847  25.782  1.00  0.00     0.118 C 
BRANCH  30  31
ATOM     31  N   UNL A   1      38.386  21.806  26.116  1.00  0.00    -0.352 N 
ATOM     32  C   UNL A   1      39.715  21.929  26.413  1.00  0.00     0.251 C 
ATOM     33  H   UNL A   1      38.033  20.886  26.128  1.00  0.00     0.163 HD
ATOM     34  O   UNL A   1      40.461  20.960  26.357  1.00  0.00    -0.269 OA
BRANCH  32  35
ATOM     35  C   UNL A   1      40.214  23.254  26.801  1.00  0.00     0.039 A 
ATOM     36  C   UNL A   1      39.846  24.376  26.065  1.00  0.00     0.014 A 
ATOM     37  C   UNL A   1      41.015  23.372  27.939  1.00  0.00     0.014 A 
ATOM     38  C   UNL A   1      40.268  25.624  26.505  1.00  0.00     0.010 A 
ATOM     39  C   UNL A   1      41.247  24.613  28.483  1.00  0.00     0.010 A 
ATOM     40  C   UNL A   1      40.945  25.749  27.731  1.00  0.00    -0.014 A 
BRANCH  40  41
ATOM     41  C   UNL A   1      41.435  27.054  28.209  1.00  0.00     0.031 A 
ATOM     42  C   UNL A   1      42.893  27.395  28.059  1.00  0.00     0.074 A 
ATOM     43  C   UNL A   1      40.569  27.902  28.792  1.00  0.00     0.049 A 
ATOM     44  N   UNL A   1      43.523  28.489  28.399  1.00  0.00    -0.248 NA
ATOM     45  C   UNL A   1      43.775  26.358  27.489  1.00  0.00     0.031 C 
ATOM     46  C   UNL A   1      39.154  27.627  29.047  1.00  0.00     0.029 A 
ATOM     47  N   UNL A   1      40.752  29.174  29.256  1.00  0.00    -0.354 N 
ATOM     48  C   UNL A   1      44.858  28.261  28.093  1.00  0.00     0.074 A 
ATOM     49  C   UNL A   1      44.972  26.898  27.640  1.00  0.00     0.031 C 
ATOM     50  C   UNL A   1      38.581  28.724  29.562  1.00  0.00     0.029 A 
ATOM     51  C   UNL A   1      39.599  29.756  29.720  1.00  0.00     0.049 A 
ATOM     52  H   UNL A   1      41.625  29.629  29.259  1.00  0.00     0.167 HD
ATOM     53  C   UNL A   1      45.892  29.130  28.142  1.00  0.00     0.037 A 
ATOM     54  C   UNL A   1      39.398  30.990  30.212  1.00  0.00     0.037 A 
ATOM     55  C   UNL A   1      45.753  30.491  28.578  1.00  0.00     0.049 A 
ATOM     56  C   UNL A   1      40.568  31.935  30.266  1.00  0.00     0.074 A 
ATOM     57  C   UNL A   1      46.714  31.483  28.631  1.00  0.00     0.029 A 
ATOM     58  N   UNL A   1      44.570  31.050  29.045  1.00  0.00    -0.354 N 
ATOM     59  N   UNL A   1      41.813  31.738  29.901  1.00  0.00    -0.248 NA
ATOM     60  C   UNL A   1      40.298  33.279  30.785  1.00  0.00     0.031 C 
ATOM     61  C   UNL A   1      46.131  32.618  29.201  1.00  0.00     0.029 A 
ATOM     62  C   UNL A   1      44.785  32.365  29.417  1.00  0.00     0.049 A 
ATOM     63  H   UNL A   1      43.707  30.579  29.102  1.00  0.00     0.167 HD
ATOM     64  C   UNL A   1      42.467  32.944  30.112  1.00  0.00     0.074 A 
ATOM     65  C   UNL A   1      41.470  33.869  30.614  1.00  0.00     0.031 C 
ATOM     66  C   UNL A   1      43.771  33.263  29.911  1.00  0.00     0.037 A 
BRANCH  53  67
ATOM     67  C   UNL A   1      47.244  28.630  27.719  1.00  0.00     0.064 A 
ATOM     68  C   UNL A   1      47.632  28.582  26.368  1.00  0.00     0.173 A 
ATOM     69  C   UNL A   1      48.172  28.199  28.677  1.00  0.00     0.173 A 
ATOM     70  F   UNL A   1      46.777  28.962  25.406  1.00  0.00    -0.203 F 
ATOM     71  C   UNL A   1      48.879  28.091  25.995  1.00  0.00     0.198 A 
ATOM     72  C   UNL A   1      49.434  27.747  28.304  1.00  0.00     0.198 A 
ATOM     73  F   UNL A   1      47.854  28.215  29.981  1.00  0.00    -0.203 F 
ATOM     74  F   UNL A   1      49.199  27.993  24.697  1.00  0.00    -0.200 F 
ATOM     75  C   UNL A   1      49.783  27.684  26.964  1.00  0.00     0.200 A 
ATOM     76  F   UNL A   1      50.312  27.367  29.242  1.00  0.00    -0.200 F 
ATOM     77  F   UNL A   1      50.989  27.221  26.605  1.00  0.00    -0.200 F 
ENDBRANCH  53  67
BRANCH  54  78
ATOM     78  C   UNL A   1      38.042  31.405  30.656  1.00  0.00     0.064 A 
ATOM     79  C   UNL A   1      37.068  31.806  29.731  1.00  0.00     0.173 A 
ATOM     80  C   UNL A   1      37.695  31.418  32.014  1.00  0.00     0.173 A 
ATOM     81  F   UNL A   1      37.351  31.817  28.420  1.00  0.00    -0.203 F 
ATOM     82  C   UNL A   1      35.812  32.241  30.151  1.00  0.00     0.198 A 
ATOM     83  C   UNL A   1      36.426  31.816  32.431  1.00  0.00     0.198 A 
ATOM     84  F   UNL A   1      38.583  31.028  32.939  1.00  0.00    -0.203 F 
ATOM     85  F   UNL A   1      34.922  32.679  29.250  1.00  0.00    -0.200 F 
ATOM     86  C   UNL A   1      35.491  32.242  31.499  1.00  0.00     0.200 A 
ATOM     87  F   UNL A   1      36.113  31.791  33.733  1.00  0.00    -0.200 F 
ATOM     88  F   UNL A   1      34.284  32.659  31.903  1.00  0.00    -0.200 F 
ENDBRANCH  54  78
BRANCH  66  89
ATOM     89  C   UNL A   1      44.172  34.686  30.179  1.00  0.00     0.064 A 
ATOM     90  C   UNL A   1      44.093  35.683  29.195  1.00  0.00     0.173 A 
ATOM     91  C   UNL A   1      44.643  35.055  31.449  1.00  0.00     0.173 A 
ATOM     92  F   UNL A   1      43.656  35.382  27.962  1.00  0.00    -0.203 F 
ATOM     93  C   UNL A   1      44.527  36.979  29.453  1.00  0.00     0.198 A 
ATOM     94  C   UNL A   1      45.028  36.364  31.719  1.00  0.00     0.198 A 
ATOM     95  F   UNL A   1      44.723  34.148  32.434  1.00  0.00    -0.203 F 
ATOM     96  F   UNL A   1      44.526  37.891  28.471  1.00  0.00    -0.200 F 
ATOM     97  C   UNL A   1      44.989  37.320  30.716  1.00  0.00     0.200 A 
ATOM     98  F   UNL A   1      45.449  36.697  32.947  1.00  0.00    -0.200 F 
ATOM     99  F   UNL A   1      45.408  38.569  30.963  1.00  0.00    -0.200 F 
ENDBRANCH  66  89
ENDBRANCH  40  41
ENDBRANCH  32  35
ENDBRANCH  30  31
ENDBRANCH  29  30
ENDBRANCH   1  29
TORSDOF 15
ENDMDL
MODEL 3
REMARK VINA RESULT:     -11.2      7.342     15.918
REMARK SMILES CSCC[C@H](C(=O)NCCCNC(=O)c1ccc(-c2c3nc(c(-c4c(F)c(F)c(F)c(F)c4F)c4ccc([nH]4)c(-c4c(F)c(F)c(F)c(F)c4F)c4nc(c(-c5c(F)c(F)c(F)c(F)c5F)c5ccc2[nH]5)C=C4)C=C3)cc1)N1C(=O)/C(=C/c2cn(C)c3ccccc23)SC1=S
REMARK SMILES IDX 9 1 8 2 6 3 7 4 5 6 4 7 3 8 2 9 1 10 78 11 79 12 94 13 80 14
REMARK SMILES IDX 81 15 93 16 95 17 82 18 83 19 84 20 92 21 85 22 87 23 91 24
REMARK SMILES IDX 86 25 88 26 90 27 89 28 10 29 11 30 12 31 13 32 14 34 15 35
REMARK SMILES IDX 16 36 77 37 17 38 76 39 18 40 19 41 20 42 70 43 21 44 75 45
REMARK SMILES IDX 69 46 71 47 22 48 74 49 68 50 67 51 23 53 55 54 35 55 54 56
REMARK SMILES IDX 36 57 39 58 53 59 72 60 37 61 38 62 52 64 73 65 40 66 24 67
REMARK SMILES IDX 25 68 33 69 26 70 27 71 31 72 34 73 28 74 29 75 32 76 30 77
REMARK SMILES IDX 56 78 57 79 65 80 58 81 59 82 63 83 66 84 60 85 61 86 64 87
REMARK SMILES IDX 62 88 41 89 42 90 50 91 43 92 44 93 48 94 51 95 45 96 46 97
REMARK SMILES IDX 49 98 47 99
REMARK H PARENT 8 5 12 33 71 52 39 63
REMARK Flexibility Score: inf
ROOT
ATOM      1  C   UNL A   1      42.844  40.445  28.631  1.00  0.00     0.117 C 
ENDROOT
BRANCH   1   2
ATOM      2  N   UNL A   1      42.068  40.782  29.779  1.00  0.00    -0.354 N 
ATOM      3  C   UNL A   1      42.383  41.562  30.832  1.00  0.00     0.243 C 
ATOM      4  O   UNL A   1      41.626  41.415  31.805  1.00  0.00    -0.273 OA
ATOM      5  H   UNL A   1      41.167  40.385  29.806  1.00  0.00     0.163 HD
BRANCH   3   6
ATOM      6  C   UNL A   1      43.495  42.686  30.877  1.00  0.00     0.182 C 
BRANCH   6   7
ATOM      7  C   UNL A   1      43.309  43.391  32.291  1.00  0.00     0.046 C 
BRANCH   7   8
ATOM      8  C   UNL A   1      44.187  43.098  33.518  1.00  0.00     0.072 C 
BRANCH   8   9
ATOM      9  S   UNL A   1      43.645  41.701  34.604  1.00  0.00    -0.165 SA
ATOM     10  C   UNL A   1      44.480  41.975  36.202  1.00  0.00     0.085 C 
ENDBRANCH   8   9
ENDBRANCH   7   8
ENDBRANCH   6   7
BRANCH   6  11
ATOM     11  N   UNL A   1      45.183  42.449  30.341  1.00  0.00    -0.280 N 
ATOM     12  C   UNL A   1      45.151  43.188  29.281  1.00  0.00     0.266 C 
ATOM     13  C   UNL A   1      46.549  41.249  31.209  1.00  0.00     0.149 C 
ATOM     14  O   UNL A   1      44.388  43.860  28.647  1.00  0.00    -0.268 OA
ATOM     15  C   UNL A   1      46.321  42.522  29.115  1.00  0.00     0.081 C 
ATOM     16  S   UNL A   1      47.782  40.987  30.428  1.00  0.00    -0.054 SA
ATOM     17  S   UNL A   1      46.715  40.145  32.824  1.00  0.00    -0.052 S 
ATOM     18  C   UNL A   1      46.602  42.812  27.738  1.00  0.00     0.031 C 
BRANCH  18  19
ATOM     19  C   UNL A   1      47.757  42.127  27.355  1.00  0.00     0.001 A 
ATOM     20  C   UNL A   1      47.780  40.739  27.111  1.00  0.00     0.094 A 
ATOM     21  C   UNL A   1      47.527  42.690  26.087  1.00  0.00     0.007 A 
ATOM     22  N   UNL A   1      46.739  40.306  26.252  1.00  0.00    -0.350 N 
ATOM     23  C   UNL A   1      46.011  41.429  25.889  1.00  0.00     0.048 A 
ATOM     24  C   UNL A   1      46.962  44.489  25.439  1.00  0.00     0.011 A 
ATOM     25  C   UNL A   1      46.867  39.169  25.359  1.00  0.00     0.149 C 
ATOM     26  C   UNL A   1      44.376  42.106  25.071  1.00  0.00     0.027 A 
ATOM     27  C   UNL A   1      45.354  45.186  24.536  1.00  0.00     0.001 A 
ATOM     28  C   UNL A   1      43.845  43.852  24.338  1.00  0.00     0.002 A 
ENDBRANCH  18  19
ENDBRANCH   6  11
ENDBRANCH   3   6
ENDBRANCH   1   2
BRANCH   1  29
ATOM     29  C   UNL A   1      42.893  38.958  28.391  1.00  0.00     0.042 C 
BRANCH  29  30
ATOM     30  C   UNL A   1      43.831  38.313  29.370  1.00  0.00     0.118 C 
BRANCH  30  31
ATOM     31  N   UNL A   1      45.223  38.465  28.944  1.00  0.00    -0.352 N 
ATOM     32  C   UNL A   1      46.206  37.518  28.850  1.00  0.00     0.251 C 
ATOM     33  H   UNL A   1      45.490  39.378  28.691  1.00  0.00     0.163 HD
ATOM     34  O   UNL A   1      47.384  37.844  28.789  1.00  0.00    -0.269 OA
BRANCH  32  35
ATOM     35  C   UNL A   1      45.802  36.107  28.821  1.00  0.00     0.039 A 
ATOM     36  C   UNL A   1      45.974  35.314  29.951  1.00  0.00     0.014 A 
ATOM     37  C   UNL A   1      45.204  35.595  27.668  1.00  0.00     0.014 A 
ATOM     38  C   UNL A   1      45.509  34.005  29.919  1.00  0.00     0.010 A 
ATOM     39  C   UNL A   1      44.561  34.381  27.716  1.00  0.00     0.010 A 
ATOM     40  C   UNL A   1      44.774  33.544  28.811  1.00  0.00    -0.014 A 
BRANCH  40  41
ATOM     41  C   UNL A   1      44.295  32.153  28.732  1.00  0.00     0.031 A 
ATOM     42  C   UNL A   1      42.961  31.797  29.329  1.00  0.00     0.074 A 
ATOM     43  C   UNL A   1      45.075  31.227  28.146  1.00  0.00     0.049 A 
ATOM     44  N   UNL A   1      42.352  30.640  29.355  1.00  0.00    -0.248 NA
ATOM     45  C   UNL A   1      42.225  32.867  30.028  1.00  0.00     0.031 C 
ATOM     46  C   UNL A   1      46.415  31.465  27.606  1.00  0.00     0.029 A 
ATOM     47  N   UNL A   1      44.842  29.904  27.893  1.00  0.00    -0.354 N 
ATOM     48  C   UNL A   1      41.182  30.851  30.073  1.00  0.00     0.074 A 
ATOM     49  C   UNL A   1      41.209  32.208  30.556  1.00  0.00     0.031 C 
ATOM     50  C   UNL A   1      46.859  30.342  27.024  1.00  0.00     0.029 A 
ATOM     51  C   UNL A   1      45.858  29.296  27.199  1.00  0.00     0.049 A 
ATOM     52  H   UNL A   1      44.027  29.434  28.180  1.00  0.00     0.167 HD
ATOM     53  C   UNL A   1      40.153  29.998  30.272  1.00  0.00     0.037 A 
ATOM     54  C   UNL A   1      45.956  28.031  26.754  1.00  0.00     0.037 A 
ATOM     55  C   UNL A   1      40.137  28.654  29.764  1.00  0.00     0.049 A 
ATOM     56  C   UNL A   1      44.801  27.099  26.998  1.00  0.00     0.074 A 
ATOM     57  C   UNL A   1      39.136  27.707  29.861  1.00  0.00     0.029 A 
ATOM     58  N   UNL A   1      41.184  28.066  29.067  1.00  0.00    -0.354 N 
ATOM     59  N   UNL A   1      43.663  27.327  27.611  1.00  0.00    -0.248 NA
ATOM     60  C   UNL A   1      44.939  25.737  26.473  1.00  0.00     0.031 C 
ATOM     61  C   UNL A   1      39.607  26.522  29.288  1.00  0.00     0.029 A 
ATOM     62  C   UNL A   1      40.865  26.757  28.752  1.00  0.00     0.049 A 
ATOM     63  H   UNL A   1      42.029  28.514  28.831  1.00  0.00     0.167 HD
ATOM     64  C   UNL A   1      42.935  26.149  27.513  1.00  0.00     0.074 A 
ATOM     65  C   UNL A   1      43.755  25.221  26.761  1.00  0.00     0.031 C 
ATOM     66  C   UNL A   1      41.701  25.857  27.999  1.00  0.00     0.037 A 
BRANCH  53  67
ATOM     67  C   UNL A   1      38.979  30.495  31.067  1.00  0.00     0.064 A 
ATOM     68  C   UNL A   1      37.880  31.126  30.458  1.00  0.00     0.173 A 
ATOM     69  C   UNL A   1      38.946  30.331  32.459  1.00  0.00     0.173 A 
ATOM     70  F   UNL A   1      37.868  31.329  29.132  1.00  0.00    -0.203 F 
ATOM     71  C   UNL A   1      36.814  31.603  31.216  1.00  0.00     0.198 A 
ATOM     72  C   UNL A   1      37.859  30.771  33.209  1.00  0.00     0.198 A 
ATOM     73  F   UNL A   1      39.970  29.741  33.096  1.00  0.00    -0.203 F 
ATOM     74  F   UNL A   1      35.811  32.261  30.619  1.00  0.00    -0.200 F 
ATOM     75  C   UNL A   1      36.800  31.415  32.589  1.00  0.00     0.200 A 
ATOM     76  F   UNL A   1      37.840  30.577  34.535  1.00  0.00    -0.200 F 
ATOM     77  F   UNL A   1      35.769  31.865  33.317  1.00  0.00    -0.200 F 
ENDBRANCH  53  67
BRANCH  54  78
ATOM     78  C   UNL A   1      47.167  27.593  26.013  1.00  0.00     0.064 A 
ATOM     79  C   UNL A   1      47.223  27.656  24.614  1.00  0.00     0.173 A 
ATOM     80  C   UNL A   1      48.290  27.094  26.688  1.00  0.00     0.173 A 
ATOM     81  F   UNL A   1      46.172  28.119  23.920  1.00  0.00    -0.203 F 
ATOM     82  C   UNL A   1      48.340  27.199  23.916  1.00  0.00     0.198 A 
ATOM     83  C   UNL A   1      49.422  26.674  25.993  1.00  0.00     0.198 A 
ATOM     84  F   UNL A   1      48.296  27.028  28.027  1.00  0.00    -0.203 F 
ATOM     85  F   UNL A   1      48.341  27.210  22.577  1.00  0.00    -0.200 F 
ATOM     86  C   UNL A   1      49.440  26.712  24.607  1.00  0.00     0.200 A 
ATOM     87  F   UNL A   1      50.491  26.228  26.665  1.00  0.00    -0.200 F 
ATOM     88  F   UNL A   1      50.514  26.274  23.936  1.00  0.00    -0.200 F 
ENDBRANCH  54  78
BRANCH  66  89
ATOM     89  C   UNL A   1      41.148  24.498  27.676  1.00  0.00     0.064 A 
ATOM     90  C   UNL A   1      41.645  23.329  28.270  1.00  0.00     0.173 A 
ATOM     91  C   UNL A   1      40.098  24.369  26.753  1.00  0.00     0.173 A 
ATOM     92  F   UNL A   1      42.652  23.395  29.154  1.00  0.00    -0.203 F 
ATOM     93  C   UNL A   1      41.155  22.078  27.908  1.00  0.00     0.198 A 
ATOM     94  C   UNL A   1      39.575  23.120  26.431  1.00  0.00     0.198 A 
ATOM     95  F   UNL A   1      39.572  25.454  26.167  1.00  0.00    -0.203 F 
ATOM     96  F   UNL A   1      41.707  20.970  28.422  1.00  0.00    -0.200 F 
ATOM     97  C   UNL A   1      40.117  21.975  26.993  1.00  0.00     0.200 A 
ATOM     98  F   UNL A   1      38.556  23.026  25.567  1.00  0.00    -0.200 F 
ATOM     99  F   UNL A   1      39.647  20.770  26.644  1.00  0.00    -0.200 F 
ENDBRANCH  66  89
ENDBRANCH  40  41
ENDBRANCH  32  35
ENDBRANCH  30  31
ENDBRANCH  29  30
ENDBRANCH   1  29
TORSDOF 15
ENDMDL
