MODEL 1
REMARK VINA RESULT:      -9.8      0.000      0.000
REMARK SMILES C=CCCCOC(F)(F)C(=O)NCCCNC(=O)c1ccc(-c2c3nc(c(-c4c(F)c(F)c(F)c(F)c4F)c4ccc([nH]4)c(-c4c(F)c(F)c(F)c(F)c4F)c4nc(c(-c5c(F)c(F)c(F)c(F)c5F)c5ccc2[nH]5)C=C4)C=C3)cc1
REMARK SMILES IDX 10 1 11 2 12 3 7 5 8 6 9 7 6 8 5 9 4 10 3 11 2 12 1 13 13 14
REMARK SMILES IDX 14 15 15 16 16 17 17 18 18 20 19 21 20 22 81 23 21 24 80 25
REMARK SMILES IDX 22 26 23 27 24 28 74 29 25 30 79 31 73 32 75 33 26 34 78 35
REMARK SMILES IDX 72 36 71 37 27 39 59 40 39 41 58 42 40 43 43 44 57 45 76 46
REMARK SMILES IDX 41 47 42 48 56 50 77 51 44 52 28 53 29 54 37 55 30 56 31 57
REMARK SMILES IDX 35 58 38 59 32 60 33 61 36 62 34 63 60 64 61 65 69 66 62 67
REMARK SMILES IDX 63 68 67 69 70 70 64 71 65 72 68 73 66 74 45 75 46 76 54 77
REMARK SMILES IDX 47 78 48 79 52 80 55 81 49 82 50 83 53 84 51 85
REMARK H PARENT 12 4 16 19 75 38 43 49
REMARK Flexibility Score: inf
ROOT
ATOM      1  C   UNL A   1      44.943  19.188  25.322  1.00  0.00     0.320 C 
ATOM      2  O   UNL A   1      45.391  18.042  25.384  1.00  0.00    -0.265 OA
ATOM      3  N   UNL A   1      43.659  19.426  25.799  1.00  0.00    -0.348 N 
ATOM      4  H   UNL A   1      43.155  18.641  26.116  1.00  0.00     0.163 HD
ENDROOT
BRANCH   1   5
ATOM      5  C   UNL A   1      45.707  20.417  24.714  1.00  0.00     0.436 C 
ATOM      6  F   UNL A   1      45.053  20.819  23.585  1.00  0.00    -0.165 F 
ATOM      7  F   UNL A   1      46.932  19.967  24.320  1.00  0.00    -0.165 F 
BRANCH   5   8
ATOM      8  O   UNL A   1      45.951  21.568  25.482  1.00  0.00    -0.313 OA
BRANCH   8   9
ATOM      9  C   UNL A   1      46.040  22.767  24.710  1.00  0.00     0.168 C 
BRANCH   9  10
ATOM     10  C   UNL A   1      44.735  23.568  24.556  1.00  0.00     0.033 C 
BRANCH  10  11
ATOM     11  C   UNL A   1      44.618  24.973  25.180  1.00  0.00     0.029 C 
BRANCH  11  12
ATOM     12  C   UNL A   1      44.373  25.049  26.661  1.00  0.00    -0.035 C 
ATOM     13  C   UNL A   1      43.622  24.161  27.326  1.00  0.00     0.004 C 
ENDBRANCH  11  12
ENDBRANCH  10  11
ENDBRANCH   9  10
ENDBRANCH   8   9
ENDBRANCH   5   8
ENDBRANCH   1   5
BRANCH   3  14
ATOM     14  C   UNL A   1      42.984  20.714  25.878  1.00  0.00     0.118 C 
BRANCH  14  15
ATOM     15  C   UNL A   1      41.495  20.601  26.181  1.00  0.00     0.042 C 
BRANCH  15  16
ATOM     16  C   UNL A   1      40.882  21.868  26.761  1.00  0.00     0.118 C 
BRANCH  16  17
ATOM     17  N   UNL A   1      39.677  22.286  26.061  1.00  0.00    -0.352 N 
ATOM     18  C   UNL A   1      38.950  23.448  26.144  1.00  0.00     0.251 C 
ATOM     19  H   UNL A   1      39.323  21.627  25.423  1.00  0.00     0.163 HD
ATOM     20  O   UNL A   1      37.871  23.524  25.565  1.00  0.00    -0.269 OA
BRANCH  18  21
ATOM     21  C   UNL A   1      39.440  24.593  26.940  1.00  0.00     0.039 A 
ATOM     22  C   UNL A   1      40.234  25.553  26.305  1.00  0.00     0.014 A 
ATOM     23  C   UNL A   1      39.154  24.716  28.301  1.00  0.00     0.014 A 
ATOM     24  C   UNL A   1      40.684  26.666  27.018  1.00  0.00     0.010 A 
ATOM     25  C   UNL A   1      39.528  25.868  28.989  1.00  0.00     0.010 A 
ATOM     26  C   UNL A   1      40.301  26.852  28.356  1.00  0.00    -0.014 A 
BRANCH  26  27
ATOM     27  C   UNL A   1      40.695  28.074  29.103  1.00  0.00     0.031 A 
ATOM     28  C   UNL A   1      42.085  28.212  29.658  1.00  0.00     0.074 A 
ATOM     29  C   UNL A   1      39.780  29.038  29.329  1.00  0.00     0.049 A 
ATOM     30  N   UNL A   1      42.597  29.176  30.381  1.00  0.00    -0.248 NA
ATOM     31  C   UNL A   1      43.019  27.107  29.388  1.00  0.00     0.031 C 
ATOM     32  C   UNL A   1      38.387  29.001  28.881  1.00  0.00     0.029 A 
ATOM     33  N   UNL A   1      39.883  30.231  29.997  1.00  0.00    -0.354 N 
ATOM     34  C   UNL A   1      43.902  28.791  30.658  1.00  0.00     0.074 A 
ATOM     35  C   UNL A   1      44.087  27.478  30.077  1.00  0.00     0.031 C 
ATOM     36  C   UNL A   1      37.773  30.131  29.263  1.00  0.00     0.029 A 
ATOM     37  C   UNL A   1      38.713  30.952  30.021  1.00  0.00     0.049 A 
ATOM     38  H   UNL A   1      40.715  30.542  30.421  1.00  0.00     0.167 HD
ATOM     39  C   UNL A   1      44.866  29.480  31.314  1.00  0.00     0.037 A 
ATOM     40  C   UNL A   1      38.428  32.135  30.596  1.00  0.00     0.037 A 
ATOM     41  C   UNL A   1      44.682  30.792  31.878  1.00  0.00     0.049 A 
ATOM     42  C   UNL A   1      39.511  32.868  31.341  1.00  0.00     0.074 A 
ATOM     43  C   UNL A   1      45.611  31.594  32.518  1.00  0.00     0.029 A 
ATOM     44  N   UNL A   1      43.484  31.492  31.878  1.00  0.00    -0.354 N 
ATOM     45  N   UNL A   1      40.762  32.526  31.535  1.00  0.00    -0.248 NA
ATOM     46  C   UNL A   1      39.143  34.157  31.941  1.00  0.00     0.031 C 
ATOM     47  C   UNL A   1      44.961  32.753  32.955  1.00  0.00     0.029 A 
ATOM     48  C   UNL A   1      43.643  32.704  32.531  1.00  0.00     0.049 A 
ATOM     49  H   UNL A   1      42.644  31.174  31.474  1.00  0.00     0.167 HD
ATOM     50  C   UNL A   1      41.337  33.568  32.250  1.00  0.00     0.074 A 
ATOM     51  C   UNL A   1      40.301  34.564  32.439  1.00  0.00     0.031 C 
ATOM     52  C   UNL A   1      42.607  33.690  32.708  1.00  0.00     0.037 A 
BRANCH  39  53
ATOM     53  C   UNL A   1      46.211  28.826  31.460  1.00  0.00     0.064 A 
ATOM     54  C   UNL A   1      47.211  28.971  30.485  1.00  0.00     0.173 A 
ATOM     55  C   UNL A   1      46.521  28.077  32.606  1.00  0.00     0.173 A 
ATOM     56  F   UNL A   1      46.966  29.667  29.364  1.00  0.00    -0.203 F 
ATOM     57  C   UNL A   1      48.456  28.364  30.637  1.00  0.00     0.198 A 
ATOM     58  C   UNL A   1      47.778  27.502  32.771  1.00  0.00     0.198 A 
ATOM     59  F   UNL A   1      45.606  27.913  33.573  1.00  0.00    -0.203 F 
ATOM     60  F   UNL A   1      49.374  28.472  29.667  1.00  0.00    -0.200 F 
ATOM     61  C   UNL A   1      48.741  27.638  31.783  1.00  0.00     0.200 A 
ATOM     62  F   UNL A   1      48.057  26.815  33.886  1.00  0.00    -0.200 F 
ATOM     63  F   UNL A   1      49.943  27.063  31.931  1.00  0.00    -0.200 F 
ENDBRANCH  39  53
BRANCH  40  64
ATOM     64  C   UNL A   1      37.063  32.712  30.474  1.00  0.00     0.064 A 
ATOM     65  C   UNL A   1      36.717  33.520  29.382  1.00  0.00     0.173 A 
ATOM     66  C   UNL A   1      36.081  32.479  31.449  1.00  0.00     0.173 A 
ATOM     67  F   UNL A   1      37.627  33.788  28.433  1.00  0.00    -0.203 F 
ATOM     68  C   UNL A   1      35.451  34.093  29.281  1.00  0.00     0.198 A 
ATOM     69  C   UNL A   1      34.805  33.026  31.331  1.00  0.00     0.198 A 
ATOM     70  F   UNL A   1      36.358  31.709  32.511  1.00  0.00    -0.203 F 
ATOM     71  F   UNL A   1      35.165  34.904  28.253  1.00  0.00    -0.200 F 
ATOM     72  C   UNL A   1      34.495  33.840  30.253  1.00  0.00     0.200 A 
ATOM     73  F   UNL A   1      33.879  32.766  32.263  1.00  0.00    -0.200 F 
ATOM     74  F   UNL A   1      33.276  34.390  30.155  1.00  0.00    -0.200 F 
ENDBRANCH  40  64
BRANCH  52  75
ATOM     75  C   UNL A   1      42.963  34.964  33.422  1.00  0.00     0.064 A 
ATOM     76  C   UNL A   1      43.417  36.098  32.733  1.00  0.00     0.173 A 
ATOM     77  C   UNL A   1      42.817  35.058  34.815  1.00  0.00     0.173 A 
ATOM     78  F   UNL A   1      43.587  36.055  31.402  1.00  0.00    -0.203 F 
ATOM     79  C   UNL A   1      43.742  37.268  33.414  1.00  0.00     0.198 A 
ATOM     80  C   UNL A   1      43.109  36.241  35.489  1.00  0.00     0.198 A 
ATOM     81  F   UNL A   1      42.380  34.006  35.523  1.00  0.00    -0.203 F 
ATOM     82  F   UNL A   1      44.227  38.320  32.741  1.00  0.00    -0.200 F 
ATOM     83  C   UNL A   1      43.579  37.341  34.790  1.00  0.00     0.200 A 
ATOM     84  F   UNL A   1      42.936  36.314  36.815  1.00  0.00    -0.200 F 
ATOM     85  F   UNL A   1      43.886  38.471  35.442  1.00  0.00    -0.200 F 
ENDBRANCH  52  75
ENDBRANCH  26  27
ENDBRANCH  18  21
ENDBRANCH  16  17
ENDBRANCH  15  16
ENDBRANCH  14  15
ENDBRANCH   3  14
TORSDOF 15
ENDMDL
MODEL 2
REMARK VINA RESULT:      -9.8      4.991     10.161
REMARK SMILES C=CCCCOC(F)(F)C(=O)NCCCNC(=O)c1ccc(-c2c3nc(c(-c4c(F)c(F)c(F)c(F)c4F)c4ccc([nH]4)c(-c4c(F)c(F)c(F)c(F)c4F)c4nc(c(-c5c(F)c(F)c(F)c(F)c5F)c5ccc2[nH]5)C=C4)C=C3)cc1
REMARK SMILES IDX 10 1 11 2 12 3 7 5 8 6 9 7 6 8 5 9 4 10 3 11 2 12 1 13 13 14
REMARK SMILES IDX 14 15 15 16 16 17 17 18 18 20 19 21 20 22 81 23 21 24 80 25
REMARK SMILES IDX 22 26 23 27 24 28 74 29 25 30 79 31 73 32 75 33 26 34 78 35
REMARK SMILES IDX 72 36 71 37 27 39 59 40 39 41 58 42 40 43 43 44 57 45 76 46
REMARK SMILES IDX 41 47 42 48 56 50 77 51 44 52 28 53 29 54 37 55 30 56 31 57
REMARK SMILES IDX 35 58 38 59 32 60 33 61 36 62 34 63 60 64 61 65 69 66 62 67
REMARK SMILES IDX 63 68 67 69 70 70 64 71 65 72 68 73 66 74 45 75 46 76 54 77
REMARK SMILES IDX 47 78 48 79 52 80 55 81 49 82 50 83 53 84 51 85
REMARK H PARENT 12 4 16 19 75 38 43 49
REMARK Flexibility Score: inf
ROOT
ATOM      1  C   UNL A   1      33.216  28.978  26.198  1.00  0.00     0.320 C 
ATOM      2  O   UNL A   1      34.249  28.567  26.729  1.00  0.00    -0.265 OA
ATOM      3  N   UNL A   1      32.664  30.169  26.654  1.00  0.00    -0.348 N 
ATOM      4  H   UNL A   1      33.109  30.596  27.422  1.00  0.00     0.163 HD
ENDROOT
BRANCH   1   5
ATOM      5  C   UNL A   1      32.445  28.239  25.047  1.00  0.00     0.436 C 
ATOM      6  F   UNL A   1      31.261  27.775  25.546  1.00  0.00    -0.165 F 
ATOM      7  F   UNL A   1      33.187  27.145  24.712  1.00  0.00    -0.165 F 
BRANCH   5   8
ATOM      8  O   UNL A   1      32.157  28.891  23.836  1.00  0.00    -0.313 OA
BRANCH   8   9
ATOM      9  C   UNL A   1      31.385  28.102  22.928  1.00  0.00     0.168 C 
BRANCH   9  10
ATOM     10  C   UNL A   1      29.869  28.365  22.928  1.00  0.00     0.033 C 
BRANCH  10  11
ATOM     11  C   UNL A   1      29.321  29.703  22.396  1.00  0.00     0.029 C 
BRANCH  11  12
ATOM     12  C   UNL A   1      28.958  30.750  23.411  1.00  0.00    -0.035 C 
ATOM     13  C   UNL A   1      27.711  31.214  23.571  1.00  0.00     0.004 C 
ENDBRANCH  11  12
ENDBRANCH  10  11
ENDBRANCH   9  10
ENDBRANCH   8   9
ENDBRANCH   5   8
ENDBRANCH   1   5
BRANCH   3  14
ATOM     14  C   UNL A   1      31.496  30.852  26.113  1.00  0.00     0.118 C 
BRANCH  14  15
ATOM     15  C   UNL A   1      31.299  32.255  26.672  1.00  0.00     0.042 C 
BRANCH  15  16
ATOM     16  C   UNL A   1      32.574  32.896  27.202  1.00  0.00     0.118 C 
BRANCH  16  17
ATOM     17  N   UNL A   1      32.380  34.273  27.631  1.00  0.00    -0.352 N 
ATOM     18  C   UNL A   1      33.010  35.005  28.605  1.00  0.00     0.251 C 
ATOM     19  H   UNL A   1      31.680  34.760  27.141  1.00  0.00     0.163 HD
ATOM     20  O   UNL A   1      32.576  36.114  28.899  1.00  0.00    -0.269 OA
BRANCH  18  21
ATOM     21  C   UNL A   1      34.186  34.463  29.319  1.00  0.00     0.039 A 
ATOM     22  C   UNL A   1      33.982  33.822  30.545  1.00  0.00     0.014 A 
ATOM     23  C   UNL A   1      35.480  34.605  28.815  1.00  0.00     0.014 A 
ATOM     24  C   UNL A   1      35.065  33.267  31.228  1.00  0.00     0.010 A 
ATOM     25  C   UNL A   1      36.547  33.977  29.451  1.00  0.00     0.010 A 
ATOM     26  C   UNL A   1      36.353  33.306  30.667  1.00  0.00    -0.014 A 
BRANCH  26  27
ATOM     27  C   UNL A   1      37.501  32.643  31.336  1.00  0.00     0.031 A 
ATOM     28  C   UNL A   1      38.222  31.508  30.665  1.00  0.00     0.074 A 
ATOM     29  C   UNL A   1      37.859  33.030  32.577  1.00  0.00     0.049 A 
ATOM     30  N   UNL A   1      39.208  30.772  31.113  1.00  0.00    -0.248 NA
ATOM     31  C   UNL A   1      37.757  31.131  29.321  1.00  0.00     0.031 C 
ATOM     32  C   UNL A   1      37.209  34.088  33.352  1.00  0.00     0.029 A 
ATOM     33  N   UNL A   1      38.851  32.573  33.406  1.00  0.00    -0.354 N 
ATOM     34  C   UNL A   1      39.473  29.845  30.115  1.00  0.00     0.074 A 
ATOM     35  C   UNL A   1      38.506  30.069  29.062  1.00  0.00     0.031 C 
ATOM     36  C   UNL A   1      37.837  34.218  34.531  1.00  0.00     0.029 A 
ATOM     37  C   UNL A   1      38.902  33.224  34.615  1.00  0.00     0.049 A 
ATOM     38  H   UNL A   1      39.468  31.847  33.159  1.00  0.00     0.167 HD
ATOM     39  C   UNL A   1      40.451  28.908  30.069  1.00  0.00     0.037 A 
ATOM     40  C   UNL A   1      39.710  33.034  35.675  1.00  0.00     0.037 A 
ATOM     41  C   UNL A   1      41.419  28.696  31.113  1.00  0.00     0.049 A 
ATOM     42  C   UNL A   1      40.770  31.969  35.608  1.00  0.00     0.074 A 
ATOM     43  C   UNL A   1      42.480  27.807  31.139  1.00  0.00     0.029 A 
ATOM     44  N   UNL A   1      41.442  29.378  32.321  1.00  0.00    -0.354 N 
ATOM     45  N   UNL A   1      41.057  31.145  34.629  1.00  0.00    -0.248 NA
ATOM     46  C   UNL A   1      41.626  31.813  36.792  1.00  0.00     0.031 C 
ATOM     47  C   UNL A   1      43.107  27.910  32.384  1.00  0.00     0.029 A 
ATOM     48  C   UNL A   1      42.480  28.910  33.110  1.00  0.00     0.049 A 
ATOM     49  H   UNL A   1      40.812  30.090  32.580  1.00  0.00     0.167 HD
ATOM     50  C   UNL A   1      42.143  30.397  35.065  1.00  0.00     0.074 A 
ATOM     51  C   UNL A   1      42.475  30.878  36.391  1.00  0.00     0.031 C 
ATOM     52  C   UNL A   1      42.805  29.402  34.426  1.00  0.00     0.037 A 
BRANCH  39  53
ATOM     53  C   UNL A   1      40.520  28.035  28.847  1.00  0.00     0.064 A 
ATOM     54  C   UNL A   1      39.821  26.820  28.768  1.00  0.00     0.173 A 
ATOM     55  C   UNL A   1      41.261  28.436  27.725  1.00  0.00     0.173 A 
ATOM     56  F   UNL A   1      39.105  26.384  29.815  1.00  0.00    -0.203 F 
ATOM     57  C   UNL A   1      39.889  26.025  27.626  1.00  0.00     0.198 A 
ATOM     58  C   UNL A   1      41.299  27.656  26.572  1.00  0.00     0.198 A 
ATOM     59  F   UNL A   1      41.942  29.592  27.742  1.00  0.00    -0.203 F 
ATOM     60  F   UNL A   1      39.257  24.844  27.596  1.00  0.00    -0.200 F 
ATOM     61  C   UNL A   1      40.620  26.448  26.527  1.00  0.00     0.200 A 
ATOM     62  F   UNL A   1      41.992  28.074  25.505  1.00  0.00    -0.200 F 
ATOM     63  F   UNL A   1      40.677  25.686  25.425  1.00  0.00    -0.200 F 
ENDBRANCH  39  53
BRANCH  40  64
ATOM     64  C   UNL A   1      39.561  33.885  36.886  1.00  0.00     0.064 A 
ATOM     65  C   UNL A   1      38.797  33.454  37.980  1.00  0.00     0.173 A 
ATOM     66  C   UNL A   1      40.167  35.148  36.971  1.00  0.00     0.173 A 
ATOM     67  F   UNL A   1      38.181  32.263  37.939  1.00  0.00    -0.203 F 
ATOM     68  C   UNL A   1      38.624  34.263  39.102  1.00  0.00     0.198 A 
ATOM     69  C   UNL A   1      40.021  35.941  38.107  1.00  0.00     0.198 A 
ATOM     70  F   UNL A   1      40.913  35.605  35.955  1.00  0.00    -0.203 F 
ATOM     71  F   UNL A   1      37.846  33.848  40.111  1.00  0.00    -0.200 F 
ATOM     72  C   UNL A   1      39.241  35.503  39.166  1.00  0.00     0.200 A 
ATOM     73  F   UNL A   1      40.632  37.132  38.172  1.00  0.00    -0.200 F 
ATOM     74  F   UNL A   1      39.078  36.280  40.246  1.00  0.00    -0.200 F 
ENDBRANCH  40  64
BRANCH  52  75
ATOM     75  C   UNL A   1      43.984  28.792  35.132  1.00  0.00     0.064 A 
ATOM     76  C   UNL A   1      43.850  27.674  35.968  1.00  0.00     0.173 A 
ATOM     77  C   UNL A   1      45.272  29.318  34.942  1.00  0.00     0.173 A 
ATOM     78  F   UNL A   1      42.639  27.142  36.195  1.00  0.00    -0.203 F 
ATOM     79  C   UNL A   1      44.955  27.126  36.613  1.00  0.00     0.198 A 
ATOM     80  C   UNL A   1      46.379  28.745  35.560  1.00  0.00     0.198 A 
ATOM     81  F   UNL A   1      45.458  30.382  34.146  1.00  0.00    -0.203 F 
ATOM     82  F   UNL A   1      44.794  26.093  37.451  1.00  0.00    -0.200 F 
ATOM     83  C   UNL A   1      46.219  27.656  36.402  1.00  0.00     0.200 A 
ATOM     84  F   UNL A   1      47.601  29.249  35.341  1.00  0.00    -0.200 F 
ATOM     85  F   UNL A   1      47.283  27.121  37.018  1.00  0.00    -0.200 F 
ENDBRANCH  52  75
ENDBRANCH  26  27
ENDBRANCH  18  21
ENDBRANCH  16  17
ENDBRANCH  15  16
ENDBRANCH  14  15
ENDBRANCH   3  14
TORSDOF 15
ENDMDL
MODEL 3
REMARK VINA RESULT:      -9.7      4.214     10.037
REMARK SMILES C=CCCCOC(F)(F)C(=O)NCCCNC(=O)c1ccc(-c2c3nc(c(-c4c(F)c(F)c(F)c(F)c4F)c4ccc([nH]4)c(-c4c(F)c(F)c(F)c(F)c4F)c4nc(c(-c5c(F)c(F)c(F)c(F)c5F)c5ccc2[nH]5)C=C4)C=C3)cc1
REMARK SMILES IDX 10 1 11 2 12 3 7 5 8 6 9 7 6 8 5 9 4 10 3 11 2 12 1 13 13 14
REMARK SMILES IDX 14 15 15 16 16 17 17 18 18 20 19 21 20 22 81 23 21 24 80 25
REMARK SMILES IDX 22 26 23 27 24 28 74 29 25 30 79 31 73 32 75 33 26 34 78 35
REMARK SMILES IDX 72 36 71 37 27 39 59 40 39 41 58 42 40 43 43 44 57 45 76 46
REMARK SMILES IDX 41 47 42 48 56 50 77 51 44 52 28 53 29 54 37 55 30 56 31 57
REMARK SMILES IDX 35 58 38 59 32 60 33 61 36 62 34 63 60 64 61 65 69 66 62 67
REMARK SMILES IDX 63 68 67 69 70 70 64 71 65 72 68 73 66 74 45 75 46 76 54 77
REMARK SMILES IDX 47 78 48 79 52 80 55 81 49 82 50 83 53 84 51 85
REMARK H PARENT 12 4 16 19 75 38 43 49
REMARK Flexibility Score: inf
ROOT
ATOM      1  C   UNL A   1      34.043  20.239  24.849  1.00  0.00     0.320 C 
ATOM      2  O   UNL A   1      33.113  19.431  24.861  1.00  0.00    -0.265 OA
ATOM      3  N   UNL A   1      35.334  19.767  25.051  1.00  0.00    -0.348 N 
ATOM      4  H   UNL A   1      35.427  18.806  25.248  1.00  0.00     0.163 HD
ENDROOT
BRANCH   1   5
ATOM      5  C   UNL A   1      33.882  21.787  24.646  1.00  0.00     0.436 C 
ATOM      6  F   UNL A   1      32.575  22.052  24.351  1.00  0.00    -0.165 F 
ATOM      7  F   UNL A   1      34.610  22.120  23.542  1.00  0.00    -0.165 F 
BRANCH   5   8
ATOM      8  O   UNL A   1      34.271  22.692  25.648  1.00  0.00    -0.313 OA
BRANCH   8   9
ATOM      9  C   UNL A   1      33.389  23.808  25.790  1.00  0.00     0.168 C 
BRANCH   9  10
ATOM     10  C   UNL A   1      34.043  25.198  25.707  1.00  0.00     0.033 C 
BRANCH  10  11
ATOM     11  C   UNL A   1      33.189  26.463  25.919  1.00  0.00     0.029 C 
BRANCH  11  12
ATOM     12  C   UNL A   1      33.919  27.760  26.129  1.00  0.00    -0.035 C 
ATOM     13  C   UNL A   1      33.660  28.588  27.150  1.00  0.00     0.004 C 
ENDBRANCH  11  12
ENDBRANCH  10  11
ENDBRANCH   9  10
ENDBRANCH   8   9
ENDBRANCH   5   8
ENDBRANCH   1   5
BRANCH   3  14
ATOM     14  C   UNL A   1      36.564  20.546  25.003  1.00  0.00     0.118 C 
BRANCH  14  15
ATOM     15  C   UNL A   1      37.819  19.692  24.882  1.00  0.00     0.042 C 
BRANCH  15  16
ATOM     16  C   UNL A   1      38.974  20.158  25.757  1.00  0.00     0.118 C 
BRANCH  16  17
ATOM     17  N   UNL A   1      40.031  19.166  25.877  1.00  0.00    -0.352 N 
ATOM     18  C   UNL A   1      41.378  19.313  26.095  1.00  0.00     0.251 C 
ATOM     19  H   UNL A   1      39.731  18.233  25.787  1.00  0.00     0.163 HD
ATOM     20  O   UNL A   1      42.112  18.334  26.009  1.00  0.00    -0.269 OA
BRANCH  18  21
ATOM     21  C   UNL A   1      41.955  20.639  26.406  1.00  0.00     0.039 A 
ATOM     22  C   UNL A   1      42.256  21.499  25.345  1.00  0.00     0.014 A 
ATOM     23  C   UNL A   1      42.228  21.030  27.719  1.00  0.00     0.014 A 
ATOM     24  C   UNL A   1      42.768  22.771  25.605  1.00  0.00     0.010 A 
ATOM     25  C   UNL A   1      42.655  22.329  27.982  1.00  0.00     0.010 A 
ATOM     26  C   UNL A   1      42.935  23.211  26.929  1.00  0.00    -0.014 A 
BRANCH  26  27
ATOM     27  C   UNL A   1      43.393  24.593  27.225  1.00  0.00     0.031 A 
ATOM     28  C   UNL A   1      42.430  25.617  27.753  1.00  0.00     0.074 A 
ATOM     29  C   UNL A   1      44.670  24.938  26.964  1.00  0.00     0.049 A 
ATOM     30  N   UNL A   1      42.630  26.884  28.019  1.00  0.00    -0.248 NA
ATOM     31  C   UNL A   1      41.049  25.168  27.991  1.00  0.00     0.031 C 
ATOM     32  C   UNL A   1      45.689  24.046  26.408  1.00  0.00     0.029 A 
ATOM     33  N   UNL A   1      45.325  26.132  27.124  1.00  0.00    -0.354 N 
ATOM     34  C   UNL A   1      41.406  27.381  28.444  1.00  0.00     0.074 A 
ATOM     35  C   UNL A   1      40.452  26.297  28.344  1.00  0.00     0.031 C 
ATOM     36  C   UNL A   1      46.847  24.716  26.300  1.00  0.00     0.029 A 
ATOM     37  C   UNL A   1      46.642  26.095  26.734  1.00  0.00     0.049 A 
ATOM     38  H   UNL A   1      44.893  26.940  27.484  1.00  0.00     0.167 HD
ATOM     39  C   UNL A   1      41.109  28.621  28.901  1.00  0.00     0.037 A 
ATOM     40  C   UNL A   1      47.576  27.064  26.719  1.00  0.00     0.037 A 
ATOM     41  C   UNL A   1      42.063  29.694  29.011  1.00  0.00     0.049 A 
ATOM     42  C   UNL A   1      47.212  28.440  27.208  1.00  0.00     0.074 A 
ATOM     43  C   UNL A   1      41.872  30.971  29.509  1.00  0.00     0.029 A 
ATOM     44  N   UNL A   1      43.389  29.616  28.610  1.00  0.00    -0.354 N 
ATOM     45  N   UNL A   1      46.068  28.880  27.674  1.00  0.00    -0.248 NA
ATOM     46  C   UNL A   1      48.274  29.455  27.175  1.00  0.00     0.031 C 
ATOM     47  C   UNL A   1      43.065  31.683  29.356  1.00  0.00     0.029 A 
ATOM     48  C   UNL A   1      44.020  30.832  28.824  1.00  0.00     0.049 A 
ATOM     49  H   UNL A   1      43.819  28.816  28.230  1.00  0.00     0.167 HD
ATOM     50  C   UNL A   1      46.280  30.208  28.019  1.00  0.00     0.074 A 
ATOM     51  C   UNL A   1      47.669  30.498  27.724  1.00  0.00     0.031 C 
ATOM     52  C   UNL A   1      45.405  31.106  28.532  1.00  0.00     0.037 A 
BRANCH  39  53
ATOM     53  C   UNL A   1      39.688  28.888  29.314  1.00  0.00     0.064 A 
ATOM     54  C   UNL A   1      39.255  28.691  30.635  1.00  0.00     0.173 A 
ATOM     55  C   UNL A   1      38.756  29.385  28.390  1.00  0.00     0.173 A 
ATOM     56  F   UNL A   1      40.102  28.208  31.558  1.00  0.00    -0.203 F 
ATOM     57  C   UNL A   1      37.938  28.950  31.006  1.00  0.00     0.198 A 
ATOM     58  C   UNL A   1      37.450  29.675  28.771  1.00  0.00     0.198 A 
ATOM     59  F   UNL A   1      39.118  29.599  27.115  1.00  0.00    -0.203 F 
ATOM     60  F   UNL A   1      37.536  28.702  32.260  1.00  0.00    -0.200 F 
ATOM     61  C   UNL A   1      37.039  29.449  30.076  1.00  0.00     0.200 A 
ATOM     62  F   UNL A   1      36.587  30.173  27.876  1.00  0.00    -0.200 F 
ATOM     63  F   UNL A   1      35.774  29.706  30.437  1.00  0.00    -0.200 F 
ENDBRANCH  39  53
BRANCH  40  64
ATOM     64  C   UNL A   1      48.953  26.764  26.243  1.00  0.00     0.064 A 
ATOM     65  C   UNL A   1      49.925  26.265  27.120  1.00  0.00     0.173 A 
ATOM     66  C   UNL A   1      49.327  26.980  24.908  1.00  0.00     0.173 A 
ATOM     67  F   UNL A   1      49.621  26.060  28.411  1.00  0.00    -0.203 F 
ATOM     68  C   UNL A   1      51.227  26.017  26.688  1.00  0.00     0.198 A 
ATOM     69  C   UNL A   1      50.620  26.701  24.470  1.00  0.00     0.198 A 
ATOM     70  F   UNL A   1      48.433  27.451  24.027  1.00  0.00    -0.203 F 
ATOM     71  F   UNL A   1      52.150  25.590  27.560  1.00  0.00    -0.200 F 
ATOM     72  C   UNL A   1      51.571  26.229  25.362  1.00  0.00     0.200 A 
ATOM     73  F   UNL A   1      50.944  26.892  23.184  1.00  0.00    -0.200 F 
ATOM     74  F   UNL A   1      52.822  25.988  24.945  1.00  0.00    -0.200 F 
ENDBRANCH  40  64
BRANCH  52  75
ATOM     75  C   UNL A   1      45.931  32.478  28.851  1.00  0.00     0.064 A 
ATOM     76  C   UNL A   1      45.866  33.530  27.925  1.00  0.00     0.173 A 
ATOM     77  C   UNL A   1      46.478  32.750  30.115  1.00  0.00     0.173 A 
ATOM     78  F   UNL A   1      45.365  33.318  26.697  1.00  0.00    -0.203 F 
ATOM     79  C   UNL A   1      46.360  34.793  28.240  1.00  0.00     0.198 A 
ATOM     80  C   UNL A   1      46.938  34.023  30.438  1.00  0.00     0.198 A 
ATOM     81  F   UNL A   1      46.558  31.783  31.041  1.00  0.00    -0.203 F 
ATOM     82  F   UNL A   1      46.339  35.766  27.319  1.00  0.00    -0.200 F 
ATOM     83  C   UNL A   1      46.887  35.041  29.498  1.00  0.00     0.200 A 
ATOM     84  F   UNL A   1      47.432  34.265  31.660  1.00  0.00    -0.200 F 
ATOM     85  F   UNL A   1      47.354  36.260  29.802  1.00  0.00    -0.200 F 
ENDBRANCH  52  75
ENDBRANCH  26  27
ENDBRANCH  18  21
ENDBRANCH  16  17
ENDBRANCH  15  16
ENDBRANCH  14  15
ENDBRANCH   3  14
TORSDOF 15
ENDMDL
