MODEL 1
REMARK VINA RESULT:     -13.3      0.000      0.000
REMARK SMILES O=C(NCCCNC(=O)[C@H]1[C@H]2CC[C@H](C2)[C@@H]1C(=O)N1CC[NH+](C2CCCCC2)CC1)c1ccc(-c2c3nc(c(-c4c(F)c(F)c(F)c(F)c4F)c4ccc([nH]4)c(-c4c(F)c(F)c(F)c(F)c4F)c4nc(c(-c5c(F)c(F)c(F)c(F)c5F)c5ccc2[nH]5)C=C4)C=C3)cc1
REMARK SMILES IDX 5 1 4 2 3 3 1 4 2 5 31 7 32 8 93 9 33 10 92 11 34 12 35 13
REMARK SMILES IDX 36 14 86 15 37 16 91 17 85 18 87 19 38 20 90 21 84 22 83 23
REMARK SMILES IDX 39 25 71 26 51 27 70 28 52 29 55 30 69 31 88 32 53 33 54 34
REMARK SMILES IDX 68 36 89 37 56 38 40 39 41 40 49 41 42 42 43 43 47 44 50 45
REMARK SMILES IDX 44 46 45 47 48 48 46 49 72 50 73 51 81 52 74 53 75 54 79 55
REMARK SMILES IDX 82 56 76 57 77 58 80 59 78 60 57 61 58 62 66 63 59 64 60 65
REMARK SMILES IDX 64 66 67 67 61 68 62 69 65 70 63 71 6 72 7 73 8 74 9 76
REMARK SMILES IDX 10 77 11 78 16 79 12 80 15 81 14 82 13 83 17 84 18 85 19 86
REMARK SMILES IDX 20 87 30 88 21 89 29 90 22 91 23 93 24 94 28 95 25 96 27 97
REMARK SMILES IDX 26 98
REMARK H PARENT 3 6 87 24 55 35 7 75 22 92
REMARK Flexibility Score: inf
ROOT
ATOM      1  C   UNL A   1      38.173  19.666  25.008  1.00  0.00     0.042 C 
ENDROOT
BRANCH   1   2
ATOM      2  C   UNL A   1      39.192  20.094  26.043  1.00  0.00     0.118 C 
BRANCH   2   3
ATOM      3  N   UNL A   1      40.349  19.203  26.060  1.00  0.00    -0.352 N 
ATOM      4  O   UNL A   1      42.509  18.634  25.751  1.00  0.00    -0.269 OA
ATOM      5  C   UNL A   1      41.693  19.494  26.058  1.00  0.00     0.251 C 
ATOM      6  H   UNL A   1      40.134  18.243  26.076  1.00  0.00     0.163 HD
BRANCH   5   7
ATOM      7  C   UNL A   1      42.145  20.851  26.420  1.00  0.00     0.039 A 
ATOM      8  C   UNL A   1      42.278  21.825  25.432  1.00  0.00     0.014 A 
ATOM      9  C   UNL A   1      42.401  21.166  27.757  1.00  0.00     0.014 A 
ATOM     10  C   UNL A   1      42.850  23.047  25.737  1.00  0.00     0.010 A 
ATOM     11  C   UNL A   1      42.840  22.449  28.085  1.00  0.00     0.010 A 
ATOM     12  C   UNL A   1      43.092  23.388  27.072  1.00  0.00    -0.014 A 
BRANCH  12  13
ATOM     13  C   UNL A   1      43.513  24.769  27.393  1.00  0.00     0.031 A 
ATOM     14  C   UNL A   1      42.538  25.755  27.955  1.00  0.00     0.074 A 
ATOM     15  C   UNL A   1      44.790  25.117  27.153  1.00  0.00     0.049 A 
ATOM     16  N   UNL A   1      42.705  27.029  28.201  1.00  0.00    -0.248 NA
ATOM     17  C   UNL A   1      41.193  25.251  28.269  1.00  0.00     0.031 C 
ATOM     18  C   UNL A   1      45.819  24.225  26.613  1.00  0.00     0.029 A 
ATOM     19  N   UNL A   1      45.444  26.309  27.323  1.00  0.00    -0.354 N 
ATOM     20  C   UNL A   1      41.481  27.487  28.665  1.00  0.00     0.074 A 
ATOM     21  C   UNL A   1      40.573  26.360  28.647  1.00  0.00     0.031 C 
ATOM     22  C   UNL A   1      46.975  24.891  26.513  1.00  0.00     0.029 A 
ATOM     23  C   UNL A   1      46.747  26.278  26.895  1.00  0.00     0.049 A 
ATOM     24  H   UNL A   1      45.021  27.107  27.714  1.00  0.00     0.167 HD
ATOM     25  C   UNL A   1      41.154  28.739  29.066  1.00  0.00     0.037 A 
ATOM     26  C   UNL A   1      47.647  27.268  26.768  1.00  0.00     0.037 A 
ATOM     27  C   UNL A   1      42.082  29.842  29.077  1.00  0.00     0.049 A 
ATOM     28  C   UNL A   1      47.251  28.654  27.174  1.00  0.00     0.074 A 
ATOM     29  C   UNL A   1      41.872  31.142  29.501  1.00  0.00     0.029 A 
ATOM     30  N   UNL A   1      43.395  29.775  28.627  1.00  0.00    -0.354 N 
ATOM     31  N   UNL A   1      46.100  29.077  27.638  1.00  0.00    -0.248 NA
ATOM     32  C   UNL A   1      48.270  29.700  27.039  1.00  0.00     0.031 C 
ATOM     33  C   UNL A   1      43.035  31.876  29.244  1.00  0.00     0.029 A 
ATOM     34  C   UNL A   1      43.997  31.019  28.730  1.00  0.00     0.049 A 
ATOM     35  H   UNL A   1      43.834  28.962  28.285  1.00  0.00     0.167 HD
ATOM     36  C   UNL A   1      46.259  30.432  27.875  1.00  0.00     0.074 A 
ATOM     37  C   UNL A   1      47.622  30.761  27.505  1.00  0.00     0.031 C 
ATOM     38  C   UNL A   1      45.359  31.322  28.362  1.00  0.00     0.037 A 
BRANCH  25  39
ATOM     39  C   UNL A   1      39.728  28.988  29.470  1.00  0.00     0.064 A 
ATOM     40  C   UNL A   1      39.283  28.807  30.789  1.00  0.00     0.173 A 
ATOM     41  C   UNL A   1      38.789  29.416  28.518  1.00  0.00     0.173 A 
ATOM     42  F   UNL A   1      40.133  28.390  31.739  1.00  0.00    -0.203 F 
ATOM     43  C   UNL A   1      37.944  28.997  31.127  1.00  0.00     0.198 A 
ATOM     44  C   UNL A   1      37.460  29.641  28.868  1.00  0.00     0.198 A 
ATOM     45  F   UNL A   1      39.160  29.615  27.244  1.00  0.00    -0.203 F 
ATOM     46  F   UNL A   1      37.529  28.747  32.377  1.00  0.00    -0.200 F 
ATOM     47  C   UNL A   1      37.036  29.418  30.168  1.00  0.00     0.200 A 
ATOM     48  F   UNL A   1      36.588  30.063  27.942  1.00  0.00    -0.200 F 
ATOM     49  F   UNL A   1      35.748  29.595  30.494  1.00  0.00    -0.200 F 
ENDBRANCH  25  39
BRANCH  26  50
ATOM     50  C   UNL A   1      48.985  26.957  26.206  1.00  0.00     0.064 A 
ATOM     51  C   UNL A   1      50.004  26.434  27.009  1.00  0.00     0.173 A 
ATOM     52  C   UNL A   1      49.241  27.098  24.832  1.00  0.00     0.173 A 
ATOM     53  F   UNL A   1      49.809  26.288  28.328  1.00  0.00    -0.203 F 
ATOM     54  C   UNL A   1      51.233  26.068  26.462  1.00  0.00     0.198 A 
ATOM     55  C   UNL A   1      50.457  26.703  24.282  1.00  0.00     0.198 A 
ATOM     56  F   UNL A   1      48.290  27.577  24.017  1.00  0.00    -0.203 F 
ATOM     57  F   UNL A   1      52.200  25.589  27.255  1.00  0.00    -0.200 F 
ATOM     58  C   UNL A   1      51.454  26.191  25.098  1.00  0.00     0.200 A 
ATOM     59  F   UNL A   1      50.655  26.799  22.960  1.00  0.00    -0.200 F 
ATOM     60  F   UNL A   1      52.625  25.814  24.571  1.00  0.00    -0.200 F 
ENDBRANCH  26  50
BRANCH  38  61
ATOM     61  C   UNL A   1      45.828  32.731  28.571  1.00  0.00     0.064 A 
ATOM     62  C   UNL A   1      46.467  33.130  29.752  1.00  0.00     0.173 A 
ATOM     63  C   UNL A   1      45.704  33.671  27.537  1.00  0.00     0.173 A 
ATOM     64  F   UNL A   1      46.594  32.274  30.776  1.00  0.00    -0.203 F 
ATOM     65  C   UNL A   1      46.961  34.424  29.891  1.00  0.00     0.198 A 
ATOM     66  C   UNL A   1      46.226  34.954  27.668  1.00  0.00     0.198 A 
ATOM     67  F   UNL A   1      45.100  33.334  26.386  1.00  0.00    -0.203 F 
ATOM     68  F   UNL A   1      47.544  34.797  31.040  1.00  0.00    -0.200 F 
ATOM     69  C   UNL A   1      46.852  35.330  28.845  1.00  0.00     0.200 A 
ATOM     70  F   UNL A   1      46.133  35.820  26.650  1.00  0.00    -0.200 F 
ATOM     71  F   UNL A   1      47.350  36.568  28.974  1.00  0.00    -0.200 F 
ENDBRANCH  38  61
ENDBRANCH  12  13
ENDBRANCH   5   7
ENDBRANCH   2   3
ENDBRANCH   1   2
BRANCH   1  72
ATOM     72  C   UNL A   1      37.252  20.800  24.626  1.00  0.00     0.117 C 
BRANCH  72  73
ATOM     73  N   UNL A   1      36.151  20.964  25.546  1.00  0.00    -0.356 N 
ATOM     74  C   UNL A   1      34.887  20.475  25.527  1.00  0.00     0.224 C 
ATOM     75  H   UNL A   1      36.354  21.531  26.325  1.00  0.00     0.163 HD
ATOM     76  O   UNL A   1      34.213  20.703  26.534  1.00  0.00    -0.275 OA
BRANCH  74  77
ATOM     77  C   UNL A   1      34.276  19.801  24.300  1.00  0.00     0.094 C 
ATOM     78  C   UNL A   1      34.317  18.259  24.167  1.00  0.00     0.002 C 
ATOM     79  C   UNL A   1      32.741  20.076  24.252  1.00  0.00     0.094 C 
ATOM     80  C   UNL A   1      33.706  17.574  25.395  1.00  0.00     0.005 C 
ATOM     81  C   UNL A   1      33.251  17.988  23.126  1.00  0.00     0.009 C 
ATOM     82  C   UNL A   1      32.153  18.685  23.921  1.00  0.00     0.002 C 
ATOM     83  C   UNL A   1      32.203  17.830  25.209  1.00  0.00     0.005 C 
BRANCH  79  84
ATOM     84  C   UNL A   1      32.390  21.288  23.375  1.00  0.00     0.227 C 
ATOM     85  O   UNL A   1      32.130  21.128  22.180  1.00  0.00    -0.275 OA
ATOM     86  N   UNL A   1      32.203  22.516  23.970  1.00  0.00    -0.331 N 
ATOM     87  C   UNL A   1      31.160  23.401  23.448  1.00  0.00     0.181 C 
ATOM     88  C   UNL A   1      33.245  23.212  24.704  1.00  0.00     0.181 C 
ATOM     89  C   UNL A   1      30.622  24.371  24.534  1.00  0.00     0.284 C 
ATOM     90  C   UNL A   1      32.616  24.016  25.846  1.00  0.00     0.284 C 
ATOM     91  N   UNL A   1      31.632  25.019  25.403  1.00  0.00    -0.330 N 
ATOM     92  H   UNL A   1      31.165  25.354  26.246  1.00  0.00     0.348 HD
BRANCH  91  93
ATOM     93  C   UNL A   1      32.157  26.315  24.913  1.00  0.00     0.184 C 
ATOM     94  C   UNL A   1      31.029  27.369  24.794  1.00  0.00     0.065 C 
ATOM     95  C   UNL A   1      33.414  26.861  25.625  1.00  0.00     0.065 C 
ATOM     96  C   UNL A   1      31.521  28.738  24.348  1.00  0.00     0.006 C 
ATOM     97  C   UNL A   1      33.801  28.284  25.233  1.00  0.00     0.006 C 
ATOM     98  C   UNL A   1      32.611  29.228  25.290  1.00  0.00     0.000 C 
ENDBRANCH  91  93
ENDBRANCH  79  84
ENDBRANCH  74  77
ENDBRANCH  72  73
ENDBRANCH   1  72
TORSDOF 12
ENDMDL
MODEL 2
REMARK VINA RESULT:     -13.3      5.627     11.342
REMARK SMILES O=C(NCCCNC(=O)[C@H]1[C@H]2CC[C@H](C2)[C@@H]1C(=O)N1CC[NH+](C2CCCCC2)CC1)c1ccc(-c2c3nc(c(-c4c(F)c(F)c(F)c(F)c4F)c4ccc([nH]4)c(-c4c(F)c(F)c(F)c(F)c4F)c4nc(c(-c5c(F)c(F)c(F)c(F)c5F)c5ccc2[nH]5)C=C4)C=C3)cc1
REMARK SMILES IDX 5 1 4 2 3 3 1 4 2 5 31 7 32 8 93 9 33 10 92 11 34 12 35 13
REMARK SMILES IDX 36 14 86 15 37 16 91 17 85 18 87 19 38 20 90 21 84 22 83 23
REMARK SMILES IDX 39 25 71 26 51 27 70 28 52 29 55 30 69 31 88 32 53 33 54 34
REMARK SMILES IDX 68 36 89 37 56 38 40 39 41 40 49 41 42 42 43 43 47 44 50 45
REMARK SMILES IDX 44 46 45 47 48 48 46 49 72 50 73 51 81 52 74 53 75 54 79 55
REMARK SMILES IDX 82 56 76 57 77 58 80 59 78 60 57 61 58 62 66 63 59 64 60 65
REMARK SMILES IDX 64 66 67 67 61 68 62 69 65 70 63 71 6 72 7 73 8 74 9 76
REMARK SMILES IDX 10 77 11 78 16 79 12 80 15 81 14 82 13 83 17 84 18 85 19 86
REMARK SMILES IDX 20 87 30 88 21 89 29 90 22 91 23 93 24 94 28 95 25 96 27 97
REMARK SMILES IDX 26 98
REMARK H PARENT 3 6 87 24 55 35 7 75 22 92
REMARK Flexibility Score: inf
ROOT
ATOM      1  C   UNL A   1      31.411  32.296  26.507  1.00  0.00     0.042 C 
ENDROOT
BRANCH   1   2
ATOM      2  C   UNL A   1      32.696  32.855  27.078  1.00  0.00     0.118 C 
BRANCH   2   3
ATOM      3  N   UNL A   1      32.509  34.203  27.609  1.00  0.00    -0.352 N 
ATOM      4  O   UNL A   1      32.528  35.810  29.189  1.00  0.00    -0.269 OA
ATOM      5  C   UNL A   1      33.040  34.797  28.729  1.00  0.00     0.251 C 
ATOM      6  H   UNL A   1      31.908  34.776  27.081  1.00  0.00     0.163 HD
BRANCH   5   7
ATOM      7  C   UNL A   1      34.225  34.204  29.376  1.00  0.00     0.039 A 
ATOM      8  C   UNL A   1      34.064  33.277  30.405  1.00  0.00     0.014 A 
ATOM      9  C   UNL A   1      35.505  34.542  28.930  1.00  0.00     0.014 A 
ATOM     10  C   UNL A   1      35.162  32.838  31.121  1.00  0.00     0.010 A 
ATOM     11  C   UNL A   1      36.618  33.984  29.558  1.00  0.00     0.010 A 
ATOM     12  C   UNL A   1      36.452  33.149  30.675  1.00  0.00    -0.014 A 
BRANCH  12  13
ATOM     13  C   UNL A   1      37.610  32.506  31.332  1.00  0.00     0.031 A 
ATOM     14  C   UNL A   1      38.322  31.363  30.681  1.00  0.00     0.074 A 
ATOM     15  C   UNL A   1      37.997  32.968  32.535  1.00  0.00     0.049 A 
ATOM     16  N   UNL A   1      39.288  30.618  31.154  1.00  0.00    -0.248 NA
ATOM     17  C   UNL A   1      37.884  30.995  29.326  1.00  0.00     0.031 C 
ATOM     18  C   UNL A   1      37.371  34.083  33.251  1.00  0.00     0.029 A 
ATOM     19  N   UNL A   1      38.999  32.559  33.376  1.00  0.00    -0.354 N 
ATOM     20  C   UNL A   1      39.551  29.673  30.172  1.00  0.00     0.074 A 
ATOM     21  C   UNL A   1      38.629  29.925  29.085  1.00  0.00     0.031 C 
ATOM     22  C   UNL A   1      38.011  34.282  34.408  1.00  0.00     0.029 A 
ATOM     23  C   UNL A   1      39.031  33.254  34.558  1.00  0.00     0.049 A 
ATOM     24  H   UNL A   1      39.633  31.840  33.153  1.00  0.00     0.167 HD
ATOM     25  C   UNL A   1      40.480  28.687  30.188  1.00  0.00     0.037 A 
ATOM     26  C   UNL A   1      39.761  33.052  35.669  1.00  0.00     0.037 A 
ATOM     27  C   UNL A   1      41.389  28.464  31.284  1.00  0.00     0.049 A 
ATOM     28  C   UNL A   1      40.751  31.928  35.682  1.00  0.00     0.074 A 
ATOM     29  C   UNL A   1      42.397  27.522  31.390  1.00  0.00     0.029 A 
ATOM     30  N   UNL A   1      41.386  29.184  32.472  1.00  0.00    -0.354 N 
ATOM     31  N   UNL A   1      41.015  31.054  34.741  1.00  0.00    -0.248 NA
ATOM     32  C   UNL A   1      41.542  31.756  36.905  1.00  0.00     0.031 C 
ATOM     33  C   UNL A   1      42.958  27.629  32.667  1.00  0.00     0.029 A 
ATOM     34  C   UNL A   1      42.352  28.685  33.331  1.00  0.00     0.049 A 
ATOM     35  H   UNL A   1      40.787  29.939  32.673  1.00  0.00     0.167 HD
ATOM     36  C   UNL A   1      42.018  30.242  35.244  1.00  0.00     0.074 A 
ATOM     37  C   UNL A   1      42.317  30.730  36.575  1.00  0.00     0.031 C 
ATOM     38  C   UNL A   1      42.639  29.192  34.652  1.00  0.00     0.037 A 
BRANCH  25  39
ATOM     39  C   UNL A   1      40.518  27.752  29.012  1.00  0.00     0.064 A 
ATOM     40  C   UNL A   1      41.347  27.980  27.902  1.00  0.00     0.173 A 
ATOM     41  C   UNL A   1      39.709  26.605  28.996  1.00  0.00     0.173 A 
ATOM     42  F   UNL A   1      42.135  29.064  27.858  1.00  0.00    -0.203 F 
ATOM     43  C   UNL A   1      41.327  27.123  26.803  1.00  0.00     0.198 A 
ATOM     44  C   UNL A   1      39.719  25.731  27.912  1.00  0.00     0.198 A 
ATOM     45  F   UNL A   1      38.903  26.331  30.034  1.00  0.00    -0.203 F 
ATOM     46  F   UNL A   1      42.074  27.401  25.726  1.00  0.00    -0.200 F 
ATOM     47  C   UNL A   1      40.517  25.998  26.811  1.00  0.00     0.200 A 
ATOM     48  F   UNL A   1      38.946  24.636  27.929  1.00  0.00    -0.200 F 
ATOM     49  F   UNL A   1      40.495  25.178  25.752  1.00  0.00    -0.200 F 
ENDBRANCH  25  39
BRANCH  26  50
ATOM     50  C   UNL A   1      39.540  33.930  36.845  1.00  0.00     0.064 A 
ATOM     51  C   UNL A   1      38.727  33.524  37.908  1.00  0.00     0.173 A 
ATOM     52  C   UNL A   1      40.209  35.159  36.964  1.00  0.00     0.173 A 
ATOM     53  F   UNL A   1      38.063  32.361  37.837  1.00  0.00    -0.203 F 
ATOM     54  C   UNL A   1      38.586  34.315  39.047  1.00  0.00     0.198 A 
ATOM     55  C   UNL A   1      40.092  35.934  38.114  1.00  0.00     0.198 A 
ATOM     56  F   UNL A   1      41.014  35.584  35.979  1.00  0.00    -0.203 F 
ATOM     57  F   UNL A   1      37.786  33.914  40.043  1.00  0.00    -0.200 F 
ATOM     58  C   UNL A   1      39.277  35.513  39.154  1.00  0.00     0.200 A 
ATOM     59  F   UNL A   1      40.783  37.077  38.222  1.00  0.00    -0.200 F 
ATOM     60  F   UNL A   1      39.161  36.260  40.259  1.00  0.00    -0.200 F 
ENDBRANCH  26  50
BRANCH  38  61
ATOM     61  C   UNL A   1      43.741  28.524  35.418  1.00  0.00     0.064 A 
ATOM     62  C   UNL A   1      43.490  27.472  36.308  1.00  0.00     0.173 A 
ATOM     63  C   UNL A   1      45.076  28.893  35.192  1.00  0.00     0.173 A 
ATOM     64  F   UNL A   1      42.230  27.094  36.572  1.00  0.00    -0.203 F 
ATOM     65  C   UNL A   1      44.537  26.816  36.950  1.00  0.00     0.198 A 
ATOM     66  C   UNL A   1      46.121  28.216  35.811  1.00  0.00     0.198 A 
ATOM     67  F   UNL A   1      45.366  29.893  34.346  1.00  0.00    -0.203 F 
ATOM     68  F   UNL A   1      44.276  25.832  37.822  1.00  0.00    -0.200 F 
ATOM     69  C   UNL A   1      45.851  27.180  36.691  1.00  0.00     0.200 A 
ATOM     70  F   UNL A   1      47.389  28.559  35.546  1.00  0.00    -0.200 F 
ATOM     71  F   UNL A   1      46.859  26.531  37.292  1.00  0.00    -0.200 F 
ENDBRANCH  38  61
ENDBRANCH  12  13
ENDBRANCH   5   7
ENDBRANCH   2   3
ENDBRANCH   1   2
BRANCH   1  72
ATOM     72  C   UNL A   1      31.403  30.785  26.519  1.00  0.00     0.117 C 
BRANCH  72  73
ATOM     73  N   UNL A   1      31.955  30.211  25.313  1.00  0.00    -0.356 N 
ATOM     74  C   UNL A   1      31.359  29.732  24.195  1.00  0.00     0.224 C 
ATOM     75  H   UNL A   1      32.938  30.159  25.303  1.00  0.00     0.163 HD
ATOM     76  O   UNL A   1      32.122  29.414  23.279  1.00  0.00    -0.275 OA
BRANCH  74  77
ATOM     77  C   UNL A   1      29.857  29.471  24.100  1.00  0.00     0.094 C 
ATOM     78  C   UNL A   1      28.902  30.611  23.671  1.00  0.00     0.002 C 
ATOM     79  C   UNL A   1      29.572  28.397  23.005  1.00  0.00     0.094 C 
ATOM     80  C   UNL A   1      29.326  31.222  22.330  1.00  0.00     0.005 C 
ATOM     81  C   UNL A   1      27.653  29.859  23.261  1.00  0.00     0.009 C 
ATOM     82  C   UNL A   1      28.381  29.005  22.230  1.00  0.00     0.002 C 
ATOM     83  C   UNL A   1      28.930  30.131  21.323  1.00  0.00     0.005 C 
BRANCH  79  84
ATOM     84  C   UNL A   1      29.467  26.979  23.588  1.00  0.00     0.227 C 
ATOM     85  O   UNL A   1      28.364  26.520  23.895  1.00  0.00    -0.275 OA
ATOM     86  N   UNL A   1      30.585  26.175  23.604  1.00  0.00    -0.331 N 
ATOM     87  C   UNL A   1      30.426  24.743  23.345  1.00  0.00     0.181 C 
ATOM     88  C   UNL A   1      31.794  26.505  24.339  1.00  0.00     0.181 C 
ATOM     89  C   UNL A   1      31.714  24.112  22.750  1.00  0.00     0.284 C 
ATOM     90  C   UNL A   1      33.013  25.967  23.584  1.00  0.00     0.284 C 
ATOM     91  N   UNL A   1      32.997  24.508  23.378  1.00  0.00    -0.330 N 
ATOM     92  H   UNL A   1      33.753  24.304  22.725  1.00  0.00     0.348 HD
BRANCH  91  93
ATOM     93  C   UNL A   1      33.444  23.658  24.506  1.00  0.00     0.184 C 
ATOM     94  C   UNL A   1      33.704  22.203  24.043  1.00  0.00     0.065 C 
ATOM     95  C   UNL A   1      34.587  24.221  25.380  1.00  0.00     0.065 C 
ATOM     96  C   UNL A   1      34.220  21.297  25.151  1.00  0.00     0.006 C 
ATOM     97  C   UNL A   1      35.155  23.237  26.398  1.00  0.00     0.006 C 
ATOM     98  C   UNL A   1      35.479  21.894  25.762  1.00  0.00     0.000 C 
ENDBRANCH  91  93
ENDBRANCH  79  84
ENDBRANCH  74  77
ENDBRANCH  72  73
ENDBRANCH   1  72
TORSDOF 12
ENDMDL
MODEL 3
REMARK VINA RESULT:     -13.3      1.463      2.358
REMARK SMILES O=C(NCCCNC(=O)[C@H]1[C@H]2CC[C@H](C2)[C@@H]1C(=O)N1CC[NH+](C2CCCCC2)CC1)c1ccc(-c2c3nc(c(-c4c(F)c(F)c(F)c(F)c4F)c4ccc([nH]4)c(-c4c(F)c(F)c(F)c(F)c4F)c4nc(c(-c5c(F)c(F)c(F)c(F)c5F)c5ccc2[nH]5)C=C4)C=C3)cc1
REMARK SMILES IDX 5 1 4 2 3 3 1 4 2 5 31 7 32 8 93 9 33 10 92 11 34 12 35 13
REMARK SMILES IDX 36 14 86 15 37 16 91 17 85 18 87 19 38 20 90 21 84 22 83 23
REMARK SMILES IDX 39 25 71 26 51 27 70 28 52 29 55 30 69 31 88 32 53 33 54 34
REMARK SMILES IDX 68 36 89 37 56 38 40 39 41 40 49 41 42 42 43 43 47 44 50 45
REMARK SMILES IDX 44 46 45 47 48 48 46 49 72 50 73 51 81 52 74 53 75 54 79 55
REMARK SMILES IDX 82 56 76 57 77 58 80 59 78 60 57 61 58 62 66 63 59 64 60 65
REMARK SMILES IDX 64 66 67 67 61 68 62 69 65 70 63 71 6 72 7 73 8 74 9 76
REMARK SMILES IDX 10 77 11 78 16 79 12 80 15 81 14 82 13 83 17 84 18 85 19 86
REMARK SMILES IDX 20 87 30 88 21 89 29 90 22 91 23 93 24 94 28 95 25 96 27 97
REMARK SMILES IDX 26 98
REMARK H PARENT 3 6 87 24 55 35 7 75 22 92
REMARK Flexibility Score: inf
ROOT
ATOM      1  C   UNL A   1      37.989  19.584  24.834  1.00  0.00     0.042 C 
ENDROOT
BRANCH   1   2
ATOM      2  C   UNL A   1      39.054  20.105  25.775  1.00  0.00     0.118 C 
BRANCH   2   3
ATOM      3  N   UNL A   1      40.153  19.154  25.925  1.00  0.00    -0.352 N 
ATOM      4  O   UNL A   1      42.296  18.462  25.842  1.00  0.00    -0.269 OA
ATOM      5  C   UNL A   1      41.504  19.373  26.049  1.00  0.00     0.251 C 
ATOM      6  H   UNL A   1      39.883  18.208  25.941  1.00  0.00     0.163 HD
BRANCH   5   7
ATOM      7  C   UNL A   1      41.994  20.712  26.424  1.00  0.00     0.039 A 
ATOM      8  C   UNL A   1      42.104  21.709  25.456  1.00  0.00     0.014 A 
ATOM      9  C   UNL A   1      42.311  20.990  27.757  1.00  0.00     0.014 A 
ATOM     10  C   UNL A   1      42.709  22.913  25.765  1.00  0.00     0.010 A 
ATOM     11  C   UNL A   1      42.785  22.257  28.097  1.00  0.00     0.010 A 
ATOM     12  C   UNL A   1      43.011  23.217  27.097  1.00  0.00    -0.014 A 
BRANCH  12  13
ATOM     13  C   UNL A   1      43.469  24.582  27.434  1.00  0.00     0.031 A 
ATOM     14  C   UNL A   1      42.516  25.594  27.988  1.00  0.00     0.074 A 
ATOM     15  C   UNL A   1      44.760  24.893  27.216  1.00  0.00     0.049 A 
ATOM     16  N   UNL A   1      42.718  26.861  28.244  1.00  0.00    -0.248 NA
ATOM     17  C   UNL A   1      41.152  25.129  28.278  1.00  0.00     0.031 C 
ATOM     18  C   UNL A   1      45.770  23.973  26.685  1.00  0.00     0.029 A 
ATOM     19  N   UNL A   1      45.447  26.063  27.403  1.00  0.00    -0.354 N 
ATOM     20  C   UNL A   1      41.501  27.354  28.693  1.00  0.00     0.074 A 
ATOM     21  C   UNL A   1      40.560  26.255  28.654  1.00  0.00     0.031 C 
ATOM     22  C   UNL A   1      46.946  24.604  26.607  1.00  0.00     0.029 A 
ATOM     23  C   UNL A   1      46.755  25.995  26.995  1.00  0.00     0.049 A 
ATOM     24  H   UNL A   1      45.043  26.872  27.793  1.00  0.00     0.167 HD
ATOM     25  C   UNL A   1      41.207  28.613  29.097  1.00  0.00     0.037 A 
ATOM     26  C   UNL A   1      47.687  26.957  26.888  1.00  0.00     0.037 A 
ATOM     27  C   UNL A   1      42.168  29.686  29.129  1.00  0.00     0.049 A 
ATOM     28  C   UNL A   1      47.326  28.353  27.297  1.00  0.00     0.074 A 
ATOM     29  C   UNL A   1      41.991  30.989  29.559  1.00  0.00     0.029 A 
ATOM     30  N   UNL A   1      43.485  29.582  28.699  1.00  0.00    -0.354 N 
ATOM     31  N   UNL A   1      46.182  28.808  27.746  1.00  0.00    -0.248 NA
ATOM     32  C   UNL A   1      48.379  29.368  27.184  1.00  0.00     0.031 C 
ATOM     33  C   UNL A   1      43.180  31.689  29.324  1.00  0.00     0.029 A 
ATOM     34  C   UNL A   1      44.122  30.806  28.819  1.00  0.00     0.049 A 
ATOM     35  H   UNL A   1      43.904  28.758  28.359  1.00  0.00     0.167 HD
ATOM     36  C   UNL A   1      46.379  30.156  27.994  1.00  0.00     0.074 A 
ATOM     37  C   UNL A   1      47.756  30.445  27.647  1.00  0.00     0.031 C 
ATOM     38  C   UNL A   1      45.499  31.070  28.474  1.00  0.00     0.037 A 
BRANCH  25  39
ATOM     39  C   UNL A   1      39.783  28.902  29.482  1.00  0.00     0.064 A 
ATOM     40  C   UNL A   1      39.311  28.722  30.791  1.00  0.00     0.173 A 
ATOM     41  C   UNL A   1      38.874  29.369  28.519  1.00  0.00     0.173 A 
ATOM     42  F   UNL A   1      40.132  28.270  31.750  1.00  0.00    -0.203 F 
ATOM     43  C   UNL A   1      37.974  28.951  31.110  1.00  0.00     0.198 A 
ATOM     44  C   UNL A   1      37.547  29.632  28.850  1.00  0.00     0.198 A 
ATOM     45  F   UNL A   1      39.271  29.568  27.253  1.00  0.00    -0.203 F 
ATOM     46  F   UNL A   1      37.531  28.703  32.350  1.00  0.00    -0.200 F 
ATOM     47  C   UNL A   1      37.095  29.410  30.141  1.00  0.00     0.200 A 
ATOM     48  F   UNL A   1      36.703  30.090  27.914  1.00  0.00    -0.200 F 
ATOM     49  F   UNL A   1      35.808  29.624  30.448  1.00  0.00    -0.200 F 
ENDBRANCH  25  39
BRANCH  26  50
ATOM     50  C   UNL A   1      49.023  26.609  26.343  1.00  0.00     0.064 A 
ATOM     51  C   UNL A   1      49.338  26.836  24.999  1.00  0.00     0.173 A 
ATOM     52  C   UNL A   1      50.038  26.120  27.181  1.00  0.00     0.173 A 
ATOM     53  F   UNL A   1      48.399  27.296  24.160  1.00  0.00    -0.203 F 
ATOM     54  C   UNL A   1      50.618  26.583  24.510  1.00  0.00     0.198 A 
ATOM     55  C   UNL A   1      51.325  25.897  26.699  1.00  0.00     0.198 A 
ATOM     56  F   UNL A   1      49.790  25.904  28.481  1.00  0.00    -0.203 F 
ATOM     57  F   UNL A   1      50.890  26.788  23.215  1.00  0.00    -0.200 F 
ATOM     58  C   UNL A   1      51.613  26.125  25.362  1.00  0.00     0.200 A 
ATOM     59  F   UNL A   1      52.288  25.480  27.532  1.00  0.00    -0.200 F 
ATOM     60  F   UNL A   1      52.849  25.907  24.896  1.00  0.00    -0.200 F 
ENDBRANCH  26  50
BRANCH  38  61
ATOM     61  C   UNL A   1      46.007  32.462  28.699  1.00  0.00     0.064 A 
ATOM     62  C   UNL A   1      46.643  32.834  29.890  1.00  0.00     0.173 A 
ATOM     63  C   UNL A   1      45.924  33.413  27.670  1.00  0.00     0.173 A 
ATOM     64  F   UNL A   1      46.730  31.967  30.910  1.00  0.00    -0.203 F 
ATOM     65  C   UNL A   1      47.174  34.112  30.046  1.00  0.00     0.198 A 
ATOM     66  C   UNL A   1      46.483  34.679  27.817  1.00  0.00     0.198 A 
ATOM     67  F   UNL A   1      45.326  33.103  26.510  1.00  0.00    -0.203 F 
ATOM     68  F   UNL A   1      47.752  34.459  31.204  1.00  0.00    -0.200 F 
ATOM     69  C   UNL A   1      47.105  35.027  29.005  1.00  0.00     0.200 A 
ATOM     70  F   UNL A   1      46.429  35.554  26.805  1.00  0.00    -0.200 F 
ATOM     71  F   UNL A   1      47.638  36.249  29.150  1.00  0.00    -0.200 F 
ENDBRANCH  38  61
ENDBRANCH  12  13
ENDBRANCH   5   7
ENDBRANCH   2   3
ENDBRANCH   1   2
BRANCH   1  72
ATOM     72  C   UNL A   1      36.688  20.334  24.989  1.00  0.00     0.117 C 
BRANCH  72  73
ATOM     73  N   UNL A   1      36.870  21.681  25.480  1.00  0.00    -0.356 N 
ATOM     74  C   UNL A   1      35.976  22.654  25.778  1.00  0.00     0.224 C 
ATOM     75  H   UNL A   1      37.810  21.936  25.623  1.00  0.00     0.163 HD
ATOM     76  O   UNL A   1      36.448  23.670  26.297  1.00  0.00    -0.275 OA
BRANCH  74  77
ATOM     77  C   UNL A   1      34.502  22.577  25.387  1.00  0.00     0.094 C 
ATOM     78  C   UNL A   1      33.614  21.441  25.949  1.00  0.00     0.002 C 
ATOM     79  C   UNL A   1      33.749  23.844  25.899  1.00  0.00     0.094 C 
ATOM     80  C   UNL A   1      33.665  21.396  27.481  1.00  0.00     0.005 C 
ATOM     81  C   UNL A   1      32.214  21.972  25.723  1.00  0.00     0.009 C 
ATOM     82  C   UNL A   1      32.461  23.251  26.516  1.00  0.00     0.002 C 
ATOM     83  C   UNL A   1      32.832  22.625  27.880  1.00  0.00     0.005 C 
BRANCH  79  84
ATOM     84  C   UNL A   1      33.654  24.942  24.830  1.00  0.00     0.227 C 
ATOM     85  O   UNL A   1      34.654  25.257  24.180  1.00  0.00    -0.275 OA
ATOM     86  N   UNL A   1      32.417  25.445  24.492  1.00  0.00    -0.331 N 
ATOM     87  C   UNL A   1      32.153  25.786  23.092  1.00  0.00     0.181 C 
ATOM     88  C   UNL A   1      31.553  26.135  25.433  1.00  0.00     0.181 C 
ATOM     89  C   UNL A   1      30.644  25.692  22.744  1.00  0.00     0.284 C 
ATOM     90  C   UNL A   1      30.089  25.848  25.088  1.00  0.00     0.284 C 
ATOM     91  N   UNL A   1      29.699  26.267  23.730  1.00  0.00    -0.330 N 
ATOM     92  H   UNL A   1      28.775  25.869  23.562  1.00  0.00     0.348 HD
BRANCH  91  93
ATOM     93  C   UNL A   1      29.362  27.696  23.531  1.00  0.00     0.184 C 
ATOM     94  C   UNL A   1      30.212  28.320  22.397  1.00  0.00     0.065 C 
ATOM     95  C   UNL A   1      27.861  28.039  23.411  1.00  0.00     0.065 C 
ATOM     96  C   UNL A   1      29.868  29.775  22.110  1.00  0.00     0.006 C 
ATOM     97  C   UNL A   1      27.565  29.479  23.005  1.00  0.00     0.006 C 
ATOM     98  C   UNL A   1      28.385  29.903  21.796  1.00  0.00     0.000 C 
ENDBRANCH  91  93
ENDBRANCH  79  84
ENDBRANCH  74  77
ENDBRANCH  72  73
ENDBRANCH   1  72
TORSDOF 12
ENDMDL
