MODEL 1
REMARK VINA RESULT:     -13.1      0.000      0.000
REMARK SMILES O=C(NCCCNC(=O)c1ccc(-c2c3nc(c(-c4c(F)c(F)c(F)c(F)c4F)c4ccc([nH]4)c(-c4c(F)c(F)c(F)c(F)c4F)c4nc(c(-c5c(F)c(F)c(F)c(F)c5F)c5ccc2[nH]5)C=C4)C=C3)cc1)c1ccc(-c2ccc(=O)[nH]c2)cc1
REMARK SMILES IDX 5 1 4 2 3 3 1 4 2 5 73 7 74 8 85 9 75 10 84 11 76 12 77 13
REMARK SMILES IDX 78 14 83 15 79 16 82 17 80 18 81 20 6 21 7 22 8 23 9 25
REMARK SMILES IDX 10 26 11 27 72 28 12 29 71 30 13 31 14 32 15 33 65 34 16 35
REMARK SMILES IDX 70 36 64 37 66 38 17 39 69 40 63 41 62 42 18 44 50 45 30 46
REMARK SMILES IDX 49 47 31 48 34 49 48 50 67 51 32 52 33 53 47 55 68 56 35 57
REMARK SMILES IDX 19 58 20 59 28 60 21 61 22 62 26 63 29 64 23 65 24 66 27 67
REMARK SMILES IDX 25 68 51 69 52 70 60 71 53 72 54 73 58 74 61 75 55 76 56 77
REMARK SMILES IDX 59 78 57 79 36 80 37 81 45 82 38 83 39 84 43 85 46 86 40 87
REMARK SMILES IDX 41 88 44 89 42 90
REMARK H PARENT 3 6 82 19 7 24 66 43 34 54
REMARK Flexibility Score: inf
ROOT
ATOM      1  C   UNL A   1      32.265  28.050  25.704  1.00  0.00     0.042 C 
ENDROOT
BRANCH   1   2
ATOM      2  C   UNL A   1      32.667  26.719  25.084  1.00  0.00     0.118 C 
BRANCH   2   3
ATOM      3  N   UNL A   1      33.019  26.842  23.678  1.00  0.00    -0.352 N 
ATOM      4  O   UNL A   1      33.818  26.197  21.673  1.00  0.00    -0.269 OA
ATOM      5  C   UNL A   1      33.370  25.875  22.769  1.00  0.00     0.251 C 
ATOM      6  H   UNL A   1      33.003  27.761  23.323  1.00  0.00     0.163 HD
BRANCH   5   7
ATOM      7  C   UNL A   1      33.234  24.446  23.116  1.00  0.00     0.039 A 
ATOM      8  C   UNL A   1      32.006  23.789  23.000  1.00  0.00     0.014 A 
ATOM      9  C   UNL A   1      34.365  23.747  23.542  1.00  0.00     0.014 A 
ATOM     10  C   UNL A   1      31.884  22.465  23.417  1.00  0.00     0.009 A 
ATOM     11  C   UNL A   1      34.248  22.408  23.928  1.00  0.00     0.009 A 
ATOM     12  C   UNL A   1      33.003  21.763  23.889  1.00  0.00    -0.017 A 
BRANCH  12  13
ATOM     13  C   UNL A   1      32.875  20.365  24.347  1.00  0.00    -0.002 A 
ATOM     14  C   UNL A   1      32.602  19.255  23.442  1.00  0.00     0.016 A 
ATOM     15  C   UNL A   1      33.014  20.094  25.657  1.00  0.00     0.094 A 
ATOM     16  C   UNL A   1      32.485  17.998  23.892  1.00  0.00     0.072 A 
ATOM     17  N   UNL A   1      32.903  18.809  26.130  1.00  0.00    -0.328 N 
ATOM     18  C   UNL A   1      32.640  17.719  25.340  1.00  0.00     0.247 A 
ATOM     19  H   UNL A   1      33.021  18.662  27.097  1.00  0.00     0.169 HD
ATOM     20  O   UNL A   1      32.538  16.582  25.785  1.00  0.00    -0.270 OA
ENDBRANCH  12  13
ENDBRANCH   5   7
ENDBRANCH   2   3
ENDBRANCH   1   2
BRANCH   1  21
ATOM     21  C   UNL A   1      33.189  29.207  25.351  1.00  0.00     0.118 C 
BRANCH  21  22
ATOM     22  N   UNL A   1      32.728  30.484  25.881  1.00  0.00    -0.352 N 
ATOM     23  C   UNL A   1      33.208  31.249  26.915  1.00  0.00     0.251 C 
ATOM     24  H   UNL A   1      31.942  30.860  25.422  1.00  0.00     0.163 HD
ATOM     25  O   UNL A   1      32.555  32.211  27.310  1.00  0.00    -0.269 OA
BRANCH  23  26
ATOM     26  C   UNL A   1      34.488  30.912  27.574  1.00  0.00     0.039 A 
ATOM     27  C   UNL A   1      35.441  31.918  27.748  1.00  0.00     0.014 A 
ATOM     28  C   UNL A   1      34.764  29.612  28.005  1.00  0.00     0.014 A 
ATOM     29  C   UNL A   1      36.634  31.638  28.419  1.00  0.00     0.010 A 
ATOM     30  C   UNL A   1      35.907  29.357  28.756  1.00  0.00     0.010 A 
ATOM     31  C   UNL A   1      36.857  30.365  28.969  1.00  0.00    -0.014 A 
BRANCH  31  32
ATOM     32  C   UNL A   1      38.074  30.073  29.771  1.00  0.00     0.031 A 
ATOM     33  C   UNL A   1      39.126  29.139  29.240  1.00  0.00     0.074 A 
ATOM     34  C   UNL A   1      38.196  30.594  31.008  1.00  0.00     0.049 A 
ATOM     35  N   UNL A   1      40.216  28.703  29.819  1.00  0.00    -0.248 NA
ATOM     36  C   UNL A   1      38.911  28.599  27.888  1.00  0.00     0.031 C 
ATOM     37  C   UNL A   1      37.222  31.474  31.655  1.00  0.00     0.029 A 
ATOM     38  N   UNL A   1      39.188  30.450  31.946  1.00  0.00    -0.354 N 
ATOM     39  C   UNL A   1      40.805  27.832  28.913  1.00  0.00     0.074 A 
ATOM     40  C   UNL A   1      39.924  27.754  27.769  1.00  0.00     0.031 C 
ATOM     41  C   UNL A   1      37.674  31.810  32.873  1.00  0.00     0.029 A 
ATOM     42  C   UNL A   1      38.946  31.135  33.112  1.00  0.00     0.049 A 
ATOM     43  H   UNL A   1      39.996  29.908  31.798  1.00  0.00     0.167 HD
ATOM     44  C   UNL A   1      41.986  27.176  29.015  1.00  0.00     0.037 A 
ATOM     45  C   UNL A   1      39.662  31.201  34.251  1.00  0.00     0.037 A 
ATOM     46  C   UNL A   1      42.870  27.273  30.148  1.00  0.00     0.049 A 
ATOM     47  C   UNL A   1      40.962  30.448  34.345  1.00  0.00     0.074 A 
ATOM     48  C   UNL A   1      44.116  26.696  30.320  1.00  0.00     0.029 A 
ATOM     49  N   UNL A   1      42.596  27.987  31.306  1.00  0.00    -0.354 N 
ATOM     50  N   UNL A   1      41.545  29.687  33.451  1.00  0.00    -0.248 NA
ATOM     51  C   UNL A   1      41.707  30.570  35.605  1.00  0.00     0.031 C 
ATOM     52  C   UNL A   1      44.569  27.012  31.605  1.00  0.00     0.029 A 
ATOM     53  C   UNL A   1      43.637  27.840  32.208  1.00  0.00     0.049 A 
ATOM     54  H   UNL A   1      41.782  28.518  31.462  1.00  0.00     0.167 HD
ATOM     55  C   UNL A   1      42.736  29.266  34.027  1.00  0.00     0.074 A 
ATOM     56  C   UNL A   1      42.801  29.869  35.341  1.00  0.00     0.031 C 
ATOM     57  C   UNL A   1      43.692  28.453  33.512  1.00  0.00     0.037 A 
BRANCH  44  58
ATOM     58  C   UNL A   1      42.392  26.290  27.870  1.00  0.00     0.064 A 
ATOM     59  C   UNL A   1      41.902  24.983  27.737  1.00  0.00     0.173 A 
ATOM     60  C   UNL A   1      43.254  26.770  26.872  1.00  0.00     0.173 A 
ATOM     61  F   UNL A   1      41.082  24.470  28.668  1.00  0.00    -0.203 F 
ATOM     62  C   UNL A   1      42.284  24.177  26.666  1.00  0.00     0.198 A 
ATOM     63  C   UNL A   1      43.606  25.974  25.784  1.00  0.00     0.198 A 
ATOM     64  F   UNL A   1      43.749  28.015  26.945  1.00  0.00    -0.203 F 
ATOM     65  F   UNL A   1      41.844  22.914  26.591  1.00  0.00    -0.200 F 
ATOM     66  C   UNL A   1      43.129  24.676  25.687  1.00  0.00     0.200 A 
ATOM     67  F   UNL A   1      44.410  26.464  24.830  1.00  0.00    -0.200 F 
ATOM     68  F   UNL A   1      43.488  23.904  24.652  1.00  0.00    -0.200 F 
ENDBRANCH  44  58
BRANCH  45  69
ATOM     69  C   UNL A   1      39.172  32.022  35.390  1.00  0.00     0.064 A 
ATOM     70  C   UNL A   1      39.468  33.390  35.474  1.00  0.00     0.173 A 
ATOM     71  C   UNL A   1      38.407  31.457  36.422  1.00  0.00     0.173 A 
ATOM     72  F   UNL A   1      40.213  33.972  34.523  1.00  0.00    -0.203 F 
ATOM     73  C   UNL A   1      39.040  34.155  36.556  1.00  0.00     0.198 A 
ATOM     74  C   UNL A   1      37.951  32.231  37.488  1.00  0.00     0.198 A 
ATOM     75  F   UNL A   1      38.090  30.155  36.388  1.00  0.00    -0.203 F 
ATOM     76  F   UNL A   1      39.383  35.448  36.636  1.00  0.00    -0.200 F 
ATOM     77  C   UNL A   1      38.277  33.577  37.560  1.00  0.00     0.200 A 
ATOM     78  F   UNL A   1      37.200  31.672  38.446  1.00  0.00    -0.200 F 
ATOM     79  F   UNL A   1      37.862  34.314  38.598  1.00  0.00    -0.200 F 
ENDBRANCH  45  69
BRANCH  57  80
ATOM     80  C   UNL A   1      44.910  28.199  34.354  1.00  0.00     0.064 A 
ATOM     81  C   UNL A   1      44.992  27.104  35.228  1.00  0.00     0.173 A 
ATOM     82  C   UNL A   1      46.027  29.042  34.254  1.00  0.00     0.173 A 
ATOM     83  F   UNL A   1      43.947  26.275  35.371  1.00  0.00    -0.203 F 
ATOM     84  C   UNL A   1      46.135  26.882  35.991  1.00  0.00     0.198 A 
ATOM     85  C   UNL A   1      47.182  28.796  34.992  1.00  0.00     0.198 A 
ATOM     86  F   UNL A   1      46.006  30.099  33.429  1.00  0.00    -0.203 F 
ATOM     87  F   UNL A   1      46.168  25.860  36.859  1.00  0.00    -0.200 F 
ATOM     88  C   UNL A   1      47.231  27.721  35.867  1.00  0.00     0.200 A 
ATOM     89  F   UNL A   1      48.246  29.600  34.857  1.00  0.00    -0.200 F 
ATOM     90  F   UNL A   1      48.333  27.500  36.595  1.00  0.00    -0.200 F 
ENDBRANCH  57  80
ENDBRANCH  31  32
ENDBRANCH  23  26
ENDBRANCH  21  22
ENDBRANCH   1  21
TORSDOF 11
ENDMDL
MODEL 2
REMARK VINA RESULT:     -13.1      0.092      1.998
REMARK SMILES O=C(NCCCNC(=O)c1ccc(-c2c3nc(c(-c4c(F)c(F)c(F)c(F)c4F)c4ccc([nH]4)c(-c4c(F)c(F)c(F)c(F)c4F)c4nc(c(-c5c(F)c(F)c(F)c(F)c5F)c5ccc2[nH]5)C=C4)C=C3)cc1)c1ccc(-c2ccc(=O)[nH]c2)cc1
REMARK SMILES IDX 5 1 4 2 3 3 1 4 2 5 73 7 74 8 85 9 75 10 84 11 76 12 77 13
REMARK SMILES IDX 78 14 83 15 79 16 82 17 80 18 81 20 6 21 7 22 8 23 9 25
REMARK SMILES IDX 10 26 11 27 72 28 12 29 71 30 13 31 14 32 15 33 65 34 16 35
REMARK SMILES IDX 70 36 64 37 66 38 17 39 69 40 63 41 62 42 18 44 50 45 30 46
REMARK SMILES IDX 49 47 31 48 34 49 48 50 67 51 32 52 33 53 47 55 68 56 35 57
REMARK SMILES IDX 19 58 20 59 28 60 21 61 22 62 26 63 29 64 23 65 24 66 27 67
REMARK SMILES IDX 25 68 51 69 52 70 60 71 53 72 54 73 58 74 61 75 55 76 56 77
REMARK SMILES IDX 59 78 57 79 36 80 37 81 45 82 38 83 39 84 43 85 46 86 40 87
REMARK SMILES IDX 41 88 44 89 42 90
REMARK H PARENT 3 6 82 19 7 24 66 43 34 54
REMARK Flexibility Score: inf
ROOT
ATOM      1  C   UNL A   1      32.308  28.031  25.707  1.00  0.00     0.042 C 
ENDROOT
BRANCH   1   2
ATOM      2  C   UNL A   1      32.744  26.698  25.116  1.00  0.00     0.118 C 
BRANCH   2   3
ATOM      3  N   UNL A   1      33.078  26.797  23.703  1.00  0.00    -0.352 N 
ATOM      4  O   UNL A   1      33.850  26.117  21.699  1.00  0.00    -0.269 OA
ATOM      5  C   UNL A   1      33.415  25.814  22.806  1.00  0.00     0.251 C 
ATOM      6  H   UNL A   1      33.059  27.710  23.333  1.00  0.00     0.163 HD
BRANCH   5   7
ATOM      7  C   UNL A   1      33.281  24.391  23.178  1.00  0.00     0.039 A 
ATOM      8  C   UNL A   1      32.045  23.742  23.113  1.00  0.00     0.014 A 
ATOM      9  C   UNL A   1      34.421  23.690  23.576  1.00  0.00     0.014 A 
ATOM     10  C   UNL A   1      31.928  22.425  23.553  1.00  0.00     0.009 A 
ATOM     11  C   UNL A   1      34.307  22.358  23.986  1.00  0.00     0.009 A 
ATOM     12  C   UNL A   1      33.057  21.721  23.998  1.00  0.00    -0.017 A 
BRANCH  12  13
ATOM     13  C   UNL A   1      32.934  20.331  24.480  1.00  0.00    -0.002 A 
ATOM     14  C   UNL A   1      32.647  19.208  23.597  1.00  0.00     0.016 A 
ATOM     15  C   UNL A   1      33.094  20.081  25.792  1.00  0.00     0.094 A 
ATOM     16  C   UNL A   1      32.535  17.957  24.070  1.00  0.00     0.072 A 
ATOM     17  N   UNL A   1      32.989  18.804  26.288  1.00  0.00    -0.328 N 
ATOM     18  C   UNL A   1      32.713  17.702  25.520  1.00  0.00     0.247 A 
ATOM     19  H   UNL A   1      33.121  18.672  27.255  1.00  0.00     0.169 HD
ATOM     20  O   UNL A   1      32.617  16.572  25.985  1.00  0.00    -0.270 OA
ENDBRANCH  12  13
ENDBRANCH   5   7
ENDBRANCH   2   3
ENDBRANCH   1   2
BRANCH   1  21
ATOM     21  C   UNL A   1      33.209  29.201  25.340  1.00  0.00     0.118 C 
BRANCH  21  22
ATOM     22  N   UNL A   1      32.744  30.469  25.887  1.00  0.00    -0.352 N 
ATOM     23  C   UNL A   1      33.224  31.222  26.930  1.00  0.00     0.251 C 
ATOM     24  H   UNL A   1      31.956  30.848  25.435  1.00  0.00     0.163 HD
ATOM     25  O   UNL A   1      32.568  32.177  27.339  1.00  0.00    -0.269 OA
BRANCH  23  26
ATOM     26  C   UNL A   1      34.506  30.882  27.582  1.00  0.00     0.039 A 
ATOM     27  C   UNL A   1      35.476  31.878  27.722  1.00  0.00     0.014 A 
ATOM     28  C   UNL A   1      34.770  29.588  28.038  1.00  0.00     0.014 A 
ATOM     29  C   UNL A   1      36.672  31.596  28.386  1.00  0.00     0.010 A 
ATOM     30  C   UNL A   1      35.917  29.333  28.782  1.00  0.00     0.010 A 
ATOM     31  C   UNL A   1      36.884  30.332  28.962  1.00  0.00    -0.014 A 
BRANCH  31  32
ATOM     32  C   UNL A   1      38.105  30.040  29.757  1.00  0.00     0.031 A 
ATOM     33  C   UNL A   1      39.156  29.108  29.217  1.00  0.00     0.074 A 
ATOM     34  C   UNL A   1      38.234  30.560  30.993  1.00  0.00     0.049 A 
ATOM     35  N   UNL A   1      40.250  28.674  29.790  1.00  0.00    -0.248 NA
ATOM     36  C   UNL A   1      38.934  28.570  27.867  1.00  0.00     0.031 C 
ATOM     37  C   UNL A   1      37.263  31.437  31.648  1.00  0.00     0.029 A 
ATOM     38  N   UNL A   1      39.232  30.415  31.926  1.00  0.00    -0.354 N 
ATOM     39  C   UNL A   1      40.835  27.804  28.879  1.00  0.00     0.074 A 
ATOM     40  C   UNL A   1      39.947  27.727  27.740  1.00  0.00     0.031 C 
ATOM     41  C   UNL A   1      37.722  31.772  32.863  1.00  0.00     0.029 A 
ATOM     42  C   UNL A   1      38.996  31.098  33.094  1.00  0.00     0.049 A 
ATOM     43  H   UNL A   1      40.040  29.874  31.772  1.00  0.00     0.167 HD
ATOM     44  C   UNL A   1      42.017  27.149  28.973  1.00  0.00     0.037 A 
ATOM     45  C   UNL A   1      39.718  31.164  34.229  1.00  0.00     0.037 A 
ATOM     46  C   UNL A   1      42.907  27.246  30.101  1.00  0.00     0.049 A 
ATOM     47  C   UNL A   1      41.020  30.413  34.314  1.00  0.00     0.074 A 
ATOM     48  C   UNL A   1      44.155  26.671  30.265  1.00  0.00     0.029 A 
ATOM     49  N   UNL A   1      42.639  27.958  31.261  1.00  0.00    -0.354 N 
ATOM     50  N   UNL A   1      41.599  29.653  33.416  1.00  0.00    -0.248 NA
ATOM     51  C   UNL A   1      41.773  30.534  35.570  1.00  0.00     0.031 C 
ATOM     52  C   UNL A   1      44.615  26.985  31.548  1.00  0.00     0.029 A 
ATOM     53  C   UNL A   1      43.686  27.811  32.158  1.00  0.00     0.049 A 
ATOM     54  H   UNL A   1      41.826  28.488  31.423  1.00  0.00     0.167 HD
ATOM     55  C   UNL A   1      42.794  29.233  33.983  1.00  0.00     0.074 A 
ATOM     56  C   UNL A   1      42.865  29.835  35.298  1.00  0.00     0.031 C 
ATOM     57  C   UNL A   1      43.747  28.422  33.462  1.00  0.00     0.037 A 
BRANCH  44  58
ATOM     58  C   UNL A   1      42.418  26.266  27.825  1.00  0.00     0.064 A 
ATOM     59  C   UNL A   1      43.283  26.714  26.814  1.00  0.00     0.173 A 
ATOM     60  C   UNL A   1      41.962  24.942  27.754  1.00  0.00     0.173 A 
ATOM     61  F   UNL A   1      43.741  27.976  26.827  1.00  0.00    -0.203 F 
ATOM     62  C   UNL A   1      43.649  25.881  25.760  1.00  0.00     0.198 A 
ATOM     63  C   UNL A   1      42.358  24.100  26.718  1.00  0.00     0.198 A 
ATOM     64  F   UNL A   1      41.138  24.457  28.696  1.00  0.00    -0.203 F 
ATOM     65  F   UNL A   1      44.432  26.349  24.779  1.00  0.00    -0.200 F 
ATOM     66  C   UNL A   1      43.193  24.572  25.717  1.00  0.00     0.200 A 
ATOM     67  F   UNL A   1      41.930  22.830  26.686  1.00  0.00    -0.200 F 
ATOM     68  F   UNL A   1      43.554  23.768  24.708  1.00  0.00    -0.200 F 
ENDBRANCH  44  58
BRANCH  45  69
ATOM     69  C   UNL A   1      39.234  31.982  35.372  1.00  0.00     0.064 A 
ATOM     70  C   UNL A   1      38.458  31.412  36.391  1.00  0.00     0.173 A 
ATOM     71  C   UNL A   1      39.528  33.351  35.467  1.00  0.00     0.173 A 
ATOM     72  F   UNL A   1      38.133  30.112  36.336  1.00  0.00    -0.203 F 
ATOM     73  C   UNL A   1      37.974  32.182  37.446  1.00  0.00     0.198 A 
ATOM     74  C   UNL A   1      39.071  34.113  36.540  1.00  0.00     0.198 A 
ATOM     75  F   UNL A   1      40.272  33.945  34.523  1.00  0.00    -0.203 F 
ATOM     76  F   UNL A   1      37.191  31.621  38.377  1.00  0.00    -0.200 F 
ATOM     77  C   UNL A   1      38.286  33.531  37.523  1.00  0.00     0.200 A 
ATOM     78  F   UNL A   1      39.390  35.413  36.620  1.00  0.00    -0.200 F 
ATOM     79  F   UNL A   1      37.824  34.271  38.540  1.00  0.00    -0.200 F 
ENDBRANCH  45  69
BRANCH  57  80
ATOM     80  C   UNL A   1      44.971  28.168  34.296  1.00  0.00     0.064 A 
ATOM     81  C   UNL A   1      46.088  29.016  34.249  1.00  0.00     0.173 A 
ATOM     82  C   UNL A   1      45.010  27.082  35.184  1.00  0.00     0.173 A 
ATOM     83  F   UNL A   1      46.108  30.060  33.407  1.00  0.00    -0.203 F 
ATOM     84  C   UNL A   1      47.209  28.768  35.037  1.00  0.00     0.198 A 
ATOM     85  C   UNL A   1      46.118  26.858  35.997  1.00  0.00     0.198 A 
ATOM     86  F   UNL A   1      43.967  26.244  35.275  1.00  0.00    -0.203 F 
ATOM     87  F   UNL A   1      48.285  29.561  34.935  1.00  0.00    -0.200 F 
ATOM     88  C   UNL A   1      47.220  27.696  35.916  1.00  0.00     0.200 A 
ATOM     89  F   UNL A   1      46.118  25.831  36.858  1.00  0.00    -0.200 F 
ATOM     90  F   UNL A   1      48.295  27.465  36.681  1.00  0.00    -0.200 F 
ENDBRANCH  57  80
ENDBRANCH  31  32
ENDBRANCH  23  26
ENDBRANCH  21  22
ENDBRANCH   1  21
TORSDOF 11
ENDMDL
MODEL 3
REMARK VINA RESULT:     -13.1      2.898      7.859
REMARK SMILES O=C(NCCCNC(=O)c1ccc(-c2c3nc(c(-c4c(F)c(F)c(F)c(F)c4F)c4ccc([nH]4)c(-c4c(F)c(F)c(F)c(F)c4F)c4nc(c(-c5c(F)c(F)c(F)c(F)c5F)c5ccc2[nH]5)C=C4)C=C3)cc1)c1ccc(-c2ccc(=O)[nH]c2)cc1
REMARK SMILES IDX 5 1 4 2 3 3 1 4 2 5 73 7 74 8 85 9 75 10 84 11 76 12 77 13
REMARK SMILES IDX 78 14 83 15 79 16 82 17 80 18 81 20 6 21 7 22 8 23 9 25
REMARK SMILES IDX 10 26 11 27 72 28 12 29 71 30 13 31 14 32 15 33 65 34 16 35
REMARK SMILES IDX 70 36 64 37 66 38 17 39 69 40 63 41 62 42 18 44 50 45 30 46
REMARK SMILES IDX 49 47 31 48 34 49 48 50 67 51 32 52 33 53 47 55 68 56 35 57
REMARK SMILES IDX 19 58 20 59 28 60 21 61 22 62 26 63 29 64 23 65 24 66 27 67
REMARK SMILES IDX 25 68 51 69 52 70 60 71 53 72 54 73 58 74 61 75 55 76 56 77
REMARK SMILES IDX 59 78 57 79 36 80 37 81 45 82 38 83 39 84 43 85 46 86 40 87
REMARK SMILES IDX 41 88 44 89 42 90
REMARK H PARENT 3 6 82 19 7 24 66 43 34 54
REMARK Flexibility Score: inf
ROOT
ATOM      1  C   UNL A   1      33.937  28.136  25.478  1.00  0.00     0.042 C 
ENDROOT
BRANCH   1   2
ATOM      2  C   UNL A   1      33.272  26.892  24.905  1.00  0.00     0.118 C 
BRANCH   2   3
ATOM      3  N   UNL A   1      33.325  26.851  23.451  1.00  0.00    -0.352 N 
ATOM      4  O   UNL A   1      33.653  25.957  21.410  1.00  0.00    -0.269 OA
ATOM      5  C   UNL A   1      33.432  25.777  22.604  1.00  0.00     0.251 C 
ATOM      6  H   UNL A   1      33.276  27.729  23.008  1.00  0.00     0.163 HD
BRANCH   5   7
ATOM      7  C   UNL A   1      33.307  24.401  23.128  1.00  0.00     0.039 A 
ATOM      8  C   UNL A   1      34.431  23.681  23.540  1.00  0.00     0.014 A 
ATOM      9  C   UNL A   1      32.035  23.835  23.230  1.00  0.00     0.014 A 
ATOM     10  C   UNL A   1      34.296  22.355  23.947  1.00  0.00     0.009 A 
ATOM     11  C   UNL A   1      31.898  22.515  23.671  1.00  0.00     0.009 A 
ATOM     12  C   UNL A   1      33.029  21.757  24.012  1.00  0.00    -0.017 A 
BRANCH  12  13
ATOM     13  C   UNL A   1      32.883  20.349  24.428  1.00  0.00    -0.002 A 
ATOM     14  C   UNL A   1      32.585  19.272  23.492  1.00  0.00     0.016 A 
ATOM     15  C   UNL A   1      33.030  20.034  25.728  1.00  0.00     0.094 A 
ATOM     16  C   UNL A   1      32.451  18.002  23.904  1.00  0.00     0.072 A 
ATOM     17  N   UNL A   1      32.904  18.738  26.163  1.00  0.00    -0.328 N 
ATOM     18  C   UNL A   1      32.616  17.677  25.342  1.00  0.00     0.247 A 
ATOM     19  H   UNL A   1      33.028  18.559  27.123  1.00  0.00     0.169 HD
ATOM     20  O   UNL A   1      32.501  16.528  25.753  1.00  0.00    -0.270 OA
ENDBRANCH  12  13
ENDBRANCH   5   7
ENDBRANCH   2   3
ENDBRANCH   1   2
BRANCH   1  21
ATOM     21  C   UNL A   1      33.669  28.360  26.959  1.00  0.00     0.118 C 
BRANCH  21  22
ATOM     22  N   UNL A   1      33.639  29.771  27.323  1.00  0.00    -0.352 N 
ATOM     23  C   UNL A   1      34.565  30.546  27.976  1.00  0.00     0.251 C 
ATOM     24  H   UNL A   1      32.820  30.247  27.056  1.00  0.00     0.163 HD
ATOM     25  O   UNL A   1      34.259  31.679  28.339  1.00  0.00    -0.269 OA
BRANCH  23  26
ATOM     26  C   UNL A   1      35.917  30.023  28.270  1.00  0.00     0.039 A 
ATOM     27  C   UNL A   1      36.911  30.138  27.294  1.00  0.00     0.014 A 
ATOM     28  C   UNL A   1      36.208  29.405  29.488  1.00  0.00     0.014 A 
ATOM     29  C   UNL A   1      38.209  29.704  27.570  1.00  0.00     0.010 A 
ATOM     30  C   UNL A   1      37.520  29.062  29.797  1.00  0.00     0.010 A 
ATOM     31  C   UNL A   1      38.536  29.203  28.841  1.00  0.00    -0.014 A 
BRANCH  31  32
ATOM     32  C   UNL A   1      39.931  28.828  29.189  1.00  0.00     0.031 A 
ATOM     33  C   UNL A   1      40.801  29.777  29.968  1.00  0.00     0.074 A 
ATOM     34  C   UNL A   1      40.437  27.661  28.742  1.00  0.00     0.049 A 
ATOM     35  N   UNL A   1      42.061  29.661  30.301  1.00  0.00    -0.248 NA
ATOM     36  C   UNL A   1      40.180  31.036  30.405  1.00  0.00     0.031 C 
ATOM     37  C   UNL A   1      39.712  26.678  27.936  1.00  0.00     0.029 A 
ATOM     38  N   UNL A   1      41.685  27.110  28.893  1.00  0.00    -0.354 N 
ATOM     39  C   UNL A   1      42.385  30.833  30.972  1.00  0.00     0.074 A 
ATOM     40  C   UNL A   1      41.208  31.672  30.947  1.00  0.00     0.031 C 
ATOM     41  C   UNL A   1      40.517  25.635  27.685  1.00  0.00     0.029 A 
ATOM     42  C   UNL A   1      41.829  25.894  28.270  1.00  0.00     0.049 A 
ATOM     43  H   UNL A   1      42.409  27.544  29.400  1.00  0.00     0.167 HD
ATOM     44  C   UNL A   1      43.551  31.169  31.574  1.00  0.00     0.037 A 
ATOM     45  C   UNL A   1      42.901  25.085  28.170  1.00  0.00     0.037 A 
ATOM     46  C   UNL A   1      44.714  30.321  31.613  1.00  0.00     0.049 A 
ATOM     47  C   UNL A   1      44.190  25.489  28.833  1.00  0.00     0.074 A 
ATOM     48  C   UNL A   1      45.922  30.544  32.250  1.00  0.00     0.029 A 
ATOM     49  N   UNL A   1      44.818  29.090  30.980  1.00  0.00    -0.354 N 
ATOM     50  N   UNL A   1      44.461  26.567  29.529  1.00  0.00    -0.248 NA
ATOM     51  C   UNL A   1      45.321  24.560  28.705  1.00  0.00     0.031 C 
ATOM     52  C   UNL A   1      46.776  29.478  31.954  1.00  0.00     0.029 A 
ATOM     53  C   UNL A   1      46.080  28.557  31.188  1.00  0.00     0.049 A 
ATOM     54  H   UNL A   1      44.100  28.660  30.461  1.00  0.00     0.167 HD
ATOM     55  C   UNL A   1      45.779  26.432  29.946  1.00  0.00     0.074 A 
ATOM     56  C   UNL A   1      46.247  25.160  29.438  1.00  0.00     0.031 C 
ATOM     57  C   UNL A   1      46.532  27.285  30.682  1.00  0.00     0.037 A 
BRANCH  44  58
ATOM     58  C   UNL A   1      43.629  32.514  32.241  1.00  0.00     0.064 A 
ATOM     59  C   UNL A   1      43.294  32.690  33.592  1.00  0.00     0.173 A 
ATOM     60  C   UNL A   1      44.081  33.634  31.528  1.00  0.00     0.173 A 
ATOM     61  F   UNL A   1      42.846  31.654  34.318  1.00  0.00    -0.203 F 
ATOM     62  C   UNL A   1      43.378  33.942  34.195  1.00  0.00     0.198 A 
ATOM     63  C   UNL A   1      44.198  34.878  32.145  1.00  0.00     0.198 A 
ATOM     64  F   UNL A   1      44.422  33.524  30.235  1.00  0.00    -0.203 F 
ATOM     65  F   UNL A   1      43.001  34.095  35.472  1.00  0.00    -0.200 F 
ATOM     66  C   UNL A   1      43.837  35.033  33.474  1.00  0.00     0.200 A 
ATOM     67  F   UNL A   1      44.657  35.928  31.450  1.00  0.00    -0.200 F 
ATOM     68  F   UNL A   1      43.927  36.236  34.059  1.00  0.00    -0.200 F 
ENDBRANCH  44  58
BRANCH  45  69
ATOM     69  C   UNL A   1      42.798  23.803  27.423  1.00  0.00     0.064 A 
ATOM     70  C   UNL A   1      42.334  22.638  28.049  1.00  0.00     0.173 A 
ATOM     71  C   UNL A   1      43.169  23.713  26.073  1.00  0.00     0.173 A 
ATOM     72  F   UNL A   1      41.986  22.668  29.344  1.00  0.00    -0.203 F 
ATOM     73  C   UNL A   1      42.267  21.428  27.363  1.00  0.00     0.198 A 
ATOM     74  C   UNL A   1      43.070  22.509  25.378  1.00  0.00     0.198 A 
ATOM     75  F   UNL A   1      43.614  24.798  25.423  1.00  0.00    -0.203 F 
ATOM     76  F   UNL A   1      41.869  20.320  28.002  1.00  0.00    -0.200 F 
ATOM     77  C   UNL A   1      42.630  21.365  26.026  1.00  0.00     0.200 A 
ATOM     78  F   UNL A   1      43.405  22.456  24.081  1.00  0.00    -0.200 F 
ATOM     79  F   UNL A   1      42.562  20.202  25.365  1.00  0.00    -0.200 F 
ENDBRANCH  45  69
BRANCH  57  80
ATOM     80  C   UNL A   1      47.931  26.855  31.022  1.00  0.00     0.064 A 
ATOM     81  C   UNL A   1      48.205  26.028  32.122  1.00  0.00     0.173 A 
ATOM     82  C   UNL A   1      49.008  27.245  30.211  1.00  0.00     0.173 A 
ATOM     83  F   UNL A   1      47.214  25.639  32.937  1.00  0.00    -0.203 F 
ATOM     84  C   UNL A   1      49.509  25.634  32.413  1.00  0.00     0.198 A 
ATOM     85  C   UNL A   1      50.305  26.818  30.485  1.00  0.00     0.198 A 
ATOM     86  F   UNL A   1      48.802  28.029  29.143  1.00  0.00    -0.203 F 
ATOM     87  F   UNL A   1      49.753  24.888  33.501  1.00  0.00    -0.200 F 
ATOM     88  C   UNL A   1      50.555  26.021  31.590  1.00  0.00     0.200 A 
ATOM     89  F   UNL A   1      51.312  27.181  29.677  1.00  0.00    -0.200 F 
ATOM     90  F   UNL A   1      51.807  25.632  31.867  1.00  0.00    -0.200 F 
ENDBRANCH  57  80
ENDBRANCH  31  32
ENDBRANCH  23  26
ENDBRANCH  21  22
ENDBRANCH   1  21
TORSDOF 11
ENDMDL
