MODEL 1
REMARK VINA RESULT:     -10.7      0.000      0.000
REMARK SMILES COC[C@H](C)[C@@](C)(O)C(=O)NCCCNC(=O)c1ccc(-c2c3nc(c(-c4c(F)c(F)c(F)c(F)c4F)c4ccc([nH]4)c(-c4c(F)c(F)c(F)c(F)c4F)c4nc(c(-c5c(F)c(F)c(F)c(F)c5F)c5ccc2[nH]5)C=C4)C=C3)cc1
REMARK SMILES IDX 12 1 11 2 9 3 10 4 6 6 7 7 4 8 5 9 3 10 2 11 1 12 8 13 13 15
REMARK SMILES IDX 14 16 15 17 16 18 17 20 18 21 19 22 80 23 20 24 79 25 21 26
REMARK SMILES IDX 22 27 23 28 73 29 24 30 78 31 72 32 74 33 25 34 77 35 71 36
REMARK SMILES IDX 70 37 26 39 58 40 38 41 57 42 39 43 42 44 56 45 75 46 40 47
REMARK SMILES IDX 41 48 55 50 76 51 43 52 27 53 28 54 36 55 29 56 30 57 34 58
REMARK SMILES IDX 37 59 31 60 32 61 35 62 33 63 59 64 60 65 68 66 61 67 62 68
REMARK SMILES IDX 66 69 69 70 63 71 64 72 67 73 65 74 44 75 45 76 53 77 46 78
REMARK SMILES IDX 47 79 51 80 54 81 48 82 49 83 52 84 50 85
REMARK H PARENT 11 5 8 14 15 19 74 38 42 49
REMARK Flexibility Score: inf
ROOT
ATOM      1  C   UNL A   1      43.251  18.665  25.812  1.00  0.00     0.117 C 
ENDROOT
BRANCH   1   2
ATOM      2  N   UNL A   1      44.640  18.325  26.038  1.00  0.00    -0.354 N 
ATOM      3  C   UNL A   1      45.776  18.686  25.381  1.00  0.00     0.252 C 
ATOM      4  O   UNL A   1      46.807  18.137  25.779  1.00  0.00    -0.272 OA
ATOM      5  H   UNL A   1      44.790  17.726  26.805  1.00  0.00     0.163 HD
BRANCH   3   6
ATOM      6  C   UNL A   1      45.767  19.750  24.235  1.00  0.00     0.145 C 
ATOM      7  C   UNL A   1      44.952  19.209  23.045  1.00  0.00     0.053 C 
BRANCH   6   8
ATOM      8  C   UNL A   1      45.162  21.117  24.709  1.00  0.00     0.053 C 
ATOM      9  C   UNL A   1      46.028  21.822  25.770  1.00  0.00     0.014 C 
BRANCH   8  10
ATOM     10  C   UNL A   1      44.759  22.026  23.522  1.00  0.00     0.166 C 
BRANCH  10  11
ATOM     11  O   UNL A   1      43.576  22.792  23.761  1.00  0.00    -0.384 OA
ATOM     12  C   UNL A   1      43.004  22.605  25.046  1.00  0.00     0.194 C 
ENDBRANCH  10  11
ENDBRANCH   8  10
ENDBRANCH   6   8
BRANCH   6  13
ATOM     13  O   UNL A   1      47.108  19.989  23.784  1.00  0.00    -0.380 OA
ATOM     14  H   UNL A   1      47.616  19.164  23.826  1.00  0.00     0.212 HD
ENDBRANCH   6  13
ENDBRANCH   3   6
ENDBRANCH   1   2
BRANCH   1  15
ATOM     15  C   UNL A   1      42.476  18.818  27.113  1.00  0.00     0.042 C 
BRANCH  15  16
ATOM     16  C   UNL A   1      41.733  20.140  27.263  1.00  0.00     0.118 C 
BRANCH  16  17
ATOM     17  N   UNL A   1      40.415  20.141  26.639  1.00  0.00    -0.352 N 
ATOM     18  C   UNL A   1      39.519  21.171  26.478  1.00  0.00     0.251 C 
ATOM     19  H   UNL A   1      40.124  19.273  26.276  1.00  0.00     0.163 HD
ATOM     20  O   UNL A   1      38.393  20.952  26.043  1.00  0.00    -0.269 OA
BRANCH  18  21
ATOM     21  C   UNL A   1      39.904  22.543  26.867  1.00  0.00     0.039 A 
ATOM     22  C   UNL A   1      40.822  22.724  27.905  1.00  0.00     0.014 A 
ATOM     23  C   UNL A   1      39.383  23.647  26.188  1.00  0.00     0.014 A 
ATOM     24  C   UNL A   1      41.291  24.008  28.198  1.00  0.00     0.010 A 
ATOM     25  C   UNL A   1      39.914  24.909  26.420  1.00  0.00     0.010 A 
ATOM     26  C   UNL A   1      40.876  25.103  27.424  1.00  0.00    -0.014 A 
BRANCH  26  27
ATOM     27  C   UNL A   1      41.423  26.469  27.632  1.00  0.00     0.031 A 
ATOM     28  C   UNL A   1      42.823  26.783  27.184  1.00  0.00     0.074 A 
ATOM     29  C   UNL A   1      40.710  27.383  28.319  1.00  0.00     0.049 A 
ATOM     30  N   UNL A   1      43.558  27.837  27.430  1.00  0.00    -0.248 NA
ATOM     31  C   UNL A   1      43.500  25.752  26.380  1.00  0.00     0.031 C 
ATOM     32  C   UNL A   1      39.357  27.189  28.839  1.00  0.00     0.029 A 
ATOM     33  N   UNL A   1      41.040  28.654  28.721  1.00  0.00    -0.354 N 
ATOM     34  C   UNL A   1      44.790  27.582  26.844  1.00  0.00     0.074 A 
ATOM     35  C   UNL A   1      44.719  26.257  26.267  1.00  0.00     0.031 C 
ATOM     36  C   UNL A   1      38.968  28.302  29.481  1.00  0.00     0.029 A 
ATOM     37  C   UNL A   1      40.060  29.269  29.461  1.00  0.00     0.049 A 
ATOM     38  H   UNL A   1      41.899  29.084  28.499  1.00  0.00     0.167 HD
ATOM     39  C   UNL A   1      45.876  28.387  26.777  1.00  0.00     0.037 A 
ATOM     40  C   UNL A   1      40.053  30.470  30.072  1.00  0.00     0.037 A 
ATOM     41  C   UNL A   1      45.926  29.720  27.318  1.00  0.00     0.049 A 
ATOM     42  C   UNL A   1      41.270  31.350  29.978  1.00  0.00     0.074 A 
ATOM     43  C   UNL A   1      46.958  30.638  27.253  1.00  0.00     0.029 A 
ATOM     44  N   UNL A   1      44.894  30.325  28.019  1.00  0.00    -0.354 N 
ATOM     45  N   UNL A   1      42.414  31.119  29.381  1.00  0.00    -0.248 NA
ATOM     46  C   UNL A   1      41.195  32.662  30.638  1.00  0.00     0.031 C 
ATOM     47  C   UNL A   1      46.565  31.787  27.947  1.00  0.00     0.029 A 
ATOM     48  C   UNL A   1      45.270  31.602  28.402  1.00  0.00     0.049 A 
ATOM     49  H   UNL A   1      44.023  29.909  28.215  1.00  0.00     0.167 HD
ATOM     50  C   UNL A   1      43.178  32.264  29.561  1.00  0.00     0.074 A 
ATOM     51  C   UNL A   1      42.368  33.191  30.321  1.00  0.00     0.031 C 
ATOM     52  C   UNL A   1      44.437  32.523  29.133  1.00  0.00     0.037 A 
BRANCH  39  53
ATOM     53  C   UNL A   1      47.099  27.849  26.093  1.00  0.00     0.064 A 
ATOM     54  C   UNL A   1      48.157  27.281  26.819  1.00  0.00     0.173 A 
ATOM     55  C   UNL A   1      47.200  27.876  24.695  1.00  0.00     0.173 A 
ATOM     56  F   UNL A   1      48.114  27.243  28.159  1.00  0.00    -0.203 F 
ATOM     57  C   UNL A   1      49.286  26.786  26.170  1.00  0.00     0.198 A 
ATOM     58  C   UNL A   1      48.317  27.351  24.048  1.00  0.00     0.198 A 
ATOM     59  F   UNL A   1      46.214  28.402  23.954  1.00  0.00    -0.203 F 
ATOM     60  F   UNL A   1      50.306  26.295  26.887  1.00  0.00    -0.200 F 
ATOM     61  C   UNL A   1      49.361  26.815  24.786  1.00  0.00     0.200 A 
ATOM     62  F   UNL A   1      48.383  27.367  22.710  1.00  0.00    -0.200 F 
ATOM     63  F   UNL A   1      50.446  26.333  24.163  1.00  0.00    -0.200 F 
ENDBRANCH  39  53
BRANCH  40  64
ATOM     64  C   UNL A   1      38.845  30.921  30.810  1.00  0.00     0.064 A 
ATOM     65  C   UNL A   1      37.802  31.580  30.143  1.00  0.00     0.173 A 
ATOM     66  C   UNL A   1      38.706  30.708  32.189  1.00  0.00     0.173 A 
ATOM     67  F   UNL A   1      37.899  31.825  28.829  1.00  0.00    -0.203 F 
ATOM     68  C   UNL A   1      36.676  32.027  30.831  1.00  0.00     0.198 A 
ATOM     69  C   UNL A   1      37.567  31.131  32.872  1.00  0.00     0.198 A 
ATOM     70  F   UNL A   1      39.672  30.078  32.873  1.00  0.00    -0.203 F 
ATOM     71  F   UNL A   1      35.715  32.693  30.177  1.00  0.00    -0.200 F 
ATOM     72  C   UNL A   1      36.556  31.797  32.194  1.00  0.00     0.200 A 
ATOM     73  F   UNL A   1      37.448  30.896  34.185  1.00  0.00    -0.200 F 
ATOM     74  F   UNL A   1      35.472  32.224  32.854  1.00  0.00    -0.200 F 
ENDBRANCH  40  64
BRANCH  52  75
ATOM     75  C   UNL A   1      44.999  33.885  29.417  1.00  0.00     0.064 A 
ATOM     76  C   UNL A   1      45.755  34.147  30.567  1.00  0.00     0.173 A 
ATOM     77  C   UNL A   1      44.828  34.923  28.487  1.00  0.00     0.173 A 
ATOM     78  F   UNL A   1      45.933  33.191  31.490  1.00  0.00    -0.203 F 
ATOM     79  C   UNL A   1      46.308  35.406  30.785  1.00  0.00     0.198 A 
ATOM     80  C   UNL A   1      45.405  36.171  28.696  1.00  0.00     0.198 A 
ATOM     81  F   UNL A   1      44.117  34.719  27.369  1.00  0.00    -0.203 F 
ATOM     82  F   UNL A   1      46.998  35.647  31.909  1.00  0.00    -0.200 F 
ATOM     83  C   UNL A   1      46.140  36.414  29.846  1.00  0.00     0.200 A 
ATOM     84  F   UNL A   1      45.252  37.139  27.782  1.00  0.00    -0.200 F 
ATOM     85  F   UNL A   1      46.685  37.621  30.052  1.00  0.00    -0.200 F 
ENDBRANCH  52  75
ENDBRANCH  26  27
ENDBRANCH  18  21
ENDBRANCH  16  17
ENDBRANCH  15  16
ENDBRANCH   1  15
TORSDOF 14
ENDMDL
MODEL 2
REMARK VINA RESULT:     -10.6      5.937      9.179
REMARK SMILES COC[C@H](C)[C@@](C)(O)C(=O)NCCCNC(=O)c1ccc(-c2c3nc(c(-c4c(F)c(F)c(F)c(F)c4F)c4ccc([nH]4)c(-c4c(F)c(F)c(F)c(F)c4F)c4nc(c(-c5c(F)c(F)c(F)c(F)c5F)c5ccc2[nH]5)C=C4)C=C3)cc1
REMARK SMILES IDX 12 1 11 2 9 3 10 4 6 6 7 7 4 8 5 9 3 10 2 11 1 12 8 13 13 15
REMARK SMILES IDX 14 16 15 17 16 18 17 20 18 21 19 22 80 23 20 24 79 25 21 26
REMARK SMILES IDX 22 27 23 28 73 29 24 30 78 31 72 32 74 33 25 34 77 35 71 36
REMARK SMILES IDX 70 37 26 39 58 40 38 41 57 42 39 43 42 44 56 45 75 46 40 47
REMARK SMILES IDX 41 48 55 50 76 51 43 52 27 53 28 54 36 55 29 56 30 57 34 58
REMARK SMILES IDX 37 59 31 60 32 61 35 62 33 63 59 64 60 65 68 66 61 67 62 68
REMARK SMILES IDX 66 69 69 70 63 71 64 72 67 73 65 74 44 75 45 76 53 77 46 78
REMARK SMILES IDX 47 79 51 80 54 81 48 82 49 83 52 84 50 85
REMARK H PARENT 11 5 8 14 15 19 74 38 42 49
REMARK Flexibility Score: inf
ROOT
ATOM      1  C   UNL A   1      32.902  26.776  24.990  1.00  0.00     0.117 C 
ENDROOT
BRANCH   1   2
ATOM      2  N   UNL A   1      33.481  27.139  23.714  1.00  0.00    -0.354 N 
ATOM      3  C   UNL A   1      33.038  26.964  22.439  1.00  0.00     0.252 C 
ATOM      4  O   UNL A   1      33.829  27.311  21.559  1.00  0.00    -0.272 OA
ATOM      5  H   UNL A   1      34.351  27.595  23.780  1.00  0.00     0.163 HD
BRANCH   3   6
ATOM      6  C   UNL A   1      31.612  26.401  22.128  1.00  0.00     0.145 C 
ATOM      7  C   UNL A   1      31.415  25.072  22.880  1.00  0.00     0.053 C 
BRANCH   6   8
ATOM      8  C   UNL A   1      30.482  27.409  22.537  1.00  0.00     0.053 C 
ATOM      9  C   UNL A   1      29.767  27.014  23.843  1.00  0.00     0.014 C 
BRANCH   8  10
ATOM     10  C   UNL A   1      30.964  28.880  22.504  1.00  0.00     0.166 C 
BRANCH  10  11
ATOM     11  O   UNL A   1      30.222  29.707  21.606  1.00  0.00    -0.384 OA
ATOM     12  C   UNL A   1      28.851  29.857  21.940  1.00  0.00     0.194 C 
ENDBRANCH  10  11
ENDBRANCH   8  10
ENDBRANCH   6   8
BRANCH   6  13
ATOM     13  O   UNL A   1      31.489  26.140  20.722  1.00  0.00    -0.380 OA
ATOM     14  H   UNL A   1      31.173  26.939  20.272  1.00  0.00     0.212 HD
ENDBRANCH   6  13
ENDBRANCH   3   6
ENDBRANCH   1   2
BRANCH   1  15
ATOM     15  C   UNL A   1      32.636  27.990  25.870  1.00  0.00     0.042 C 
BRANCH  15  16
ATOM     16  C   UNL A   1      33.254  29.290  25.370  1.00  0.00     0.118 C 
BRANCH  16  17
ATOM     17  N   UNL A   1      32.685  30.480  25.992  1.00  0.00    -0.352 N 
ATOM     18  C   UNL A   1      33.161  31.240  27.034  1.00  0.00     0.251 C 
ATOM     19  H   UNL A   1      31.832  30.786  25.607  1.00  0.00     0.163 HD
ATOM     20  O   UNL A   1      32.473  32.136  27.513  1.00  0.00    -0.269 OA
BRANCH  18  21
ATOM     21  C   UNL A   1      34.493  30.952  27.602  1.00  0.00     0.039 A 
ATOM     22  C   UNL A   1      35.429  31.985  27.700  1.00  0.00     0.014 A 
ATOM     23  C   UNL A   1      34.807  29.673  28.065  1.00  0.00     0.014 A 
ATOM     24  C   UNL A   1      36.646  31.758  28.350  1.00  0.00     0.010 A 
ATOM     25  C   UNL A   1      35.976  29.472  28.787  1.00  0.00     0.010 A 
ATOM     26  C   UNL A   1      36.906  30.512  28.942  1.00  0.00    -0.014 A 
BRANCH  26  27
ATOM     27  C   UNL A   1      38.140  30.255  29.729  1.00  0.00     0.031 A 
ATOM     28  C   UNL A   1      39.182  29.318  29.186  1.00  0.00     0.074 A 
ATOM     29  C   UNL A   1      38.269  30.768  30.968  1.00  0.00     0.049 A 
ATOM     30  N   UNL A   1      40.233  28.810  29.778  1.00  0.00    -0.248 NA
ATOM     31  C   UNL A   1      38.995  28.862  27.799  1.00  0.00     0.031 C 
ATOM     32  C   UNL A   1      37.311  31.660  31.621  1.00  0.00     0.029 A 
ATOM     33  N   UNL A   1      39.251  30.589  31.910  1.00  0.00    -0.354 N 
ATOM     34  C   UNL A   1      40.809  27.952  28.852  1.00  0.00     0.074 A 
ATOM     35  C   UNL A   1      39.969  27.973  27.674  1.00  0.00     0.031 C 
ATOM     36  C   UNL A   1      37.757  31.958  32.853  1.00  0.00     0.029 A 
ATOM     37  C   UNL A   1      39.005  31.242  33.093  1.00  0.00     0.049 A 
ATOM     38  H   UNL A   1      40.057  30.044  31.753  1.00  0.00     0.167 HD
ATOM     39  C   UNL A   1      41.945  27.225  28.967  1.00  0.00     0.037 A 
ATOM     40  C   UNL A   1      39.698  31.245  34.249  1.00  0.00     0.037 A 
ATOM     41  C   UNL A   1      42.798  27.240  30.126  1.00  0.00     0.049 A 
ATOM     42  C   UNL A   1      40.962  30.434  34.350  1.00  0.00     0.074 A 
ATOM     43  C   UNL A   1      44.000  26.585  30.321  1.00  0.00     0.029 A 
ATOM     44  N   UNL A   1      42.537  27.953  31.288  1.00  0.00    -0.354 N 
ATOM     45  N   UNL A   1      41.523  29.662  33.452  1.00  0.00    -0.248 NA
ATOM     46  C   UNL A   1      41.692  30.498  35.624  1.00  0.00     0.031 C 
ATOM     47  C   UNL A   1      44.450  26.871  31.614  1.00  0.00     0.029 A 
ATOM     48  C   UNL A   1      43.552  27.744  32.206  1.00  0.00     0.049 A 
ATOM     49  H   UNL A   1      41.748  28.523  31.436  1.00  0.00     0.167 HD
ATOM     50  C   UNL A   1      42.687  29.179  34.036  1.00  0.00     0.074 A 
ATOM     51  C   UNL A   1      42.753  29.747  35.365  1.00  0.00     0.031 C 
ATOM     52  C   UNL A   1      43.616  28.342  33.515  1.00  0.00     0.037 A 
BRANCH  39  53
ATOM     53  C   UNL A   1      42.334  26.355  27.808  1.00  0.00     0.064 A 
ATOM     54  C   UNL A   1      43.285  26.770  26.864  1.00  0.00     0.173 A 
ATOM     55  C   UNL A   1      41.770  25.080  27.656  1.00  0.00     0.173 A 
ATOM     56  F   UNL A   1      43.844  27.985  26.958  1.00  0.00    -0.203 F 
ATOM     57  C   UNL A   1      43.635  25.952  25.792  1.00  0.00     0.198 A 
ATOM     58  C   UNL A   1      42.146  24.252  26.601  1.00  0.00     0.198 A 
ATOM     59  F   UNL A   1      40.860  24.633  28.533  1.00  0.00    -0.203 F 
ATOM     60  F   UNL A   1      44.508  26.390  24.875  1.00  0.00    -0.200 F 
ATOM     61  C   UNL A   1      43.071  24.692  25.666  1.00  0.00     0.200 A 
ATOM     62  F   UNL A   1      41.610  23.029  26.487  1.00  0.00    -0.200 F 
ATOM     63  F   UNL A   1      43.414  23.903  24.638  1.00  0.00    -0.200 F 
ENDBRANCH  39  53
BRANCH  40  64
ATOM     64  C   UNL A   1      39.223  32.058  35.398  1.00  0.00     0.064 A 
ATOM     65  C   UNL A   1      39.555  33.417  35.500  1.00  0.00     0.173 A 
ATOM     66  C   UNL A   1      38.435  31.501  36.415  1.00  0.00     0.173 A 
ATOM     67  F   UNL A   1      40.324  33.989  34.562  1.00  0.00    -0.203 F 
ATOM     68  C   UNL A   1      39.133  34.182  36.585  1.00  0.00     0.198 A 
ATOM     69  C   UNL A   1      37.991  32.273  37.487  1.00  0.00     0.198 A 
ATOM     70  F   UNL A   1      38.086  30.207  36.363  1.00  0.00    -0.203 F 
ATOM     71  F   UNL A   1      39.503  35.466  36.680  1.00  0.00    -0.200 F 
ATOM     72  C   UNL A   1      38.347  33.611  37.576  1.00  0.00     0.200 A 
ATOM     73  F   UNL A   1      37.221  31.723  38.434  1.00  0.00    -0.200 F 
ATOM     74  F   UNL A   1      37.940  34.348  38.617  1.00  0.00    -0.200 F 
ENDBRANCH  40  64
BRANCH  52  75
ATOM     75  C   UNL A   1      44.821  28.037  34.355  1.00  0.00     0.064 A 
ATOM     76  C   UNL A   1      44.868  26.923  35.203  1.00  0.00     0.173 A 
ATOM     77  C   UNL A   1      45.969  28.841  34.257  1.00  0.00     0.173 A 
ATOM     78  F   UNL A   1      43.792  26.134  35.340  1.00  0.00    -0.203 F 
ATOM     79  C   UNL A   1      46.015  26.631  35.936  1.00  0.00     0.198 A 
ATOM     80  C   UNL A   1      47.121  28.531  34.971  1.00  0.00     0.198 A 
ATOM     81  F   UNL A   1      45.974  29.915  33.455  1.00  0.00    -0.203 F 
ATOM     82  F   UNL A   1      46.027  25.581  36.769  1.00  0.00    -0.200 F 
ATOM     83  C   UNL A   1      47.143  27.430  35.812  1.00  0.00     0.200 A 
ATOM     84  F   UNL A   1      48.214  29.296  34.840  1.00  0.00    -0.200 F 
ATOM     85  F   UNL A   1      48.251  27.139  36.509  1.00  0.00    -0.200 F 
ENDBRANCH  52  75
ENDBRANCH  26  27
ENDBRANCH  18  21
ENDBRANCH  16  17
ENDBRANCH  15  16
ENDBRANCH   1  15
TORSDOF 14
ENDMDL
MODEL 3
REMARK VINA RESULT:     -10.6      4.953     11.459
REMARK SMILES COC[C@H](C)[C@@](C)(O)C(=O)NCCCNC(=O)c1ccc(-c2c3nc(c(-c4c(F)c(F)c(F)c(F)c4F)c4ccc([nH]4)c(-c4c(F)c(F)c(F)c(F)c4F)c4nc(c(-c5c(F)c(F)c(F)c(F)c5F)c5ccc2[nH]5)C=C4)C=C3)cc1
REMARK SMILES IDX 12 1 11 2 9 3 10 4 6 6 7 7 4 8 5 9 3 10 2 11 1 12 8 13 13 15
REMARK SMILES IDX 14 16 15 17 16 18 17 20 18 21 19 22 80 23 20 24 79 25 21 26
REMARK SMILES IDX 22 27 23 28 73 29 24 30 78 31 72 32 74 33 25 34 77 35 71 36
REMARK SMILES IDX 70 37 26 39 58 40 38 41 57 42 39 43 42 44 56 45 75 46 40 47
REMARK SMILES IDX 41 48 55 50 76 51 43 52 27 53 28 54 36 55 29 56 30 57 34 58
REMARK SMILES IDX 37 59 31 60 32 61 35 62 33 63 59 64 60 65 68 66 61 67 62 68
REMARK SMILES IDX 66 69 69 70 63 71 64 72 67 73 65 74 44 75 45 76 53 77 46 78
REMARK SMILES IDX 47 79 51 80 54 81 48 82 49 83 52 84 50 85
REMARK H PARENT 11 5 8 14 15 19 74 38 42 49
REMARK Flexibility Score: inf
ROOT
ATOM      1  C   UNL A   1      34.261  34.970  30.380  1.00  0.00     0.117 C 
ENDROOT
BRANCH   1   2
ATOM      2  N   UNL A   1      33.634  34.214  31.444  1.00  0.00    -0.354 N 
ATOM      3  C   UNL A   1      34.104  33.790  32.648  1.00  0.00     0.252 C 
ATOM      4  O   UNL A   1      33.328  33.075  33.289  1.00  0.00    -0.272 OA
ATOM      5  H   UNL A   1      32.700  33.961  31.263  1.00  0.00     0.163 HD
BRANCH   3   6
ATOM      6  C   UNL A   1      35.508  34.218  33.187  1.00  0.00     0.145 C 
ATOM      7  C   UNL A   1      35.485  34.214  34.727  1.00  0.00     0.053 C 
BRANCH   6   8
ATOM      8  C   UNL A   1      36.647  33.268  32.675  1.00  0.00     0.053 C 
ATOM      9  C   UNL A   1      36.150  31.840  32.378  1.00  0.00     0.014 C 
BRANCH   8  10
ATOM     10  C   UNL A   1      37.469  33.899  31.525  1.00  0.00     0.166 C 
BRANCH  10  11
ATOM     11  O   UNL A   1      38.479  34.805  31.972  1.00  0.00    -0.384 OA
ATOM     12  C   UNL A   1      39.168  34.390  33.141  1.00  0.00     0.194 C 
ENDBRANCH  10  11
ENDBRANCH   8  10
ENDBRANCH   6   8
BRANCH   6  13
ATOM     13  O   UNL A   1      35.811  35.550  32.749  1.00  0.00    -0.380 OA
ATOM     14  H   UNL A   1      36.638  35.845  33.160  1.00  0.00     0.212 HD
ENDBRANCH   6  13
ENDBRANCH   3   6
ENDBRANCH   1   2
BRANCH   1  15
ATOM     15  C   UNL A   1      34.286  34.204  29.065  1.00  0.00     0.042 C 
BRANCH  15  16
ATOM     16  C   UNL A   1      34.798  32.773  29.166  1.00  0.00     0.118 C 
BRANCH  16  17
ATOM     17  N   UNL A   1      34.015  31.819  28.389  1.00  0.00    -0.352 N 
ATOM     18  C   UNL A   1      34.381  30.600  27.868  1.00  0.00     0.251 C 
ATOM     19  H   UNL A   1      33.085  32.088  28.211  1.00  0.00     0.163 HD
ATOM     20  O   UNL A   1      33.621  29.993  27.120  1.00  0.00    -0.269 OA
BRANCH  18  21
ATOM     21  C   UNL A   1      35.709  30.038  28.183  1.00  0.00     0.039 A 
ATOM     22  C   UNL A   1      36.734  30.146  27.238  1.00  0.00     0.014 A 
ATOM     23  C   UNL A   1      35.952  29.434  29.418  1.00  0.00     0.014 A 
ATOM     24  C   UNL A   1      38.028  29.733  27.571  1.00  0.00     0.010 A 
ATOM     25  C   UNL A   1      37.253  29.107  29.779  1.00  0.00     0.010 A 
ATOM     26  C   UNL A   1      38.306  29.257  28.862  1.00  0.00    -0.014 A 
BRANCH  26  27
ATOM     27  C   UNL A   1      39.682  28.902  29.293  1.00  0.00     0.031 A 
ATOM     28  C   UNL A   1      40.474  29.876  30.119  1.00  0.00     0.074 A 
ATOM     29  C   UNL A   1      40.255  27.766  28.851  1.00  0.00     0.049 A 
ATOM     30  N   UNL A   1      41.741  29.853  30.444  1.00  0.00    -0.248 NA
ATOM     31  C   UNL A   1      39.747  31.055  30.617  1.00  0.00     0.031 C 
ATOM     32  C   UNL A   1      39.606  26.757  28.014  1.00  0.00     0.029 A 
ATOM     33  N   UNL A   1      41.529  27.282  29.025  1.00  0.00    -0.354 N 
ATOM     34  C   UNL A   1      41.970  31.026  31.150  1.00  0.00     0.074 A 
ATOM     35  C   UNL A   1      40.722  31.759  31.171  1.00  0.00     0.031 C 
ATOM     36  C   UNL A   1      40.480  25.770  27.755  1.00  0.00     0.029 A 
ATOM     37  C   UNL A   1      41.763  26.099  28.367  1.00  0.00     0.049 A 
ATOM     38  H   UNL A   1      42.210  27.739  29.570  1.00  0.00     0.167 HD
ATOM     39  C   UNL A   1      43.112  31.446  31.742  1.00  0.00     0.037 A 
ATOM     40  C   UNL A   1      42.893  25.373  28.253  1.00  0.00     0.037 A 
ATOM     41  C   UNL A   1      44.339  30.693  31.753  1.00  0.00     0.049 A 
ATOM     42  C   UNL A   1      44.148  25.857  28.926  1.00  0.00     0.074 A 
ATOM     43  C   UNL A   1      45.535  31.003  32.373  1.00  0.00     0.029 A 
ATOM     44  N   UNL A   1      44.522  29.475  31.115  1.00  0.00    -0.354 N 
ATOM     45  N   UNL A   1      44.342  26.945  29.631  1.00  0.00    -0.248 NA
ATOM     46  C   UNL A   1      45.343  25.010  28.793  1.00  0.00     0.031 C 
ATOM     47  C   UNL A   1      46.455  29.991  32.080  1.00  0.00     0.029 A 
ATOM     48  C   UNL A   1      45.816  29.026  31.318  1.00  0.00     0.049 A 
ATOM     49  H   UNL A   1      43.833  29.001  30.594  1.00  0.00     0.167 HD
ATOM     50  C   UNL A   1      45.664  26.896  30.055  1.00  0.00     0.074 A 
ATOM     51  C   UNL A   1      46.225  25.670  29.530  1.00  0.00     0.031 C 
ATOM     52  C   UNL A   1      46.348  27.787  30.812  1.00  0.00     0.037 A 
BRANCH  39  53
ATOM     53  C   UNL A   1      43.088  32.779  32.431  1.00  0.00     0.064 A 
ATOM     54  C   UNL A   1      43.367  33.969  31.741  1.00  0.00     0.173 A 
ATOM     55  C   UNL A   1      42.755  32.871  33.791  1.00  0.00     0.173 A 
ATOM     56  F   UNL A   1      43.703  33.933  30.443  1.00  0.00    -0.203 F 
ATOM     57  C   UNL A   1      43.341  35.198  32.394  1.00  0.00     0.198 A 
ATOM     58  C   UNL A   1      42.700  34.105  34.433  1.00  0.00     0.198 A 
ATOM     59  F   UNL A   1      42.475  31.765  34.496  1.00  0.00    -0.203 F 
ATOM     60  F   UNL A   1      43.660  36.316  31.726  1.00  0.00    -0.200 F 
ATOM     61  C   UNL A   1      43.001  35.266  33.736  1.00  0.00     0.200 A 
ATOM     62  F   UNL A   1      42.358  34.171  35.727  1.00  0.00    -0.200 F 
ATOM     63  F   UNL A   1      42.971  36.451  34.362  1.00  0.00    -0.200 F 
ENDBRANCH  39  53
BRANCH  40  64
ATOM     64  C   UNL A   1      42.884  24.101  27.485  1.00  0.00     0.064 A 
ATOM     65  C   UNL A   1      42.524  22.895  28.104  1.00  0.00     0.173 A 
ATOM     66  C   UNL A   1      43.236  24.060  26.129  1.00  0.00     0.173 A 
ATOM     67  F   UNL A   1      42.201  22.881  29.405  1.00  0.00    -0.203 F 
ATOM     68  C   UNL A   1      42.535  21.693  27.398  1.00  0.00     0.198 A 
ATOM     69  C   UNL A   1      43.220  22.862  25.417  1.00  0.00     0.198 A 
ATOM     70  F   UNL A   1      43.583  25.186  25.490  1.00  0.00    -0.203 F 
ATOM     71  F   UNL A   1      42.230  20.549  28.026  1.00  0.00    -0.200 F 
ATOM     72  C   UNL A   1      42.878  21.678  26.054  1.00  0.00     0.200 A 
ATOM     73  F   UNL A   1      43.538  22.852  24.116  1.00  0.00    -0.200 F 
ATOM     74  F   UNL A   1      42.885  20.523  25.377  1.00  0.00    -0.200 F 
ENDBRANCH  40  64
BRANCH  52  75
ATOM     75  C   UNL A   1      47.762  27.444  31.177  1.00  0.00     0.064 A 
ATOM     76  C   UNL A   1      48.850  27.875  30.407  1.00  0.00     0.173 A 
ATOM     77  C   UNL A   1      48.030  26.726  32.354  1.00  0.00     0.173 A 
ATOM     78  F   UNL A   1      48.643  28.551  29.266  1.00  0.00    -0.203 F 
ATOM     79  C   UNL A   1      50.156  27.586  30.791  1.00  0.00     0.198 A 
ATOM     80  C   UNL A   1      49.337  26.462  32.749  1.00  0.00     0.198 A 
ATOM     81  F   UNL A   1      47.022  26.297  33.128  1.00  0.00    -0.203 F 
ATOM     82  F   UNL A   1      51.182  27.976  30.021  1.00  0.00    -0.200 F 
ATOM     83  C   UNL A   1      50.399  26.888  31.966  1.00  0.00     0.200 A 
ATOM     84  F   UNL A   1      49.570  25.800  33.890  1.00  0.00    -0.200 F 
ATOM     85  F   UNL A   1      51.658  26.623  32.341  1.00  0.00    -0.200 F 
ENDBRANCH  52  75
ENDBRANCH  26  27
ENDBRANCH  18  21
ENDBRANCH  16  17
ENDBRANCH  15  16
ENDBRANCH   1  15
TORSDOF 14
ENDMDL
