MODEL 1
REMARK VINA RESULT:     -12.4      0.000      0.000
REMARK SMILES Cc1nc(SCc2cccc(Cl)c2)[nH]c(=O)c1CC(=O)NCCCNC(=O)c1ccc(-c2c3nc(c(-c4c(F)c(F)c(F)c(F)c4F)c4ccc([nH]4)c(-c4c(F)c(F)c(F)c(F)c4F)c4nc(c(-c5c(F)c(F)c(F)c(F)c5F)c5ccc2[nH]5)C=C4)C=C3)cc1
REMARK SMILES IDX 22 1 21 2 19 3 20 4 18 6 17 7 1 8 2 9 3 10 4 11 15 12 14 13
REMARK SMILES IDX 16 14 5 16 6 17 7 18 8 19 13 20 9 21 11 22 10 23 12 24 23 25
REMARK SMILES IDX 24 26 25 27 26 28 27 30 28 31 29 32 90 33 30 34 89 35 31 36
REMARK SMILES IDX 32 37 33 38 83 39 34 40 88 41 82 42 84 43 35 44 87 45 81 46
REMARK SMILES IDX 80 47 36 49 68 50 48 51 67 52 49 53 52 54 66 55 85 56 50 57
REMARK SMILES IDX 51 58 65 60 86 61 53 62 37 63 38 64 46 65 39 66 40 67 44 68
REMARK SMILES IDX 47 69 41 70 42 71 45 72 43 73 69 74 70 75 78 76 71 77 72 78
REMARK SMILES IDX 76 79 79 80 73 81 74 82 77 83 75 84 54 85 55 86 63 87 56 88
REMARK SMILES IDX 57 89 61 90 64 91 58 92 59 93 62 94 60 95
REMARK H PARENT 21 5 14 15 25 29 84 48 52 59
REMARK Flexibility Score: inf
ROOT
ATOM      1  C   UNL A   1      36.814  21.004  24.997  1.00  0.00     0.117 C 
ENDROOT
BRANCH   1   2
ATOM      2  N   UNL A   1      35.519  20.452  25.338  1.00  0.00    -0.356 N 
ATOM      3  C   UNL A   1      34.464  21.011  25.996  1.00  0.00     0.224 C 
ATOM      4  O   UNL A   1      33.446  20.328  26.121  1.00  0.00    -0.275 OA
ATOM      5  H   UNL A   1      35.378  19.523  25.046  1.00  0.00     0.163 HD
BRANCH   3   6
ATOM      6  C   UNL A   1      34.501  22.467  26.455  1.00  0.00     0.143 C 
BRANCH   6   7
ATOM      7  C   UNL A   1      33.410  23.342  25.907  1.00  0.00     0.048 A 
ATOM      8  C   UNL A   1      34.565  23.842  23.731  1.00  0.00     0.067 C 
ATOM      9  C   UNL A   1      33.422  23.965  24.711  1.00  0.00     0.049 A 
ATOM     10  N   UNL A   1      32.449  24.844  24.299  1.00  0.00    -0.229 NA
ATOM     11  C   UNL A   1      31.510  25.133  25.131  1.00  0.00     0.168 A 
ATOM     12  C   UNL A   1      32.211  23.559  26.760  1.00  0.00     0.255 A 
ATOM     13  N   UNL A   1      31.352  24.524  26.328  1.00  0.00    -0.301 N 
ATOM     14  O   UNL A   1      32.013  22.938  27.791  1.00  0.00    -0.269 OA
ATOM     15  H   UNL A   1      30.597  24.786  26.903  1.00  0.00     0.172 HD
BRANCH  11  16
ATOM     16  S   UNL A   1      30.329  26.367  24.834  1.00  0.00    -0.083 SA
BRANCH  16  17
ATOM     17  C   UNL A   1      31.355  27.704  24.154  1.00  0.00     0.113 C 
BRANCH  17  18
ATOM     18  C   UNL A   1      31.984  28.611  25.191  1.00  0.00    -0.036 A 
ATOM     19  C   UNL A   1      33.066  28.171  25.968  1.00  0.00     0.005 A 
ATOM     20  C   UNL A   1      31.470  29.892  25.444  1.00  0.00     0.025 A 
ATOM     21  C   UNL A   1      33.612  28.990  26.964  1.00  0.00     0.002 A 
ATOM     22  C   UNL A   1      32.024  30.712  26.425  1.00  0.00     0.041 A 
ATOM     23  C   UNL A   1      33.095  30.266  27.188  1.00  0.00     0.020 A 
ATOM     24  Cl  UNL A   1      31.357  32.275  26.705  1.00  0.00    -0.084 Cl
ENDBRANCH  17  18
ENDBRANCH  16  17
ENDBRANCH  11  16
ENDBRANCH   6   7
ENDBRANCH   3   6
ENDBRANCH   1   2
BRANCH   1  25
ATOM     25  C   UNL A   1      37.899  19.935  25.008  1.00  0.00     0.042 C 
BRANCH  25  26
ATOM     26  C   UNL A   1      39.100  20.297  25.875  1.00  0.00     0.118 C 
BRANCH  26  27
ATOM     27  N   UNL A   1      40.131  19.264  25.878  1.00  0.00    -0.352 N 
ATOM     28  C   UNL A   1      41.488  19.362  26.070  1.00  0.00     0.251 C 
ATOM     29  H   UNL A   1      39.802  18.350  25.719  1.00  0.00     0.163 HD
ATOM     30  O   UNL A   1      42.206  18.385  25.877  1.00  0.00    -0.269 OA
BRANCH  28  31
ATOM     31  C   UNL A   1      42.093  20.644  26.488  1.00  0.00     0.039 A 
ATOM     32  C   UNL A   1      42.574  21.521  25.511  1.00  0.00     0.014 A 
ATOM     33  C   UNL A   1      42.199  20.979  27.839  1.00  0.00     0.014 A 
ATOM     34  C   UNL A   1      43.087  22.766  25.887  1.00  0.00     0.010 A 
ATOM     35  C   UNL A   1      42.618  22.252  28.205  1.00  0.00     0.010 A 
ATOM     36  C   UNL A   1      43.071  23.159  27.235  1.00  0.00    -0.014 A 
BRANCH  36  37
ATOM     37  C   UNL A   1      43.547  24.496  27.673  1.00  0.00     0.031 A 
ATOM     38  C   UNL A   1      42.544  25.564  28.019  1.00  0.00     0.074 A 
ATOM     39  C   UNL A   1      44.865  24.777  27.674  1.00  0.00     0.049 A 
ATOM     40  N   UNL A   1      42.735  26.836  28.260  1.00  0.00    -0.248 NA
ATOM     41  C   UNL A   1      41.132  25.150  28.066  1.00  0.00     0.031 C 
ATOM     42  C   UNL A   1      45.935  23.838  27.333  1.00  0.00     0.029 A 
ATOM     43  N   UNL A   1      45.528  25.946  27.956  1.00  0.00    -0.354 N 
ATOM     44  C   UNL A   1      41.470  27.373  28.467  1.00  0.00     0.074 A 
ATOM     45  C   UNL A   1      40.517  26.306  28.264  1.00  0.00     0.031 C 
ATOM     46  C   UNL A   1      47.120  24.462  27.441  1.00  0.00     0.029 A 
ATOM     47  C   UNL A   1      46.893  25.856  27.808  1.00  0.00     0.049 A 
ATOM     48  H   UNL A   1      45.071  26.771  28.237  1.00  0.00     0.167 HD
ATOM     49  C   UNL A   1      41.137  28.637  28.823  1.00  0.00     0.037 A 
ATOM     50  C   UNL A   1      47.846  26.800  27.934  1.00  0.00     0.037 A 
ATOM     51  C   UNL A   1      42.091  29.688  29.052  1.00  0.00     0.049 A 
ATOM     52  C   UNL A   1      47.441  28.206  28.297  1.00  0.00     0.074 A 
ATOM     53  C   UNL A   1      41.858  30.996  29.440  1.00  0.00     0.029 A 
ATOM     54  N   UNL A   1      43.464  29.548  28.920  1.00  0.00    -0.354 N 
ATOM     55  N   UNL A   1      46.247  28.692  28.531  1.00  0.00    -0.248 NA
ATOM     56  C   UNL A   1      48.523  29.195  28.420  1.00  0.00     0.031 C 
ATOM     57  C   UNL A   1      43.087  31.658  29.506  1.00  0.00     0.029 A 
ATOM     58  C   UNL A   1      44.090  30.748  29.214  1.00  0.00     0.049 A 
ATOM     59  H   UNL A   1      43.926  28.719  28.658  1.00  0.00     0.167 HD
ATOM     60  C   UNL A   1      46.437  30.024  28.874  1.00  0.00     0.074 A 
ATOM     61  C   UNL A   1      47.862  30.270  28.824  1.00  0.00     0.031 C 
ATOM     62  C   UNL A   1      45.513  30.961  29.202  1.00  0.00     0.037 A 
BRANCH  49  63
ATOM     63  C   UNL A   1      39.680  28.949  29.005  1.00  0.00     0.064 A 
ATOM     64  C   UNL A   1      38.871  29.325  27.922  1.00  0.00     0.173 A 
ATOM     65  C   UNL A   1      39.072  28.818  30.263  1.00  0.00     0.173 A 
ATOM     66  F   UNL A   1      39.405  29.476  26.701  1.00  0.00    -0.203 F 
ATOM     67  C   UNL A   1      37.513  29.580  28.096  1.00  0.00     0.198 A 
ATOM     68  C   UNL A   1      37.707  29.043  30.427  1.00  0.00     0.198 A 
ATOM     69  F   UNL A   1      39.798  28.455  31.331  1.00  0.00    -0.203 F 
ATOM     70  F   UNL A   1      36.771  29.983  27.055  1.00  0.00    -0.200 F 
ATOM     71  C   UNL A   1      36.931  29.431  29.345  1.00  0.00     0.200 A 
ATOM     72  F   UNL A   1      37.143  28.881  31.631  1.00  0.00    -0.200 F 
ATOM     73  F   UNL A   1      35.622  29.663  29.508  1.00  0.00    -0.200 F 
ENDBRANCH  49  63
BRANCH  50  74
ATOM     74  C   UNL A   1      49.280  26.458  27.728  1.00  0.00     0.064 A 
ATOM     75  C   UNL A   1      50.140  26.286  28.823  1.00  0.00     0.173 A 
ATOM     76  C   UNL A   1      49.832  26.343  26.444  1.00  0.00     0.173 A 
ATOM     77  F   UNL A   1      49.665  26.404  30.072  1.00  0.00    -0.203 F 
ATOM     78  C   UNL A   1      51.502  26.054  28.642  1.00  0.00     0.198 A 
ATOM     79  C   UNL A   1      51.188  26.074  26.264  1.00  0.00     0.198 A 
ATOM     80  F   UNL A   1      49.054  26.489  25.362  1.00  0.00    -0.203 F 
ATOM     81  F   UNL A   1      52.310  25.961  29.706  1.00  0.00    -0.200 F 
ATOM     82  C   UNL A   1      52.024  25.945  27.362  1.00  0.00     0.200 A 
ATOM     83  F   UNL A   1      51.685  25.950  25.026  1.00  0.00    -0.200 F 
ATOM     84  F   UNL A   1      53.335  25.727  27.188  1.00  0.00    -0.200 F 
ENDBRANCH  50  74
BRANCH  62  85
ATOM     85  C   UNL A   1      46.013  32.315  29.614  1.00  0.00     0.064 A 
ATOM     86  C   UNL A   1      46.349  32.611  30.943  1.00  0.00     0.173 A 
ATOM     87  C   UNL A   1      46.213  33.313  28.648  1.00  0.00     0.173 A 
ATOM     88  F   UNL A   1      46.163  31.696  31.906  1.00  0.00    -0.203 F 
ATOM     89  C   UNL A   1      46.845  33.864  31.292  1.00  0.00     0.198 A 
ATOM     90  C   UNL A   1      46.740  34.553  28.995  1.00  0.00     0.198 A 
ATOM     91  F   UNL A   1      45.915  33.078  27.361  1.00  0.00    -0.203 F 
ATOM     92  F   UNL A   1      47.117  34.140  32.575  1.00  0.00    -0.200 F 
ATOM     93  C   UNL A   1      47.050  34.830  30.317  1.00  0.00     0.200 A 
ATOM     94  F   UNL A   1      46.952  35.479  28.049  1.00  0.00    -0.200 F 
ATOM     95  F   UNL A   1      47.541  36.030  30.654  1.00  0.00    -0.200 F 
ENDBRANCH  62  85
ENDBRANCH  36  37
ENDBRANCH  28  31
ENDBRANCH  26  27
ENDBRANCH  25  26
ENDBRANCH   1  25
TORSDOF 14
ENDMDL
MODEL 2
REMARK VINA RESULT:     -12.4      5.727     11.027
REMARK SMILES Cc1nc(SCc2cccc(Cl)c2)[nH]c(=O)c1CC(=O)NCCCNC(=O)c1ccc(-c2c3nc(c(-c4c(F)c(F)c(F)c(F)c4F)c4ccc([nH]4)c(-c4c(F)c(F)c(F)c(F)c4F)c4nc(c(-c5c(F)c(F)c(F)c(F)c5F)c5ccc2[nH]5)C=C4)C=C3)cc1
REMARK SMILES IDX 22 1 21 2 19 3 20 4 18 6 17 7 1 8 2 9 3 10 4 11 15 12 14 13
REMARK SMILES IDX 16 14 5 16 6 17 7 18 8 19 13 20 9 21 11 22 10 23 12 24 23 25
REMARK SMILES IDX 24 26 25 27 26 28 27 30 28 31 29 32 90 33 30 34 89 35 31 36
REMARK SMILES IDX 32 37 33 38 83 39 34 40 88 41 82 42 84 43 35 44 87 45 81 46
REMARK SMILES IDX 80 47 36 49 68 50 48 51 67 52 49 53 52 54 66 55 85 56 50 57
REMARK SMILES IDX 51 58 65 60 86 61 53 62 37 63 38 64 46 65 39 66 40 67 44 68
REMARK SMILES IDX 47 69 41 70 42 71 45 72 43 73 69 74 70 75 78 76 71 77 72 78
REMARK SMILES IDX 76 79 79 80 73 81 74 82 77 83 75 84 54 85 55 86 63 87 56 88
REMARK SMILES IDX 57 89 61 90 64 91 58 92 59 93 62 94 60 95
REMARK H PARENT 21 5 14 15 25 29 84 48 52 59
REMARK Flexibility Score: inf
ROOT
ATOM      1  C   UNL A   1      31.723  30.566  26.059  1.00  0.00     0.117 C 
ENDROOT
BRANCH   1   2
ATOM      2  N   UNL A   1      31.775  29.647  27.178  1.00  0.00    -0.356 N 
ATOM      3  C   UNL A   1      31.555  28.302  27.228  1.00  0.00     0.224 C 
ATOM      4  O   UNL A   1      31.707  27.743  28.316  1.00  0.00    -0.275 OA
ATOM      5  H   UNL A   1      32.008  30.059  28.040  1.00  0.00     0.163 HD
BRANCH   3   6
ATOM      6  C   UNL A   1      31.249  27.503  25.963  1.00  0.00     0.143 C 
BRANCH   6   7
ATOM      7  C   UNL A   1      32.257  26.447  25.610  1.00  0.00     0.048 A 
ATOM      8  C   UNL A   1      33.780  27.979  24.327  1.00  0.00     0.067 C 
ATOM      9  C   UNL A   1      33.376  26.634  24.882  1.00  0.00     0.049 A 
ATOM     10  N   UNL A   1      34.212  25.615  24.492  1.00  0.00    -0.229 NA
ATOM     11  C   UNL A   1      33.867  24.410  24.787  1.00  0.00     0.168 A 
ATOM     12  C   UNL A   1      31.996  25.063  26.089  1.00  0.00     0.255 A 
ATOM     13  N   UNL A   1      32.808  24.101  25.568  1.00  0.00    -0.301 N 
ATOM     14  O   UNL A   1      31.105  24.794  26.876  1.00  0.00    -0.269 OA
ATOM     15  H   UNL A   1      32.618  23.155  25.766  1.00  0.00     0.172 HD
BRANCH  11  16
ATOM     16  S   UNL A   1      34.708  23.014  24.196  1.00  0.00    -0.083 SA
BRANCH  16  17
ATOM     17  C   UNL A   1      34.049  21.705  25.270  1.00  0.00     0.113 C 
BRANCH  17  18
ATOM     18  C   UNL A   1      33.637  20.439  24.547  1.00  0.00    -0.036 A 
ATOM     19  C   UNL A   1      32.554  20.441  23.655  1.00  0.00     0.005 A 
ATOM     20  C   UNL A   1      34.286  19.219  24.790  1.00  0.00     0.025 A 
ATOM     21  C   UNL A   1      32.139  19.259  23.030  1.00  0.00     0.002 A 
ATOM     22  C   UNL A   1      33.882  18.045  24.155  1.00  0.00     0.041 A 
ATOM     23  C   UNL A   1      32.809  18.060  23.274  1.00  0.00     0.020 A 
ATOM     24  Cl  UNL A   1      34.705  16.570  24.487  1.00  0.00    -0.084 Cl
ENDBRANCH  17  18
ENDBRANCH  16  17
ENDBRANCH  11  16
ENDBRANCH   6   7
ENDBRANCH   3   6
ENDBRANCH   1   2
BRANCH   1  25
ATOM     25  C   UNL A   1      31.434  31.990  26.518  1.00  0.00     0.042 C 
BRANCH  25  26
ATOM     26  C   UNL A   1      32.605  32.645  27.241  1.00  0.00     0.118 C 
BRANCH  26  27
ATOM     27  N   UNL A   1      32.358  34.043  27.576  1.00  0.00    -0.352 N 
ATOM     28  C   UNL A   1      32.948  34.851  28.517  1.00  0.00     0.251 C 
ATOM     29  H   UNL A   1      31.656  34.479  27.040  1.00  0.00     0.163 HD
ATOM     30  O   UNL A   1      32.484  35.964  28.747  1.00  0.00    -0.269 OA
BRANCH  28  31
ATOM     31  C   UNL A   1      34.130  34.381  29.270  1.00  0.00     0.039 A 
ATOM     32  C   UNL A   1      33.944  33.757  30.508  1.00  0.00     0.014 A 
ATOM     33  C   UNL A   1      35.419  34.562  28.767  1.00  0.00     0.014 A 
ATOM     34  C   UNL A   1      35.046  33.246  31.201  1.00  0.00     0.010 A 
ATOM     35  C   UNL A   1      36.501  33.970  29.407  1.00  0.00     0.010 A 
ATOM     36  C   UNL A   1      36.328  33.310  30.633  1.00  0.00    -0.014 A 
BRANCH  36  37
ATOM     37  C   UNL A   1      37.517  32.725  31.303  1.00  0.00     0.031 A 
ATOM     38  C   UNL A   1      38.251  31.584  30.650  1.00  0.00     0.074 A 
ATOM     39  C   UNL A   1      37.883  33.154  32.528  1.00  0.00     0.049 A 
ATOM     40  N   UNL A   1      39.200  30.823  31.132  1.00  0.00    -0.248 NA
ATOM     41  C   UNL A   1      37.835  31.230  29.283  1.00  0.00     0.031 C 
ATOM     42  C   UNL A   1      37.237  34.232  33.278  1.00  0.00     0.029 A 
ATOM     43  N   UNL A   1      38.879  32.718  33.366  1.00  0.00    -0.354 N 
ATOM     44  C   UNL A   1      39.479  29.894  30.137  1.00  0.00     0.074 A 
ATOM     45  C   UNL A   1      38.558  30.146  29.051  1.00  0.00     0.031 C 
ATOM     46  C   UNL A   1      37.863  34.385  34.457  1.00  0.00     0.029 A 
ATOM     47  C   UNL A   1      38.918  33.384  34.569  1.00  0.00     0.049 A 
ATOM     48  H   UNL A   1      39.506  31.997  33.130  1.00  0.00     0.167 HD
ATOM     49  C   UNL A   1      40.434  28.935  30.120  1.00  0.00     0.037 A 
ATOM     50  C   UNL A   1      39.705  33.190  35.646  1.00  0.00     0.037 A 
ATOM     51  C   UNL A   1      41.366  28.706  31.190  1.00  0.00     0.049 A 
ATOM     52  C   UNL A   1      40.738  32.092  35.610  1.00  0.00     0.074 A 
ATOM     53  C   UNL A   1      42.389  27.776  31.261  1.00  0.00     0.029 A 
ATOM     54  N   UNL A   1      41.392  29.420  32.378  1.00  0.00    -0.354 N 
ATOM     55  N   UNL A   1      41.019  31.247  34.648  1.00  0.00    -0.248 NA
ATOM     56  C   UNL A   1      41.568  31.925  36.813  1.00  0.00     0.031 C 
ATOM     57  C   UNL A   1      43.010  27.903  32.507  1.00  0.00     0.029 A 
ATOM     58  C   UNL A   1      42.410  28.948  33.190  1.00  0.00     0.049 A 
ATOM     59  H   UNL A   1      40.779  30.155  32.610  1.00  0.00     0.167 HD
ATOM     60  C   UNL A   1      42.085  30.485  35.108  1.00  0.00     0.074 A 
ATOM     61  C   UNL A   1      42.405  30.970  36.433  1.00  0.00     0.031 C 
ATOM     62  C   UNL A   1      42.741  29.474  34.488  1.00  0.00     0.037 A 
BRANCH  49  63
ATOM     63  C   UNL A   1      40.534  28.071  28.895  1.00  0.00     0.064 A 
ATOM     64  C   UNL A   1      39.816  26.871  28.786  1.00  0.00     0.173 A 
ATOM     65  C   UNL A   1      41.312  28.473  27.799  1.00  0.00     0.173 A 
ATOM     66  F   UNL A   1      39.067  26.436  29.810  1.00  0.00    -0.203 F 
ATOM     67  C   UNL A   1      39.890  26.094  27.633  1.00  0.00     0.198 A 
ATOM     68  C   UNL A   1      41.358  27.709  26.634  1.00  0.00     0.198 A 
ATOM     69  F   UNL A   1      42.014  29.614  27.848  1.00  0.00    -0.203 F 
ATOM     70  F   UNL A   1      39.231  24.929  27.569  1.00  0.00    -0.200 F 
ATOM     71  C   UNL A   1      40.653  26.518  26.556  1.00  0.00     0.200 A 
ATOM     72  F   UNL A   1      42.082  28.128  25.588  1.00  0.00    -0.200 F 
ATOM     73  F   UNL A   1      40.712  25.776  25.441  1.00  0.00    -0.200 F 
ENDBRANCH  49  63
BRANCH  50  74
ATOM     74  C   UNL A   1      39.566  34.054  36.849  1.00  0.00     0.064 A 
ATOM     75  C   UNL A   1      40.250  35.276  36.938  1.00  0.00     0.173 A 
ATOM     76  C   UNL A   1      38.791  33.662  37.950  1.00  0.00     0.173 A 
ATOM     77  F   UNL A   1      41.019  35.687  35.919  1.00  0.00    -0.203 F 
ATOM     78  C   UNL A   1      40.198  36.050  38.095  1.00  0.00     0.198 A 
ATOM     79  C   UNL A   1      38.711  34.456  39.094  1.00  0.00     0.198 A 
ATOM     80  F   UNL A   1      38.110  32.507  37.917  1.00  0.00    -0.203 F 
ATOM     81  F   UNL A   1      40.915  37.179  38.175  1.00  0.00    -0.200 F 
ATOM     82  C   UNL A   1      39.425  35.641  39.171  1.00  0.00     0.200 A 
ATOM     83  F   UNL A   1      37.948  34.066  40.124  1.00  0.00    -0.200 F 
ATOM     84  F   UNL A   1      39.379  36.383  40.285  1.00  0.00    -0.200 F 
ENDBRANCH  50  74
BRANCH  62  85
ATOM     85  C   UNL A   1      43.924  28.876  35.194  1.00  0.00     0.064 A 
ATOM     86  C   UNL A   1      45.229  29.344  34.986  1.00  0.00     0.173 A 
ATOM     87  C   UNL A   1      43.734  27.856  36.140  1.00  0.00     0.173 A 
ATOM     88  F   UNL A   1      45.465  30.307  34.083  1.00  0.00    -0.203 F 
ATOM     89  C   UNL A   1      46.303  28.796  35.682  1.00  0.00     0.198 A 
ATOM     90  C   UNL A   1      44.805  27.333  36.858  1.00  0.00     0.198 A 
ATOM     91  F   UNL A   1      42.503  27.378  36.382  1.00  0.00    -0.203 F 
ATOM     92  F   UNL A   1      47.548  29.227  35.434  1.00  0.00    -0.200 F 
ATOM     93  C   UNL A   1      46.089  27.799  36.623  1.00  0.00     0.200 A 
ATOM     94  F   UNL A   1      44.594  26.383  37.778  1.00  0.00    -0.200 F 
ATOM     95  F   UNL A   1      47.124  27.285  37.302  1.00  0.00    -0.200 F 
ENDBRANCH  62  85
ENDBRANCH  36  37
ENDBRANCH  28  31
ENDBRANCH  26  27
ENDBRANCH  25  26
ENDBRANCH   1  25
TORSDOF 14
ENDMDL
MODEL 3
REMARK VINA RESULT:     -12.3      0.782      1.808
REMARK SMILES Cc1nc(SCc2cccc(Cl)c2)[nH]c(=O)c1CC(=O)NCCCNC(=O)c1ccc(-c2c3nc(c(-c4c(F)c(F)c(F)c(F)c4F)c4ccc([nH]4)c(-c4c(F)c(F)c(F)c(F)c4F)c4nc(c(-c5c(F)c(F)c(F)c(F)c5F)c5ccc2[nH]5)C=C4)C=C3)cc1
REMARK SMILES IDX 22 1 21 2 19 3 20 4 18 6 17 7 1 8 2 9 3 10 4 11 15 12 14 13
REMARK SMILES IDX 16 14 5 16 6 17 7 18 8 19 13 20 9 21 11 22 10 23 12 24 23 25
REMARK SMILES IDX 24 26 25 27 26 28 27 30 28 31 29 32 90 33 30 34 89 35 31 36
REMARK SMILES IDX 32 37 33 38 83 39 34 40 88 41 82 42 84 43 35 44 87 45 81 46
REMARK SMILES IDX 80 47 36 49 68 50 48 51 67 52 49 53 52 54 66 55 85 56 50 57
REMARK SMILES IDX 51 58 65 60 86 61 53 62 37 63 38 64 46 65 39 66 40 67 44 68
REMARK SMILES IDX 47 69 41 70 42 71 45 72 43 73 69 74 70 75 78 76 71 77 72 78
REMARK SMILES IDX 76 79 79 80 73 81 74 82 77 83 75 84 54 85 55 86 63 87 56 88
REMARK SMILES IDX 57 89 61 90 64 91 58 92 59 93 62 94 60 95
REMARK H PARENT 21 5 14 15 25 29 84 48 52 59
REMARK Flexibility Score: inf
ROOT
ATOM      1  C   UNL A   1      36.903  21.036  25.001  1.00  0.00     0.117 C 
ENDROOT
BRANCH   1   2
ATOM      2  N   UNL A   1      35.619  20.450  25.331  1.00  0.00    -0.356 N 
ATOM      3  C   UNL A   1      34.566  20.963  26.029  1.00  0.00     0.224 C 
ATOM      4  O   UNL A   1      33.559  20.261  26.134  1.00  0.00    -0.275 OA
ATOM      5  H   UNL A   1      35.486  19.534  24.997  1.00  0.00     0.163 HD
BRANCH   3   6
ATOM      6  C   UNL A   1      34.591  22.396  26.557  1.00  0.00     0.143 C 
BRANCH   6   7
ATOM      7  C   UNL A   1      33.459  23.270  26.098  1.00  0.00     0.048 A 
ATOM      8  C   UNL A   1      34.523  23.927  23.918  1.00  0.00     0.067 C 
ATOM      9  C   UNL A   1      33.413  23.961  24.940  1.00  0.00     0.049 A 
ATOM     10  N   UNL A   1      32.403  24.834  24.613  1.00  0.00    -0.229 NA
ATOM     11  C   UNL A   1      31.486  25.048  25.491  1.00  0.00     0.168 A 
ATOM     12  C   UNL A   1      32.285  23.403  27.002  1.00  0.00     0.255 A 
ATOM     13  N   UNL A   1      31.387  24.367  26.656  1.00  0.00    -0.301 N 
ATOM     14  O   UNL A   1      32.140  22.719  28.000  1.00  0.00    -0.269 OA
ATOM     15  H   UNL A   1      30.645  24.574  27.270  1.00  0.00     0.172 HD
BRANCH  11  16
ATOM     16  S   UNL A   1      30.264  26.263  25.307  1.00  0.00    -0.083 SA
BRANCH  16  17
ATOM     17  C   UNL A   1      31.187  27.594  24.484  1.00  0.00     0.113 C 
BRANCH  17  18
ATOM     18  C   UNL A   1      31.882  28.559  25.424  1.00  0.00    -0.036 A 
ATOM     19  C   UNL A   1      32.988  28.152  26.184  1.00  0.00     0.005 A 
ATOM     20  C   UNL A   1      31.406  29.867  25.603  1.00  0.00     0.025 A 
ATOM     21  C   UNL A   1      33.594  29.027  27.092  1.00  0.00     0.002 A 
ATOM     22  C   UNL A   1      32.021  30.744  26.496  1.00  0.00     0.041 A 
ATOM     23  C   UNL A   1      33.115  30.329  27.244  1.00  0.00     0.020 A 
ATOM     24  Cl  UNL A   1      31.400  32.339  26.688  1.00  0.00    -0.084 Cl
ENDBRANCH  17  18
ENDBRANCH  16  17
ENDBRANCH  11  16
ENDBRANCH   6   7
ENDBRANCH   3   6
ENDBRANCH   1   2
BRANCH   1  25
ATOM     25  C   UNL A   1      38.010  19.990  24.995  1.00  0.00     0.042 C 
BRANCH  25  26
ATOM     26  C   UNL A   1      39.101  20.252  26.027  1.00  0.00     0.118 C 
BRANCH  26  27
ATOM     27  N   UNL A   1      40.143  19.231  26.027  1.00  0.00    -0.352 N 
ATOM     28  C   UNL A   1      41.508  19.352  26.125  1.00  0.00     0.251 C 
ATOM     29  H   UNL A   1      39.816  18.306  25.944  1.00  0.00     0.163 HD
ATOM     30  O   UNL A   1      42.224  18.372  25.946  1.00  0.00    -0.269 OA
BRANCH  28  31
ATOM     31  C   UNL A   1      42.122  20.663  26.426  1.00  0.00     0.039 A 
ATOM     32  C   UNL A   1      42.485  21.504  25.369  1.00  0.00     0.014 A 
ATOM     33  C   UNL A   1      42.352  21.059  27.744  1.00  0.00     0.014 A 
ATOM     34  C   UNL A   1      43.003  22.774  25.639  1.00  0.00     0.010 A 
ATOM     35  C   UNL A   1      42.776  22.356  28.012  1.00  0.00     0.010 A 
ATOM     36  C   UNL A   1      43.111  23.226  26.963  1.00  0.00    -0.014 A 
BRANCH  36  37
ATOM     37  C   UNL A   1      43.597  24.590  27.294  1.00  0.00     0.031 A 
ATOM     38  C   UNL A   1      42.627  25.618  27.814  1.00  0.00     0.074 A 
ATOM     39  C   UNL A   1      44.878  24.929  27.047  1.00  0.00     0.049 A 
ATOM     40  N   UNL A   1      42.800  26.900  28.006  1.00  0.00    -0.248 NA
ATOM     41  C   UNL A   1      41.270  25.142  28.127  1.00  0.00     0.031 C 
ATOM     42  C   UNL A   1      45.908  24.034  26.519  1.00  0.00     0.029 A 
ATOM     43  N   UNL A   1      45.526  26.131  27.191  1.00  0.00    -0.354 N 
ATOM     44  C   UNL A   1      41.573  27.385  28.441  1.00  0.00     0.074 A 
ATOM     45  C   UNL A   1      40.649  26.273  28.428  1.00  0.00     0.031 C 
ATOM     46  C   UNL A   1      47.062  24.711  26.399  1.00  0.00     0.029 A 
ATOM     47  C   UNL A   1      46.842  26.099  26.791  1.00  0.00     0.049 A 
ATOM     48  H   UNL A   1      45.092  26.939  27.546  1.00  0.00     0.167 HD
ATOM     49  C   UNL A   1      41.253  28.637  28.843  1.00  0.00     0.037 A 
ATOM     50  C   UNL A   1      47.757  27.087  26.729  1.00  0.00     0.037 A 
ATOM     51  C   UNL A   1      42.183  29.734  28.882  1.00  0.00     0.049 A 
ATOM     52  C   UNL A   1      47.361  28.479  27.151  1.00  0.00     0.074 A 
ATOM     53  C   UNL A   1      41.965  31.036  29.296  1.00  0.00     0.029 A 
ATOM     54  N   UNL A   1      43.512  29.653  28.497  1.00  0.00    -0.354 N 
ATOM     55  N   UNL A   1      46.210  28.915  27.600  1.00  0.00    -0.248 NA
ATOM     56  C   UNL A   1      48.400  29.517  27.062  1.00  0.00     0.031 C 
ATOM     57  C   UNL A   1      43.152  31.753  29.126  1.00  0.00     0.029 A 
ATOM     58  C   UNL A   1      44.125  30.884  28.659  1.00  0.00     0.049 A 
ATOM     59  H   UNL A   1      43.955  28.841  28.158  1.00  0.00     0.167 HD
ATOM     60  C   UNL A   1      46.398  30.260  27.891  1.00  0.00     0.074 A 
ATOM     61  C   UNL A   1      47.776  30.568  27.573  1.00  0.00     0.031 C 
ATOM     62  C   UNL A   1      45.509  31.160  28.379  1.00  0.00     0.037 A 
BRANCH  49  63
ATOM     63  C   UNL A   1      39.842  28.887  29.292  1.00  0.00     0.064 A 
ATOM     64  C   UNL A   1      38.861  29.347  28.400  1.00  0.00     0.173 A 
ATOM     65  C   UNL A   1      39.453  28.613  30.612  1.00  0.00     0.173 A 
ATOM     66  F   UNL A   1      39.184  29.636  27.131  1.00  0.00    -0.203 F 
ATOM     67  C   UNL A   1      37.548  29.544  28.820  1.00  0.00     0.198 A 
ATOM     68  C   UNL A   1      38.131  28.780  31.019  1.00  0.00     0.198 A 
ATOM     69  F   UNL A   1      40.349  28.165  31.503  1.00  0.00    -0.203 F 
ATOM     70  F   UNL A   1      36.639  30.028  27.962  1.00  0.00    -0.200 F 
ATOM     71  C   UNL A   1      37.182  29.252  30.125  1.00  0.00     0.200 A 
ATOM     72  F   UNL A   1      37.775  28.482  32.275  1.00  0.00    -0.200 F 
ATOM     73  F   UNL A   1      35.914  29.429  30.522  1.00  0.00    -0.200 F 
ENDBRANCH  49  63
BRANCH  50  74
ATOM     74  C   UNL A   1      49.142  26.806  26.261  1.00  0.00     0.064 A 
ATOM     75  C   UNL A   1      49.489  26.965  24.911  1.00  0.00     0.173 A 
ATOM     76  C   UNL A   1      50.131  26.332  27.135  1.00  0.00     0.173 A 
ATOM     77  F   UNL A   1      48.574  27.399  24.032  1.00  0.00    -0.203 F 
ATOM     78  C   UNL A   1      50.756  26.621  24.447  1.00  0.00     0.198 A 
ATOM     79  C   UNL A   1      51.410  26.022  26.675  1.00  0.00     0.198 A 
ATOM     80  F   UNL A   1      49.857  26.169  28.438  1.00  0.00    -0.203 F 
ATOM     81  F   UNL A   1      51.038  26.719  23.141  1.00  0.00    -0.200 F 
ATOM     82  C   UNL A   1      51.717  26.153  25.330  1.00  0.00     0.200 A 
ATOM     83  F   UNL A   1      52.341  25.589  27.536  1.00  0.00    -0.200 F 
ATOM     84  F   UNL A   1      52.935  25.817  24.882  1.00  0.00    -0.200 F 
ENDBRANCH  50  74
BRANCH  62  85
ATOM     85  C   UNL A   1      46.013  32.542  28.680  1.00  0.00     0.064 A 
ATOM     86  C   UNL A   1      45.950  33.579  27.739  1.00  0.00     0.173 A 
ATOM     87  C   UNL A   1      46.513  32.843  29.957  1.00  0.00     0.173 A 
ATOM     88  F   UNL A   1      45.493  33.339  26.500  1.00  0.00    -0.203 F 
ATOM     89  C   UNL A   1      46.390  34.861  28.058  1.00  0.00     0.198 A 
ATOM     90  C   UNL A   1      46.922  34.132  30.283  1.00  0.00     0.198 A 
ATOM     91  F   UNL A   1      46.588  31.887  30.897  1.00  0.00    -0.203 F 
ATOM     92  F   UNL A   1      46.362  35.826  27.128  1.00  0.00    -0.200 F 
ATOM     93  C   UNL A   1      46.866  35.138  29.331  1.00  0.00     0.200 A 
ATOM     94  F   UNL A   1      47.365  34.402  31.518  1.00  0.00    -0.200 F 
ATOM     95  F   UNL A   1      47.275  36.376  29.639  1.00  0.00    -0.200 F 
ENDBRANCH  62  85
ENDBRANCH  36  37
ENDBRANCH  28  31
ENDBRANCH  26  27
ENDBRANCH  25  26
ENDBRANCH   1  25
TORSDOF 14
ENDMDL
