MODEL 1
REMARK VINA RESULT:     -13.2      0.000      0.000
REMARK SMILES O=C(NCCCNC(=O)c1ccc(-n2nc(Cl)ccc2=O)cc1)c1ccc(-c2c3nc(c(-c4c(F)c(F)c(F)c(F)c4F)c4ccc([nH]4)c(-c4c(F)c(F)c(F)c(F)c4F)c4nc(c(-c5c(F)c(F)c(F)c(F)c5F)c5ccc2[nH]5)C=C4)C=C3)cc1
REMARK SMILES IDX 4 1 3 2 1 3 2 4 24 6 25 7 86 8 26 9 85 10 27 11 28 12 29 13
REMARK SMILES IDX 79 14 30 15 84 16 78 17 80 18 31 19 83 20 77 21 76 22 32 24
REMARK SMILES IDX 64 25 44 26 63 27 45 28 48 29 62 30 81 31 46 32 47 33 61 35
REMARK SMILES IDX 82 36 49 37 33 38 34 39 42 40 35 41 36 42 40 43 43 44 37 45
REMARK SMILES IDX 38 46 41 47 39 48 65 49 66 50 74 51 67 52 68 53 72 54 75 55
REMARK SMILES IDX 69 56 70 57 73 58 71 59 50 60 51 61 59 62 52 63 53 64 57 65
REMARK SMILES IDX 60 66 54 67 55 68 58 69 56 70 5 71 6 72 7 73 8 74 9 76 10 77
REMARK SMILES IDX 11 78 23 79 12 80 22 81 13 82 14 83 15 84 20 85 16 86 19 87
REMARK SMILES IDX 21 88 17 89 18 90
REMARK H PARENT 3 5 80 23 48 34 7 75
REMARK Flexibility Score: inf
ROOT
ATOM      1  C   UNL A   1      32.604  32.810  27.251  1.00  0.00     0.118 C 
ENDROOT
BRANCH   1   2
ATOM      2  N   UNL A   1      32.440  34.206  27.639  1.00  0.00    -0.352 N 
ATOM      3  O   UNL A   1      32.651  36.039  28.931  1.00  0.00    -0.269 OA
ATOM      4  C   UNL A   1      33.057  34.919  28.636  1.00  0.00     0.251 C 
ATOM      5  H   UNL A   1      31.788  34.713  27.104  1.00  0.00     0.163 HD
BRANCH   4   6
ATOM      6  C   UNL A   1      34.206  34.338  29.362  1.00  0.00     0.039 A 
ATOM      7  C   UNL A   1      34.007  33.575  30.514  1.00  0.00     0.014 A 
ATOM      8  C   UNL A   1      35.498  34.520  28.858  1.00  0.00     0.014 A 
ATOM      9  C   UNL A   1      35.098  33.111  31.236  1.00  0.00     0.010 A 
ATOM     10  C   UNL A   1      36.591  33.965  29.530  1.00  0.00     0.010 A 
ATOM     11  C   UNL A   1      36.398  33.264  30.730  1.00  0.00    -0.014 A 
BRANCH  11  12
ATOM     12  C   UNL A   1      37.516  32.561  31.405  1.00  0.00     0.031 A 
ATOM     13  C   UNL A   1      38.218  31.401  30.763  1.00  0.00     0.074 A 
ATOM     14  C   UNL A   1      37.890  33.002  32.622  1.00  0.00     0.049 A 
ATOM     15  N   UNL A   1      39.203  30.678  31.233  1.00  0.00    -0.248 NA
ATOM     16  C   UNL A   1      37.759  30.991  29.428  1.00  0.00     0.031 C 
ATOM     17  C   UNL A   1      37.258  34.110  33.346  1.00  0.00     0.029 A 
ATOM     18  N   UNL A   1      38.887  32.586  33.466  1.00  0.00    -0.354 N 
ATOM     19  C   UNL A   1      39.468  29.718  30.267  1.00  0.00     0.074 A 
ATOM     20  C   UNL A   1      38.531  29.940  29.185  1.00  0.00     0.031 C 
ATOM     21  C   UNL A   1      37.900  34.306  34.505  1.00  0.00     0.029 A 
ATOM     22  C   UNL A   1      38.939  33.293  34.642  1.00  0.00     0.049 A 
ATOM     23  H   UNL A   1      39.506  31.850  33.249  1.00  0.00     0.167 HD
ATOM     24  C   UNL A   1      40.411  28.746  30.290  1.00  0.00     0.037 A 
ATOM     25  C   UNL A   1      39.711  33.122  35.730  1.00  0.00     0.037 A 
ATOM     26  C   UNL A   1      41.352  28.555  31.364  1.00  0.00     0.049 A 
ATOM     27  C   UNL A   1      40.723  32.014  35.731  1.00  0.00     0.074 A 
ATOM     28  C   UNL A   1      42.397  27.649  31.441  1.00  0.00     0.029 A 
ATOM     29  N   UNL A   1      41.356  29.271  32.552  1.00  0.00    -0.354 N 
ATOM     30  N   UNL A   1      41.010  31.159  34.780  1.00  0.00    -0.248 NA
ATOM     31  C   UNL A   1      41.513  31.841  36.955  1.00  0.00     0.031 C 
ATOM     32  C   UNL A   1      42.992  27.774  32.700  1.00  0.00     0.029 A 
ATOM     33  C   UNL A   1      42.355  28.795  33.387  1.00  0.00     0.049 A 
ATOM     34  H   UNL A   1      40.740  30.007  32.770  1.00  0.00     0.167 HD
ATOM     35  C   UNL A   1      42.016  30.352  35.288  1.00  0.00     0.074 A 
ATOM     36  C   UNL A   1      42.314  30.842  36.618  1.00  0.00     0.031 C 
ATOM     37  C   UNL A   1      42.630  29.291  34.711  1.00  0.00     0.037 A 
BRANCH  24  38
ATOM     38  C   UNL A   1      40.479  27.791  29.134  1.00  0.00     0.064 A 
ATOM     39  C   UNL A   1      39.679  26.641  29.078  1.00  0.00     0.173 A 
ATOM     40  C   UNL A   1      41.275  28.092  28.018  1.00  0.00     0.173 A 
ATOM     41  F   UNL A   1      38.904  26.305  30.120  1.00  0.00    -0.203 F 
ATOM     42  C   UNL A   1      39.675  25.826  27.947  1.00  0.00     0.198 A 
ATOM     43  C   UNL A   1      41.252  27.289  26.882  1.00  0.00     0.198 A 
ATOM     44  F   UNL A   1      42.053  29.186  28.019  1.00  0.00    -0.203 F 
ATOM     45  F   UNL A   1      38.915  24.723  27.920  1.00  0.00    -0.200 F 
ATOM     46  C   UNL A   1      40.452  26.157  26.847  1.00  0.00     0.200 A 
ATOM     47  F   UNL A   1      41.992  27.619  25.814  1.00  0.00    -0.200 F 
ATOM     48  F   UNL A   1      40.428  25.386  25.751  1.00  0.00    -0.200 F 
ENDBRANCH  24  38
BRANCH  25  49
ATOM     49  C   UNL A   1      39.519  33.989  36.922  1.00  0.00     0.064 A 
ATOM     50  C   UNL A   1      40.137  35.243  37.016  1.00  0.00     0.173 A 
ATOM     51  C   UNL A   1      38.726  33.571  38.002  1.00  0.00     0.173 A 
ATOM     52  F   UNL A   1      40.919  35.680  36.017  1.00  0.00    -0.203 F 
ATOM     53  C   UNL A   1      39.992  36.032  38.154  1.00  0.00     0.198 A 
ATOM     54  C   UNL A   1      38.553  34.377  39.124  1.00  0.00     0.198 A 
ATOM     55  F   UNL A   1      38.108  32.381  37.961  1.00  0.00    -0.203 F 
ATOM     56  F   UNL A   1      40.642  37.202  38.242  1.00  0.00    -0.200 F 
ATOM     57  C   UNL A   1      39.197  35.602  39.205  1.00  0.00     0.200 A 
ATOM     58  F   UNL A   1      37.768  33.963  40.128  1.00  0.00    -0.200 F 
ATOM     59  F   UNL A   1      39.060  36.361  40.300  1.00  0.00    -0.200 F 
ENDBRANCH  25  49
BRANCH  37  60
ATOM     60  C   UNL A   1      43.686  28.597  35.517  1.00  0.00     0.064 A 
ATOM     61  C   UNL A   1      43.359  27.578  36.425  1.00  0.00     0.173 A 
ATOM     62  C   UNL A   1      45.040  28.933  35.364  1.00  0.00     0.173 A 
ATOM     63  F   UNL A   1      42.076  27.236  36.622  1.00  0.00    -0.203 F 
ATOM     64  C   UNL A   1      44.346  26.940  37.170  1.00  0.00     0.198 A 
ATOM     65  C   UNL A   1      46.026  28.270  36.086  1.00  0.00     0.198 A 
ATOM     66  F   UNL A   1      45.404  29.897  34.505  1.00  0.00    -0.203 F 
ATOM     67  F   UNL A   1      44.005  26.007  38.069  1.00  0.00    -0.200 F 
ATOM     68  C   UNL A   1      45.679  27.280  36.994  1.00  0.00     0.200 A 
ATOM     69  F   UNL A   1      47.315  28.591  35.906  1.00  0.00    -0.200 F 
ATOM     70  F   UNL A   1      46.629  26.660  37.707  1.00  0.00    -0.200 F 
ENDBRANCH  37  60
ENDBRANCH  11  12
ENDBRANCH   4   6
ENDBRANCH   1   2
BRANCH   1  71
ATOM     71  C   UNL A   1      31.401  32.269  26.494  1.00  0.00     0.042 C 
BRANCH  71  72
ATOM     72  C   UNL A   1      31.465  30.771  26.239  1.00  0.00     0.118 C 
BRANCH  72  73
ATOM     73  N   UNL A   1      31.022  30.422  24.895  1.00  0.00    -0.352 N 
ATOM     74  C   UNL A   1      31.176  29.237  24.218  1.00  0.00     0.251 C 
ATOM     75  H   UNL A   1      30.548  31.132  24.405  1.00  0.00     0.163 HD
ATOM     76  O   UNL A   1      30.909  29.152  23.025  1.00  0.00    -0.269 OA
BRANCH  74  77
ATOM     77  C   UNL A   1      31.701  28.071  24.950  1.00  0.00     0.039 A 
ATOM     78  C   UNL A   1      30.817  27.077  25.362  1.00  0.00     0.016 A 
ATOM     79  C   UNL A   1      33.074  27.935  25.162  1.00  0.00     0.016 A 
ATOM     80  C   UNL A   1      31.325  25.881  25.875  1.00  0.00     0.029 A 
ATOM     81  C   UNL A   1      33.571  26.743  25.689  1.00  0.00     0.029 A 
ATOM     82  C   UNL A   1      32.708  25.675  25.997  1.00  0.00     0.069 A 
BRANCH  82  83
ATOM     83  N   UNL A   1      33.257  24.409  26.374  1.00  0.00    -0.196 N 
ATOM     84  N   UNL A   1      34.529  24.178  25.875  1.00  0.00    -0.153 NA
ATOM     85  C   UNL A   1      32.542  23.465  27.121  1.00  0.00     0.271 A 
ATOM     86  C   UNL A   1      35.087  23.040  26.127  1.00  0.00     0.150 A 
ATOM     87  C   UNL A   1      33.223  22.168  27.336  1.00  0.00     0.077 A 
ATOM     88  O   UNL A   1      31.399  23.571  27.563  1.00  0.00    -0.267 OA
ATOM     89  Cl  UNL A   1      36.688  22.836  25.521  1.00  0.00    -0.060 Cl
ATOM     90  C   UNL A   1      34.450  21.942  26.868  1.00  0.00     0.049 A 
ENDBRANCH  82  83
ENDBRANCH  74  77
ENDBRANCH  72  73
ENDBRANCH  71  72
ENDBRANCH   1  71
TORSDOF 11
ENDMDL
MODEL 2
REMARK VINA RESULT:     -13.2      0.118      1.151
REMARK SMILES O=C(NCCCNC(=O)c1ccc(-n2nc(Cl)ccc2=O)cc1)c1ccc(-c2c3nc(c(-c4c(F)c(F)c(F)c(F)c4F)c4ccc([nH]4)c(-c4c(F)c(F)c(F)c(F)c4F)c4nc(c(-c5c(F)c(F)c(F)c(F)c5F)c5ccc2[nH]5)C=C4)C=C3)cc1
REMARK SMILES IDX 4 1 3 2 1 3 2 4 24 6 25 7 86 8 26 9 85 10 27 11 28 12 29 13
REMARK SMILES IDX 79 14 30 15 84 16 78 17 80 18 31 19 83 20 77 21 76 22 32 24
REMARK SMILES IDX 64 25 44 26 63 27 45 28 48 29 62 30 81 31 46 32 47 33 61 35
REMARK SMILES IDX 82 36 49 37 33 38 34 39 42 40 35 41 36 42 40 43 43 44 37 45
REMARK SMILES IDX 38 46 41 47 39 48 65 49 66 50 74 51 67 52 68 53 72 54 75 55
REMARK SMILES IDX 69 56 70 57 73 58 71 59 50 60 51 61 59 62 52 63 53 64 57 65
REMARK SMILES IDX 60 66 54 67 55 68 58 69 56 70 5 71 6 72 7 73 8 74 9 76 10 77
REMARK SMILES IDX 11 78 23 79 12 80 22 81 13 82 14 83 15 84 20 85 16 86 19 87
REMARK SMILES IDX 21 88 17 89 18 90
REMARK H PARENT 3 5 80 23 48 34 7 75
REMARK Flexibility Score: inf
ROOT
ATOM      1  C   UNL A   1      32.624  32.822  27.220  1.00  0.00     0.118 C 
ENDROOT
BRANCH   1   2
ATOM      2  N   UNL A   1      32.457  34.211  27.627  1.00  0.00    -0.352 N 
ATOM      3  O   UNL A   1      32.662  36.027  28.944  1.00  0.00    -0.269 OA
ATOM      4  C   UNL A   1      33.071  34.912  28.635  1.00  0.00     0.251 C 
ATOM      5  H   UNL A   1      31.806  34.725  27.098  1.00  0.00     0.163 HD
BRANCH   4   6
ATOM      6  C   UNL A   1      34.220  34.323  29.356  1.00  0.00     0.039 A 
ATOM      7  C   UNL A   1      34.019  33.538  30.493  1.00  0.00     0.014 A 
ATOM      8  C   UNL A   1      35.513  34.520  28.862  1.00  0.00     0.014 A 
ATOM      9  C   UNL A   1      35.108  33.065  31.211  1.00  0.00     0.010 A 
ATOM     10  C   UNL A   1      36.605  33.957  29.528  1.00  0.00     0.010 A 
ATOM     11  C   UNL A   1      36.410  33.234  30.714  1.00  0.00    -0.014 A 
BRANCH  11  12
ATOM     12  C   UNL A   1      37.528  32.524  31.381  1.00  0.00     0.031 A 
ATOM     13  C   UNL A   1      38.224  31.366  30.731  1.00  0.00     0.074 A 
ATOM     14  C   UNL A   1      37.908  32.957  32.600  1.00  0.00     0.049 A 
ATOM     15  N   UNL A   1      39.208  30.637  31.194  1.00  0.00    -0.248 NA
ATOM     16  C   UNL A   1      37.760  30.965  29.395  1.00  0.00     0.031 C 
ATOM     17  C   UNL A   1      37.281  34.062  33.332  1.00  0.00     0.029 A 
ATOM     18  N   UNL A   1      38.906  32.533  33.438  1.00  0.00    -0.354 N 
ATOM     19  C   UNL A   1      39.467  29.682  30.220  1.00  0.00     0.074 A 
ATOM     20  C   UNL A   1      38.528  29.913  29.143  1.00  0.00     0.031 C 
ATOM     21  C   UNL A   1      37.928  34.250  34.490  1.00  0.00     0.029 A 
ATOM     22  C   UNL A   1      38.963  33.233  34.618  1.00  0.00     0.049 A 
ATOM     23  H   UNL A   1      39.522  31.797  33.215  1.00  0.00     0.167 HD
ATOM     24  C   UNL A   1      40.407  28.707  30.235  1.00  0.00     0.037 A 
ATOM     25  C   UNL A   1      39.739  33.054  35.703  1.00  0.00     0.037 A 
ATOM     26  C   UNL A   1      41.352  28.507  31.305  1.00  0.00     0.049 A 
ATOM     27  C   UNL A   1      40.748  31.943  35.693  1.00  0.00     0.074 A 
ATOM     28  C   UNL A   1      42.394  27.598  31.374  1.00  0.00     0.029 A 
ATOM     29  N   UNL A   1      41.362  29.216  32.497  1.00  0.00    -0.354 N 
ATOM     30  N   UNL A   1      41.029  31.092  34.737  1.00  0.00    -0.248 NA
ATOM     31  C   UNL A   1      41.541  31.760  36.915  1.00  0.00     0.031 C 
ATOM     32  C   UNL A   1      42.994  27.713  32.631  1.00  0.00     0.029 A 
ATOM     33  C   UNL A   1      42.363  28.732  33.326  1.00  0.00     0.049 A 
ATOM     34  H   UNL A   1      40.749  29.953  32.721  1.00  0.00     0.167 HD
ATOM     35  C   UNL A   1      42.034  30.279  35.237  1.00  0.00     0.074 A 
ATOM     36  C   UNL A   1      42.338  30.761  36.568  1.00  0.00     0.031 C 
ATOM     37  C   UNL A   1      42.643  29.220  34.651  1.00  0.00     0.037 A 
BRANCH  24  38
ATOM     38  C   UNL A   1      40.469  27.758  29.074  1.00  0.00     0.064 A 
ATOM     39  C   UNL A   1      39.671  26.607  29.017  1.00  0.00     0.173 A 
ATOM     40  C   UNL A   1      41.257  28.067  27.953  1.00  0.00     0.173 A 
ATOM     41  F   UNL A   1      38.904  26.264  30.063  1.00  0.00    -0.203 F 
ATOM     42  C   UNL A   1      39.660  25.798  27.882  1.00  0.00     0.198 A 
ATOM     43  C   UNL A   1      41.227  27.270  26.813  1.00  0.00     0.198 A 
ATOM     44  F   UNL A   1      42.033  29.161  27.955  1.00  0.00    -0.203 F 
ATOM     45  F   UNL A   1      38.901  24.694  27.854  1.00  0.00    -0.200 F 
ATOM     46  C   UNL A   1      40.429  26.137  26.778  1.00  0.00     0.200 A 
ATOM     47  F   UNL A   1      41.959  27.607  25.742  1.00  0.00    -0.200 F 
ATOM     48  F   UNL A   1      40.398  25.371  25.678  1.00  0.00    -0.200 F 
ENDBRANCH  24  38
BRANCH  25  49
ATOM     49  C   UNL A   1      39.553  33.915  36.900  1.00  0.00     0.064 A 
ATOM     50  C   UNL A   1      38.777  33.491  37.986  1.00  0.00     0.173 A 
ATOM     51  C   UNL A   1      40.136  35.190  36.973  1.00  0.00     0.173 A 
ATOM     52  F   UNL A   1      38.184  32.288  37.956  1.00  0.00    -0.203 F 
ATOM     53  C   UNL A   1      38.567  34.320  39.086  1.00  0.00     0.198 A 
ATOM     54  C   UNL A   1      39.955  36.002  38.089  1.00  0.00     0.198 A 
ATOM     55  F   UNL A   1      40.893  35.641  35.962  1.00  0.00    -0.203 F 
ATOM     56  F   UNL A   1      37.771  33.913  40.085  1.00  0.00    -0.200 F 
ATOM     57  C   UNL A   1      39.160  35.572  39.139  1.00  0.00     0.200 A 
ATOM     58  F   UNL A   1      40.547  37.203  38.142  1.00  0.00    -0.200 F 
ATOM     59  F   UNL A   1      38.956  36.369  40.197  1.00  0.00    -0.200 F 
ENDBRANCH  25  49
BRANCH  37  60
ATOM     60  C   UNL A   1      43.700  28.518  35.451  1.00  0.00     0.064 A 
ATOM     61  C   UNL A   1      43.374  27.486  36.344  1.00  0.00     0.173 A 
ATOM     62  C   UNL A   1      45.053  28.860  35.304  1.00  0.00     0.173 A 
ATOM     63  F   UNL A   1      42.092  27.137  36.533  1.00  0.00    -0.203 F 
ATOM     64  C   UNL A   1      44.362  26.841  37.082  1.00  0.00     0.198 A 
ATOM     65  C   UNL A   1      46.040  28.190  36.020  1.00  0.00     0.198 A 
ATOM     66  F   UNL A   1      45.416  29.837  34.460  1.00  0.00    -0.203 F 
ATOM     67  F   UNL A   1      44.022  25.895  37.968  1.00  0.00    -0.200 F 
ATOM     68  C   UNL A   1      45.694  27.187  36.913  1.00  0.00     0.200 A 
ATOM     69  F   UNL A   1      47.328  28.517  35.846  1.00  0.00    -0.200 F 
ATOM     70  F   UNL A   1      46.645  26.560  37.619  1.00  0.00    -0.200 F 
ENDBRANCH  37  60
ENDBRANCH  11  12
ENDBRANCH   4   6
ENDBRANCH   1   2
BRANCH   1  71
ATOM     71  C   UNL A   1      31.403  32.272  26.502  1.00  0.00     0.042 C 
BRANCH  71  72
ATOM     72  C   UNL A   1      31.472  30.776  26.236  1.00  0.00     0.118 C 
BRANCH  72  73
ATOM     73  N   UNL A   1      31.031  30.434  24.889  1.00  0.00    -0.352 N 
ATOM     74  C   UNL A   1      31.222  29.269  24.190  1.00  0.00     0.251 C 
ATOM     75  H   UNL A   1      30.526  31.136  24.417  1.00  0.00     0.163 HD
ATOM     76  O   UNL A   1      30.948  29.195  22.998  1.00  0.00    -0.269 OA
BRANCH  74  77
ATOM     77  C   UNL A   1      31.797  28.110  24.896  1.00  0.00     0.039 A 
ATOM     78  C   UNL A   1      30.950  27.259  25.600  1.00  0.00     0.016 A 
ATOM     79  C   UNL A   1      33.162  27.834  24.798  1.00  0.00     0.016 A 
ATOM     80  C   UNL A   1      31.452  26.056  26.102  1.00  0.00     0.029 A 
ATOM     81  C   UNL A   1      33.658  26.638  25.315  1.00  0.00     0.029 A 
ATOM     82  C   UNL A   1      32.799  25.703  25.922  1.00  0.00     0.069 A 
BRANCH  82  83
ATOM     83  N   UNL A   1      33.303  24.415  26.289  1.00  0.00    -0.196 N 
ATOM     84  N   UNL A   1      34.608  24.186  25.883  1.00  0.00    -0.153 NA
ATOM     85  C   UNL A   1      32.519  23.453  26.937  1.00  0.00     0.271 A 
ATOM     86  C   UNL A   1      35.131  23.032  26.132  1.00  0.00     0.150 A 
ATOM     87  C   UNL A   1      33.167  22.138  27.152  1.00  0.00     0.077 A 
ATOM     88  O   UNL A   1      31.347  23.557  27.291  1.00  0.00    -0.267 OA
ATOM     89  Cl  UNL A   1      36.773  22.829  25.647  1.00  0.00    -0.060 Cl
ATOM     90  C   UNL A   1      34.425  21.914  26.775  1.00  0.00     0.049 A 
ENDBRANCH  82  83
ENDBRANCH  74  77
ENDBRANCH  72  73
ENDBRANCH  71  72
ENDBRANCH   1  71
TORSDOF 11
ENDMDL
MODEL 3
REMARK VINA RESULT:     -13.1      0.137      1.626
REMARK SMILES O=C(NCCCNC(=O)c1ccc(-n2nc(Cl)ccc2=O)cc1)c1ccc(-c2c3nc(c(-c4c(F)c(F)c(F)c(F)c4F)c4ccc([nH]4)c(-c4c(F)c(F)c(F)c(F)c4F)c4nc(c(-c5c(F)c(F)c(F)c(F)c5F)c5ccc2[nH]5)C=C4)C=C3)cc1
REMARK SMILES IDX 4 1 3 2 1 3 2 4 24 6 25 7 86 8 26 9 85 10 27 11 28 12 29 13
REMARK SMILES IDX 79 14 30 15 84 16 78 17 80 18 31 19 83 20 77 21 76 22 32 24
REMARK SMILES IDX 64 25 44 26 63 27 45 28 48 29 62 30 81 31 46 32 47 33 61 35
REMARK SMILES IDX 82 36 49 37 33 38 34 39 42 40 35 41 36 42 40 43 43 44 37 45
REMARK SMILES IDX 38 46 41 47 39 48 65 49 66 50 74 51 67 52 68 53 72 54 75 55
REMARK SMILES IDX 69 56 70 57 73 58 71 59 50 60 51 61 59 62 52 63 53 64 57 65
REMARK SMILES IDX 60 66 54 67 55 68 58 69 56 70 5 71 6 72 7 73 8 74 9 76 10 77
REMARK SMILES IDX 11 78 23 79 12 80 22 81 13 82 14 83 15 84 20 85 16 86 19 87
REMARK SMILES IDX 21 88 17 89 18 90
REMARK H PARENT 3 5 80 23 48 34 7 75
REMARK Flexibility Score: inf
ROOT
ATOM      1  C   UNL A   1      32.617  32.822  27.242  1.00  0.00     0.118 C 
ENDROOT
BRANCH   1   2
ATOM      2  N   UNL A   1      32.453  34.210  27.655  1.00  0.00    -0.352 N 
ATOM      3  O   UNL A   1      32.666  36.020  28.979  1.00  0.00    -0.269 OA
ATOM      4  C   UNL A   1      33.072  34.906  28.663  1.00  0.00     0.251 C 
ATOM      5  H   UNL A   1      31.800  34.726  27.131  1.00  0.00     0.163 HD
BRANCH   4   6
ATOM      6  C   UNL A   1      34.224  34.313  29.376  1.00  0.00     0.039 A 
ATOM      7  C   UNL A   1      34.028  33.538  30.521  1.00  0.00     0.014 A 
ATOM      8  C   UNL A   1      35.513  34.495  28.867  1.00  0.00     0.014 A 
ATOM      9  C   UNL A   1      35.121  33.061  31.232  1.00  0.00     0.010 A 
ATOM     10  C   UNL A   1      36.607  33.928  29.527  1.00  0.00     0.010 A 
ATOM     11  C   UNL A   1      36.419  33.215  30.720  1.00  0.00    -0.014 A 
BRANCH  11  12
ATOM     12  C   UNL A   1      37.538  32.501  31.380  1.00  0.00     0.031 A 
ATOM     13  C   UNL A   1      38.234  31.348  30.721  1.00  0.00     0.074 A 
ATOM     14  C   UNL A   1      37.919  32.926  32.602  1.00  0.00     0.049 A 
ATOM     15  N   UNL A   1      39.219  30.616  31.177  1.00  0.00    -0.248 NA
ATOM     16  C   UNL A   1      37.769  30.957  29.382  1.00  0.00     0.031 C 
ATOM     17  C   UNL A   1      37.292  34.025  33.343  1.00  0.00     0.029 A 
ATOM     18  N   UNL A   1      38.918  32.495  33.436  1.00  0.00    -0.354 N 
ATOM     19  C   UNL A   1      39.478  29.669  30.196  1.00  0.00     0.074 A 
ATOM     20  C   UNL A   1      38.537  29.907  29.122  1.00  0.00     0.031 C 
ATOM     21  C   UNL A   1      37.940  34.204  34.501  1.00  0.00     0.029 A 
ATOM     22  C   UNL A   1      38.976  33.187  34.621  1.00  0.00     0.049 A 
ATOM     23  H   UNL A   1      39.534  31.761  33.207  1.00  0.00     0.167 HD
ATOM     24  C   UNL A   1      40.419  28.694  30.203  1.00  0.00     0.037 A 
ATOM     25  C   UNL A   1      39.753  33.000  35.704  1.00  0.00     0.037 A 
ATOM     26  C   UNL A   1      41.364  28.487  31.270  1.00  0.00     0.049 A 
ATOM     27  C   UNL A   1      40.762  31.889  35.685  1.00  0.00     0.074 A 
ATOM     28  C   UNL A   1      42.407  27.578  31.331  1.00  0.00     0.029 A 
ATOM     29  N   UNL A   1      41.375  29.187  32.468  1.00  0.00    -0.354 N 
ATOM     30  N   UNL A   1      41.043  31.046  34.721  1.00  0.00    -0.248 NA
ATOM     31  C   UNL A   1      41.558  31.699  36.904  1.00  0.00     0.031 C 
ATOM     32  C   UNL A   1      43.008  27.685  32.589  1.00  0.00     0.029 A 
ATOM     33  C   UNL A   1      42.377  28.698  33.292  1.00  0.00     0.049 A 
ATOM     34  H   UNL A   1      40.762  29.922  32.698  1.00  0.00     0.167 HD
ATOM     35  C   UNL A   1      42.050  30.230  35.214  1.00  0.00     0.074 A 
ATOM     36  C   UNL A   1      42.355  30.702  36.549  1.00  0.00     0.031 C 
ATOM     37  C   UNL A   1      42.659  29.176  34.621  1.00  0.00     0.037 A 
BRANCH  24  38
ATOM     38  C   UNL A   1      40.480  27.754  29.035  1.00  0.00     0.064 A 
ATOM     39  C   UNL A   1      39.675  26.608  28.966  1.00  0.00     0.173 A 
ATOM     40  C   UNL A   1      41.273  28.067  27.919  1.00  0.00     0.173 A 
ATOM     41  F   UNL A   1      38.903  26.261  30.006  1.00  0.00    -0.203 F 
ATOM     42  C   UNL A   1      39.665  25.808  27.824  1.00  0.00     0.198 A 
ATOM     43  C   UNL A   1      41.244  27.279  26.773  1.00  0.00     0.198 A 
ATOM     44  F   UNL A   1      42.056  29.158  27.932  1.00  0.00    -0.203 F 
ATOM     45  F   UNL A   1      38.900  24.708  27.785  1.00  0.00    -0.200 F 
ATOM     46  C   UNL A   1      40.440  26.151  26.726  1.00  0.00     0.200 A 
ATOM     47  F   UNL A   1      41.981  27.621  25.707  1.00  0.00    -0.200 F 
ATOM     48  F   UNL A   1      40.409  25.394  25.620  1.00  0.00    -0.200 F 
ENDBRANCH  24  38
BRANCH  25  49
ATOM     49  C   UNL A   1      39.568  33.852  36.907  1.00  0.00     0.064 A 
ATOM     50  C   UNL A   1      38.777  33.428  37.983  1.00  0.00     0.173 A 
ATOM     51  C   UNL A   1      40.166  35.119  36.997  1.00  0.00     0.173 A 
ATOM     52  F   UNL A   1      38.170  32.233  37.937  1.00  0.00    -0.203 F 
ATOM     53  C   UNL A   1      38.569  34.249  39.089  1.00  0.00     0.198 A 
ATOM     54  C   UNL A   1      39.986  35.923  38.119  1.00  0.00     0.198 A 
ATOM     55  F   UNL A   1      40.937  35.571  35.997  1.00  0.00    -0.203 F 
ATOM     56  F   UNL A   1      37.760  33.843  40.078  1.00  0.00    -0.200 F 
ATOM     57  C   UNL A   1      39.177  35.493  39.159  1.00  0.00     0.200 A 
ATOM     58  F   UNL A   1      40.592  37.116  38.188  1.00  0.00    -0.200 F 
ATOM     59  F   UNL A   1      38.974  36.282  40.222  1.00  0.00    -0.200 F 
ENDBRANCH  25  49
BRANCH  37  60
ATOM     60  C   UNL A   1      43.716  28.468  35.414  1.00  0.00     0.064 A 
ATOM     61  C   UNL A   1      45.069  28.824  35.306  1.00  0.00     0.173 A 
ATOM     62  C   UNL A   1      43.374  27.443  36.308  1.00  0.00     0.173 A 
ATOM     63  F   UNL A   1      45.448  29.784  34.449  1.00  0.00    -0.203 F 
ATOM     64  C   UNL A   1      46.044  28.162  36.046  1.00  0.00     0.198 A 
ATOM     65  C   UNL A   1      44.347  26.805  37.070  1.00  0.00     0.198 A 
ATOM     66  F   UNL A   1      42.093  27.069  36.450  1.00  0.00    -0.203 F 
ATOM     67  F   UNL A   1      47.335  28.483  35.888  1.00  0.00    -0.200 F 
ATOM     68  C   UNL A   1      45.682  27.159  36.933  1.00  0.00     0.200 A 
ATOM     69  F   UNL A   1      43.995  25.846  37.936  1.00  0.00    -0.200 F 
ATOM     70  F   UNL A   1      46.620  26.526  37.650  1.00  0.00    -0.200 F 
ENDBRANCH  37  60
ENDBRANCH  11  12
ENDBRANCH   4   6
ENDBRANCH   1   2
BRANCH   1  71
ATOM     71  C   UNL A   1      31.403  32.285  26.501  1.00  0.00     0.042 C 
BRANCH  71  72
ATOM     72  C   UNL A   1      31.462  30.789  26.235  1.00  0.00     0.118 C 
BRANCH  72  73
ATOM     73  N   UNL A   1      31.030  30.452  24.884  1.00  0.00    -0.352 N 
ATOM     74  C   UNL A   1      31.223  29.287  24.184  1.00  0.00     0.251 C 
ATOM     75  H   UNL A   1      30.532  31.156  24.409  1.00  0.00     0.163 HD
ATOM     76  O   UNL A   1      30.958  29.217  22.989  1.00  0.00    -0.269 OA
BRANCH  74  77
ATOM     77  C   UNL A   1      31.787  28.125  24.892  1.00  0.00     0.039 A 
ATOM     78  C   UNL A   1      30.926  27.245  25.542  1.00  0.00     0.016 A 
ATOM     79  C   UNL A   1      33.160  27.875  24.849  1.00  0.00     0.016 A 
ATOM     80  C   UNL A   1      31.428  26.041  26.042  1.00  0.00     0.029 A 
ATOM     81  C   UNL A   1      33.655  26.677  25.364  1.00  0.00     0.029 A 
ATOM     82  C   UNL A   1      32.788  25.715  25.914  1.00  0.00     0.069 A 
BRANCH  82  83
ATOM     83  N   UNL A   1      33.299  24.429  26.278  1.00  0.00    -0.196 N 
ATOM     84  N   UNL A   1      34.607  24.211  25.877  1.00  0.00    -0.153 NA
ATOM     85  C   UNL A   1      32.519  23.459  26.920  1.00  0.00     0.271 A 
ATOM     86  C   UNL A   1      35.137  23.059  26.123  1.00  0.00     0.150 A 
ATOM     87  C   UNL A   1      33.175  22.148  27.132  1.00  0.00     0.077 A 
ATOM     88  O   UNL A   1      31.345  23.554  27.269  1.00  0.00    -0.267 OA
ATOM     89  Cl  UNL A   1      36.782  22.869  25.644  1.00  0.00    -0.060 Cl
ATOM     90  C   UNL A   1      34.436  21.934  26.758  1.00  0.00     0.049 A 
ENDBRANCH  82  83
ENDBRANCH  74  77
ENDBRANCH  72  73
ENDBRANCH  71  72
ENDBRANCH   1  71
TORSDOF 11
ENDMDL
