MODEL 1
REMARK VINA RESULT:     -12.8      0.000      0.000
REMARK SMILES COc1cc(/C=N/c2cccc(F)c2)ccc1OCc1cccc(C(=O)NCCCNC(=O)c2ccc(-c3c4nc(c(-c5c(F)c(F)c(F)c(F)c5F)c5ccc([nH]5)c(-c5c(F)c(F)c(F)c(F)c5F)c5nc(c(-c6c(F)c(F)c(F)c(F)c6F)c6ccc3[nH]6)C=C5)C=C4)cc2)c1
REMARK SMILES IDX 25 1 26 2 27 3 24 5 20 6 21 7 97 8 22 9 23 10 19 11 18 12
REMARK SMILES IDX 17 13 3 14 4 15 5 16 16 17 15 18 2 19 1 20 6 21 7 22 8 23
REMARK SMILES IDX 9 24 14 25 10 26 12 27 11 28 13 29 28 30 29 31 30 32 31 33
REMARK SMILES IDX 32 34 33 36 34 37 35 38 96 39 36 40 95 41 37 42 38 43 39 44
REMARK SMILES IDX 89 45 40 46 94 47 88 48 90 49 41 50 93 51 87 52 86 53 42 55
REMARK SMILES IDX 74 56 54 57 73 58 55 59 58 60 72 61 91 62 56 63 57 64 71 66
REMARK SMILES IDX 92 67 59 68 43 69 44 70 52 71 45 72 46 73 50 74 53 75 47 76
REMARK SMILES IDX 48 77 51 78 49 79 75 80 76 81 84 82 77 83 78 84 82 85 85 86
REMARK SMILES IDX 79 87 80 88 83 89 81 90 60 91 61 92 69 93 62 94 63 95 67 96
REMARK SMILES IDX 70 97 64 98 65 99 68 100 66 101
REMARK H PARENT 27 4 31 35 90 54 58 65
REMARK Flexibility Score: inf
ROOT
ATOM      1  C   UNL A   1      37.368  23.207  25.727  1.00  0.00     0.251 C 
ATOM      2  O   UNL A   1      38.091  24.053  26.262  1.00  0.00    -0.269 OA
ATOM      3  N   UNL A   1      38.006  22.109  25.197  1.00  0.00    -0.352 N 
ATOM      4  H   UNL A   1      38.989  22.167  25.236  1.00  0.00     0.163 HD
ENDROOT
BRANCH   1   5
ATOM      5  C   UNL A   1      35.898  23.492  25.618  1.00  0.00     0.040 A 
ATOM      6  C   UNL A   1      33.916  24.644  24.735  1.00  0.00    -0.010 A 
ATOM      7  C   UNL A   1      33.162  24.066  25.779  1.00  0.00     0.007 A 
ATOM      8  C   UNL A   1      35.263  24.256  24.620  1.00  0.00     0.021 A 
ATOM      9  C   UNL A   1      33.740  23.200  26.702  1.00  0.00     0.001 A 
ATOM     10  C   UNL A   1      35.105  22.942  26.639  1.00  0.00     0.014 A 
BRANCH   6  11
ATOM     11  C   UNL A   1      33.203  25.767  23.971  1.00  0.00     0.265 C 
BRANCH  11  12
ATOM     12  O   UNL A   1      32.055  26.555  24.314  1.00  0.00    -0.485 OA
BRANCH  12  13
ATOM     13  C   UNL A   1      32.164  27.698  25.027  1.00  0.00     0.161 A 
ATOM     14  C   UNL A   1      31.634  28.906  24.568  1.00  0.00     0.161 A 
ATOM     15  C   UNL A   1      31.833  30.061  25.331  1.00  0.00     0.060 A 
ATOM     16  C   UNL A   1      32.609  30.040  26.492  1.00  0.00    -0.003 A 
ATOM     17  C   UNL A   1      33.032  27.700  26.134  1.00  0.00     0.051 A 
ATOM     18  C   UNL A   1      33.266  28.873  26.865  1.00  0.00     0.014 A 
BRANCH  14  19
ATOM     19  O   UNL A   1      30.936  29.171  23.425  1.00  0.00    -0.493 OA
ATOM     20  C   UNL A   1      29.577  28.796  23.304  1.00  0.00     0.278 C 
ENDBRANCH  14  19
BRANCH  16  21
ATOM     21  C   UNL A   1      32.725  31.277  27.289  1.00  0.00     0.120 C 
ATOM     22  N   UNL A   1      33.892  31.687  27.670  1.00  0.00    -0.256 NA
BRANCH  22  23
ATOM     23  C   UNL A   1      33.983  32.800  28.515  1.00  0.00     0.066 A 
ATOM     24  C   UNL A   1      34.657  32.677  29.736  1.00  0.00     0.028 A 
ATOM     25  C   UNL A   1      33.303  33.987  28.234  1.00  0.00     0.067 A 
ATOM     26  C   UNL A   1      34.656  33.725  30.664  1.00  0.00     0.005 A 
ATOM     27  C   UNL A   1      33.310  35.025  29.158  1.00  0.00     0.125 A 
ATOM     28  C   UNL A   1      33.977  34.905  30.372  1.00  0.00     0.039 A 
ATOM     29  F   UNL A   1      32.647  36.156  28.881  1.00  0.00    -0.207 F 
ENDBRANCH  22  23
ENDBRANCH  16  21
ENDBRANCH  12  13
ENDBRANCH  11  12
ENDBRANCH   6  11
ENDBRANCH   1   5
BRANCH   3  30
ATOM     30  C   UNL A   1      37.521  20.887  24.592  1.00  0.00     0.118 C 
BRANCH  30  31
ATOM     31  C   UNL A   1      38.286  19.627  24.970  1.00  0.00     0.042 C 
BRANCH  31  32
ATOM     32  C   UNL A   1      39.283  19.791  26.106  1.00  0.00     0.118 C 
BRANCH  32  33
ATOM     33  N   UNL A   1      40.471  18.954  25.967  1.00  0.00    -0.352 N 
ATOM     34  C   UNL A   1      41.809  19.232  26.096  1.00  0.00     0.251 C 
ATOM     35  H   UNL A   1      40.277  18.017  25.737  1.00  0.00     0.163 HD
ATOM     36  O   UNL A   1      42.631  18.347  25.834  1.00  0.00    -0.269 OA
BRANCH  34  37
ATOM     37  C   UNL A   1      42.314  20.561  26.512  1.00  0.00     0.039 A 
ATOM     38  C   UNL A   1      42.833  21.413  25.527  1.00  0.00     0.014 A 
ATOM     39  C   UNL A   1      42.341  20.971  27.844  1.00  0.00     0.014 A 
ATOM     40  C   UNL A   1      43.304  22.684  25.867  1.00  0.00     0.010 A 
ATOM     41  C   UNL A   1      42.713  22.275  28.171  1.00  0.00     0.010 A 
ATOM     42  C   UNL A   1      43.208  23.144  27.188  1.00  0.00    -0.014 A 
BRANCH  42  43
ATOM     43  C   UNL A   1      43.627  24.522  27.561  1.00  0.00     0.031 A 
ATOM     44  C   UNL A   1      42.598  25.560  27.923  1.00  0.00     0.074 A 
ATOM     45  C   UNL A   1      44.932  24.860  27.513  1.00  0.00     0.049 A 
ATOM     46  N   UNL A   1      42.761  26.830  28.200  1.00  0.00    -0.248 NA
ATOM     47  C   UNL A   1      41.194  25.120  27.947  1.00  0.00     0.031 C 
ATOM     48  C   UNL A   1      46.023  23.963  27.131  1.00  0.00     0.029 A 
ATOM     49  N   UNL A   1      45.561  26.052  27.776  1.00  0.00    -0.354 N 
ATOM     50  C   UNL A   1      41.485  27.339  28.410  1.00  0.00     0.074 A 
ATOM     51  C   UNL A   1      40.556  26.257  28.171  1.00  0.00     0.031 C 
ATOM     52  C   UNL A   1      47.188  24.626  27.211  1.00  0.00     0.029 A 
ATOM     53  C   UNL A   1      46.923  26.006  27.607  1.00  0.00     0.049 A 
ATOM     54  H   UNL A   1      45.080  26.863  28.061  1.00  0.00     0.167 HD
ATOM     55  C   UNL A   1      41.124  28.587  28.793  1.00  0.00     0.037 A 
ATOM     56  C   UNL A   1      47.855  26.969  27.746  1.00  0.00     0.037 A 
ATOM     57  C   UNL A   1      42.054  29.654  29.059  1.00  0.00     0.049 A 
ATOM     58  C   UNL A   1      47.425  28.349  28.167  1.00  0.00     0.074 A 
ATOM     59  C   UNL A   1      41.792  30.934  29.514  1.00  0.00     0.029 A 
ATOM     60  N   UNL A   1      43.428  29.563  28.892  1.00  0.00    -0.354 N 
ATOM     61  N   UNL A   1      46.222  28.798  28.431  1.00  0.00    -0.248 NA
ATOM     62  C   UNL A   1      48.487  29.354  28.316  1.00  0.00     0.031 C 
ATOM     63  C   UNL A   1      43.002  31.635  29.570  1.00  0.00     0.029 A 
ATOM     64  C   UNL A   1      44.025  30.774  29.208  1.00  0.00     0.049 A 
ATOM     65  H   UNL A   1      43.909  28.758  28.592  1.00  0.00     0.167 HD
ATOM     66  C   UNL A   1      46.384  30.127  28.803  1.00  0.00     0.074 A 
ATOM     67  C   UNL A   1      47.804  30.404  28.749  1.00  0.00     0.031 C 
ATOM     68  C   UNL A   1      45.441  31.034  29.155  1.00  0.00     0.037 A 
BRANCH  55  69
ATOM     69  C   UNL A   1      39.655  28.869  28.952  1.00  0.00     0.064 A 
ATOM     70  C   UNL A   1      38.865  29.295  27.874  1.00  0.00     0.173 A 
ATOM     71  C   UNL A   1      39.023  28.676  30.190  1.00  0.00     0.173 A 
ATOM     72  F   UNL A   1      39.420  29.504  26.670  1.00  0.00    -0.203 F 
ATOM     73  C   UNL A   1      37.506  29.551  28.036  1.00  0.00     0.198 A 
ATOM     74  C   UNL A   1      37.657  28.900  30.341  1.00  0.00     0.198 A 
ATOM     75  F   UNL A   1      39.728  28.262  31.254  1.00  0.00    -0.203 F 
ATOM     76  F   UNL A   1      36.784  30.010  27.004  1.00  0.00    -0.200 F 
ATOM     77  C   UNL A   1      36.902  29.346  29.267  1.00  0.00     0.200 A 
ATOM     78  F   UNL A   1      37.071  28.686  31.528  1.00  0.00    -0.200 F 
ATOM     79  F   UNL A   1      35.592  29.585  29.420  1.00  0.00    -0.200 F 
ENDBRANCH  55  69
BRANCH  56  80
ATOM     80  C   UNL A   1      49.289  26.657  27.506  1.00  0.00     0.064 A 
ATOM     81  C   UNL A   1      49.815  26.649  26.207  1.00  0.00     0.173 A 
ATOM     82  C   UNL A   1      50.159  26.352  28.563  1.00  0.00     0.173 A 
ATOM     83  F   UNL A   1      49.019  26.913  25.160  1.00  0.00    -0.203 F 
ATOM     84  C   UNL A   1      51.150  26.326  25.971  1.00  0.00     0.198 A 
ATOM     85  C   UNL A   1      51.501  26.061  28.330  1.00  0.00     0.198 A 
ATOM     86  F   UNL A   1      49.707  26.349  29.826  1.00  0.00    -0.203 F 
ATOM     87  F   UNL A   1      51.614  26.276  24.716  1.00  0.00    -0.200 F 
ATOM     88  C   UNL A   1      51.993  26.038  27.034  1.00  0.00     0.200 A 
ATOM     89  F   UNL A   1      52.317  25.797  29.361  1.00  0.00    -0.200 F 
ATOM     90  F   UNL A   1      53.278  25.730  26.808  1.00  0.00    -0.200 F 
ENDBRANCH  56  80
BRANCH  68  91
ATOM     91  C   UNL A   1      45.916  32.406  29.542  1.00  0.00     0.064 A 
ATOM     92  C   UNL A   1      46.283  32.715  30.860  1.00  0.00     0.173 A 
ATOM     93  C   UNL A   1      46.037  33.415  28.573  1.00  0.00     0.173 A 
ATOM     94  F   UNL A   1      46.173  31.790  31.826  1.00  0.00    -0.203 F 
ATOM     95  C   UNL A   1      46.724  33.991  31.199  1.00  0.00     0.198 A 
ATOM     96  C   UNL A   1      46.510  34.679  28.910  1.00  0.00     0.198 A 
ATOM     97  F   UNL A   1      45.706  33.170  27.296  1.00  0.00    -0.203 F 
ATOM     98  F   UNL A   1      47.018  34.280  32.475  1.00  0.00    -0.200 F 
ATOM     99  C   UNL A   1      46.845  34.970  30.223  1.00  0.00     0.200 A 
ATOM    100  F   UNL A   1      46.641  35.618  27.963  1.00  0.00    -0.200 F 
ATOM    101  F   UNL A   1      47.276  36.195  30.552  1.00  0.00    -0.200 F 
ENDBRANCH  68  91
ENDBRANCH  42  43
ENDBRANCH  34  37
ENDBRANCH  32  33
ENDBRANCH  31  32
ENDBRANCH  30  31
ENDBRANCH   3  30
TORSDOF 16
ENDMDL
MODEL 2
REMARK VINA RESULT:     -12.5      3.580     10.455
REMARK SMILES COc1cc(/C=N/c2cccc(F)c2)ccc1OCc1cccc(C(=O)NCCCNC(=O)c2ccc(-c3c4nc(c(-c5c(F)c(F)c(F)c(F)c5F)c5ccc([nH]5)c(-c5c(F)c(F)c(F)c(F)c5F)c5nc(c(-c6c(F)c(F)c(F)c(F)c6F)c6ccc3[nH]6)C=C5)C=C4)cc2)c1
REMARK SMILES IDX 25 1 26 2 27 3 24 5 20 6 21 7 97 8 22 9 23 10 19 11 18 12
REMARK SMILES IDX 17 13 3 14 4 15 5 16 16 17 15 18 2 19 1 20 6 21 7 22 8 23
REMARK SMILES IDX 9 24 14 25 10 26 12 27 11 28 13 29 28 30 29 31 30 32 31 33
REMARK SMILES IDX 32 34 33 36 34 37 35 38 96 39 36 40 95 41 37 42 38 43 39 44
REMARK SMILES IDX 89 45 40 46 94 47 88 48 90 49 41 50 93 51 87 52 86 53 42 55
REMARK SMILES IDX 74 56 54 57 73 58 55 59 58 60 72 61 91 62 56 63 57 64 71 66
REMARK SMILES IDX 92 67 59 68 43 69 44 70 52 71 45 72 46 73 50 74 53 75 47 76
REMARK SMILES IDX 48 77 51 78 49 79 75 80 76 81 84 82 77 83 78 84 82 85 85 86
REMARK SMILES IDX 79 87 80 88 83 89 81 90 60 91 61 92 69 93 62 94 63 95 67 96
REMARK SMILES IDX 70 97 64 98 65 99 68 100 66 101
REMARK H PARENT 27 4 31 35 90 54 58 65
REMARK Flexibility Score: inf
ROOT
ATOM      1  C   UNL A   1      43.125  18.860  25.753  1.00  0.00     0.251 C 
ATOM      2  O   UNL A   1      43.008  17.831  25.079  1.00  0.00    -0.269 OA
ATOM      3  N   UNL A   1      42.151  19.081  26.699  1.00  0.00    -0.352 N 
ATOM      4  H   UNL A   1      41.419  18.423  26.672  1.00  0.00     0.163 HD
ENDROOT
BRANCH   1   5
ATOM      5  C   UNL A   1      44.242  19.806  25.420  1.00  0.00     0.040 A 
ATOM      6  C   UNL A   1      45.218  22.002  24.909  1.00  0.00    -0.010 A 
ATOM      7  C   UNL A   1      46.404  21.342  24.523  1.00  0.00     0.007 A 
ATOM      8  C   UNL A   1      44.188  21.213  25.450  1.00  0.00     0.021 A 
ATOM      9  C   UNL A   1      46.531  19.959  24.609  1.00  0.00     0.001 A 
ATOM     10  C   UNL A   1      45.445  19.197  25.024  1.00  0.00     0.014 A 
BRANCH   6  11
ATOM     11  C   UNL A   1      45.145  23.481  24.511  1.00  0.00     0.265 C 
BRANCH  11  12
ATOM     12  O   UNL A   1      46.105  24.539  24.644  1.00  0.00    -0.485 OA
BRANCH  12  13
ATOM     13  C   UNL A   1      45.753  25.767  25.084  1.00  0.00     0.161 A 
ATOM     14  C   UNL A   1      46.705  26.750  25.365  1.00  0.00     0.161 A 
ATOM     15  C   UNL A   1      46.272  27.980  25.870  1.00  0.00     0.060 A 
ATOM     16  C   UNL A   1      44.927  28.212  26.166  1.00  0.00    -0.003 A 
ATOM     17  C   UNL A   1      44.418  25.964  25.483  1.00  0.00     0.051 A 
ATOM     18  C   UNL A   1      44.002  27.183  26.034  1.00  0.00     0.014 A 
BRANCH  14  19
ATOM     19  O   UNL A   1      48.064  26.703  25.247  1.00  0.00    -0.493 OA
ATOM     20  C   UNL A   1      48.882  27.629  25.938  1.00  0.00     0.278 C 
ENDBRANCH  14  19
BRANCH  16  21
ATOM     21  C   UNL A   1      44.526  29.554  26.633  1.00  0.00     0.120 C 
ATOM     22  N   UNL A   1      45.212  30.590  26.271  1.00  0.00    -0.256 NA
BRANCH  22  23
ATOM     23  C   UNL A   1      44.890  31.844  26.806  1.00  0.00     0.066 A 
ATOM     24  C   UNL A   1      45.081  32.072  28.174  1.00  0.00     0.028 A 
ATOM     25  C   UNL A   1      44.256  32.823  26.039  1.00  0.00     0.067 A 
ATOM     26  C   UNL A   1      44.650  33.263  28.769  1.00  0.00     0.005 A 
ATOM     27  C   UNL A   1      43.834  34.006  26.635  1.00  0.00     0.125 A 
ATOM     28  C   UNL A   1      44.021  34.235  27.993  1.00  0.00     0.039 A 
ATOM     29  F   UNL A   1      43.220  34.935  25.889  1.00  0.00    -0.207 F 
ENDBRANCH  22  23
ENDBRANCH  16  21
ENDBRANCH  12  13
ENDBRANCH  11  12
ENDBRANCH   6  11
ENDBRANCH   1   5
BRANCH   3  30
ATOM     30  C   UNL A   1      41.989  20.089  27.726  1.00  0.00     0.118 C 
BRANCH  30  31
ATOM     31  C   UNL A   1      40.796  21.015  27.544  1.00  0.00     0.042 C 
BRANCH  31  32
ATOM     32  C   UNL A   1      40.764  21.779  26.230  1.00  0.00     0.118 C 
BRANCH  32  33
ATOM     33  N   UNL A   1      39.420  22.171  25.814  1.00  0.00    -0.352 N 
ATOM     34  C   UNL A   1      38.672  23.293  26.070  1.00  0.00     0.251 C 
ATOM     35  H   UNL A   1      38.966  21.508  25.247  1.00  0.00     0.163 HD
ATOM     36  O   UNL A   1      37.506  23.339  25.663  1.00  0.00    -0.269 OA
BRANCH  34  37
ATOM     37  C   UNL A   1      39.194  24.446  26.838  1.00  0.00     0.039 A 
ATOM     38  C   UNL A   1      39.978  25.393  26.165  1.00  0.00     0.014 A 
ATOM     39  C   UNL A   1      38.980  24.595  28.207  1.00  0.00     0.014 A 
ATOM     40  C   UNL A   1      40.478  26.509  26.841  1.00  0.00     0.010 A 
ATOM     41  C   UNL A   1      39.390  25.758  28.860  1.00  0.00     0.010 A 
ATOM     42  C   UNL A   1      40.151  26.725  28.188  1.00  0.00    -0.014 A 
BRANCH  42  43
ATOM     43  C   UNL A   1      40.602  27.946  28.909  1.00  0.00     0.031 A 
ATOM     44  C   UNL A   1      42.016  28.051  29.418  1.00  0.00     0.074 A 
ATOM     45  C   UNL A   1      39.722  28.935  29.164  1.00  0.00     0.049 A 
ATOM     46  N   UNL A   1      42.573  28.998  30.132  1.00  0.00    -0.248 NA
ATOM     47  C   UNL A   1      42.915  26.929  29.108  1.00  0.00     0.031 C 
ATOM     48  C   UNL A   1      38.314  28.936  28.769  1.00  0.00     0.029 A 
ATOM     49  N   UNL A   1      39.881  30.130  29.824  1.00  0.00    -0.354 N 
ATOM     50  C   UNL A   1      43.875  28.575  30.371  1.00  0.00     0.074 A 
ATOM     51  C   UNL A   1      44.008  27.263  29.778  1.00  0.00     0.031 C 
ATOM     52  C   UNL A   1      37.743  30.083  29.170  1.00  0.00     0.029 A 
ATOM     53  C   UNL A   1      38.733  30.882  29.887  1.00  0.00     0.049 A 
ATOM     54  H   UNL A   1      40.737  30.419  30.215  1.00  0.00     0.167 HD
ATOM     55  C   UNL A   1      44.876  29.233  31.004  1.00  0.00     0.037 A 
ATOM     56  C   UNL A   1      38.500  32.076  30.465  1.00  0.00     0.037 A 
ATOM     57  C   UNL A   1      44.748  30.552  31.568  1.00  0.00     0.049 A 
ATOM     58  C   UNL A   1      39.629  32.782  31.167  1.00  0.00     0.074 A 
ATOM     59  C   UNL A   1      45.720  31.329  32.173  1.00  0.00     0.029 A 
ATOM     60  N   UNL A   1      43.573  31.288  31.598  1.00  0.00    -0.354 N 
ATOM     61  N   UNL A   1      40.874  32.403  31.325  1.00  0.00    -0.248 NA
ATOM     62  C   UNL A   1      39.319  34.087  31.767  1.00  0.00     0.031 C 
ATOM     63  C   UNL A   1      45.121  32.513  32.616  1.00  0.00     0.029 A 
ATOM     64  C   UNL A   1      43.789  32.500  32.235  1.00  0.00     0.049 A 
ATOM     65  H   UNL A   1      42.712  30.993  31.221  1.00  0.00     0.167 HD
ATOM     66  C   UNL A   1      41.502  33.432  32.015  1.00  0.00     0.074 A 
ATOM     67  C   UNL A   1      40.505  34.459  32.228  1.00  0.00     0.031 C 
ATOM     68  C   UNL A   1      42.787  33.516  32.436  1.00  0.00     0.037 A 
BRANCH  55  69
ATOM     69  C   UNL A   1      46.203  28.536  31.119  1.00  0.00     0.064 A 
ATOM     70  C   UNL A   1      46.513  27.714  32.214  1.00  0.00     0.173 A 
ATOM     71  C   UNL A   1      47.164  28.662  30.104  1.00  0.00     0.173 A 
ATOM     72  F   UNL A   1      45.634  27.565  33.217  1.00  0.00    -0.203 F 
ATOM     73  C   UNL A   1      47.747  27.075  32.306  1.00  0.00     0.198 A 
ATOM     74  C   UNL A   1      48.383  27.993  30.183  1.00  0.00     0.198 A 
ATOM     75  F   UNL A   1      46.919  29.427  29.030  1.00  0.00    -0.203 F 
ATOM     76  F   UNL A   1      48.040  26.340  33.388  1.00  0.00    -0.200 F 
ATOM     77  C   UNL A   1      48.677  27.208  31.287  1.00  0.00     0.200 A 
ATOM     78  F   UNL A   1      49.276  28.111  29.189  1.00  0.00    -0.200 F 
ATOM     79  F   UNL A   1      49.861  26.586  31.373  1.00  0.00    -0.200 F 
ENDBRANCH  55  69
BRANCH  56  80
ATOM     80  C   UNL A   1      37.149  32.690  30.386  1.00  0.00     0.064 A 
ATOM     81  C   UNL A   1      36.219  32.520  31.421  1.00  0.00     0.173 A 
ATOM     82  C   UNL A   1      36.753  33.449  29.274  1.00  0.00     0.173 A 
ATOM     83  F   UNL A   1      36.542  31.785  32.496  1.00  0.00    -0.203 F 
ATOM     84  C   UNL A   1      34.939  33.065  31.339  1.00  0.00     0.198 A 
ATOM     85  C   UNL A   1      35.485  34.021  29.207  1.00  0.00     0.198 A 
ATOM     86  F   UNL A   1      37.605  33.645  28.256  1.00  0.00    -0.203 F 
ATOM     87  F   UNL A   1      34.055  32.844  32.320  1.00  0.00    -0.200 F 
ATOM     88  C   UNL A   1      34.576  33.820  30.235  1.00  0.00     0.200 A 
ATOM     89  F   UNL A   1      35.141  34.762  28.144  1.00  0.00    -0.200 F 
ATOM     90  F   UNL A   1      33.345  34.348  30.157  1.00  0.00    -0.200 F 
ENDBRANCH  56  80
BRANCH  68  91
ATOM     91  C   UNL A   1      43.200  34.776  33.141  1.00  0.00     0.064 A 
ATOM     92  C   UNL A   1      43.627  35.911  32.436  1.00  0.00     0.173 A 
ATOM     93  C   UNL A   1      43.136  34.860  34.541  1.00  0.00     0.173 A 
ATOM     94  F   UNL A   1      43.720  35.878  31.097  1.00  0.00    -0.203 F 
ATOM     95  C   UNL A   1      44.002  37.072  33.107  1.00  0.00     0.198 A 
ATOM     96  C   UNL A   1      43.479  36.033  35.206  1.00  0.00     0.198 A 
ATOM     97  F   UNL A   1      42.727  33.806  35.264  1.00  0.00    -0.203 F 
ATOM     98  F   UNL A   1      44.459  38.125  32.415  1.00  0.00    -0.200 F 
ATOM     99  C   UNL A   1      43.921  37.135  34.490  1.00  0.00     0.200 A 
ATOM    100  F   UNL A   1      43.385  36.097  36.541  1.00  0.00    -0.200 F 
ATOM    101  F   UNL A   1      44.277  38.255  35.133  1.00  0.00    -0.200 F 
ENDBRANCH  68  91
ENDBRANCH  42  43
ENDBRANCH  34  37
ENDBRANCH  32  33
ENDBRANCH  31  32
ENDBRANCH  30  31
ENDBRANCH   3  30
TORSDOF 16
ENDMDL
MODEL 3
REMARK VINA RESULT:     -12.4      0.954      1.871
REMARK SMILES COc1cc(/C=N/c2cccc(F)c2)ccc1OCc1cccc(C(=O)NCCCNC(=O)c2ccc(-c3c4nc(c(-c5c(F)c(F)c(F)c(F)c5F)c5ccc([nH]5)c(-c5c(F)c(F)c(F)c(F)c5F)c5nc(c(-c6c(F)c(F)c(F)c(F)c6F)c6ccc3[nH]6)C=C5)C=C4)cc2)c1
REMARK SMILES IDX 25 1 26 2 27 3 24 5 20 6 21 7 97 8 22 9 23 10 19 11 18 12
REMARK SMILES IDX 17 13 3 14 4 15 5 16 16 17 15 18 2 19 1 20 6 21 7 22 8 23
REMARK SMILES IDX 9 24 14 25 10 26 12 27 11 28 13 29 28 30 29 31 30 32 31 33
REMARK SMILES IDX 32 34 33 36 34 37 35 38 96 39 36 40 95 41 37 42 38 43 39 44
REMARK SMILES IDX 89 45 40 46 94 47 88 48 90 49 41 50 93 51 87 52 86 53 42 55
REMARK SMILES IDX 74 56 54 57 73 58 55 59 58 60 72 61 91 62 56 63 57 64 71 66
REMARK SMILES IDX 92 67 59 68 43 69 44 70 52 71 45 72 46 73 50 74 53 75 47 76
REMARK SMILES IDX 48 77 51 78 49 79 75 80 76 81 84 82 77 83 78 84 82 85 85 86
REMARK SMILES IDX 79 87 80 88 83 89 81 90 60 91 61 92 69 93 62 94 63 95 67 96
REMARK SMILES IDX 70 97 64 98 65 99 68 100 66 101
REMARK H PARENT 27 4 31 35 90 54 58 65
REMARK Flexibility Score: inf
ROOT
ATOM      1  C   UNL A   1      37.132  23.098  25.674  1.00  0.00     0.251 C 
ATOM      2  O   UNL A   1      37.837  23.987  26.159  1.00  0.00    -0.269 OA
ATOM      3  N   UNL A   1      37.796  22.013  25.149  1.00  0.00    -0.352 N 
ATOM      4  H   UNL A   1      38.776  22.113  25.149  1.00  0.00     0.163 HD
ENDROOT
BRANCH   1   5
ATOM      5  C   UNL A   1      35.648  23.318  25.614  1.00  0.00     0.040 A 
ATOM      6  C   UNL A   1      33.573  24.239  24.675  1.00  0.00    -0.010 A 
ATOM      7  C   UNL A   1      32.907  23.838  25.853  1.00  0.00     0.007 A 
ATOM      8  C   UNL A   1      34.924  23.874  24.541  1.00  0.00     0.021 A 
ATOM      9  C   UNL A   1      33.572  23.168  26.875  1.00  0.00     0.001 A 
ATOM     10  C   UNL A   1      34.940  22.940  26.767  1.00  0.00     0.014 A 
BRANCH   6  11
ATOM     11  C   UNL A   1      32.773  25.187  23.773  1.00  0.00     0.265 C 
BRANCH  11  12
ATOM     12  O   UNL A   1      31.842  26.230  24.096  1.00  0.00    -0.485 OA
BRANCH  12  13
ATOM     13  C   UNL A   1      32.177  27.253  24.913  1.00  0.00     0.161 A 
ATOM     14  C   UNL A   1      33.299  28.050  24.675  1.00  0.00     0.161 A 
ATOM     15  C   UNL A   1      33.616  29.056  25.594  1.00  0.00     0.060 A 
ATOM     16  C   UNL A   1      32.882  29.224  26.770  1.00  0.00    -0.003 A 
ATOM     17  C   UNL A   1      31.507  27.353  26.147  1.00  0.00     0.051 A 
ATOM     18  C   UNL A   1      31.863  28.333  27.084  1.00  0.00     0.014 A 
BRANCH  14  19
ATOM     19  O   UNL A   1      34.203  27.996  23.653  1.00  0.00    -0.493 OA
ATOM     20  C   UNL A   1      33.910  28.579  22.398  1.00  0.00     0.278 C 
ENDBRANCH  14  19
BRANCH  16  21
ATOM     21  C   UNL A   1      33.227  30.346  27.665  1.00  0.00     0.120 C 
ATOM     22  N   UNL A   1      33.262  31.552  27.196  1.00  0.00    -0.256 NA
BRANCH  22  23
ATOM     23  C   UNL A   1      33.695  32.595  28.025  1.00  0.00     0.066 A 
ATOM     24  C   UNL A   1      34.670  32.336  28.996  1.00  0.00     0.028 A 
ATOM     25  C   UNL A   1      33.082  33.849  28.000  1.00  0.00     0.067 A 
ATOM     26  C   UNL A   1      35.033  33.316  29.927  1.00  0.00     0.005 A 
ATOM     27  C   UNL A   1      33.450  34.820  28.925  1.00  0.00     0.125 A 
ATOM     28  C   UNL A   1      34.417  34.565  29.891  1.00  0.00     0.039 A 
ATOM     29  F   UNL A   1      32.848  36.017  28.896  1.00  0.00    -0.207 F 
ENDBRANCH  22  23
ENDBRANCH  16  21
ENDBRANCH  12  13
ENDBRANCH  11  12
ENDBRANCH   6  11
ENDBRANCH   1   5
BRANCH   3  30
ATOM     30  C   UNL A   1      37.340  20.755  24.597  1.00  0.00     0.118 C 
BRANCH  30  31
ATOM     31  C   UNL A   1      38.156  19.535  24.999  1.00  0.00     0.042 C 
BRANCH  31  32
ATOM     32  C   UNL A   1      39.187  19.777  26.090  1.00  0.00     0.118 C 
BRANCH  32  33
ATOM     33  N   UNL A   1      40.364  18.919  25.984  1.00  0.00    -0.352 N 
ATOM     34  C   UNL A   1      41.706  19.189  26.069  1.00  0.00     0.251 C 
ATOM     35  H   UNL A   1      40.155  17.971  25.821  1.00  0.00     0.163 HD
ATOM     36  O   UNL A   1      42.514  18.278  25.851  1.00  0.00    -0.269 OA
BRANCH  34  37
ATOM     37  C   UNL A   1      42.234  20.536  26.385  1.00  0.00     0.039 A 
ATOM     38  C   UNL A   1      42.710  21.328  25.331  1.00  0.00     0.014 A 
ATOM     39  C   UNL A   1      42.323  21.020  27.689  1.00  0.00     0.014 A 
ATOM     40  C   UNL A   1      43.200  22.614  25.576  1.00  0.00     0.010 A 
ATOM     41  C   UNL A   1      42.714  22.338  27.924  1.00  0.00     0.010 A 
ATOM     42  C   UNL A   1      43.166  23.148  26.873  1.00  0.00    -0.014 A 
BRANCH  42  43
ATOM     43  C   UNL A   1      43.606  24.543  27.147  1.00  0.00     0.031 A 
ATOM     44  C   UNL A   1      42.626  25.563  27.665  1.00  0.00     0.074 A 
ATOM     45  C   UNL A   1      44.873  24.910  26.871  1.00  0.00     0.049 A 
ATOM     46  N   UNL A   1      42.800  26.841  27.891  1.00  0.00    -0.248 NA
ATOM     47  C   UNL A   1      41.260  25.089  27.936  1.00  0.00     0.031 C 
ATOM     48  C   UNL A   1      45.907  24.032  26.321  1.00  0.00     0.029 A 
ATOM     49  N   UNL A   1      45.506  26.122  27.005  1.00  0.00    -0.354 N 
ATOM     50  C   UNL A   1      41.566  27.324  28.309  1.00  0.00     0.074 A 
ATOM     51  C   UNL A   1      40.638  26.216  28.249  1.00  0.00     0.031 C 
ATOM     52  C   UNL A   1      47.050  24.724  26.190  1.00  0.00     0.029 A 
ATOM     53  C   UNL A   1      46.820  26.105  26.605  1.00  0.00     0.049 A 
ATOM     54  H   UNL A   1      45.059  26.927  27.355  1.00  0.00     0.167 HD
ATOM     55  C   UNL A   1      41.243  28.570  28.730  1.00  0.00     0.037 A 
ATOM     56  C   UNL A   1      47.736  27.092  26.568  1.00  0.00     0.037 A 
ATOM     57  C   UNL A   1      42.176  29.664  28.816  1.00  0.00     0.049 A 
ATOM     58  C   UNL A   1      47.348  28.469  27.036  1.00  0.00     0.074 A 
ATOM     59  C   UNL A   1      41.961  30.946  29.290  1.00  0.00     0.029 A 
ATOM     60  N   UNL A   1      43.503  29.602  28.417  1.00  0.00    -0.354 N 
ATOM     61  N   UNL A   1      46.196  28.895  27.495  1.00  0.00    -0.248 NA
ATOM     62  C   UNL A   1      48.392  29.502  26.985  1.00  0.00     0.031 C 
ATOM     63  C   UNL A   1      43.144  31.676  29.128  1.00  0.00     0.029 A 
ATOM     64  C   UNL A   1      44.112  30.833  28.609  1.00  0.00     0.049 A 
ATOM     65  H   UNL A   1      43.947  28.803  28.051  1.00  0.00     0.167 HD
ATOM     66  C   UNL A   1      46.384  30.234  27.814  1.00  0.00     0.074 A 
ATOM     67  C   UNL A   1      47.765  30.544  27.513  1.00  0.00     0.031 C 
ATOM     68  C   UNL A   1      45.491  31.125  28.309  1.00  0.00     0.037 A 
BRANCH  55  69
ATOM     69  C   UNL A   1      39.816  28.820  29.135  1.00  0.00     0.064 A 
ATOM     70  C   UNL A   1      39.387  28.659  30.461  1.00  0.00     0.173 A 
ATOM     71  C   UNL A   1      38.875  29.259  28.192  1.00  0.00     0.173 A 
ATOM     72  F   UNL A   1      40.243  28.232  31.402  1.00  0.00    -0.203 F 
ATOM     73  C   UNL A   1      38.062  28.895  30.821  1.00  0.00     0.198 A 
ATOM     74  C   UNL A   1      37.559  29.528  28.562  1.00  0.00     0.198 A 
ATOM     75  F   UNL A   1      39.231  29.438  26.911  1.00  0.00    -0.203 F 
ATOM     76  F   UNL A   1      37.664  28.681  32.083  1.00  0.00    -0.200 F 
ATOM     77  C   UNL A   1      37.152  29.336  29.873  1.00  0.00     0.200 A 
ATOM     78  F   UNL A   1      36.684  29.969  27.647  1.00  0.00    -0.200 F 
ATOM     79  F   UNL A   1      35.879  29.570  30.222  1.00  0.00    -0.200 F 
ENDBRANCH  55  69
BRANCH  56  80
ATOM     80  C   UNL A   1      49.115  26.810  26.090  1.00  0.00     0.064 A 
ATOM     81  C   UNL A   1      49.473  27.033  24.753  1.00  0.00     0.173 A 
ATOM     82  C   UNL A   1      50.099  26.304  26.951  1.00  0.00     0.173 A 
ATOM     83  F   UNL A   1      48.562  27.496  23.884  1.00  0.00    -0.203 F 
ATOM     84  C   UNL A   1      50.755  26.740  24.290  1.00  0.00     0.198 A 
ATOM     85  C   UNL A   1      51.390  26.041  26.496  1.00  0.00     0.198 A 
ATOM     86  F   UNL A   1      49.811  26.075  28.241  1.00  0.00    -0.203 F 
ATOM     87  F   UNL A   1      51.054  26.915  22.996  1.00  0.00    -0.200 F 
ATOM     88  C   UNL A   1      51.713  26.251  25.164  1.00  0.00     0.200 A 
ATOM     89  F   UNL A   1      52.318  25.582  27.346  1.00  0.00    -0.200 F 
ATOM     90  F   UNL A   1      52.947  25.971  24.720  1.00  0.00    -0.200 F 
ENDBRANCH  56  80
BRANCH  68  91
ATOM     91  C   UNL A   1      45.989  32.515  28.588  1.00  0.00     0.064 A 
ATOM     92  C   UNL A   1      45.912  33.534  27.628  1.00  0.00     0.173 A 
ATOM     93  C   UNL A   1      46.520  32.839  29.846  1.00  0.00     0.173 A 
ATOM     94  F   UNL A   1      45.425  33.273  26.404  1.00  0.00    -0.203 F 
ATOM     95  C   UNL A   1      46.375  34.817  27.906  1.00  0.00     0.198 A 
ATOM     96  C   UNL A   1      46.952  34.130  30.132  1.00  0.00     0.198 A 
ATOM     97  F   UNL A   1      46.611  31.903  30.804  1.00  0.00    -0.203 F 
ATOM     98  F   UNL A   1      46.341  35.760  26.954  1.00  0.00    -0.200 F 
ATOM     99  C   UNL A   1      46.887  35.116  29.160  1.00  0.00     0.200 A 
ATOM    100  F   UNL A   1      47.432  34.422  31.349  1.00  0.00    -0.200 F 
ATOM    101  F   UNL A   1      47.327  36.354  29.427  1.00  0.00    -0.200 F 
ENDBRANCH  68  91
ENDBRANCH  42  43
ENDBRANCH  34  37
ENDBRANCH  32  33
ENDBRANCH  31  32
ENDBRANCH  30  31
ENDBRANCH   3  30
TORSDOF 16
ENDMDL
