MODEL 1
REMARK VINA RESULT:     -12.2      0.000      0.000
REMARK SMILES CC[C@](O)(C(=O)NCCCNC(=O)c1ccc(-c2c3nc(c(-c4c(F)c(F)c(F)c(F)c4F)c4ccc([nH]4)c(-c4c(F)c(F)c(F)c(F)c4F)c4nc(c(-c5c(F)c(F)c(F)c(F)c5F)c5ccc2[nH]5)C=C4)C=C3)cc1)[C@H](C)c1ccc(F)cc1F
REMARK SMILES IDX 9 1 8 2 7 3 5 4 6 5 3 7 2 8 1 9 4 10 77 12 78 13 79 14 80 15
REMARK SMILES IDX 85 16 81 17 84 18 86 19 82 20 83 21 10 22 11 23 12 24 13 26
REMARK SMILES IDX 14 27 15 28 76 29 16 30 75 31 17 32 18 33 19 34 69 35 20 36
REMARK SMILES IDX 74 37 68 38 70 39 21 40 73 41 67 42 66 43 22 45 54 46 34 47
REMARK SMILES IDX 53 48 35 49 38 50 52 51 71 52 36 53 37 54 51 56 72 57 39 58
REMARK SMILES IDX 23 59 24 60 32 61 25 62 26 63 30 64 33 65 27 66 28 67 31 68
REMARK SMILES IDX 29 69 55 70 56 71 64 72 57 73 58 74 62 75 65 76 59 77 60 78
REMARK SMILES IDX 63 79 61 80 40 81 41 82 49 83 42 84 43 85 47 86 50 87 44 88
REMARK SMILES IDX 45 89 48 90 46 91
REMARK H PARENT 7 6 4 11 11 25 70 44 38 55
REMARK Flexibility Score: inf
ROOT
ATOM      1  C   UNL A   1      31.477  31.984  26.819  1.00  0.00     0.042 C 
ENDROOT
BRANCH   1   2
ATOM      2  C   UNL A   1      31.796  30.708  26.051  1.00  0.00     0.117 C 
BRANCH   2   3
ATOM      3  N   UNL A   1      30.980  30.567  24.863  1.00  0.00    -0.354 N 
ATOM      4  C   UNL A   1      30.712  29.496  24.062  1.00  0.00     0.252 C 
ATOM      5  O   UNL A   1      29.871  29.725  23.191  1.00  0.00    -0.272 OA
ATOM      6  H   UNL A   1      30.536  31.399  24.581  1.00  0.00     0.163 HD
BRANCH   4   7
ATOM      7  C   UNL A   1      31.312  28.075  24.356  1.00  0.00     0.149 C 
BRANCH   7   8
ATOM      8  C   UNL A   1      30.459  27.084  23.509  1.00  0.00     0.043 C 
ATOM      9  C   UNL A   1      29.736  25.996  24.295  1.00  0.00     0.007 C 
ENDBRANCH   7   8
BRANCH   7  10
ATOM     10  O   UNL A   1      31.099  27.775  25.750  1.00  0.00    -0.379 OA
ATOM     11  H   UNL A   1      30.834  28.582  26.218  1.00  0.00     0.212 HD
ENDBRANCH   7  10
BRANCH   7  12
ATOM     12  C   UNL A   1      32.865  27.922  24.041  1.00  0.00     0.060 C 
ATOM     13  C   UNL A   1      33.290  28.643  22.743  1.00  0.00     0.016 C 
BRANCH  12  14
ATOM     14  C   UNL A   1      33.462  26.520  24.118  1.00  0.00    -0.006 A 
ATOM     15  C   UNL A   1      33.556  25.729  22.959  1.00  0.00     0.010 A 
ATOM     16  C   UNL A   1      33.950  25.979  25.323  1.00  0.00     0.129 A 
ATOM     17  C   UNL A   1      34.150  24.463  23.012  1.00  0.00     0.040 A 
ATOM     18  C   UNL A   1      34.555  24.730  25.377  1.00  0.00     0.078 A 
ATOM     19  F   UNL A   1      33.875  26.684  26.460  1.00  0.00    -0.207 F 
ATOM     20  C   UNL A   1      34.653  23.984  24.216  1.00  0.00     0.126 A 
ATOM     21  F   UNL A   1      35.241  22.780  24.252  1.00  0.00    -0.207 F 
ENDBRANCH  12  14
ENDBRANCH   7  12
ENDBRANCH   4   7
ENDBRANCH   2   3
ENDBRANCH   1   2
BRANCH   1  22
ATOM     22  C   UNL A   1      32.708  32.766  27.273  1.00  0.00     0.118 C 
BRANCH  22  23
ATOM     23  N   UNL A   1      32.416  34.152  27.617  1.00  0.00    -0.352 N 
ATOM     24  C   UNL A   1      32.982  34.979  28.559  1.00  0.00     0.251 C 
ATOM     25  H   UNL A   1      31.696  34.565  27.088  1.00  0.00     0.163 HD
ATOM     26  O   UNL A   1      32.482  36.069  28.799  1.00  0.00    -0.269 OA
BRANCH  24  27
ATOM     27  C   UNL A   1      34.175  34.536  29.309  1.00  0.00     0.039 A 
ATOM     28  C   UNL A   1      34.003  33.972  30.577  1.00  0.00     0.014 A 
ATOM     29  C   UNL A   1      35.455  34.670  28.769  1.00  0.00     0.014 A 
ATOM     30  C   UNL A   1      35.106  33.456  31.260  1.00  0.00     0.010 A 
ATOM     31  C   UNL A   1      36.540  34.082  29.412  1.00  0.00     0.010 A 
ATOM     32  C   UNL A   1      36.376  33.462  30.659  1.00  0.00    -0.014 A 
BRANCH  32  33
ATOM     33  C   UNL A   1      37.541  32.803  31.303  1.00  0.00     0.031 A 
ATOM     34  C   UNL A   1      38.209  31.632  30.638  1.00  0.00     0.074 A 
ATOM     35  C   UNL A   1      37.933  33.198  32.530  1.00  0.00     0.049 A 
ATOM     36  N   UNL A   1      39.160  30.855  31.090  1.00  0.00    -0.248 NA
ATOM     37  C   UNL A   1      37.723  31.267  29.298  1.00  0.00     0.031 C 
ATOM     38  C   UNL A   1      37.332  34.289  33.301  1.00  0.00     0.029 A 
ATOM     39  N   UNL A   1      38.920  32.716  33.356  1.00  0.00    -0.354 N 
ATOM     40  C   UNL A   1      39.368  29.899  30.105  1.00  0.00     0.074 A 
ATOM     41  C   UNL A   1      38.415  30.165  29.049  1.00  0.00     0.031 C 
ATOM     42  C   UNL A   1      37.970  34.402  34.476  1.00  0.00     0.029 A 
ATOM     43  C   UNL A   1      38.992  33.364  34.565  1.00  0.00     0.049 A 
ATOM     44  H   UNL A   1      39.519  31.976  33.105  1.00  0.00     0.167 HD
ATOM     45  C   UNL A   1      40.282  28.901  30.077  1.00  0.00     0.037 A 
ATOM     46  C   UNL A   1      39.781  33.135  35.633  1.00  0.00     0.037 A 
ATOM     47  C   UNL A   1      41.253  28.665  31.114  1.00  0.00     0.049 A 
ATOM     48  C   UNL A   1      40.784  32.014  35.576  1.00  0.00     0.074 A 
ATOM     49  C   UNL A   1      42.280  27.739  31.137  1.00  0.00     0.029 A 
ATOM     50  N   UNL A   1      41.309  29.356  32.315  1.00  0.00    -0.354 N 
ATOM     51  N   UNL A   1      41.030  31.173  34.602  1.00  0.00    -0.248 NA
ATOM     52  C   UNL A   1      41.619  31.810  36.769  1.00  0.00     0.031 C 
ATOM     53  C   UNL A   1      42.923  27.831  32.375  1.00  0.00     0.029 A 
ATOM     54  C   UNL A   1      42.333  28.852  33.101  1.00  0.00     0.049 A 
ATOM     55  H   UNL A   1      40.710  30.095  32.571  1.00  0.00     0.167 HD
ATOM     56  C   UNL A   1      42.064  30.362  35.050  1.00  0.00     0.074 A 
ATOM     57  C   UNL A   1      42.409  30.820  36.379  1.00  0.00     0.031 C 
ATOM     58  C   UNL A   1      42.671  29.327  34.418  1.00  0.00     0.037 A 
BRANCH  45  59
ATOM     59  C   UNL A   1      40.285  27.985  28.889  1.00  0.00     0.064 A 
ATOM     60  C   UNL A   1      41.021  28.278  27.731  1.00  0.00     0.173 A 
ATOM     61  C   UNL A   1      39.586  26.768  28.931  1.00  0.00     0.173 A 
ATOM     62  F   UNL A   1      41.699  29.431  27.636  1.00  0.00    -0.203 F 
ATOM     63  C   UNL A   1      41.037  27.400  26.650  1.00  0.00     0.198 A 
ATOM     64  C   UNL A   1      39.629  25.879  27.861  1.00  0.00     0.198 A 
ATOM     65  F   UNL A   1      38.872  26.436  30.017  1.00  0.00    -0.203 F 
ATOM     66  F   UNL A   1      41.712  27.722  25.538  1.00  0.00    -0.200 F 
ATOM     67  C   UNL A   1      40.349  26.198  26.719  1.00  0.00     0.200 A 
ATOM     68  F   UNL A   1      38.976  24.710  27.935  1.00  0.00    -0.200 F 
ATOM     69  F   UNL A   1      40.377  25.348  25.684  1.00  0.00    -0.200 F 
ENDBRANCH  45  59
BRANCH  46  70
ATOM     70  C   UNL A   1      39.661  33.985  36.848  1.00  0.00     0.064 A 
ATOM     71  C   UNL A   1      38.856  33.589  37.926  1.00  0.00     0.173 A 
ATOM     72  C   UNL A   1      40.327  35.214  36.950  1.00  0.00     0.173 A 
ATOM     73  F   UNL A   1      38.181  32.431  37.868  1.00  0.00    -0.203 F 
ATOM     74  C   UNL A   1      38.701  34.402  39.046  1.00  0.00     0.198 A 
ATOM     75  C   UNL A   1      40.196  36.013  38.085  1.00  0.00     0.198 A 
ATOM     76  F   UNL A   1      41.113  35.638  35.949  1.00  0.00    -0.203 F 
ATOM     77  F   UNL A   1      37.882  34.024  40.038  1.00  0.00    -0.200 F 
ATOM     78  C   UNL A   1      39.375  35.611  39.127  1.00  0.00     0.200 A 
ATOM     79  F   UNL A   1      40.861  37.174  38.165  1.00  0.00    -0.200 F 
ATOM     80  F   UNL A   1      39.225  36.394  40.204  1.00  0.00    -0.200 F 
ENDBRANCH  46  70
BRANCH  58  81
ATOM     81  C   UNL A   1      43.793  28.640  35.139  1.00  0.00     0.064 A 
ATOM     82  C   UNL A   1      45.121  29.078  35.022  1.00  0.00     0.173 A 
ATOM     83  C   UNL A   1      43.530  27.565  36.001  1.00  0.00     0.173 A 
ATOM     84  F   UNL A   1      45.427  30.092  34.198  1.00  0.00    -0.203 F 
ATOM     85  C   UNL A   1      46.145  28.452  35.727  1.00  0.00     0.198 A 
ATOM     86  C   UNL A   1      44.552  26.962  36.728  1.00  0.00     0.198 A 
ATOM     87  F   UNL A   1      42.276  27.111  36.153  1.00  0.00    -0.203 F 
ATOM     88  F   UNL A   1      47.412  28.859  35.567  1.00  0.00    -0.200 F 
ATOM     89  C   UNL A   1      45.859  27.402  36.586  1.00  0.00     0.200 A 
ATOM     90  F   UNL A   1      44.271  25.956  37.570  1.00  0.00    -0.200 F 
ATOM     91  F   UNL A   1      46.844  26.809  37.274  1.00  0.00    -0.200 F 
ENDBRANCH  58  81
ENDBRANCH  32  33
ENDBRANCH  24  27
ENDBRANCH  22  23
ENDBRANCH   1  22
TORSDOF 14
ENDMDL
MODEL 2
REMARK VINA RESULT:     -12.1      1.186      2.700
REMARK SMILES CC[C@](O)(C(=O)NCCCNC(=O)c1ccc(-c2c3nc(c(-c4c(F)c(F)c(F)c(F)c4F)c4ccc([nH]4)c(-c4c(F)c(F)c(F)c(F)c4F)c4nc(c(-c5c(F)c(F)c(F)c(F)c5F)c5ccc2[nH]5)C=C4)C=C3)cc1)[C@H](C)c1ccc(F)cc1F
REMARK SMILES IDX 9 1 8 2 7 3 5 4 6 5 3 7 2 8 1 9 4 10 77 12 78 13 79 14 80 15
REMARK SMILES IDX 85 16 81 17 84 18 86 19 82 20 83 21 10 22 11 23 12 24 13 26
REMARK SMILES IDX 14 27 15 28 76 29 16 30 75 31 17 32 18 33 19 34 69 35 20 36
REMARK SMILES IDX 74 37 68 38 70 39 21 40 73 41 67 42 66 43 22 45 54 46 34 47
REMARK SMILES IDX 53 48 35 49 38 50 52 51 71 52 36 53 37 54 51 56 72 57 39 58
REMARK SMILES IDX 23 59 24 60 32 61 25 62 26 63 30 64 33 65 27 66 28 67 31 68
REMARK SMILES IDX 29 69 55 70 56 71 64 72 57 73 58 74 62 75 65 76 59 77 60 78
REMARK SMILES IDX 63 79 61 80 40 81 41 82 49 83 42 84 43 85 47 86 50 87 44 88
REMARK SMILES IDX 45 89 48 90 46 91
REMARK H PARENT 7 6 4 11 11 25 70 44 38 55
REMARK Flexibility Score: inf
ROOT
ATOM      1  C   UNL A   1      31.536  31.942  26.836  1.00  0.00     0.042 C 
ENDROOT
BRANCH   1   2
ATOM      2  C   UNL A   1      31.894  30.734  25.980  1.00  0.00     0.117 C 
BRANCH   2   3
ATOM      3  N   UNL A   1      31.585  29.483  26.643  1.00  0.00    -0.354 N 
ATOM      4  C   UNL A   1      32.048  28.214  26.457  1.00  0.00     0.252 C 
ATOM      5  O   UNL A   1      31.638  27.408  27.294  1.00  0.00    -0.272 OA
ATOM      6  H   UNL A   1      30.917  29.566  27.362  1.00  0.00     0.163 HD
BRANCH   4   7
ATOM      7  C   UNL A   1      33.131  27.882  25.371  1.00  0.00     0.149 C 
BRANCH   7   8
ATOM      8  C   UNL A   1      33.765  26.531  25.821  1.00  0.00     0.043 C 
ATOM      9  C   UNL A   1      33.968  25.497  24.719  1.00  0.00     0.007 C 
ENDBRANCH   7   8
BRANCH   7  10
ATOM     10  O   UNL A   1      34.152  28.898  25.425  1.00  0.00    -0.379 OA
ATOM     11  H   UNL A   1      34.429  29.127  24.524  1.00  0.00     0.212 HD
ENDBRANCH   7  10
BRANCH   7  12
ATOM     12  C   UNL A   1      32.584  27.798  23.879  1.00  0.00     0.060 C 
ATOM     13  C   UNL A   1      33.375  28.688  22.895  1.00  0.00     0.016 C 
BRANCH  12  14
ATOM     14  C   UNL A   1      31.079  27.947  23.674  1.00  0.00    -0.006 A 
ATOM     15  C   UNL A   1      30.552  29.145  23.160  1.00  0.00     0.010 A 
ATOM     16  C   UNL A   1      30.177  26.906  23.965  1.00  0.00     0.129 A 
ATOM     17  C   UNL A   1      29.180  29.270  22.921  1.00  0.00     0.040 A 
ATOM     18  C   UNL A   1      28.815  27.020  23.714  1.00  0.00     0.078 A 
ATOM     19  F   UNL A   1      30.623  25.746  24.468  1.00  0.00    -0.207 F 
ATOM     20  C   UNL A   1      28.330  28.203  23.188  1.00  0.00     0.126 A 
ATOM     21  F   UNL A   1      27.020  28.324  22.933  1.00  0.00    -0.207 F 
ENDBRANCH  12  14
ENDBRANCH   7  12
ENDBRANCH   4   7
ENDBRANCH   2   3
ENDBRANCH   1   2
BRANCH   1  22
ATOM     22  C   UNL A   1      32.742  32.715  27.364  1.00  0.00     0.118 C 
BRANCH  22  23
ATOM     23  N   UNL A   1      32.441  34.105  27.687  1.00  0.00    -0.352 N 
ATOM     24  C   UNL A   1      32.999  34.949  28.618  1.00  0.00     0.251 C 
ATOM     25  H   UNL A   1      31.719  34.505  27.149  1.00  0.00     0.163 HD
ATOM     26  O   UNL A   1      32.492  36.040  28.839  1.00  0.00    -0.269 OA
BRANCH  24  27
ATOM     27  C   UNL A   1      34.194  34.525  29.377  1.00  0.00     0.039 A 
ATOM     28  C   UNL A   1      34.028  34.050  30.681  1.00  0.00     0.014 A 
ATOM     29  C   UNL A   1      35.467  34.591  28.810  1.00  0.00     0.014 A 
ATOM     30  C   UNL A   1      35.129  33.551  31.380  1.00  0.00     0.010 A 
ATOM     31  C   UNL A   1      36.547  34.019  29.474  1.00  0.00     0.010 A 
ATOM     32  C   UNL A   1      36.389  33.485  30.761  1.00  0.00    -0.014 A 
BRANCH  32  33
ATOM     33  C   UNL A   1      37.548  32.839  31.430  1.00  0.00     0.031 A 
ATOM     34  C   UNL A   1      38.230  31.663  30.788  1.00  0.00     0.074 A 
ATOM     35  C   UNL A   1      37.921  33.251  32.657  1.00  0.00     0.049 A 
ATOM     36  N   UNL A   1      39.179  30.896  31.263  1.00  0.00    -0.248 NA
ATOM     37  C   UNL A   1      37.765  31.280  29.446  1.00  0.00     0.031 C 
ATOM     38  C   UNL A   1      37.305  34.349  33.405  1.00  0.00     0.029 A 
ATOM     39  N   UNL A   1      38.899  32.784  33.502  1.00  0.00    -0.354 N 
ATOM     40  C   UNL A   1      39.405  29.929  30.293  1.00  0.00     0.074 A 
ATOM     41  C   UNL A   1      38.465  30.178  29.221  1.00  0.00     0.031 C 
ATOM     42  C   UNL A   1      37.925  34.479  34.588  1.00  0.00     0.029 A 
ATOM     43  C   UNL A   1      38.951  33.447  34.704  1.00  0.00     0.049 A 
ATOM     44  H   UNL A   1      39.504  32.044  33.268  1.00  0.00     0.167 HD
ATOM     45  C   UNL A   1      40.324  28.936  30.290  1.00  0.00     0.037 A 
ATOM     46  C   UNL A   1      39.725  33.235  35.785  1.00  0.00     0.037 A 
ATOM     47  C   UNL A   1      41.281  28.717  31.343  1.00  0.00     0.049 A 
ATOM     48  C   UNL A   1      40.734  32.118  35.757  1.00  0.00     0.074 A 
ATOM     49  C   UNL A   1      42.312  27.796  31.392  1.00  0.00     0.029 A 
ATOM     50  N   UNL A   1      41.317  29.423  32.536  1.00  0.00    -0.354 N 
ATOM     51  N   UNL A   1      40.998  31.266  34.796  1.00  0.00    -0.248 NA
ATOM     52  C   UNL A   1      41.553  31.933  36.963  1.00  0.00     0.031 C 
ATOM     53  C   UNL A   1      42.937  27.906  32.637  1.00  0.00     0.029 A 
ATOM     54  C   UNL A   1      42.332  28.933  33.343  1.00  0.00     0.049 A 
ATOM     55  H   UNL A   1      40.711  30.162  32.775  1.00  0.00     0.167 HD
ATOM     56  C   UNL A   1      42.029  30.466  35.269  1.00  0.00     0.074 A 
ATOM     57  C   UNL A   1      42.353  30.942  36.597  1.00  0.00     0.031 C 
ATOM     58  C   UNL A   1      42.649  29.426  34.658  1.00  0.00     0.037 A 
BRANCH  45  59
ATOM     59  C   UNL A   1      40.347  28.005  29.113  1.00  0.00     0.064 A 
ATOM     60  C   UNL A   1      39.599  26.819  29.094  1.00  0.00     0.173 A 
ATOM     61  C   UNL A   1      41.086  28.332  27.965  1.00  0.00     0.173 A 
ATOM     62  F   UNL A   1      38.883  26.455  30.168  1.00  0.00    -0.203 F 
ATOM     63  C   UNL A   1      39.608  25.983  27.980  1.00  0.00     0.198 A 
ATOM     64  C   UNL A   1      41.069  27.510  26.842  1.00  0.00     0.198 A 
ATOM     65  F   UNL A   1      41.814  29.459  27.928  1.00  0.00    -0.203 F 
ATOM     66  F   UNL A   1      38.919  24.834  28.001  1.00  0.00    -0.200 F 
ATOM     67  C   UNL A   1      40.335  26.334  26.852  1.00  0.00     0.200 A 
ATOM     68  F   UNL A   1      41.759  27.859  25.747  1.00  0.00    -0.200 F 
ATOM     69  F   UNL A   1      40.332  25.535  25.776  1.00  0.00    -0.200 F 
ENDBRANCH  45  59
BRANCH  46  70
ATOM     70  C   UNL A   1      39.584  34.099  36.989  1.00  0.00     0.064 A 
ATOM     71  C   UNL A   1      40.253  35.328  37.075  1.00  0.00     0.173 A 
ATOM     72  C   UNL A   1      38.799  33.707  38.082  1.00  0.00     0.173 A 
ATOM     73  F   UNL A   1      41.034  35.738  36.064  1.00  0.00    -0.203 F 
ATOM     74  C   UNL A   1      40.164  36.119  38.218  1.00  0.00     0.198 A 
ATOM     75  C   UNL A   1      38.685  34.514  39.214  1.00  0.00     0.198 A 
ATOM     76  F   UNL A   1      38.134  32.542  38.050  1.00  0.00    -0.203 F 
ATOM     77  F   UNL A   1      40.858  37.263  38.295  1.00  0.00    -0.200 F 
ATOM     78  C   UNL A   1      39.377  35.713  39.285  1.00  0.00     0.200 A 
ATOM     79  F   UNL A   1      37.911  34.125  40.236  1.00  0.00    -0.200 F 
ATOM     80  F   UNL A   1      39.291  36.473  40.385  1.00  0.00    -0.200 F 
ENDBRANCH  46  70
BRANCH  58  81
ATOM     81  C   UNL A   1      43.765  28.753  35.403  1.00  0.00     0.064 A 
ATOM     82  C   UNL A   1      45.102  29.142  35.235  1.00  0.00     0.173 A 
ATOM     83  C   UNL A   1      43.486  27.745  36.338  1.00  0.00     0.173 A 
ATOM     84  F   UNL A   1      45.422  30.091  34.341  1.00  0.00    -0.203 F 
ATOM     85  C   UNL A   1      46.120  28.532  35.962  1.00  0.00     0.198 A 
ATOM     86  C   UNL A   1      44.504  27.159  37.086  1.00  0.00     0.198 A 
ATOM     87  F   UNL A   1      42.223  27.340  36.541  1.00  0.00    -0.203 F 
ATOM     88  F   UNL A   1      47.396  28.889  35.754  1.00  0.00    -0.200 F 
ATOM     89  C   UNL A   1      45.820  27.549  36.893  1.00  0.00     0.200 A 
ATOM     90  F   UNL A   1      44.210  26.219  37.995  1.00  0.00    -0.200 F 
ATOM     91  F   UNL A   1      46.801  26.972  37.600  1.00  0.00    -0.200 F 
ENDBRANCH  58  81
ENDBRANCH  32  33
ENDBRANCH  24  27
ENDBRANCH  22  23
ENDBRANCH   1  22
TORSDOF 14
ENDMDL
MODEL 3
REMARK VINA RESULT:     -12.1      0.147      1.626
REMARK SMILES CC[C@](O)(C(=O)NCCCNC(=O)c1ccc(-c2c3nc(c(-c4c(F)c(F)c(F)c(F)c4F)c4ccc([nH]4)c(-c4c(F)c(F)c(F)c(F)c4F)c4nc(c(-c5c(F)c(F)c(F)c(F)c5F)c5ccc2[nH]5)C=C4)C=C3)cc1)[C@H](C)c1ccc(F)cc1F
REMARK SMILES IDX 9 1 8 2 7 3 5 4 6 5 3 7 2 8 1 9 4 10 77 12 78 13 79 14 80 15
REMARK SMILES IDX 85 16 81 17 84 18 86 19 82 20 83 21 10 22 11 23 12 24 13 26
REMARK SMILES IDX 14 27 15 28 76 29 16 30 75 31 17 32 18 33 19 34 69 35 20 36
REMARK SMILES IDX 74 37 68 38 70 39 21 40 73 41 67 42 66 43 22 45 54 46 34 47
REMARK SMILES IDX 53 48 35 49 38 50 52 51 71 52 36 53 37 54 51 56 72 57 39 58
REMARK SMILES IDX 23 59 24 60 32 61 25 62 26 63 30 64 33 65 27 66 28 67 31 68
REMARK SMILES IDX 29 69 55 70 56 71 64 72 57 73 58 74 62 75 65 76 59 77 60 78
REMARK SMILES IDX 63 79 61 80 40 81 41 82 49 83 42 84 43 85 47 86 50 87 44 88
REMARK SMILES IDX 45 89 48 90 46 91
REMARK H PARENT 7 6 4 11 11 25 70 44 38 55
REMARK Flexibility Score: inf
ROOT
ATOM      1  C   UNL A   1      31.507  31.851  26.830  1.00  0.00     0.042 C 
ENDROOT
BRANCH   1   2
ATOM      2  C   UNL A   1      31.842  30.622  25.997  1.00  0.00     0.117 C 
BRANCH   2   3
ATOM      3  N   UNL A   1      31.001  30.512  24.822  1.00  0.00    -0.354 N 
ATOM      4  C   UNL A   1      30.707  29.461  24.005  1.00  0.00     0.252 C 
ATOM      5  O   UNL A   1      29.852  29.715  23.156  1.00  0.00    -0.272 OA
ATOM      6  H   UNL A   1      30.561  31.355  24.565  1.00  0.00     0.163 HD
BRANCH   4   7
ATOM      7  C   UNL A   1      31.298  28.028  24.260  1.00  0.00     0.149 C 
BRANCH   7   8
ATOM      8  C   UNL A   1      30.483  27.076  23.334  1.00  0.00     0.043 C 
ATOM      9  C   UNL A   1      29.692  25.982  24.045  1.00  0.00     0.007 C 
ENDBRANCH   7   8
BRANCH   7  10
ATOM     10  O   UNL A   1      31.029  27.666  25.629  1.00  0.00    -0.379 OA
ATOM     11  H   UNL A   1      30.350  28.256  25.992  1.00  0.00     0.212 HD
ENDBRANCH   7  10
BRANCH   7  12
ATOM     12  C   UNL A   1      32.862  27.891  24.002  1.00  0.00     0.060 C 
ATOM     13  C   UNL A   1      33.325  28.600  22.710  1.00  0.00     0.016 C 
BRANCH  12  14
ATOM     14  C   UNL A   1      33.473  26.497  24.118  1.00  0.00    -0.006 A 
ATOM     15  C   UNL A   1      33.579  25.676  22.981  1.00  0.00     0.010 A 
ATOM     16  C   UNL A   1      33.963  25.994  25.339  1.00  0.00     0.129 A 
ATOM     17  C   UNL A   1      34.186  24.419  23.070  1.00  0.00     0.040 A 
ATOM     18  C   UNL A   1      34.581  24.752  25.428  1.00  0.00     0.078 A 
ATOM     19  F   UNL A   1      33.878  26.729  26.456  1.00  0.00    -0.207 F 
ATOM     20  C   UNL A   1      34.690  23.977  24.288  1.00  0.00     0.126 A 
ATOM     21  F   UNL A   1      35.290  22.781  24.358  1.00  0.00    -0.207 F 
ENDBRANCH  12  14
ENDBRANCH   7  12
ENDBRANCH   4   7
ENDBRANCH   2   3
ENDBRANCH   1   2
BRANCH   1  22
ATOM     22  C   UNL A   1      32.727  32.639  27.304  1.00  0.00     0.118 C 
BRANCH  22  23
ATOM     23  N   UNL A   1      32.430  34.033  27.610  1.00  0.00    -0.352 N 
ATOM     24  C   UNL A   1      32.987  34.884  28.536  1.00  0.00     0.251 C 
ATOM     25  H   UNL A   1      31.714  34.431  27.063  1.00  0.00     0.163 HD
ATOM     26  O   UNL A   1      32.484  35.980  28.742  1.00  0.00    -0.269 OA
BRANCH  24  27
ATOM     27  C   UNL A   1      34.174  34.462  29.308  1.00  0.00     0.039 A 
ATOM     28  C   UNL A   1      33.988  33.898  30.573  1.00  0.00     0.014 A 
ATOM     29  C   UNL A   1      35.460  34.616  28.790  1.00  0.00     0.014 A 
ATOM     30  C   UNL A   1      35.087  33.401  31.277  1.00  0.00     0.010 A 
ATOM     31  C   UNL A   1      36.543  34.047  29.453  1.00  0.00     0.010 A 
ATOM     32  C   UNL A   1      36.367  33.426  30.699  1.00  0.00    -0.014 A 
BRANCH  32  33
ATOM     33  C   UNL A   1      37.531  32.787  31.365  1.00  0.00     0.031 A 
ATOM     34  C   UNL A   1      38.215  31.612  30.725  1.00  0.00     0.074 A 
ATOM     35  C   UNL A   1      37.907  33.204  32.590  1.00  0.00     0.049 A 
ATOM     36  N   UNL A   1      39.169  30.850  31.199  1.00  0.00    -0.248 NA
ATOM     37  C   UNL A   1      37.746  31.223  29.386  1.00  0.00     0.031 C 
ATOM     38  C   UNL A   1      37.289  34.302  33.337  1.00  0.00     0.029 A 
ATOM     39  N   UNL A   1      38.889  32.744  33.433  1.00  0.00    -0.354 N 
ATOM     40  C   UNL A   1      39.395  29.881  30.231  1.00  0.00     0.074 A 
ATOM     41  C   UNL A   1      38.451  30.123  29.161  1.00  0.00     0.031 C 
ATOM     42  C   UNL A   1      37.913  34.438  34.517  1.00  0.00     0.029 A 
ATOM     43  C   UNL A   1      38.943  33.411  34.633  1.00  0.00     0.049 A 
ATOM     44  H   UNL A   1      39.496  32.005  33.199  1.00  0.00     0.167 HD
ATOM     45  C   UNL A   1      40.318  28.891  30.228  1.00  0.00     0.037 A 
ATOM     46  C   UNL A   1      39.722  33.205  35.712  1.00  0.00     0.037 A 
ATOM     47  C   UNL A   1      41.279  28.679  31.278  1.00  0.00     0.049 A 
ATOM     48  C   UNL A   1      40.735  32.092  35.683  1.00  0.00     0.074 A 
ATOM     49  C   UNL A   1      42.314  27.762  31.326  1.00  0.00     0.029 A 
ATOM     50  N   UNL A   1      41.317  29.389  32.469  1.00  0.00    -0.354 N 
ATOM     51  N   UNL A   1      40.999  31.238  34.724  1.00  0.00    -0.248 NA
ATOM     52  C   UNL A   1      41.559  31.914  36.887  1.00  0.00     0.031 C 
ATOM     53  C   UNL A   1      42.943  27.879  32.569  1.00  0.00     0.029 A 
ATOM     54  C   UNL A   1      42.337  28.906  33.274  1.00  0.00     0.049 A 
ATOM     55  H   UNL A   1      40.709  30.126  32.707  1.00  0.00     0.167 HD
ATOM     56  C   UNL A   1      42.034  30.443  35.196  1.00  0.00     0.074 A 
ATOM     57  C   UNL A   1      42.362  30.925  36.521  1.00  0.00     0.031 C 
ATOM     58  C   UNL A   1      42.657  29.404  34.586  1.00  0.00     0.037 A 
BRANCH  45  59
ATOM     59  C   UNL A   1      40.341  27.957  29.054  1.00  0.00     0.064 A 
ATOM     60  C   UNL A   1      39.602  26.764  29.044  1.00  0.00     0.173 A 
ATOM     61  C   UNL A   1      41.067  28.287  27.899  1.00  0.00     0.173 A 
ATOM     62  F   UNL A   1      38.899  26.397  30.125  1.00  0.00    -0.203 F 
ATOM     63  C   UNL A   1      39.610  25.925  27.933  1.00  0.00     0.198 A 
ATOM     64  C   UNL A   1      41.049  27.461  26.779  1.00  0.00     0.198 A 
ATOM     65  F   UNL A   1      41.785  29.420  27.853  1.00  0.00    -0.203 F 
ATOM     66  F   UNL A   1      38.933  24.769  27.963  1.00  0.00    -0.200 F 
ATOM     67  C   UNL A   1      40.326  26.278  26.798  1.00  0.00     0.200 A 
ATOM     68  F   UNL A   1      41.728  27.812  25.678  1.00  0.00    -0.200 F 
ATOM     69  F   UNL A   1      40.322  25.476  25.725  1.00  0.00    -0.200 F 
ENDBRANCH  45  59
BRANCH  46  70
ATOM     70  C   UNL A   1      39.582  34.072  36.913  1.00  0.00     0.064 A 
ATOM     71  C   UNL A   1      40.250  35.302  36.995  1.00  0.00     0.173 A 
ATOM     72  C   UNL A   1      38.798  33.683  38.009  1.00  0.00     0.173 A 
ATOM     73  F   UNL A   1      41.030  35.709  35.982  1.00  0.00    -0.203 F 
ATOM     74  C   UNL A   1      40.162  36.096  38.136  1.00  0.00     0.198 A 
ATOM     75  C   UNL A   1      38.685  34.492  39.138  1.00  0.00     0.198 A 
ATOM     76  F   UNL A   1      38.134  32.518  37.980  1.00  0.00    -0.203 F 
ATOM     77  F   UNL A   1      40.856  37.240  38.209  1.00  0.00    -0.200 F 
ATOM     78  C   UNL A   1      39.376  35.692  39.205  1.00  0.00     0.200 A 
ATOM     79  F   UNL A   1      37.912  34.106  40.162  1.00  0.00    -0.200 F 
ATOM     80  F   UNL A   1      39.292  36.455  40.303  1.00  0.00    -0.200 F 
ENDBRANCH  46  70
BRANCH  58  81
ATOM     81  C   UNL A   1      43.777  28.738  35.329  1.00  0.00     0.064 A 
ATOM     82  C   UNL A   1      45.104  29.178  35.211  1.00  0.00     0.173 A 
ATOM     83  C   UNL A   1      43.513  27.681  36.213  1.00  0.00     0.173 A 
ATOM     84  F   UNL A   1      45.411  30.175  34.366  1.00  0.00    -0.203 F 
ATOM     85  C   UNL A   1      46.126  28.572  35.936  1.00  0.00     0.198 A 
ATOM     86  C   UNL A   1      44.532  27.099  36.960  1.00  0.00     0.198 A 
ATOM     87  F   UNL A   1      42.260  27.226  36.368  1.00  0.00    -0.203 F 
ATOM     88  F   UNL A   1      47.393  28.981  35.774  1.00  0.00    -0.200 F 
ATOM     89  C   UNL A   1      45.839  27.541  36.816  1.00  0.00     0.200 A 
ATOM     90  F   UNL A   1      44.250  26.111  37.822  1.00  0.00    -0.200 F 
ATOM     91  F   UNL A   1      46.822  26.968  37.523  1.00  0.00    -0.200 F 
ENDBRANCH  58  81
ENDBRANCH  32  33
ENDBRANCH  24  27
ENDBRANCH  22  23
ENDBRANCH   1  22
TORSDOF 14
ENDMDL
