MODEL 1
REMARK VINA RESULT:     -13.8      0.000      0.000
REMARK SMILES COc1ccc(-c2ccc(/C=C3\SC(=S)N([C@H](Cc4ccccc4)C(=O)NCCCNC(=O)c4ccc(-c5c6nc(c(-c7c(F)c(F)c(F)c(F)c7F)c7ccc([nH]7)c(-c7c(F)c(F)c(F)c(F)c7F)c7nc(c(-c8c(F)c(F)c(F)c(F)c8F)c8ccc5[nH]8)C=C7)C=C6)cc4)C3=O)o2)cc1
REMARK SMILES IDX 28 1 27 2 25 3 26 4 17 6 16 7 11 8 12 9 13 10 97 11 14 12
REMARK SMILES IDX 98 13 15 14 10 15 7 16 8 17 99 18 9 19 6 20 3 21 4 22 101 23
REMARK SMILES IDX 5 24 100 25 2 26 1 27 18 28 19 29 20 30 24 31 21 32 23 33
REMARK SMILES IDX 22 34 29 35 30 36 31 37 32 38 33 40 34 41 35 42 96 43 36 44
REMARK SMILES IDX 95 45 37 46 38 47 39 48 89 49 40 50 94 51 88 52 90 53 41 54
REMARK SMILES IDX 93 55 87 56 86 57 42 59 74 60 54 61 73 62 55 63 58 64 72 65
REMARK SMILES IDX 91 66 56 67 57 68 71 70 92 71 59 72 43 73 44 74 52 75 45 76
REMARK SMILES IDX 46 77 50 78 53 79 47 80 48 81 51 82 49 83 75 84 76 85 84 86
REMARK SMILES IDX 77 87 78 88 82 89 85 90 79 91 80 92 83 93 81 94 60 95 61 96
REMARK SMILES IDX 69 97 62 98 63 99 67 100 70 101 64 102 65 103 68 104 66 105
REMARK H PARENT 27 5 31 39 90 58 58 69
REMARK Flexibility Score: inf
ROOT
ATOM      1  C   UNL A   1      31.404  30.703  26.947  1.00  0.00     0.117 C 
ENDROOT
BRANCH   1   2
ATOM      2  N   UNL A   1      32.640  30.033  26.611  1.00  0.00    -0.354 N 
ATOM      3  C   UNL A   1      32.916  29.021  25.753  1.00  0.00     0.243 C 
ATOM      4  O   UNL A   1      34.019  28.482  25.909  1.00  0.00    -0.273 OA
ATOM      5  H   UNL A   1      33.426  30.377  27.094  1.00  0.00     0.163 HD
BRANCH   3   6
ATOM      6  C   UNL A   1      31.898  28.423  24.755  1.00  0.00     0.185 C 
BRANCH   6   7
ATOM      7  N   UNL A   1      32.329  27.128  24.157  1.00  0.00    -0.280 N 
ATOM      8  C   UNL A   1      31.509  23.602  24.303  1.00  0.00     0.068 C 
ATOM      9  C   UNL A   1      32.128  24.762  24.047  1.00  0.00     0.084 C 
ATOM     10  S   UNL A   1      33.309  25.111  22.864  1.00  0.00    -0.054 SA
ATOM     11  C   UNL A   1      31.748  26.006  24.755  1.00  0.00     0.267 C 
ATOM     12  C   UNL A   1      33.149  26.855  23.078  1.00  0.00     0.149 C 
ATOM     13  O   UNL A   1      31.008  26.012  25.726  1.00  0.00    -0.268 OA
ATOM     14  S   UNL A   1      33.947  27.857  22.008  1.00  0.00    -0.052 S 
BRANCH   8  15
ATOM     15  C   UNL A   1      31.774  22.397  23.601  1.00  0.00     0.128 A 
ATOM     16  C   UNL A   1      32.313  20.260  23.320  1.00  0.00     0.134 A 
ATOM     17  C   UNL A   1      32.109  20.768  22.059  1.00  0.00     0.051 A 
ATOM     18  O   UNL A   1      32.125  21.234  24.251  1.00  0.00    -0.457 OA
ATOM     19  C   UNL A   1      31.769  22.128  22.237  1.00  0.00     0.051 A 
BRANCH  16  20
ATOM     20  C   UNL A   1      32.707  18.957  23.822  1.00  0.00     0.017 A 
ATOM     21  C   UNL A   1      33.425  16.407  24.749  1.00  0.00     0.118 A 
ATOM     22  C   UNL A   1      32.846  17.332  25.617  1.00  0.00     0.047 A 
ATOM     23  C   UNL A   1      33.622  16.743  23.410  1.00  0.00     0.047 A 
ATOM     24  C   UNL A   1      32.504  18.609  25.162  1.00  0.00     0.016 A 
ATOM     25  C   UNL A   1      33.261  18.013  22.950  1.00  0.00     0.016 A 
BRANCH  21  26
ATOM     26  O   UNL A   1      33.711  15.180  25.282  1.00  0.00    -0.497 OA
ATOM     27  C   UNL A   1      32.584  14.506  25.835  1.00  0.00     0.278 C 
ENDBRANCH  21  26
ENDBRANCH  16  20
ENDBRANCH   8  15
ENDBRANCH   6   7
BRANCH   6  28
ATOM     28  C   UNL A   1      31.346  29.557  23.869  1.00  0.00     0.071 C 
BRANCH  28  29
ATOM     29  C   UNL A   1      29.864  29.498  23.554  1.00  0.00    -0.045 A 
ATOM     30  C   UNL A   1      29.135  30.699  23.565  1.00  0.00     0.004 A 
ATOM     31  C   UNL A   1      29.178  28.310  23.263  1.00  0.00     0.004 A 
ATOM     32  C   UNL A   1      27.757  30.705  23.347  1.00  0.00     0.000 A 
ATOM     33  C   UNL A   1      27.798  28.316  23.045  1.00  0.00     0.000 A 
ATOM     34  C   UNL A   1      27.086  29.511  23.098  1.00  0.00     0.000 A 
ENDBRANCH  28  29
ENDBRANCH   6  28
ENDBRANCH   3   6
ENDBRANCH   1   2
BRANCH   1  35
ATOM     35  C   UNL A   1      31.461  32.197  26.652  1.00  0.00     0.042 C 
BRANCH  35  36
ATOM     36  C   UNL A   1      32.752  32.872  27.108  1.00  0.00     0.118 C 
BRANCH  36  37
ATOM     37  N   UNL A   1      32.534  34.227  27.597  1.00  0.00    -0.352 N 
ATOM     38  C   UNL A   1      33.084  34.898  28.659  1.00  0.00     0.251 C 
ATOM     39  H   UNL A   1      31.881  34.749  27.076  1.00  0.00     0.163 HD
ATOM     40  O   UNL A   1      32.593  35.965  29.017  1.00  0.00    -0.269 OA
BRANCH  38  41
ATOM     41  C   UNL A   1      34.250  34.350  29.384  1.00  0.00     0.039 A 
ATOM     42  C   UNL A   1      34.031  33.655  30.577  1.00  0.00     0.014 A 
ATOM     43  C   UNL A   1      35.555  34.558  28.928  1.00  0.00     0.014 A 
ATOM     44  C   UNL A   1      35.112  33.114  31.276  1.00  0.00     0.010 A 
ATOM     45  C   UNL A   1      36.625  33.951  29.583  1.00  0.00     0.010 A 
ATOM     46  C   UNL A   1      36.415  33.225  30.765  1.00  0.00    -0.014 A 
BRANCH  46  47
ATOM     47  C   UNL A   1      37.564  32.576  31.446  1.00  0.00     0.031 A 
ATOM     48  C   UNL A   1      38.281  31.423  30.802  1.00  0.00     0.074 A 
ATOM     49  C   UNL A   1      37.918  32.989  32.677  1.00  0.00     0.049 A 
ATOM     50  N   UNL A   1      39.270  30.700  31.267  1.00  0.00    -0.248 NA
ATOM     51  C   UNL A   1      37.810  31.009  29.472  1.00  0.00     0.031 C 
ATOM     52  C   UNL A   1      37.262  34.059  33.430  1.00  0.00     0.029 A 
ATOM     53  N   UNL A   1      38.910  32.551  33.519  1.00  0.00    -0.354 N 
ATOM     54  C   UNL A   1      39.525  29.740  30.296  1.00  0.00     0.074 A 
ATOM     55  C   UNL A   1      38.556  29.938  29.241  1.00  0.00     0.031 C 
ATOM     56  C   UNL A   1      37.883  34.212  34.611  1.00  0.00     0.029 A 
ATOM     57  C   UNL A   1      38.957  33.228  34.713  1.00  0.00     0.049 A 
ATOM     58  H   UNL A   1      39.530  31.822  33.288  1.00  0.00     0.167 HD
ATOM     59  C   UNL A   1      40.496  28.794  30.277  1.00  0.00     0.037 A 
ATOM     60  C   UNL A   1      39.769  33.070  35.774  1.00  0.00     0.037 A 
ATOM     61  C   UNL A   1      41.473  28.615  31.321  1.00  0.00     0.049 A 
ATOM     62  C   UNL A   1      40.843  32.017  35.725  1.00  0.00     0.074 A 
ATOM     63  C   UNL A   1      42.537  27.733  31.364  1.00  0.00     0.029 A 
ATOM     64  N   UNL A   1      41.501  29.334  32.507  1.00  0.00    -0.354 N 
ATOM     65  N   UNL A   1      41.124  31.167  34.769  1.00  0.00    -0.248 NA
ATOM     66  C   UNL A   1      41.717  31.911  36.901  1.00  0.00     0.031 C 
ATOM     67  C   UNL A   1      43.182  27.885  32.597  1.00  0.00     0.029 A 
ATOM     68  C   UNL A   1      42.551  28.898  33.300  1.00  0.00     0.049 A 
ATOM     69  H   UNL A   1      40.869  30.049  32.749  1.00  0.00     0.167 HD
ATOM     70  C   UNL A   1      42.220  30.441  35.214  1.00  0.00     0.074 A 
ATOM     71  C   UNL A   1      42.563  30.964  36.520  1.00  0.00     0.031 C 
ATOM     72  C   UNL A   1      42.881  29.430  34.598  1.00  0.00     0.037 A 
BRANCH  59  73
ATOM     73  C   UNL A   1      40.548  27.877  29.090  1.00  0.00     0.064 A 
ATOM     74  C   UNL A   1      39.754  26.722  29.015  1.00  0.00     0.173 A 
ATOM     75  C   UNL A   1      41.376  28.173  27.996  1.00  0.00     0.173 A 
ATOM     76  F   UNL A   1      38.952  26.387  30.037  1.00  0.00    -0.203 F 
ATOM     77  C   UNL A   1      39.811  25.883  27.905  1.00  0.00     0.198 A 
ATOM     78  C   UNL A   1      41.408  27.348  26.875  1.00  0.00     0.198 A 
ATOM     79  F   UNL A   1      42.153  29.267  28.012  1.00  0.00    -0.203 F 
ATOM     80  F   UNL A   1      39.081  24.758  27.879  1.00  0.00    -0.200 F 
ATOM     81  C   UNL A   1      40.632  26.200  26.834  1.00  0.00     0.200 A 
ATOM     82  F   UNL A   1      42.192  27.663  25.834  1.00  0.00    -0.200 F 
ATOM     83  F   UNL A   1      40.681  25.394  25.764  1.00  0.00    -0.200 F 
ENDBRANCH  59  73
BRANCH  60  84
ATOM     84  C   UNL A   1      39.616  33.951  36.960  1.00  0.00     0.064 A 
ATOM     85  C   UNL A   1      38.843  33.549  38.059  1.00  0.00     0.173 A 
ATOM     86  C   UNL A   1      40.241  35.205  37.025  1.00  0.00     0.173 A 
ATOM     87  F   UNL A   1      38.210  32.367  38.035  1.00  0.00    -0.203 F 
ATOM     88  C   UNL A   1      38.686  34.375  39.169  1.00  0.00     0.198 A 
ATOM     89  C   UNL A   1      40.106  36.018  38.149  1.00  0.00     0.198 A 
ATOM     90  F   UNL A   1      40.996  35.633  36.003  1.00  0.00    -0.203 F 
ATOM     91  F   UNL A   1      37.908  33.984  40.187  1.00  0.00    -0.200 F 
ATOM     92  C   UNL A   1      39.323  35.605  39.216  1.00  0.00     0.200 A 
ATOM     93  F   UNL A   1      40.736  37.200  38.197  1.00  0.00    -0.200 F 
ATOM     94  F   UNL A   1      39.177  36.397  40.288  1.00  0.00    -0.200 F 
ENDBRANCH  60  84
BRANCH  72  95
ATOM     95  C   UNL A   1      44.060  28.843  35.317  1.00  0.00     0.064 A 
ATOM     96  C   UNL A   1      45.357  29.350  35.141  1.00  0.00     0.173 A 
ATOM     97  C   UNL A   1      43.887  27.780  36.216  1.00  0.00     0.173 A 
ATOM     98  F   UNL A   1      45.578  30.355  34.280  1.00  0.00    -0.203 F 
ATOM     99  C   UNL A   1      46.440  28.794  35.817  1.00  0.00     0.198 A 
ATOM    100  C   UNL A   1      44.968  27.247  36.914  1.00  0.00     0.198 A 
ATOM    101  F   UNL A   1      42.667  27.263  36.426  1.00  0.00    -0.203 F 
ATOM    102  F   UNL A   1      47.677  29.260  35.594  1.00  0.00    -0.200 F 
ATOM    103  C   UNL A   1      46.244  27.748  36.708  1.00  0.00     0.200 A 
ATOM    104  F   UNL A   1      44.774  26.247  37.784  1.00  0.00    -0.200 F 
ATOM    105  F   UNL A   1      47.286  27.218  37.361  1.00  0.00    -0.200 F 
ENDBRANCH  72  95
ENDBRANCH  46  47
ENDBRANCH  38  41
ENDBRANCH  36  37
ENDBRANCH  35  36
ENDBRANCH   1  35
TORSDOF 16
ENDMDL
MODEL 2
REMARK VINA RESULT:     -13.7      0.682      6.985
REMARK SMILES COc1ccc(-c2ccc(/C=C3\SC(=S)N([C@H](Cc4ccccc4)C(=O)NCCCNC(=O)c4ccc(-c5c6nc(c(-c7c(F)c(F)c(F)c(F)c7F)c7ccc([nH]7)c(-c7c(F)c(F)c(F)c(F)c7F)c7nc(c(-c8c(F)c(F)c(F)c(F)c8F)c8ccc5[nH]8)C=C7)C=C6)cc4)C3=O)o2)cc1
REMARK SMILES IDX 28 1 27 2 25 3 26 4 17 6 16 7 11 8 12 9 13 10 97 11 14 12
REMARK SMILES IDX 98 13 15 14 10 15 7 16 8 17 99 18 9 19 6 20 3 21 4 22 101 23
REMARK SMILES IDX 5 24 100 25 2 26 1 27 18 28 19 29 20 30 24 31 21 32 23 33
REMARK SMILES IDX 22 34 29 35 30 36 31 37 32 38 33 40 34 41 35 42 96 43 36 44
REMARK SMILES IDX 95 45 37 46 38 47 39 48 89 49 40 50 94 51 88 52 90 53 41 54
REMARK SMILES IDX 93 55 87 56 86 57 42 59 74 60 54 61 73 62 55 63 58 64 72 65
REMARK SMILES IDX 91 66 56 67 57 68 71 70 92 71 59 72 43 73 44 74 52 75 45 76
REMARK SMILES IDX 46 77 50 78 53 79 47 80 48 81 51 82 49 83 75 84 76 85 84 86
REMARK SMILES IDX 77 87 78 88 82 89 85 90 79 91 80 92 83 93 81 94 60 95 61 96
REMARK SMILES IDX 69 97 62 98 63 99 67 100 70 101 64 102 65 103 68 104 66 105
REMARK H PARENT 27 5 31 39 90 58 58 69
REMARK Flexibility Score: inf
ROOT
ATOM      1  C   UNL A   1      31.386  30.718  26.880  1.00  0.00     0.117 C 
ENDROOT
BRANCH   1   2
ATOM      2  N   UNL A   1      32.640  30.097  26.521  1.00  0.00    -0.354 N 
ATOM      3  C   UNL A   1      32.943  29.110  25.642  1.00  0.00     0.243 C 
ATOM      4  O   UNL A   1      34.065  28.606  25.779  1.00  0.00    -0.273 OA
ATOM      5  H   UNL A   1      33.418  30.458  27.004  1.00  0.00     0.163 HD
BRANCH   3   6
ATOM      6  C   UNL A   1      31.936  28.497  24.641  1.00  0.00     0.185 C 
BRANCH   6   7
ATOM      7  N   UNL A   1      32.371  27.189  24.075  1.00  0.00    -0.280 N 
ATOM      8  C   UNL A   1      31.531  23.671  24.273  1.00  0.00     0.068 C 
ATOM      9  C   UNL A   1      32.160  24.822  24.005  1.00  0.00     0.084 C 
ATOM     10  S   UNL A   1      33.362  25.143  22.836  1.00  0.00    -0.054 SA
ATOM     11  C   UNL A   1      31.775  26.082  24.683  1.00  0.00     0.267 C 
ATOM     12  C   UNL A   1      33.208  26.892  23.014  1.00  0.00     0.149 C 
ATOM     13  O   UNL A   1      31.019  26.110  25.642  1.00  0.00    -0.268 OA
ATOM     14  S   UNL A   1      34.028  27.870  21.940  1.00  0.00    -0.052 S 
BRANCH   8  15
ATOM     15  C   UNL A   1      31.802  22.451  23.599  1.00  0.00     0.128 A 
ATOM     16  C   UNL A   1      32.336  20.307  23.366  1.00  0.00     0.134 A 
ATOM     17  C   UNL A   1      32.153  20.791  22.093  1.00  0.00     0.051 A 
ATOM     18  O   UNL A   1      32.137  21.300  24.276  1.00  0.00    -0.457 OA
ATOM     19  C   UNL A   1      31.817  22.157  22.240  1.00  0.00     0.051 A 
BRANCH  16  20
ATOM     20  C   UNL A   1      32.716  19.013  23.899  1.00  0.00     0.017 A 
ATOM     21  C   UNL A   1      33.405  16.478  24.889  1.00  0.00     0.118 A 
ATOM     22  C   UNL A   1      32.903  17.455  25.748  1.00  0.00     0.047 A 
ATOM     23  C   UNL A   1      33.539  16.755  23.529  1.00  0.00     0.047 A 
ATOM     24  C   UNL A   1      32.576  18.724  25.261  1.00  0.00     0.016 A 
ATOM     25  C   UNL A   1      33.192  18.017  23.038  1.00  0.00     0.016 A 
BRANCH  21  26
ATOM     26  O   UNL A   1      33.682  15.264  25.455  1.00  0.00    -0.497 OA
ATOM     27  C   UNL A   1      32.529  14.481  25.751  1.00  0.00     0.278 C 
ENDBRANCH  21  26
ENDBRANCH  16  20
ENDBRANCH   8  15
ENDBRANCH   6   7
BRANCH   6  28
ATOM     28  C   UNL A   1      31.403  29.616  23.726  1.00  0.00     0.071 C 
BRANCH  28  29
ATOM     29  C   UNL A   1      29.897  29.687  23.565  1.00  0.00    -0.045 A 
ATOM     30  C   UNL A   1      29.209  28.509  23.224  1.00  0.00     0.004 A 
ATOM     31  C   UNL A   1      29.152  30.864  23.726  1.00  0.00     0.004 A 
ATOM     32  C   UNL A   1      27.833  28.521  22.998  1.00  0.00     0.000 A 
ATOM     33  C   UNL A   1      27.774  30.876  23.499  1.00  0.00     0.000 A 
ATOM     34  C   UNL A   1      27.116  29.707  23.126  1.00  0.00     0.000 A 
ENDBRANCH  28  29
ENDBRANCH   6  28
ENDBRANCH   3   6
ENDBRANCH   1   2
BRANCH   1  35
ATOM     35  C   UNL A   1      31.403  32.225  26.650  1.00  0.00     0.042 C 
BRANCH  35  36
ATOM     36  C   UNL A   1      32.727  32.893  27.013  1.00  0.00     0.118 C 
BRANCH  36  37
ATOM     37  N   UNL A   1      32.544  34.202  27.626  1.00  0.00    -0.352 N 
ATOM     38  C   UNL A   1      33.117  34.759  28.740  1.00  0.00     0.251 C 
ATOM     39  H   UNL A   1      31.902  34.785  27.161  1.00  0.00     0.163 HD
ATOM     40  O   UNL A   1      32.654  35.800  29.199  1.00  0.00    -0.269 OA
BRANCH  38  41
ATOM     41  C   UNL A   1      34.274  34.119  29.403  1.00  0.00     0.039 A 
ATOM     42  C   UNL A   1      34.034  33.153  30.385  1.00  0.00     0.014 A 
ATOM     43  C   UNL A   1      35.585  34.497  29.104  1.00  0.00     0.014 A 
ATOM     44  C   UNL A   1      35.106  32.521  31.016  1.00  0.00     0.010 A 
ATOM     45  C   UNL A   1      36.655  33.812  29.677  1.00  0.00     0.010 A 
ATOM     46  C   UNL A   1      36.426  32.818  30.641  1.00  0.00    -0.014 A 
BRANCH  46  47
ATOM     47  C   UNL A   1      37.575  32.090  31.236  1.00  0.00     0.031 A 
ATOM     48  C   UNL A   1      38.068  32.435  32.614  1.00  0.00     0.074 A 
ATOM     49  C   UNL A   1      38.216  31.159  30.504  1.00  0.00     0.049 A 
ATOM     50  N   UNL A   1      39.086  31.945  33.275  1.00  0.00    -0.248 NA
ATOM     51  C   UNL A   1      37.337  33.489  33.334  1.00  0.00     0.031 C 
ATOM     52  C   UNL A   1      37.868  30.777  29.134  1.00  0.00     0.029 A 
ATOM     53  N   UNL A   1      39.299  30.372  30.803  1.00  0.00    -0.354 N 
ATOM     54  C   UNL A   1      39.126  32.639  34.478  1.00  0.00     0.074 A 
ATOM     55  C   UNL A   1      38.064  33.621  34.434  1.00  0.00     0.031 C 
ATOM     56  C   UNL A   1      38.706  29.812  28.720  1.00  0.00     0.029 A 
ATOM     57  C   UNL A   1      39.670  29.534  29.781  1.00  0.00     0.049 A 
ATOM     58  H   UNL A   1      39.765  30.404  31.670  1.00  0.00     0.167 HD
ATOM     59  C   UNL A   1      39.959  32.458  35.531  1.00  0.00     0.037 A 
ATOM     60  C   UNL A   1      40.677  28.644  29.703  1.00  0.00     0.037 A 
ATOM     61  C   UNL A   1      41.000  31.464  35.579  1.00  0.00     0.049 A 
ATOM     62  C   UNL A   1      41.583  28.458  30.890  1.00  0.00     0.074 A 
ATOM     63  C   UNL A   1      41.852  31.155  36.625  1.00  0.00     0.029 A 
ATOM     64  N   UNL A   1      41.333  30.618  34.531  1.00  0.00    -0.354 N 
ATOM     65  N   UNL A   1      41.562  29.067  32.050  1.00  0.00    -0.248 NA
ATOM     66  C   UNL A   1      42.646  27.453  30.756  1.00  0.00     0.031 C 
ATOM     67  C   UNL A   1      42.731  30.155  36.194  1.00  0.00     0.029 A 
ATOM     68  C   UNL A   1      42.393  29.804  34.897  1.00  0.00     0.049 A 
ATOM     69  H   UNL A   1      40.882  30.599  33.656  1.00  0.00     0.167 HD
ATOM     70  C   UNL A   1      42.591  28.504  32.793  1.00  0.00     0.074 A 
ATOM     71  C   UNL A   1      43.204  27.492  31.958  1.00  0.00     0.031 C 
ATOM     72  C   UNL A   1      42.992  28.801  34.054  1.00  0.00     0.037 A 
BRANCH  59  73
ATOM     73  C   UNL A   1      39.779  33.356  36.721  1.00  0.00     0.064 A 
ATOM     74  C   UNL A   1      40.488  34.561  36.850  1.00  0.00     0.173 A 
ATOM     75  C   UNL A   1      38.860  33.027  37.730  1.00  0.00     0.173 A 
ATOM     76  F   UNL A   1      41.385  34.918  35.918  1.00  0.00    -0.203 F 
ATOM     77  C   UNL A   1      40.307  35.385  37.957  1.00  0.00     0.198 A 
ATOM     78  C   UNL A   1      38.660  33.870  38.821  1.00  0.00     0.198 A 
ATOM     79  F   UNL A   1      38.151  31.891  37.655  1.00  0.00    -0.203 F 
ATOM     80  F   UNL A   1      41.033  36.505  38.082  1.00  0.00    -0.200 F 
ATOM     81  C   UNL A   1      39.389  35.043  38.937  1.00  0.00     0.200 A 
ATOM     82  F   UNL A   1      37.762  33.544  39.761  1.00  0.00    -0.200 F 
ATOM     83  F   UNL A   1      39.212  35.841  40.000  1.00  0.00    -0.200 F 
ENDBRANCH  59  73
BRANCH  60  84
ATOM     84  C   UNL A   1      40.861  27.842  28.466  1.00  0.00     0.064 A 
ATOM     85  C   UNL A   1      40.205  26.614  28.301  1.00  0.00     0.173 A 
ATOM     86  C   UNL A   1      41.688  28.286  27.424  1.00  0.00     0.173 A 
ATOM     87  F   UNL A   1      39.419  26.140  29.278  1.00  0.00    -0.203 F 
ATOM     88  C   UNL A   1      40.383  25.853  27.148  1.00  0.00     0.198 A 
ATOM     89  C   UNL A   1      41.843  27.537  26.260  1.00  0.00     0.198 A 
ATOM     90  F   UNL A   1      42.333  29.458  27.531  1.00  0.00    -0.203 F 
ATOM     91  F   UNL A   1      39.776  24.664  27.034  1.00  0.00    -0.200 F 
ATOM     92  C   UNL A   1      41.196  26.318  26.126  1.00  0.00     0.200 A 
ATOM     93  F   UNL A   1      42.617  27.997  25.268  1.00  0.00    -0.200 F 
ATOM     94  F   UNL A   1      41.361  25.588  25.014  1.00  0.00    -0.200 F 
ENDBRANCH  60  84
BRANCH  72  95
ATOM     95  C   UNL A   1      44.131  28.001  34.616  1.00  0.00     0.064 A 
ATOM     96  C   UNL A   1      43.917  26.795  35.301  1.00  0.00     0.173 A 
ATOM     97  C   UNL A   1      45.455  28.431  34.443  1.00  0.00     0.173 A 
ATOM     98  F   UNL A   1      42.668  26.349  35.508  1.00  0.00    -0.203 F 
ATOM     99  C   UNL A   1      44.985  26.065  35.817  1.00  0.00     0.198 A 
ATOM    100  C   UNL A   1      46.522  27.682  34.932  1.00  0.00     0.198 A 
ATOM    101  F   UNL A   1      45.715  29.574  33.790  1.00  0.00    -0.203 F 
ATOM    102  F   UNL A   1      44.753  24.943  36.513  1.00  0.00    -0.200 F 
ATOM    103  C   UNL A   1      46.286  26.506  35.626  1.00  0.00     0.200 A 
ATOM    104  F   UNL A   1      47.779  28.102  34.734  1.00  0.00    -0.200 F 
ATOM    105  F   UNL A   1      47.313  25.799  36.118  1.00  0.00    -0.200 F 
ENDBRANCH  72  95
ENDBRANCH  46  47
ENDBRANCH  38  41
ENDBRANCH  36  37
ENDBRANCH  35  36
ENDBRANCH   1  35
TORSDOF 16
ENDMDL
MODEL 3
REMARK VINA RESULT:     -13.7      1.403      7.027
REMARK SMILES COc1ccc(-c2ccc(/C=C3\SC(=S)N([C@H](Cc4ccccc4)C(=O)NCCCNC(=O)c4ccc(-c5c6nc(c(-c7c(F)c(F)c(F)c(F)c7F)c7ccc([nH]7)c(-c7c(F)c(F)c(F)c(F)c7F)c7nc(c(-c8c(F)c(F)c(F)c(F)c8F)c8ccc5[nH]8)C=C7)C=C6)cc4)C3=O)o2)cc1
REMARK SMILES IDX 28 1 27 2 25 3 26 4 17 6 16 7 11 8 12 9 13 10 97 11 14 12
REMARK SMILES IDX 98 13 15 14 10 15 7 16 8 17 99 18 9 19 6 20 3 21 4 22 101 23
REMARK SMILES IDX 5 24 100 25 2 26 1 27 18 28 19 29 20 30 24 31 21 32 23 33
REMARK SMILES IDX 22 34 29 35 30 36 31 37 32 38 33 40 34 41 35 42 96 43 36 44
REMARK SMILES IDX 95 45 37 46 38 47 39 48 89 49 40 50 94 51 88 52 90 53 41 54
REMARK SMILES IDX 93 55 87 56 86 57 42 59 74 60 54 61 73 62 55 63 58 64 72 65
REMARK SMILES IDX 91 66 56 67 57 68 71 70 92 71 59 72 43 73 44 74 52 75 45 76
REMARK SMILES IDX 46 77 50 78 53 79 47 80 48 81 51 82 49 83 75 84 76 85 84 86
REMARK SMILES IDX 77 87 78 88 82 89 85 90 79 91 80 92 83 93 81 94 60 95 61 96
REMARK SMILES IDX 69 97 62 98 63 99 67 100 70 101 64 102 65 103 68 104 66 105
REMARK H PARENT 27 5 31 39 90 58 58 69
REMARK Flexibility Score: inf
ROOT
ATOM      1  C   UNL A   1      31.407  30.325  26.041  1.00  0.00     0.117 C 
ENDROOT
BRANCH   1   2
ATOM      2  N   UNL A   1      32.306  30.071  24.939  1.00  0.00    -0.354 N 
ATOM      3  C   UNL A   1      32.403  29.035  24.071  1.00  0.00     0.243 C 
ATOM      4  O   UNL A   1      33.460  28.980  23.429  1.00  0.00    -0.273 OA
ATOM      5  H   UNL A   1      32.969  30.784  24.791  1.00  0.00     0.163 HD
BRANCH   3   6
ATOM      6  C   UNL A   1      31.382  27.877  23.979  1.00  0.00     0.185 C 
BRANCH   6   7
ATOM      7  N   UNL A   1      31.885  26.585  24.527  1.00  0.00    -0.280 N 
ATOM      8  C   UNL A   1      33.785  23.686  23.477  1.00  0.00     0.068 C 
ATOM      9  C   UNL A   1      33.012  24.521  24.182  1.00  0.00     0.084 C 
ATOM     10  S   UNL A   1      32.634  24.488  25.846  1.00  0.00    -0.054 SA
ATOM     11  C   UNL A   1      32.431  25.735  23.562  1.00  0.00     0.267 C 
ATOM     12  C   UNL A   1      31.962  26.119  25.826  1.00  0.00     0.149 C 
ATOM     13  O   UNL A   1      32.455  25.936  22.358  1.00  0.00    -0.268 OA
ATOM     14  S   UNL A   1      31.555  26.823  27.284  1.00  0.00    -0.052 S 
BRANCH   8  15
ATOM     15  C   UNL A   1      34.434  22.553  24.035  1.00  0.00     0.128 A 
ATOM     16  C   UNL A   1      34.712  20.430  24.628  1.00  0.00     0.134 A 
ATOM     17  C   UNL A   1      35.839  21.092  25.053  1.00  0.00     0.051 A 
ATOM     18  O   UNL A   1      33.858  21.301  24.025  1.00  0.00    -0.457 OA
ATOM     19  C   UNL A   1      35.661  22.444  24.680  1.00  0.00     0.051 A 
BRANCH  16  20
ATOM     20  C   UNL A   1      34.265  19.054  24.725  1.00  0.00     0.017 A 
ATOM     21  C   UNL A   1      33.412  16.382  24.846  1.00  0.00     0.118 A 
ATOM     22  C   UNL A   1      32.525  17.416  25.143  1.00  0.00     0.047 A 
ATOM     23  C   UNL A   1      34.719  16.680  24.463  1.00  0.00     0.047 A 
ATOM     24  C   UNL A   1      32.953  18.747  25.100  1.00  0.00     0.016 A 
ATOM     25  C   UNL A   1      35.141  18.011  24.400  1.00  0.00     0.016 A 
BRANCH  21  26
ATOM     26  O   UNL A   1      32.899  15.115  24.901  1.00  0.00    -0.497 OA
ATOM     27  C   UNL A   1      32.160  14.837  26.088  1.00  0.00     0.278 C 
ENDBRANCH  21  26
ENDBRANCH  16  20
ENDBRANCH   8  15
ENDBRANCH   6   7
BRANCH   6  28
ATOM     28  C   UNL A   1      30.688  27.936  22.605  1.00  0.00     0.071 C 
BRANCH  28  29
ATOM     29  C   UNL A   1      29.580  28.961  22.459  1.00  0.00    -0.045 A 
ATOM     30  C   UNL A   1      29.814  30.079  21.640  1.00  0.00     0.004 A 
ATOM     31  C   UNL A   1      28.339  28.862  23.105  1.00  0.00     0.004 A 
ATOM     32  C   UNL A   1      28.861  31.091  21.516  1.00  0.00     0.000 A 
ATOM     33  C   UNL A   1      27.385  29.875  22.980  1.00  0.00     0.000 A 
ATOM     34  C   UNL A   1      27.650  30.994  22.195  1.00  0.00     0.000 A 
ENDBRANCH  28  29
ENDBRANCH   6  28
ENDBRANCH   3   6
ENDBRANCH   1   2
BRANCH   1  35
ATOM     35  C   UNL A   1      31.331  31.806  26.393  1.00  0.00     0.042 C 
BRANCH  35  36
ATOM     36  C   UNL A   1      32.655  32.399  26.874  1.00  0.00     0.118 C 
BRANCH  36  37
ATOM     37  N   UNL A   1      32.514  33.767  27.353  1.00  0.00    -0.352 N 
ATOM     38  C   UNL A   1      33.125  34.421  28.391  1.00  0.00     0.251 C 
ATOM     39  H   UNL A   1      31.873  34.314  26.845  1.00  0.00     0.163 HD
ATOM     40  O   UNL A   1      32.696  35.514  28.751  1.00  0.00    -0.269 OA
BRANCH  38  41
ATOM     41  C   UNL A   1      34.284  33.825  29.091  1.00  0.00     0.039 A 
ATOM     42  C   UNL A   1      34.048  32.881  30.094  1.00  0.00     0.014 A 
ATOM     43  C   UNL A   1      35.592  34.224  28.803  1.00  0.00     0.014 A 
ATOM     44  C   UNL A   1      35.123  32.291  30.761  1.00  0.00     0.010 A 
ATOM     45  C   UNL A   1      36.666  33.578  29.412  1.00  0.00     0.010 A 
ATOM     46  C   UNL A   1      36.443  32.607  30.399  1.00  0.00    -0.014 A 
BRANCH  46  47
ATOM     47  C   UNL A   1      37.597  31.920  31.033  1.00  0.00     0.031 A 
ATOM     48  C   UNL A   1      38.047  32.301  32.416  1.00  0.00     0.074 A 
ATOM     49  C   UNL A   1      38.280  30.996  30.332  1.00  0.00     0.049 A 
ATOM     50  N   UNL A   1      39.063  31.850  33.109  1.00  0.00    -0.248 NA
ATOM     51  C   UNL A   1      37.271  33.345  33.101  1.00  0.00     0.031 C 
ATOM     52  C   UNL A   1      37.976  30.582  28.961  1.00  0.00     0.029 A 
ATOM     53  N   UNL A   1      39.377  30.244  30.669  1.00  0.00    -0.354 N 
ATOM     54  C   UNL A   1      39.055  32.565  34.300  1.00  0.00     0.074 A 
ATOM     55  C   UNL A   1      37.968  33.515  34.215  1.00  0.00     0.031 C 
ATOM     56  C   UNL A   1      38.849  29.634  28.583  1.00  0.00     0.029 A 
ATOM     57  C   UNL A   1      39.795  29.400  29.670  1.00  0.00     0.049 A 
ATOM     58  H   UNL A   1      39.822  30.303  31.546  1.00  0.00     0.167 HD
ATOM     59  C   UNL A   1      39.868  32.424  35.376  1.00  0.00     0.037 A 
ATOM     60  C   UNL A   1      40.827  28.537  29.631  1.00  0.00     0.037 A 
ATOM     61  C   UNL A   1      40.934  31.460  35.464  1.00  0.00     0.049 A 
ATOM     62  C   UNL A   1      41.710  28.395  30.841  1.00  0.00     0.074 A 
ATOM     63  C   UNL A   1      41.768  31.192  36.535  1.00  0.00     0.029 A 
ATOM     64  N   UNL A   1      41.314  30.607  34.438  1.00  0.00    -0.354 N 
ATOM     65  N   UNL A   1      41.645  29.022  31.990  1.00  0.00    -0.248 NA
ATOM     66  C   UNL A   1      42.803  27.419  30.749  1.00  0.00     0.031 C 
ATOM     67  C   UNL A   1      42.685  30.210  36.141  1.00  0.00     0.029 A 
ATOM     68  C   UNL A   1      42.388  29.829  34.843  1.00  0.00     0.049 A 
ATOM     69  H   UNL A   1      40.885  30.561  33.553  1.00  0.00     0.167 HD
ATOM     70  C   UNL A   1      42.670  28.501  32.766  1.00  0.00     0.074 A 
ATOM     71  C   UNL A   1      43.331  27.493  31.963  1.00  0.00     0.031 C 
ATOM     72  C   UNL A   1      43.034  28.829  34.032  1.00  0.00     0.037 A 
BRANCH  59  73
ATOM     73  C   UNL A   1      39.634  33.336  36.546  1.00  0.00     0.064 A 
ATOM     74  C   UNL A   1      38.768  32.984  37.593  1.00  0.00     0.173 A 
ATOM     75  C   UNL A   1      40.311  34.561  36.641  1.00  0.00     0.173 A 
ATOM     76  F   UNL A   1      38.088  31.827  37.546  1.00  0.00    -0.203 F 
ATOM     77  C   UNL A   1      38.564  33.837  38.673  1.00  0.00     0.198 A 
ATOM     78  C   UNL A   1      40.128  35.399  37.739  1.00  0.00     0.198 A 
ATOM     79  F   UNL A   1      41.156  34.945  35.672  1.00  0.00    -0.203 F 
ATOM     80  F   UNL A   1      37.692  33.502  39.635  1.00  0.00    -0.200 F 
ATOM     81  C   UNL A   1      39.249  35.040  38.749  1.00  0.00     0.200 A 
ATOM     82  F   UNL A   1      40.802  36.555  37.817  1.00  0.00    -0.200 F 
ATOM     83  F   UNL A   1      39.056  35.858  39.793  1.00  0.00    -0.200 F 
ENDBRANCH  59  73
BRANCH  60  84
ATOM     84  C   UNL A   1      41.063  27.721  28.412  1.00  0.00     0.064 A 
ATOM     85  C   UNL A   1      41.943  28.160  27.412  1.00  0.00     0.173 A 
ATOM     86  C   UNL A   1      40.423  26.488  28.224  1.00  0.00     0.173 A 
ATOM     87  F   UNL A   1      42.563  29.342  27.539  1.00  0.00    -0.203 F 
ATOM     88  C   UNL A   1      42.159  27.404  26.263  1.00  0.00     0.198 A 
ATOM     89  C   UNL A   1      40.663  25.720  27.086  1.00  0.00     0.198 A 
ATOM     90  F   UNL A   1      39.577  26.020  29.154  1.00  0.00    -0.203 F 
ATOM     91  F   UNL A   1      42.973  27.867  25.304  1.00  0.00    -0.200 F 
ATOM     92  C   UNL A   1      41.525  26.182  26.104  1.00  0.00     0.200 A 
ATOM     93  F   UNL A   1      40.059  24.532  26.944  1.00  0.00    -0.200 F 
ATOM     94  F   UNL A   1      41.739  25.452  25.000  1.00  0.00    -0.200 F 
ENDBRANCH  60  84
BRANCH  72  95
ATOM     95  C   UNL A   1      44.180  28.070  34.633  1.00  0.00     0.064 A 
ATOM     96  C   UNL A   1      45.499  28.542  34.553  1.00  0.00     0.173 A 
ATOM     97  C   UNL A   1      43.953  26.870  35.323  1.00  0.00     0.173 A 
ATOM     98  F   UNL A   1      45.771  29.676  33.889  1.00  0.00    -0.203 F 
ATOM     99  C   UNL A   1      46.552  27.826  35.117  1.00  0.00     0.198 A 
ATOM    100  C   UNL A   1      45.004  26.172  35.913  1.00  0.00     0.198 A 
ATOM    101  F   UNL A   1      42.710  26.377  35.434  1.00  0.00    -0.203 F 
ATOM    102  F   UNL A   1      47.809  28.269  34.983  1.00  0.00    -0.200 F 
ATOM    103  C   UNL A   1      46.302  26.645  35.802  1.00  0.00     0.200 A 
ATOM    104  F   UNL A   1      44.760  25.039  36.586  1.00  0.00    -0.200 F 
ATOM    105  F   UNL A   1      47.316  25.959  36.348  1.00  0.00    -0.200 F 
ENDBRANCH  72  95
ENDBRANCH  46  47
ENDBRANCH  38  41
ENDBRANCH  36  37
ENDBRANCH  35  36
ENDBRANCH   1  35
TORSDOF 16
ENDMDL
