MODEL 1
REMARK VINA RESULT:     -13.3      0.000      0.000
REMARK SMILES CC(C)(C)OC(=O)N1CCC2(CC1)CNc1ccc(C(=O)NCCCNC(=O)c3ccc(-c4c5nc(c(-c6c(F)c(F)c(F)c(F)c6F)c6ccc([nH]6)c(-c6c(F)c(F)c(F)c(F)c6F)c6nc(c(-c7c(F)c(F)c(F)c(F)c7F)c7ccc4[nH]7)C=C6)C=C5)cc3)cc12
REMARK SMILES IDX 24 1 23 2 22 3 20 4 21 5 19 7 6 8 7 9 8 10 9 11 13 12 10 13
REMARK SMILES IDX 12 14 11 15 14 16 93 17 15 18 16 19 92 20 17 22 18 23 5 24
REMARK SMILES IDX 2 25 1 26 3 27 4 28 25 29 26 30 27 31 28 33 29 34 30 35
REMARK SMILES IDX 91 36 31 37 90 38 32 39 33 40 34 41 84 42 35 43 89 44 83 45
REMARK SMILES IDX 85 46 36 47 88 48 82 49 81 50 37 52 69 53 49 54 68 55 50 56
REMARK SMILES IDX 53 57 67 58 86 59 51 60 52 61 66 63 87 64 54 65 38 66 39 67
REMARK SMILES IDX 47 68 40 69 41 70 45 71 48 72 42 73 43 74 46 75 44 76 70 77
REMARK SMILES IDX 71 78 79 79 72 80 73 81 77 82 80 83 74 84 75 85 78 86 76 87
REMARK SMILES IDX 55 88 56 89 64 90 57 91 58 92 62 93 65 94 59 95 60 96 63 97
REMARK SMILES IDX 61 98
REMARK H PARENT 22 6 15 21 26 32 85 51 53 62
REMARK Flexibility Score: inf
ROOT
ATOM      1  C   UNL A   1      31.457  32.052  26.563  1.00  0.00     0.042 C 
ENDROOT
BRANCH   1   2
ATOM      2  C   UNL A   1      31.609  30.546  26.360  1.00  0.00     0.118 C 
BRANCH   2   3
ATOM      3  N   UNL A   1      32.667  30.254  25.410  1.00  0.00    -0.352 N 
ATOM      4  C   UNL A   1      32.839  29.279  24.463  1.00  0.00     0.251 C 
ATOM      5  O   UNL A   1      33.873  29.341  23.794  1.00  0.00    -0.269 OA
ATOM      6  H   UNL A   1      33.418  30.889  25.457  1.00  0.00     0.163 HD
BRANCH   4   7
ATOM      7  C   UNL A   1      31.852  28.198  24.169  1.00  0.00     0.040 A 
ATOM      8  C   UNL A   1      34.471  21.353  25.232  1.00  0.00     0.410 C 
ATOM      9  O   UNL A   1      34.374  20.727  26.274  1.00  0.00    -0.224 OA
ATOM     10  N   UNL A   1      33.422  22.068  24.678  1.00  0.00    -0.308 N 
ATOM     11  C   UNL A   1      32.277  22.378  25.516  1.00  0.00     0.124 C 
ATOM     12  C   UNL A   1      33.344  22.463  23.278  1.00  0.00     0.124 C 
ATOM     13  C   UNL A   1      31.974  23.874  25.443  1.00  0.00     0.035 C 
ATOM     14  C   UNL A   1      32.969  23.936  23.120  1.00  0.00     0.035 C 
ATOM     15  C   UNL A   1      31.755  24.332  23.985  1.00  0.00     0.018 C 
ATOM     16  C   UNL A   1      30.400  23.764  23.430  1.00  0.00     0.124 C 
ATOM     17  C   UNL A   1      31.485  25.819  23.937  1.00  0.00    -0.016 A 
ATOM     18  N   UNL A   1      29.486  24.885  23.256  1.00  0.00    -0.384 N 
ATOM     19  C   UNL A   1      30.152  26.044  23.608  1.00  0.00     0.038 A 
ATOM     20  C   UNL A   1      32.342  26.879  24.210  1.00  0.00     0.020 A 
ATOM     21  H   UNL A   1      28.555  24.828  22.942  1.00  0.00     0.160 HD
ATOM     22  C   UNL A   1      29.644  27.325  23.583  1.00  0.00     0.027 A 
ATOM     23  C   UNL A   1      30.488  28.400  23.901  1.00  0.00     0.016 A 
BRANCH   8  24
ATOM     24  O   UNL A   1      35.622  21.495  24.522  1.00  0.00    -0.444 OA
BRANCH  24  25
ATOM     25  C   UNL A   1      36.590  22.512  24.893  1.00  0.00     0.106 C 
ATOM     26  C   UNL A   1      36.881  23.273  23.590  1.00  0.00     0.056 C 
ATOM     27  C   UNL A   1      37.876  21.845  25.386  1.00  0.00     0.056 C 
ATOM     28  C   UNL A   1      36.047  23.525  25.913  1.00  0.00     0.056 C 
ENDBRANCH  24  25
ENDBRANCH   8  24
ENDBRANCH   4   7
ENDBRANCH   2   3
ENDBRANCH   1   2
BRANCH   1  29
ATOM     29  C   UNL A   1      32.680  32.698  27.209  1.00  0.00     0.118 C 
BRANCH  29  30
ATOM     30  N   UNL A   1      32.430  34.076  27.617  1.00  0.00    -0.352 N 
ATOM     31  C   UNL A   1      33.018  34.824  28.610  1.00  0.00     0.251 C 
ATOM     32  H   UNL A   1      31.734  34.542  27.101  1.00  0.00     0.163 HD
ATOM     33  O   UNL A   1      32.538  35.910  28.921  1.00  0.00    -0.269 OA
BRANCH  31  34
ATOM     34  C   UNL A   1      34.207  34.315  29.327  1.00  0.00     0.039 A 
ATOM     35  C   UNL A   1      35.495  34.587  28.864  1.00  0.00     0.014 A 
ATOM     36  C   UNL A   1      34.029  33.558  30.490  1.00  0.00     0.014 A 
ATOM     37  C   UNL A   1      36.588  33.963  29.457  1.00  0.00     0.010 A 
ATOM     38  C   UNL A   1      35.137  33.000  31.135  1.00  0.00     0.010 A 
ATOM     39  C   UNL A   1      36.423  33.155  30.593  1.00  0.00    -0.014 A 
BRANCH  39  40
ATOM     40  C   UNL A   1      37.604  32.470  31.182  1.00  0.00     0.031 A 
ATOM     41  C   UNL A   1      38.065  32.803  32.576  1.00  0.00     0.074 A 
ATOM     42  C   UNL A   1      38.226  31.503  30.480  1.00  0.00     0.049 A 
ATOM     43  N   UNL A   1      39.061  32.293  33.259  1.00  0.00    -0.248 NA
ATOM     44  C   UNL A   1      37.319  33.844  33.299  1.00  0.00     0.031 C 
ATOM     45  C   UNL A   1      37.872  31.092  29.120  1.00  0.00     0.029 A 
ATOM     46  N   UNL A   1      39.272  30.680  30.814  1.00  0.00    -0.354 N 
ATOM     47  C   UNL A   1      39.072  32.963  34.475  1.00  0.00     0.074 A 
ATOM     48  C   UNL A   1      38.001  33.934  34.433  1.00  0.00     0.031 C 
ATOM     49  C   UNL A   1      38.653  30.065  28.754  1.00  0.00     0.029 A 
ATOM     50  C   UNL A   1      39.602  29.783  29.827  1.00  0.00     0.049 A 
ATOM     51  H   UNL A   1      39.739  30.726  31.679  1.00  0.00     0.167 HD
ATOM     52  C   UNL A   1      39.892  32.774  35.536  1.00  0.00     0.037 A 
ATOM     53  C   UNL A   1      40.571  28.849  29.782  1.00  0.00     0.037 A 
ATOM     54  C   UNL A   1      40.931  31.778  35.592  1.00  0.00     0.049 A 
ATOM     55  C   UNL A   1      41.477  28.673  30.967  1.00  0.00     0.074 A 
ATOM     56  C   UNL A   1      41.779  31.480  36.644  1.00  0.00     0.029 A 
ATOM     57  N   UNL A   1      41.257  30.916  34.557  1.00  0.00    -0.354 N 
ATOM     58  N   UNL A   1      41.459  29.299  32.120  1.00  0.00    -0.248 NA
ATOM     59  C   UNL A   1      42.543  27.668  30.847  1.00  0.00     0.031 C 
ATOM     60  C   UNL A   1      42.651  30.469  36.229  1.00  0.00     0.029 A 
ATOM     61  C   UNL A   1      42.315  30.103  34.937  1.00  0.00     0.049 A 
ATOM     62  H   UNL A   1      40.807  30.885  33.682  1.00  0.00     0.167 HD
ATOM     63  C   UNL A   1      42.501  28.761  32.861  1.00  0.00     0.074 A 
ATOM     64  C   UNL A   1      43.116  27.739  32.041  1.00  0.00     0.031 C 
ATOM     65  C   UNL A   1      42.917  29.092  34.107  1.00  0.00     0.037 A 
BRANCH  52  66
ATOM     66  C   UNL A   1      39.716  33.655  36.737  1.00  0.00     0.064 A 
ATOM     67  C   UNL A   1      40.317  34.919  36.816  1.00  0.00     0.173 A 
ATOM     68  C   UNL A   1      38.853  33.271  37.775  1.00  0.00     0.173 A 
ATOM     69  F   UNL A   1      41.158  35.328  35.854  1.00  0.00    -0.203 F 
ATOM     70  C   UNL A   1      40.063  35.766  37.892  1.00  0.00     0.198 A 
ATOM     71  C   UNL A   1      38.582  34.130  38.837  1.00  0.00     0.198 A 
ATOM     72  F   UNL A   1      38.247  32.075  37.743  1.00  0.00    -0.203 F 
ATOM     73  F   UNL A   1      40.664  36.963  37.958  1.00  0.00    -0.200 F 
ATOM     74  C   UNL A   1      39.187  35.376  38.895  1.00  0.00     0.200 A 
ATOM     75  F   UNL A   1      37.725  33.757  39.797  1.00  0.00    -0.200 F 
ATOM     76  F   UNL A   1      38.926  36.202  39.917  1.00  0.00    -0.200 F 
ENDBRANCH  52  66
BRANCH  53  77
ATOM     77  C   UNL A   1      40.732  28.017  28.561  1.00  0.00     0.064 A 
ATOM     78  C   UNL A   1      40.089  26.778  28.439  1.00  0.00     0.173 A 
ATOM     79  C   UNL A   1      41.517  28.455  27.485  1.00  0.00     0.173 A 
ATOM     80  F   UNL A   1      39.346  26.306  29.450  1.00  0.00    -0.203 F 
ATOM     81  C   UNL A   1      40.232  26.005  27.288  1.00  0.00     0.198 A 
ATOM     82  C   UNL A   1      41.634  27.695  26.323  1.00  0.00     0.198 A 
ATOM     83  F   UNL A   1      42.151  29.635  27.551  1.00  0.00    -0.203 F 
ATOM     84  F   UNL A   1      39.636  24.807  27.210  1.00  0.00    -0.200 F 
ATOM     85  C   UNL A   1      40.997  26.469  26.228  1.00  0.00     0.200 A 
ATOM     86  F   UNL A   1      42.362  28.155  25.295  1.00  0.00    -0.200 F 
ATOM     87  F   UNL A   1      41.124  25.730  25.117  1.00  0.00    -0.200 F 
ENDBRANCH  53  77
BRANCH  65  88
ATOM     88  C   UNL A   1      44.091  28.346  34.668  1.00  0.00     0.064 A 
ATOM     89  C   UNL A   1      45.396  28.841  34.542  1.00  0.00     0.173 A 
ATOM     90  C   UNL A   1      43.901  27.164  35.399  1.00  0.00     0.173 A 
ATOM     91  F   UNL A   1      45.629  29.962  33.842  1.00  0.00    -0.203 F 
ATOM     92  C   UNL A   1      46.472  28.172  35.119  1.00  0.00     0.198 A 
ATOM     93  C   UNL A   1      44.975  26.513  35.997  1.00  0.00     0.198 A 
ATOM     94  F   UNL A   1      42.669  26.654  35.555  1.00  0.00    -0.203 F 
ATOM     95  F   UNL A   1      47.715  28.646  34.960  1.00  0.00    -0.200 F 
ATOM     96  C   UNL A   1      46.260  27.015  35.853  1.00  0.00     0.200 A 
ATOM     97  F   UNL A   1      44.767  25.403  36.719  1.00  0.00    -0.200 F 
ATOM     98  F   UNL A   1      47.295  26.382  36.421  1.00  0.00    -0.200 F 
ENDBRANCH  65  88
ENDBRANCH  39  40
ENDBRANCH  31  34
ENDBRANCH  29  30
ENDBRANCH   1  29
TORSDOF 12
ENDMDL
MODEL 2
REMARK VINA RESULT:     -13.3      0.570      7.163
REMARK SMILES CC(C)(C)OC(=O)N1CCC2(CC1)CNc1ccc(C(=O)NCCCNC(=O)c3ccc(-c4c5nc(c(-c6c(F)c(F)c(F)c(F)c6F)c6ccc([nH]6)c(-c6c(F)c(F)c(F)c(F)c6F)c6nc(c(-c7c(F)c(F)c(F)c(F)c7F)c7ccc4[nH]7)C=C6)C=C5)cc3)cc12
REMARK SMILES IDX 24 1 23 2 22 3 20 4 21 5 19 7 6 8 7 9 8 10 9 11 13 12 10 13
REMARK SMILES IDX 12 14 11 15 14 16 93 17 15 18 16 19 92 20 17 22 18 23 5 24
REMARK SMILES IDX 2 25 1 26 3 27 4 28 25 29 26 30 27 31 28 33 29 34 30 35
REMARK SMILES IDX 91 36 31 37 90 38 32 39 33 40 34 41 84 42 35 43 89 44 83 45
REMARK SMILES IDX 85 46 36 47 88 48 82 49 81 50 37 52 69 53 49 54 68 55 50 56
REMARK SMILES IDX 53 57 67 58 86 59 51 60 52 61 66 63 87 64 54 65 38 66 39 67
REMARK SMILES IDX 47 68 40 69 41 70 45 71 48 72 42 73 43 74 46 75 44 76 70 77
REMARK SMILES IDX 71 78 79 79 72 80 73 81 77 82 80 83 74 84 75 85 78 86 76 87
REMARK SMILES IDX 55 88 56 89 64 90 57 91 58 92 62 93 65 94 59 95 60 96 63 97
REMARK SMILES IDX 61 98
REMARK H PARENT 22 6 15 21 26 32 85 51 53 62
REMARK Flexibility Score: inf
ROOT
ATOM      1  C   UNL A   1      31.521  32.049  26.603  1.00  0.00     0.042 C 
ENDROOT
BRANCH   1   2
ATOM      2  C   UNL A   1      31.700  30.547  26.391  1.00  0.00     0.118 C 
BRANCH   2   3
ATOM      3  N   UNL A   1      32.727  30.281  25.399  1.00  0.00    -0.352 N 
ATOM      4  C   UNL A   1      32.874  29.324  24.429  1.00  0.00     0.251 C 
ATOM      5  O   UNL A   1      33.883  29.407  23.726  1.00  0.00    -0.269 OA
ATOM      6  H   UNL A   1      33.474  30.921  25.432  1.00  0.00     0.163 HD
BRANCH   4   7
ATOM      7  C   UNL A   1      31.885  28.240  24.151  1.00  0.00     0.040 A 
ATOM      8  C   UNL A   1      34.511  21.407  25.272  1.00  0.00     0.410 C 
ATOM      9  O   UNL A   1      34.418  20.791  26.320  1.00  0.00    -0.224 OA
ATOM     10  N   UNL A   1      33.459  22.116  24.715  1.00  0.00    -0.308 N 
ATOM     11  C   UNL A   1      32.317  22.434  25.555  1.00  0.00     0.124 C 
ATOM     12  C   UNL A   1      33.375  22.497  23.311  1.00  0.00     0.124 C 
ATOM     13  C   UNL A   1      32.014  23.929  25.468  1.00  0.00     0.035 C 
ATOM     14  C   UNL A   1      32.999  23.968  23.141  1.00  0.00     0.035 C 
ATOM     15  C   UNL A   1      31.789  24.372  24.007  1.00  0.00     0.018 C 
ATOM     16  C   UNL A   1      30.432  23.799  23.463  1.00  0.00     0.124 C 
ATOM     17  C   UNL A   1      31.518  25.859  23.944  1.00  0.00    -0.016 A 
ATOM     18  N   UNL A   1      29.517  24.918  23.282  1.00  0.00    -0.384 N 
ATOM     19  C   UNL A   1      30.184  26.080  23.619  1.00  0.00     0.038 A 
ATOM     20  C   UNL A   1      32.376  26.922  24.203  1.00  0.00     0.020 A 
ATOM     21  H   UNL A   1      28.585  24.858  22.972  1.00  0.00     0.160 HD
ATOM     22  C   UNL A   1      29.676  27.361  23.583  1.00  0.00     0.027 A 
ATOM     23  C   UNL A   1      30.520  28.439  23.886  1.00  0.00     0.016 A 
BRANCH   8  24
ATOM     24  O   UNL A   1      35.658  21.542  24.555  1.00  0.00    -0.444 OA
BRANCH  24  25
ATOM     25  C   UNL A   1      36.613  22.583  24.892  1.00  0.00     0.106 C 
ATOM     26  C   UNL A   1      36.904  23.296  23.563  1.00  0.00     0.056 C 
ATOM     27  C   UNL A   1      37.903  21.950  25.419  1.00  0.00     0.056 C 
ATOM     28  C   UNL A   1      36.053  23.629  25.869  1.00  0.00     0.056 C 
ENDBRANCH  24  25
ENDBRANCH   8  24
ENDBRANCH   4   7
ENDBRANCH   2   3
ENDBRANCH   1   2
BRANCH   1  29
ATOM     29  C   UNL A   1      32.734  32.714  27.246  1.00  0.00     0.118 C 
BRANCH  29  30
ATOM     30  N   UNL A   1      32.483  34.107  27.597  1.00  0.00    -0.352 N 
ATOM     31  C   UNL A   1      33.018  34.876  28.604  1.00  0.00     0.251 C 
ATOM     32  H   UNL A   1      31.831  34.569  27.023  1.00  0.00     0.163 HD
ATOM     33  O   UNL A   1      32.539  35.978  28.851  1.00  0.00    -0.269 OA
BRANCH  31  34
ATOM     34  C   UNL A   1      34.150  34.370  29.411  1.00  0.00     0.039 A 
ATOM     35  C   UNL A   1      35.464  34.486  28.957  1.00  0.00     0.014 A 
ATOM     36  C   UNL A   1      33.889  33.775  30.650  1.00  0.00     0.014 A 
ATOM     37  C   UNL A   1      36.493  33.859  29.653  1.00  0.00     0.010 A 
ATOM     38  C   UNL A   1      34.937  33.218  31.391  1.00  0.00     0.010 A 
ATOM     39  C   UNL A   1      36.242  33.209  30.872  1.00  0.00    -0.014 A 
BRANCH  39  40
ATOM     40  C   UNL A   1      37.354  32.514  31.573  1.00  0.00     0.031 A 
ATOM     41  C   UNL A   1      38.095  31.386  30.903  1.00  0.00     0.074 A 
ATOM     42  C   UNL A   1      37.735  32.939  32.793  1.00  0.00     0.049 A 
ATOM     43  N   UNL A   1      39.102  30.680  31.354  1.00  0.00    -0.248 NA
ATOM     44  C   UNL A   1      37.648  30.996  29.557  1.00  0.00     0.031 C 
ATOM     45  C   UNL A   1      37.095  34.021  33.543  1.00  0.00     0.029 A 
ATOM     46  N   UNL A   1      38.759  32.529  33.609  1.00  0.00    -0.354 N 
ATOM     47  C   UNL A   1      39.393  29.754  30.360  1.00  0.00     0.074 A 
ATOM     48  C   UNL A   1      38.443  29.968  29.291  1.00  0.00     0.031 C 
ATOM     49  C   UNL A   1      37.768  34.221  34.686  1.00  0.00     0.029 A 
ATOM     50  C   UNL A   1      38.849  33.244  34.779  1.00  0.00     0.049 A 
ATOM     51  H   UNL A   1      39.371  31.794  33.378  1.00  0.00     0.167 HD
ATOM     52  C   UNL A   1      40.373  28.820  30.338  1.00  0.00     0.037 A 
ATOM     53  C   UNL A   1      39.696  33.119  35.818  1.00  0.00     0.037 A 
ATOM     54  C   UNL A   1      41.344  28.636  31.385  1.00  0.00     0.049 A 
ATOM     55  C   UNL A   1      40.763  32.062  35.772  1.00  0.00     0.074 A 
ATOM     56  C   UNL A   1      42.405  27.748  31.426  1.00  0.00     0.029 A 
ATOM     57  N   UNL A   1      41.377  29.355  32.569  1.00  0.00    -0.354 N 
ATOM     58  N   UNL A   1      41.040  31.210  34.815  1.00  0.00    -0.248 NA
ATOM     59  C   UNL A   1      41.633  31.943  36.951  1.00  0.00     0.031 C 
ATOM     60  C   UNL A   1      43.052  27.897  32.657  1.00  0.00     0.029 A 
ATOM     61  C   UNL A   1      42.425  28.911  33.361  1.00  0.00     0.049 A 
ATOM     62  H   UNL A   1      40.749  30.074  32.813  1.00  0.00     0.167 HD
ATOM     63  C   UNL A   1      42.115  30.461  35.271  1.00  0.00     0.074 A 
ATOM     64  C   UNL A   1      42.459  30.975  36.580  1.00  0.00     0.031 C 
ATOM     65  C   UNL A   1      42.753  29.432  34.663  1.00  0.00     0.037 A 
BRANCH  52  66
ATOM     66  C   UNL A   1      40.462  27.912  29.147  1.00  0.00     0.064 A 
ATOM     67  C   UNL A   1      39.682  26.751  29.048  1.00  0.00     0.173 A 
ATOM     68  C   UNL A   1      41.262  28.263  28.048  1.00  0.00     0.173 A 
ATOM     69  F   UNL A   1      38.910  26.367  30.075  1.00  0.00    -0.203 F 
ATOM     70  C   UNL A   1      39.702  25.972  27.894  1.00  0.00     0.198 A 
ATOM     71  C   UNL A   1      41.260  27.496  26.886  1.00  0.00     0.198 A 
ATOM     72  F   UNL A   1      42.021  29.368  28.089  1.00  0.00    -0.203 F 
ATOM     73  F   UNL A   1      38.964  24.855  27.828  1.00  0.00    -0.200 F 
ATOM     74  C   UNL A   1      40.482  26.351  26.810  1.00  0.00     0.200 A 
ATOM     75  F   UNL A   1      42.003  27.871  25.836  1.00  0.00    -0.200 F 
ATOM     76  F   UNL A   1      40.481  25.613  25.692  1.00  0.00    -0.200 F 
ENDBRANCH  52  66
BRANCH  53  77
ATOM     77  C   UNL A   1      39.555  34.018  36.992  1.00  0.00     0.064 A 
ATOM     78  C   UNL A   1      38.804  33.636  38.111  1.00  0.00     0.173 A 
ATOM     79  C   UNL A   1      40.185  35.271  37.026  1.00  0.00     0.173 A 
ATOM     80  F   UNL A   1      38.165  32.457  38.118  1.00  0.00    -0.203 F 
ATOM     81  C   UNL A   1      38.683  34.476  39.217  1.00  0.00     0.198 A 
ATOM     82  C   UNL A   1      40.088  36.097  38.144  1.00  0.00     0.198 A 
ATOM     83  F   UNL A   1      40.918  35.683  35.981  1.00  0.00    -0.203 F 
ATOM     84  F   UNL A   1      37.929  34.101  40.260  1.00  0.00    -0.200 F 
ATOM     85  C   UNL A   1      39.332  35.701  39.235  1.00  0.00     0.200 A 
ATOM     86  F   UNL A   1      40.731  37.273  38.163  1.00  0.00    -0.200 F 
ATOM     87  F   UNL A   1      39.225  36.503  40.304  1.00  0.00    -0.200 F 
ENDBRANCH  53  77
BRANCH  65  88
ATOM     88  C   UNL A   1      43.890  28.789  35.399  1.00  0.00     0.064 A 
ATOM     89  C   UNL A   1      45.209  29.235  35.232  1.00  0.00     0.173 A 
ATOM     90  C   UNL A   1      43.651  27.771  36.333  1.00  0.00     0.173 A 
ATOM     91  F   UNL A   1      45.489  30.198  34.341  1.00  0.00    -0.203 F 
ATOM     92  C   UNL A   1      46.250  28.672  35.965  1.00  0.00     0.198 A 
ATOM     93  C   UNL A   1      44.691  27.230  37.084  1.00  0.00     0.198 A 
ATOM     94  F   UNL A   1      42.404  27.316  36.535  1.00  0.00    -0.203 F 
ATOM     95  F   UNL A   1      47.508  29.091  35.767  1.00  0.00    -0.200 F 
ATOM     96  C   UNL A   1      45.989  27.679  36.897  1.00  0.00     0.200 A 
ATOM     97  F   UNL A   1      44.434  26.281  37.994  1.00  0.00    -0.200 F 
ATOM     98  F   UNL A   1      46.990  27.151  37.614  1.00  0.00    -0.200 F 
ENDBRANCH  65  88
ENDBRANCH  39  40
ENDBRANCH  31  34
ENDBRANCH  29  30
ENDBRANCH   1  29
TORSDOF 12
ENDMDL
MODEL 3
REMARK VINA RESULT:     -13.2      4.901     10.483
REMARK SMILES CC(C)(C)OC(=O)N1CCC2(CC1)CNc1ccc(C(=O)NCCCNC(=O)c3ccc(-c4c5nc(c(-c6c(F)c(F)c(F)c(F)c6F)c6ccc([nH]6)c(-c6c(F)c(F)c(F)c(F)c6F)c6nc(c(-c7c(F)c(F)c(F)c(F)c7F)c7ccc4[nH]7)C=C6)C=C5)cc3)cc12
REMARK SMILES IDX 24 1 23 2 22 3 20 4 21 5 19 7 6 8 7 9 8 10 9 11 13 12 10 13
REMARK SMILES IDX 12 14 11 15 14 16 93 17 15 18 16 19 92 20 17 22 18 23 5 24
REMARK SMILES IDX 2 25 1 26 3 27 4 28 25 29 26 30 27 31 28 33 29 34 30 35
REMARK SMILES IDX 91 36 31 37 90 38 32 39 33 40 34 41 84 42 35 43 89 44 83 45
REMARK SMILES IDX 85 46 36 47 88 48 82 49 81 50 37 52 69 53 49 54 68 55 50 56
REMARK SMILES IDX 53 57 67 58 86 59 51 60 52 61 66 63 87 64 54 65 38 66 39 67
REMARK SMILES IDX 47 68 40 69 41 70 45 71 48 72 42 73 43 74 46 75 44 76 70 77
REMARK SMILES IDX 71 78 79 79 72 80 73 81 77 82 80 83 74 84 75 85 78 86 76 87
REMARK SMILES IDX 55 88 56 89 64 90 57 91 58 92 62 93 65 94 59 95 60 96 63 97
REMARK SMILES IDX 61 98
REMARK H PARENT 22 6 15 21 26 32 85 51 53 62
REMARK Flexibility Score: inf
ROOT
ATOM      1  C   UNL A   1      38.047  19.938  24.992  1.00  0.00     0.042 C 
ENDROOT
BRANCH   1   2
ATOM      2  C   UNL A   1      37.082  21.115  24.865  1.00  0.00     0.118 C 
BRANCH   2   3
ATOM      3  N   UNL A   1      36.360  21.332  26.105  1.00  0.00    -0.352 N 
ATOM      4  C   UNL A   1      35.053  21.622  26.395  1.00  0.00     0.251 C 
ATOM      5  O   UNL A   1      34.764  21.719  27.590  1.00  0.00    -0.269 OA
ATOM      6  H   UNL A   1      36.929  21.256  26.905  1.00  0.00     0.163 HD
BRANCH   4   7
ATOM      7  C   UNL A   1      33.973  21.778  25.376  1.00  0.00     0.040 A 
ATOM      8  C   UNL A   1      31.685  28.761  24.454  1.00  0.00     0.410 C 
ATOM      9  O   UNL A   1      32.141  29.537  23.632  1.00  0.00    -0.224 OA
ATOM     10  N   UNL A   1      31.378  27.443  24.160  1.00  0.00    -0.308 N 
ATOM     11  C   UNL A   1      31.926  26.857  22.950  1.00  0.00     0.124 C 
ATOM     12  C   UNL A   1      30.465  26.617  24.941  1.00  0.00     0.124 C 
ATOM     13  C   UNL A   1      32.620  25.537  23.284  1.00  0.00     0.035 C 
ATOM     14  C   UNL A   1      31.061  25.245  25.252  1.00  0.00     0.035 C 
ATOM     15  C   UNL A   1      31.662  24.566  24.005  1.00  0.00     0.018 C 
ATOM     16  C   UNL A   1      30.566  24.039  23.010  1.00  0.00     0.124 C 
ATOM     17  C   UNL A   1      32.378  23.279  24.349  1.00  0.00    -0.016 A 
ATOM     18  N   UNL A   1      30.819  22.623  22.779  1.00  0.00    -0.384 N 
ATOM     19  C   UNL A   1      31.907  22.248  23.544  1.00  0.00     0.038 A 
ATOM     20  C   UNL A   1      33.398  23.058  25.268  1.00  0.00     0.020 A 
ATOM     21  H   UNL A   1      30.303  22.034  22.182  1.00  0.00     0.160 HD
ATOM     22  C   UNL A   1      32.469  20.992  23.615  1.00  0.00     0.027 A 
ATOM     23  C   UNL A   1      33.528  20.768  24.506  1.00  0.00     0.016 A 
BRANCH   8  24
ATOM     24  O   UNL A   1      31.489  29.055  25.767  1.00  0.00    -0.444 OA
BRANCH  24  25
ATOM     25  C   UNL A   1      32.584  28.935  26.715  1.00  0.00     0.106 C 
ATOM     26  C   UNL A   1      32.019  28.085  27.864  1.00  0.00     0.056 C 
ATOM     27  C   UNL A   1      32.959  30.319  27.247  1.00  0.00     0.056 C 
ATOM     28  C   UNL A   1      33.803  28.194  26.144  1.00  0.00     0.056 C 
ENDBRANCH  24  25
ENDBRANCH   8  24
ENDBRANCH   4   7
ENDBRANCH   2   3
ENDBRANCH   1   2
BRANCH   1  29
ATOM     29  C   UNL A   1      39.139  20.166  26.034  1.00  0.00     0.118 C 
BRANCH  29  30
ATOM     30  N   UNL A   1      40.210  19.180  25.943  1.00  0.00    -0.352 N 
ATOM     31  C   UNL A   1      41.571  19.341  26.045  1.00  0.00     0.251 C 
ATOM     32  H   UNL A   1      39.911  18.256  25.784  1.00  0.00     0.163 HD
ATOM     33  O   UNL A   1      42.320  18.413  25.752  1.00  0.00    -0.269 OA
BRANCH  31  34
ATOM     34  C   UNL A   1      42.142  20.636  26.476  1.00  0.00     0.039 A 
ATOM     35  C   UNL A   1      42.247  20.958  27.829  1.00  0.00     0.014 A 
ATOM     36  C   UNL A   1      42.587  21.540  25.506  1.00  0.00     0.014 A 
ATOM     37  C   UNL A   1      42.632  22.241  28.206  1.00  0.00     0.010 A 
ATOM     38  C   UNL A   1      43.054  22.802  25.891  1.00  0.00     0.010 A 
ATOM     39  C   UNL A   1      43.030  23.182  27.242  1.00  0.00    -0.014 A 
BRANCH  39  40
ATOM     40  C   UNL A   1      43.398  24.557  27.671  1.00  0.00     0.031 A 
ATOM     41  C   UNL A   1      44.842  24.986  27.712  1.00  0.00     0.074 A 
ATOM     42  C   UNL A   1      42.426  25.441  27.967  1.00  0.00     0.049 A 
ATOM     43  N   UNL A   1      45.348  26.149  28.039  1.00  0.00    -0.248 NA
ATOM     44  C   UNL A   1      45.851  23.980  27.343  1.00  0.00     0.031 C 
ATOM     45  C   UNL A   1      40.992  25.144  27.963  1.00  0.00     0.029 A 
ATOM     46  N   UNL A   1      42.490  26.768  28.310  1.00  0.00    -0.354 N 
ATOM     47  C   UNL A   1      46.725  26.009  27.937  1.00  0.00     0.074 A 
ATOM     48  C   UNL A   1      46.983  24.642  27.541  1.00  0.00     0.031 C 
ATOM     49  C   UNL A   1      40.311  26.265  28.241  1.00  0.00     0.029 A 
ATOM     50  C   UNL A   1      41.258  27.345  28.502  1.00  0.00     0.049 A 
ATOM     51  H   UNL A   1      43.337  27.259  28.407  1.00  0.00     0.167 HD
ATOM     52  C   UNL A   1      47.686  26.941  28.141  1.00  0.00     0.037 A 
ATOM     53  C   UNL A   1      40.926  28.600  28.863  1.00  0.00     0.037 A 
ATOM     54  C   UNL A   1      47.426  28.312  28.494  1.00  0.00     0.049 A 
ATOM     55  C   UNL A   1      42.015  29.607  29.099  1.00  0.00     0.074 A 
ATOM     56  C   UNL A   1      48.334  29.341  28.673  1.00  0.00     0.029 A 
ATOM     57  N   UNL A   1      46.166  28.846  28.717  1.00  0.00    -0.354 N 
ATOM     58  N   UNL A   1      43.312  29.466  28.975  1.00  0.00    -0.248 NA
ATOM     59  C   UNL A   1      41.597  30.949  29.532  1.00  0.00     0.031 C 
ATOM     60  C   UNL A   1      47.629  30.487  29.050  1.00  0.00     0.029 A 
ATOM     61  C   UNL A   1      46.277  30.186  29.058  1.00  0.00     0.049 A 
ATOM     62  H   UNL A   1      45.319  28.350  28.644  1.00  0.00     0.167 HD
ATOM     63  C   UNL A   1      43.863  30.695  29.307  1.00  0.00     0.074 A 
ATOM     64  C   UNL A   1      42.760  31.581  29.612  1.00  0.00     0.031 C 
ATOM     65  C   UNL A   1      45.169  31.053  29.362  1.00  0.00     0.037 A 
BRANCH  52  66
ATOM     66  C   UNL A   1      49.120  26.527  27.991  1.00  0.00     0.064 A 
ATOM     67  C   UNL A   1      49.736  26.453  26.734  1.00  0.00     0.173 A 
ATOM     68  C   UNL A   1      49.914  26.303  29.127  1.00  0.00     0.173 A 
ATOM     69  F   UNL A   1      49.019  26.648  25.618  1.00  0.00    -0.203 F 
ATOM     70  C   UNL A   1      51.094  26.166  26.619  1.00  0.00     0.198 A 
ATOM     71  C   UNL A   1      51.276  26.040  29.010  1.00  0.00     0.198 A 
ATOM     72  F   UNL A   1      49.374  26.370  30.353  1.00  0.00    -0.203 F 
ATOM     73  F   UNL A   1      51.660  26.079  25.406  1.00  0.00    -0.200 F 
ATOM     74  C   UNL A   1      51.865  25.971  27.756  1.00  0.00     0.200 A 
ATOM     75  F   UNL A   1      52.022  25.867  30.109  1.00  0.00    -0.200 F 
ATOM     76  F   UNL A   1      53.176  25.718  27.644  1.00  0.00    -0.200 F 
ENDBRANCH  52  66
BRANCH  53  77
ATOM     77  C   UNL A   1      39.495  28.961  29.031  1.00  0.00     0.064 A 
ATOM     78  C   UNL A   1      38.723  29.389  27.943  1.00  0.00     0.173 A 
ATOM     79  C   UNL A   1      38.865  28.865  30.281  1.00  0.00     0.173 A 
ATOM     80  F   UNL A   1      39.286  29.518  26.732  1.00  0.00    -0.203 F 
ATOM     81  C   UNL A   1      37.377  29.716  28.100  1.00  0.00     0.198 A 
ATOM     82  C   UNL A   1      37.512  29.163  30.430  1.00  0.00     0.198 A 
ATOM     83  F   UNL A   1      39.559  28.457  31.353  1.00  0.00    -0.203 F 
ATOM     84  F   UNL A   1      36.671  30.158  27.050  1.00  0.00    -0.200 F 
ATOM     85  C   UNL A   1      36.772  29.594  29.341  1.00  0.00     0.200 A 
ATOM     86  F   UNL A   1      36.927  29.027  31.629  1.00  0.00    -0.200 F 
ATOM     87  F   UNL A   1      35.474  29.896  29.489  1.00  0.00    -0.200 F 
ENDBRANCH  53  77
BRANCH  65  88
ATOM     88  C   UNL A   1      45.484  32.463  29.765  1.00  0.00     0.064 A 
ATOM     89  C   UNL A   1      45.761  32.794  31.099  1.00  0.00     0.173 A 
ATOM     90  C   UNL A   1      45.580  33.476  28.800  1.00  0.00     0.173 A 
ATOM     91  F   UNL A   1      45.670  31.861  32.059  1.00  0.00    -0.203 F 
ATOM     92  C   UNL A   1      46.112  34.094  31.454  1.00  0.00     0.198 A 
ATOM     93  C   UNL A   1      45.958  34.768  29.155  1.00  0.00     0.198 A 
ATOM     94  F   UNL A   1      45.332  33.207  27.509  1.00  0.00    -0.203 F 
ATOM     95  F   UNL A   1      46.343  34.395  32.739  1.00  0.00    -0.200 F 
ATOM     96  C   UNL A   1      46.219  35.076  30.481  1.00  0.00     0.200 A 
ATOM     97  F   UNL A   1      46.076  35.713  28.211  1.00  0.00    -0.200 F 
ATOM     98  F   UNL A   1      46.574  36.322  30.822  1.00  0.00    -0.200 F 
ENDBRANCH  65  88
ENDBRANCH  39  40
ENDBRANCH  31  34
ENDBRANCH  29  30
ENDBRANCH   1  29
TORSDOF 12
ENDMDL
