MODEL 1
REMARK VINA RESULT:     -12.5      0.000      0.000
REMARK SMILES CC[C@@H](NS(=O)(=O)c1cc(C)ccc1C)C(=O)NCCCNC(=O)c1ccc(-c2c3nc(c(-c4c(F)c(F)c(F)c(F)c4F)c4ccc([nH]4)c(-c4c(F)c(F)c(F)c(F)c4F)c4nc(c(-c5c(F)c(F)c(F)c(F)c5F)c5ccc2[nH]5)C=C4)C=C3)cc1
REMARK SMILES IDX 19 1 18 2 16 3 17 4 3 6 2 7 1 8 4 9 5 11 6 12 7 13 8 14 9 15
REMARK SMILES IDX 14 16 10 17 13 18 15 19 11 20 12 21 20 22 21 23 22 24 23 25
REMARK SMILES IDX 24 27 25 28 26 29 87 30 27 31 86 32 28 33 29 34 30 35 80 36
REMARK SMILES IDX 31 37 85 38 79 39 81 40 32 41 84 42 78 43 77 44 33 46 65 47
REMARK SMILES IDX 45 48 64 49 46 50 49 51 63 52 82 53 47 54 48 55 62 57 83 58
REMARK SMILES IDX 50 59 34 60 35 61 43 62 36 63 37 64 41 65 44 66 38 67 39 68
REMARK SMILES IDX 42 69 40 70 66 71 67 72 75 73 68 74 69 75 73 76 76 77 70 78
REMARK SMILES IDX 71 79 74 80 72 81 51 82 52 83 60 84 53 85 54 86 58 87 61 88
REMARK SMILES IDX 55 89 56 90 59 91 57 92
REMARK H PARENT 18 5 4 10 22 26 81 45 49 56
REMARK Flexibility Score: inf
ROOT
ATOM      1  C   UNL A   1      32.363  29.397  25.103  1.00  0.00     0.117 C 
ENDROOT
BRANCH   1   2
ATOM      2  N   UNL A   1      31.439  29.708  24.018  1.00  0.00    -0.355 N 
ATOM      3  C   UNL A   1      30.910  28.924  23.036  1.00  0.00     0.238 C 
ATOM      4  O   UNL A   1      30.312  29.496  22.118  1.00  0.00    -0.273 OA
ATOM      5  H   UNL A   1      31.144  30.646  23.992  1.00  0.00     0.163 HD
BRANCH   3   6
ATOM      6  C   UNL A   1      31.095  27.405  23.018  1.00  0.00     0.158 C 
BRANCH   6   7
ATOM      7  C   UNL A   1      29.761  26.818  23.503  1.00  0.00     0.027 C 
ATOM      8  C   UNL A   1      29.897  25.577  24.363  1.00  0.00     0.006 C 
ENDBRANCH   6   7
BRANCH   6   9
ATOM      9  N   UNL A   1      31.498  26.863  21.709  1.00  0.00    -0.199 NA
ATOM     10  H   UNL A   1      31.447  27.645  21.057  1.00  0.00     0.142 HD
BRANCH   9  11
ATOM     11  S   UNL A   1      32.985  26.123  21.421  1.00  0.00     0.241 S 
ATOM     12  O   UNL A   1      32.931  25.525  20.097  1.00  0.00    -0.207 OA
ATOM     13  O   UNL A   1      33.937  27.150  21.738  1.00  0.00    -0.207 OA
BRANCH  11  14
ATOM     14  C   UNL A   1      33.085  24.803  22.616  1.00  0.00     0.085 A 
ATOM     15  C   UNL A   1      32.784  23.545  22.091  1.00  0.00     0.025 A 
ATOM     16  C   UNL A   1      33.417  24.912  23.978  1.00  0.00    -0.031 A 
ATOM     17  C   UNL A   1      32.572  22.443  22.910  1.00  0.00    -0.050 A 
ATOM     18  C   UNL A   1      33.253  23.767  24.795  1.00  0.00     0.005 A 
ATOM     19  C   UNL A   1      34.018  26.103  24.665  1.00  0.00     0.046 C 
ATOM     20  C   UNL A   1      32.057  21.191  22.289  1.00  0.00     0.044 C 
ATOM     21  C   UNL A   1      32.797  22.556  24.276  1.00  0.00     0.004 A 
ENDBRANCH  11  14
ENDBRANCH   9  11
ENDBRANCH   6   9
ENDBRANCH   3   6
ENDBRANCH   1   2
BRANCH   1  22
ATOM     22  C   UNL A   1      32.307  30.457  26.204  1.00  0.00     0.042 C 
BRANCH  22  23
ATOM     23  C   UNL A   1      33.600  30.519  26.997  1.00  0.00     0.118 C 
BRANCH  23  24
ATOM     24  N   UNL A   1      33.678  31.595  27.979  1.00  0.00    -0.352 N 
ATOM     25  C   UNL A   1      34.693  31.907  28.868  1.00  0.00     0.251 C 
ATOM     26  H   UNL A   1      32.892  32.187  28.015  1.00  0.00     0.163 HD
ATOM     27  O   UNL A   1      34.536  32.808  29.686  1.00  0.00    -0.269 OA
BRANCH  25  28
ATOM     28  C   UNL A   1      36.004  31.221  28.768  1.00  0.00     0.039 A 
ATOM     29  C   UNL A   1      36.069  29.823  28.827  1.00  0.00     0.014 A 
ATOM     30  C   UNL A   1      37.177  31.959  28.750  1.00  0.00     0.014 A 
ATOM     31  C   UNL A   1      37.303  29.191  29.025  1.00  0.00     0.010 A 
ATOM     32  C   UNL A   1      38.353  31.358  29.138  1.00  0.00     0.010 A 
ATOM     33  C   UNL A   1      38.440  29.970  29.243  1.00  0.00    -0.014 A 
BRANCH  33  34
ATOM     34  C   UNL A   1      39.782  29.402  29.378  1.00  0.00     0.031 A 
ATOM     35  C   UNL A   1      40.228  29.171  30.776  1.00  0.00     0.074 A 
ATOM     36  C   UNL A   1      40.534  28.910  28.376  1.00  0.00     0.049 A 
ATOM     37  N   UNL A   1      41.131  29.846  31.408  1.00  0.00    -0.248 NA
ATOM     38  C   UNL A   1      39.537  28.178  31.611  1.00  0.00     0.031 C 
ATOM     39  C   UNL A   1      40.198  28.837  26.962  1.00  0.00     0.029 A 
ATOM     40  N   UNL A   1      41.734  28.253  28.447  1.00  0.00    -0.354 N 
ATOM     41  C   UNL A   1      41.236  29.243  32.655  1.00  0.00     0.074 A 
ATOM     42  C   UNL A   1      40.058  28.440  32.808  1.00  0.00     0.031 C 
ATOM     43  C   UNL A   1      41.058  27.992  26.348  1.00  0.00     0.029 A 
ATOM     44  C   UNL A   1      42.057  27.550  27.295  1.00  0.00     0.049 A 
ATOM     45  H   UNL A   1      42.314  28.277  29.242  1.00  0.00     0.167 HD
ATOM     46  C   UNL A   1      42.421  29.196  33.320  1.00  0.00     0.037 A 
ATOM     47  C   UNL A   1      43.065  26.665  27.111  1.00  0.00     0.037 A 
ATOM     48  C   UNL A   1      43.373  30.117  32.742  1.00  0.00     0.049 A 
ATOM     49  C   UNL A   1      44.118  27.004  28.087  1.00  0.00     0.074 A 
ATOM     50  C   UNL A   1      43.384  31.472  32.466  1.00  0.00     0.029 A 
ATOM     51  N   UNL A   1      44.416  29.587  32.026  1.00  0.00    -0.354 N 
ATOM     52  N   UNL A   1      44.848  28.080  28.008  1.00  0.00    -0.248 NA
ATOM     53  C   UNL A   1      44.132  26.330  29.376  1.00  0.00     0.031 C 
ATOM     54  C   UNL A   1      44.146  31.612  31.267  1.00  0.00     0.029 A 
ATOM     55  C   UNL A   1      44.596  30.345  30.899  1.00  0.00     0.049 A 
ATOM     56  H   UNL A   1      44.946  28.797  32.277  1.00  0.00     0.167 HD
ATOM     57  C   UNL A   1      45.001  28.476  29.323  1.00  0.00     0.074 A 
ATOM     58  C   UNL A   1      44.702  27.286  30.113  1.00  0.00     0.031 C 
ATOM     59  C   UNL A   1      45.040  29.801  29.639  1.00  0.00     0.037 A 
BRANCH  46  60
ATOM     60  C   UNL A   1      42.851  28.058  34.230  1.00  0.00     0.064 A 
ATOM     61  C   UNL A   1      43.151  28.355  35.576  1.00  0.00     0.173 A 
ATOM     62  C   UNL A   1      43.244  26.767  33.804  1.00  0.00     0.173 A 
ATOM     63  F   UNL A   1      42.839  29.550  36.097  1.00  0.00    -0.203 F 
ATOM     64  C   UNL A   1      43.871  27.476  36.389  1.00  0.00     0.198 A 
ATOM     65  C   UNL A   1      43.900  25.866  34.642  1.00  0.00     0.198 A 
ATOM     66  F   UNL A   1      43.120  26.348  32.542  1.00  0.00    -0.203 F 
ATOM     67  F   UNL A   1      44.259  27.871  37.609  1.00  0.00    -0.200 F 
ATOM     68  C   UNL A   1      44.249  26.233  35.920  1.00  0.00     0.200 A 
ATOM     69  F   UNL A   1      44.265  24.669  34.160  1.00  0.00    -0.200 F 
ATOM     70  F   UNL A   1      44.991  25.414  36.675  1.00  0.00    -0.200 F 
ENDBRANCH  46  60
BRANCH  47  71
ATOM     71  C   UNL A   1      43.148  25.467  26.243  1.00  0.00     0.064 A 
ATOM     72  C   UNL A   1      44.245  25.270  25.387  1.00  0.00     0.173 A 
ATOM     73  C   UNL A   1      42.310  24.357  26.455  1.00  0.00     0.173 A 
ATOM     74  F   UNL A   1      45.112  26.266  25.157  1.00  0.00    -0.203 F 
ATOM     75  C   UNL A   1      44.516  24.023  24.816  1.00  0.00     0.198 A 
ATOM     76  C   UNL A   1      42.579  23.112  25.878  1.00  0.00     0.198 A 
ATOM     77  F   UNL A   1      41.273  24.434  27.302  1.00  0.00    -0.203 F 
ATOM     78  F   UNL A   1      45.615  23.857  24.066  1.00  0.00    -0.200 F 
ATOM     79  C   UNL A   1      43.692  22.941  25.074  1.00  0.00     0.200 A 
ATOM     80  F   UNL A   1      41.793  22.063  26.162  1.00  0.00    -0.200 F 
ATOM     81  F   UNL A   1      43.992  21.729  24.587  1.00  0.00    -0.200 F 
ENDBRANCH  47  71
BRANCH  59  82
ATOM     82  C   UNL A   1      45.321  30.772  28.527  1.00  0.00     0.064 A 
ATOM     83  C   UNL A   1      44.348  31.297  27.658  1.00  0.00     0.173 A 
ATOM     84  C   UNL A   1      46.626  31.269  28.403  1.00  0.00     0.173 A 
ATOM     85  F   UNL A   1      43.059  30.953  27.773  1.00  0.00    -0.203 F 
ATOM     86  C   UNL A   1      44.680  32.232  26.679  1.00  0.00     0.198 A 
ATOM     87  C   UNL A   1      46.947  32.231  27.450  1.00  0.00     0.198 A 
ATOM     88  F   UNL A   1      47.589  30.842  29.237  1.00  0.00    -0.203 F 
ATOM     89  F   UNL A   1      43.735  32.698  25.848  1.00  0.00    -0.200 F 
ATOM     90  C   UNL A   1      45.977  32.702  26.580  1.00  0.00     0.200 A 
ATOM     91  F   UNL A   1      48.193  32.718  27.389  1.00  0.00    -0.200 F 
ATOM     92  F   UNL A   1      46.290  33.628  25.662  1.00  0.00    -0.200 F 
ENDBRANCH  59  82
ENDBRANCH  33  34
ENDBRANCH  25  28
ENDBRANCH  23  24
ENDBRANCH  22  23
ENDBRANCH   1  22
TORSDOF 14
ENDMDL
MODEL 2
REMARK VINA RESULT:     -12.3      3.703      8.714
REMARK SMILES CC[C@@H](NS(=O)(=O)c1cc(C)ccc1C)C(=O)NCCCNC(=O)c1ccc(-c2c3nc(c(-c4c(F)c(F)c(F)c(F)c4F)c4ccc([nH]4)c(-c4c(F)c(F)c(F)c(F)c4F)c4nc(c(-c5c(F)c(F)c(F)c(F)c5F)c5ccc2[nH]5)C=C4)C=C3)cc1
REMARK SMILES IDX 19 1 18 2 16 3 17 4 3 6 2 7 1 8 4 9 5 11 6 12 7 13 8 14 9 15
REMARK SMILES IDX 14 16 10 17 13 18 15 19 11 20 12 21 20 22 21 23 22 24 23 25
REMARK SMILES IDX 24 27 25 28 26 29 87 30 27 31 86 32 28 33 29 34 30 35 80 36
REMARK SMILES IDX 31 37 85 38 79 39 81 40 32 41 84 42 78 43 77 44 33 46 65 47
REMARK SMILES IDX 45 48 64 49 46 50 49 51 63 52 82 53 47 54 48 55 62 57 83 58
REMARK SMILES IDX 50 59 34 60 35 61 43 62 36 63 37 64 41 65 44 66 38 67 39 68
REMARK SMILES IDX 42 69 40 70 66 71 67 72 75 73 68 74 69 75 73 76 76 77 70 78
REMARK SMILES IDX 71 79 74 80 72 81 51 82 52 83 60 84 53 85 54 86 58 87 61 88
REMARK SMILES IDX 55 89 56 90 59 91 57 92
REMARK H PARENT 18 5 4 10 22 26 81 45 49 56
REMARK Flexibility Score: inf
ROOT
ATOM      1  C   UNL A   1      38.063  21.639  25.429  1.00  0.00     0.117 C 
ENDROOT
BRANCH   1   2
ATOM      2  N   UNL A   1      37.530  22.219  24.202  1.00  0.00    -0.355 N 
ATOM      3  C   UNL A   1      36.292  22.703  23.901  1.00  0.00     0.238 C 
ATOM      4  O   UNL A   1      36.054  22.946  22.713  1.00  0.00    -0.273 OA
ATOM      5  H   UNL A   1      38.178  22.271  23.463  1.00  0.00     0.163 HD
BRANCH   3   6
ATOM      6  C   UNL A   1      35.208  22.885  24.965  1.00  0.00     0.158 C 
BRANCH   6   7
ATOM      7  C   UNL A   1      35.201  24.383  25.303  1.00  0.00     0.027 C 
ATOM      8  C   UNL A   1      33.875  24.903  25.822  1.00  0.00     0.006 C 
ENDBRANCH   6   7
BRANCH   6   9
ATOM      9  N   UNL A   1      33.877  22.401  24.558  1.00  0.00    -0.199 NA
ATOM     10  H   UNL A   1      34.023  21.886  23.689  1.00  0.00     0.142 HD
BRANCH   9  11
ATOM     11  S   UNL A   1      32.906  21.412  25.518  1.00  0.00     0.241 S 
ATOM     12  O   UNL A   1      33.659  21.082  26.716  1.00  0.00    -0.207 OA
ATOM     13  O   UNL A   1      31.665  22.133  25.591  1.00  0.00    -0.207 OA
BRANCH  11  14
ATOM     14  C   UNL A   1      32.691  19.915  24.573  1.00  0.00     0.085 A 
ATOM     15  C   UNL A   1      32.872  18.749  25.319  1.00  0.00     0.025 A 
ATOM     16  C   UNL A   1      32.379  19.809  23.206  1.00  0.00    -0.031 A 
ATOM     17  C   UNL A   1      32.986  17.505  24.714  1.00  0.00    -0.050 A 
ATOM     18  C   UNL A   1      32.441  18.527  22.609  1.00  0.00     0.005 A 
ATOM     19  C   UNL A   1      31.895  20.907  22.306  1.00  0.00     0.046 C 
ATOM     20  C   UNL A   1      33.379  16.342  25.558  1.00  0.00     0.044 C 
ATOM     21  C   UNL A   1      32.780  17.391  23.344  1.00  0.00     0.004 A 
ENDBRANCH  11  14
ENDBRANCH   9  11
ENDBRANCH   6   9
ENDBRANCH   3   6
ENDBRANCH   1   2
BRANCH   1  22
ATOM     22  C   UNL A   1      38.903  22.654  26.206  1.00  0.00     0.042 C 
BRANCH  22  23
ATOM     23  C   UNL A   1      40.130  22.015  26.831  1.00  0.00     0.118 C 
BRANCH  23  24
ATOM     24  N   UNL A   1      41.255  21.806  25.926  1.00  0.00    -0.352 N 
ATOM     25  C   UNL A   1      42.258  22.683  25.548  1.00  0.00     0.251 C 
ATOM     26  H   UNL A   1      41.307  20.909  25.524  1.00  0.00     0.163 HD
ATOM     27  O   UNL A   1      43.075  22.347  24.697  1.00  0.00    -0.269 OA
BRANCH  25  28
ATOM     28  C   UNL A   1      42.403  23.986  26.239  1.00  0.00     0.039 A 
ATOM     29  C   UNL A   1      43.073  24.058  27.467  1.00  0.00     0.014 A 
ATOM     30  C   UNL A   1      41.766  25.114  25.742  1.00  0.00     0.014 A 
ATOM     31  C   UNL A   1      42.964  25.210  28.254  1.00  0.00     0.010 A 
ATOM     32  C   UNL A   1      41.497  26.161  26.593  1.00  0.00     0.010 A 
ATOM     33  C   UNL A   1      42.120  26.241  27.839  1.00  0.00    -0.014 A 
BRANCH  33  34
ATOM     34  C   UNL A   1      42.003  27.514  28.553  1.00  0.00     0.031 A 
ATOM     35  C   UNL A   1      43.050  28.515  28.225  1.00  0.00     0.074 A 
ATOM     36  C   UNL A   1      40.955  27.903  29.301  1.00  0.00     0.049 A 
ATOM     37  N   UNL A   1      44.016  28.888  29.000  1.00  0.00    -0.248 NA
ATOM     38  C   UNL A   1      43.123  29.085  26.872  1.00  0.00     0.031 C 
ATOM     39  C   UNL A   1      39.730  27.167  29.573  1.00  0.00     0.029 A 
ATOM     40  N   UNL A   1      40.725  29.120  29.887  1.00  0.00    -0.354 N 
ATOM     41  C   UNL A   1      44.704  29.862  28.289  1.00  0.00     0.074 A 
ATOM     42  C   UNL A   1      44.290  29.723  26.923  1.00  0.00     0.031 C 
ATOM     43  C   UNL A   1      38.807  28.017  30.079  1.00  0.00     0.029 A 
ATOM     44  C   UNL A   1      39.404  29.322  30.261  1.00  0.00     0.049 A 
ATOM     45  H   UNL A   1      41.432  29.791  30.031  1.00  0.00     0.167 HD
ATOM     46  C   UNL A   1      45.306  30.905  28.920  1.00  0.00     0.037 A 
ATOM     47  C   UNL A   1      38.822  30.466  30.690  1.00  0.00     0.037 A 
ATOM     48  C   UNL A   1      45.422  30.651  30.338  1.00  0.00     0.049 A 
ATOM     49  C   UNL A   1      39.889  31.295  31.280  1.00  0.00     0.074 A 
ATOM     50  C   UNL A   1      45.965  29.644  31.113  1.00  0.00     0.029 A 
ATOM     51  N   UNL A   1      44.607  31.365  31.181  1.00  0.00    -0.354 N 
ATOM     52  N   UNL A   1      40.486  31.003  32.401  1.00  0.00    -0.248 NA
ATOM     53  C   UNL A   1      40.565  32.278  30.447  1.00  0.00     0.031 C 
ATOM     54  C   UNL A   1      45.115  29.539  32.255  1.00  0.00     0.029 A 
ATOM     55  C   UNL A   1      44.126  30.514  32.139  1.00  0.00     0.049 A 
ATOM     56  H   UNL A   1      44.402  32.325  31.109  1.00  0.00     0.167 HD
ATOM     57  C   UNL A   1      41.800  31.371  32.183  1.00  0.00     0.074 A 
ATOM     58  C   UNL A   1      41.752  32.298  31.057  1.00  0.00     0.031 C 
ATOM     59  C   UNL A   1      42.815  30.641  32.728  1.00  0.00     0.037 A 
BRANCH  46  60
ATOM     60  C   UNL A   1      45.437  32.302  28.338  1.00  0.00     0.064 A 
ATOM     61  C   UNL A   1      44.258  32.987  27.973  1.00  0.00     0.173 A 
ATOM     62  C   UNL A   1      46.635  32.891  27.869  1.00  0.00     0.173 A 
ATOM     63  F   UNL A   1      43.057  32.524  28.347  1.00  0.00    -0.203 F 
ATOM     64  C   UNL A   1      44.275  34.101  27.131  1.00  0.00     0.198 A 
ATOM     65  C   UNL A   1      46.650  34.044  27.086  1.00  0.00     0.198 A 
ATOM     66  F   UNL A   1      47.836  32.333  28.043  1.00  0.00    -0.203 F 
ATOM     67  F   UNL A   1      43.119  34.619  26.695  1.00  0.00    -0.200 F 
ATOM     68  C   UNL A   1      45.471  34.627  26.683  1.00  0.00     0.200 A 
ATOM     69  F   UNL A   1      47.824  34.530  26.657  1.00  0.00    -0.200 F 
ATOM     70  F   UNL A   1      45.489  35.656  25.827  1.00  0.00    -0.200 F 
ENDBRANCH  46  60
BRANCH  47  71
ATOM     71  C   UNL A   1      37.436  30.962  30.524  1.00  0.00     0.064 A 
ATOM     72  C   UNL A   1      36.653  31.308  31.639  1.00  0.00     0.173 A 
ATOM     73  C   UNL A   1      36.962  31.388  29.269  1.00  0.00     0.173 A 
ATOM     74  F   UNL A   1      37.049  30.971  32.874  1.00  0.00    -0.203 F 
ATOM     75  C   UNL A   1      35.492  32.076  31.511  1.00  0.00     0.198 A 
ATOM     76  C   UNL A   1      35.797  32.150  29.143  1.00  0.00     0.198 A 
ATOM     77  F   UNL A   1      37.672  31.156  28.155  1.00  0.00    -0.203 F 
ATOM     78  F   UNL A   1      34.815  32.449  32.607  1.00  0.00    -0.200 F 
ATOM     79  C   UNL A   1      35.073  32.510  30.266  1.00  0.00     0.200 A 
ATOM     80  F   UNL A   1      35.420  32.594  27.935  1.00  0.00    -0.200 F 
ATOM     81  F   UNL A   1      34.002  33.307  30.150  1.00  0.00    -0.200 F 
ENDBRANCH  47  71
BRANCH  59  82
ATOM     82  C   UNL A   1      42.474  29.717  33.864  1.00  0.00     0.064 A 
ATOM     83  C   UNL A   1      41.980  28.410  33.710  1.00  0.00     0.173 A 
ATOM     84  C   UNL A   1      42.757  30.148  35.167  1.00  0.00     0.173 A 
ATOM     85  F   UNL A   1      41.776  27.884  32.496  1.00  0.00    -0.203 F 
ATOM     86  C   UNL A   1      41.731  27.596  34.814  1.00  0.00     0.198 A 
ATOM     87  C   UNL A   1      42.544  29.319  36.265  1.00  0.00     0.198 A 
ATOM     88  F   UNL A   1      43.277  31.368  35.373  1.00  0.00    -0.203 F 
ATOM     89  F   UNL A   1      41.237  26.360  34.639  1.00  0.00    -0.200 F 
ATOM     90  C   UNL A   1      42.019  28.048  36.089  1.00  0.00     0.200 A 
ATOM     91  F   UNL A   1      42.870  29.744  37.493  1.00  0.00    -0.200 F 
ATOM     92  F   UNL A   1      41.814  27.253  37.148  1.00  0.00    -0.200 F 
ENDBRANCH  59  82
ENDBRANCH  33  34
ENDBRANCH  25  28
ENDBRANCH  23  24
ENDBRANCH  22  23
ENDBRANCH   1  22
TORSDOF 14
ENDMDL
MODEL 3
REMARK VINA RESULT:     -12.3      3.382      8.451
REMARK SMILES CC[C@@H](NS(=O)(=O)c1cc(C)ccc1C)C(=O)NCCCNC(=O)c1ccc(-c2c3nc(c(-c4c(F)c(F)c(F)c(F)c4F)c4ccc([nH]4)c(-c4c(F)c(F)c(F)c(F)c4F)c4nc(c(-c5c(F)c(F)c(F)c(F)c5F)c5ccc2[nH]5)C=C4)C=C3)cc1
REMARK SMILES IDX 19 1 18 2 16 3 17 4 3 6 2 7 1 8 4 9 5 11 6 12 7 13 8 14 9 15
REMARK SMILES IDX 14 16 10 17 13 18 15 19 11 20 12 21 20 22 21 23 22 24 23 25
REMARK SMILES IDX 24 27 25 28 26 29 87 30 27 31 86 32 28 33 29 34 30 35 80 36
REMARK SMILES IDX 31 37 85 38 79 39 81 40 32 41 84 42 78 43 77 44 33 46 65 47
REMARK SMILES IDX 45 48 64 49 46 50 49 51 63 52 82 53 47 54 48 55 62 57 83 58
REMARK SMILES IDX 50 59 34 60 35 61 43 62 36 63 37 64 41 65 44 66 38 67 39 68
REMARK SMILES IDX 42 69 40 70 66 71 67 72 75 73 68 74 69 75 73 76 76 77 70 78
REMARK SMILES IDX 71 79 74 80 72 81 51 82 52 83 60 84 53 85 54 86 58 87 61 88
REMARK SMILES IDX 55 89 56 90 59 91 57 92
REMARK H PARENT 18 5 4 10 22 26 81 45 49 56
REMARK Flexibility Score: inf
ROOT
ATOM      1  C   UNL A   1      35.065  21.813  25.808  1.00  0.00     0.117 C 
ENDROOT
BRANCH   1   2
ATOM      2  N   UNL A   1      33.930  20.970  25.455  1.00  0.00    -0.355 N 
ATOM      3  C   UNL A   1      32.661  21.286  25.068  1.00  0.00     0.238 C 
ATOM      4  O   UNL A   1      31.836  20.366  25.030  1.00  0.00    -0.273 OA
ATOM      5  H   UNL A   1      34.111  20.004  25.502  1.00  0.00     0.163 HD
BRANCH   3   6
ATOM      6  C   UNL A   1      32.240  22.723  24.753  1.00  0.00     0.158 C 
BRANCH   6   7
ATOM      7  C   UNL A   1      32.244  22.832  23.221  1.00  0.00     0.027 C 
ATOM      8  C   UNL A   1      32.911  24.082  22.682  1.00  0.00     0.006 C 
ENDBRANCH   6   7
BRANCH   6   9
ATOM      9  N   UNL A   1      30.944  23.112  25.335  1.00  0.00    -0.199 NA
ATOM     10  H   UNL A   1      30.529  22.251  25.691  1.00  0.00     0.142 HD
BRANCH   9  11
ATOM     11  S   UNL A   1      30.775  24.246  26.570  1.00  0.00     0.241 S 
ATOM     12  O   UNL A   1      29.368  24.297  26.934  1.00  0.00    -0.207 OA
ATOM     13  O   UNL A   1      31.779  23.857  27.521  1.00  0.00    -0.207 OA
BRANCH  11  14
ATOM     14  C   UNL A   1      31.207  25.809  25.827  1.00  0.00     0.085 A 
ATOM     15  C   UNL A   1      32.368  26.378  26.350  1.00  0.00     0.025 A 
ATOM     16  C   UNL A   1      30.510  26.490  24.814  1.00  0.00    -0.031 A 
ATOM     17  C   UNL A   1      32.727  27.691  26.076  1.00  0.00    -0.050 A 
ATOM     18  C   UNL A   1      30.918  27.809  24.499  1.00  0.00     0.005 A 
ATOM     19  C   UNL A   1      29.412  25.941  23.950  1.00  0.00     0.046 C 
ATOM     20  C   UNL A   1      33.865  28.286  26.831  1.00  0.00     0.044 C 
ATOM     21  C   UNL A   1      31.989  28.420  25.150  1.00  0.00     0.004 A 
ENDBRANCH  11  14
ENDBRANCH   9  11
ENDBRANCH   6   9
ENDBRANCH   3   6
ENDBRANCH   1   2
BRANCH   1  22
ATOM     22  C   UNL A   1      36.378  21.230  25.285  1.00  0.00     0.042 C 
BRANCH  22  23
ATOM     23  C   UNL A   1      37.578  22.051  25.722  1.00  0.00     0.118 C 
BRANCH  23  24
ATOM     24  N   UNL A   1      38.833  21.315  25.823  1.00  0.00    -0.352 N 
ATOM     25  C   UNL A   1      40.055  21.722  26.333  1.00  0.00     0.251 C 
ATOM     26  H   UNL A   1      38.808  20.394  25.477  1.00  0.00     0.163 HD
ATOM     27  O   UNL A   1      41.031  20.981  26.249  1.00  0.00    -0.269 OA
BRANCH  25  28
ATOM     28  C   UNL A   1      40.164  23.006  27.065  1.00  0.00     0.039 A 
ATOM     29  C   UNL A   1      39.337  24.082  26.720  1.00  0.00     0.014 A 
ATOM     30  C   UNL A   1      41.170  23.191  28.002  1.00  0.00     0.014 A 
ATOM     31  C   UNL A   1      39.627  25.365  27.199  1.00  0.00     0.010 A 
ATOM     32  C   UNL A   1      41.570  24.471  28.312  1.00  0.00     0.010 A 
ATOM     33  C   UNL A   1      40.787  25.567  27.949  1.00  0.00    -0.014 A 
BRANCH  33  34
ATOM     34  C   UNL A   1      41.130  26.853  28.558  1.00  0.00     0.031 A 
ATOM     35  C   UNL A   1      42.318  27.526  27.974  1.00  0.00     0.074 A 
ATOM     36  C   UNL A   1      40.371  27.537  29.433  1.00  0.00     0.049 A 
ATOM     37  N   UNL A   1      43.472  27.661  28.542  1.00  0.00    -0.248 NA
ATOM     38  C   UNL A   1      42.283  28.000  26.583  1.00  0.00     0.031 C 
ATOM     39  C   UNL A   1      39.070  27.164  29.968  1.00  0.00     0.029 A 
ATOM     40  N   UNL A   1      40.568  28.794  29.940  1.00  0.00    -0.354 N 
ATOM     41  C   UNL A   1      44.242  28.388  27.643  1.00  0.00     0.074 A 
ATOM     42  C   UNL A   1      43.563  28.307  26.382  1.00  0.00     0.031 C 
ATOM     43  C   UNL A   1      38.502  28.248  30.544  1.00  0.00     0.029 A 
ATOM     44  C   UNL A   1      39.434  29.354  30.509  1.00  0.00     0.049 A 
ATOM     45  H   UNL A   1      41.436  29.259  29.904  1.00  0.00     0.167 HD
ATOM     46  C   UNL A   1      45.194  29.258  28.071  1.00  0.00     0.037 A 
ATOM     47  C   UNL A   1      39.250  30.629  30.927  1.00  0.00     0.037 A 
ATOM     48  C   UNL A   1      45.500  29.042  29.467  1.00  0.00     0.049 A 
ATOM     49  C   UNL A   1      40.582  31.169  31.256  1.00  0.00     0.074 A 
ATOM     50  C   UNL A   1      45.903  27.959  30.226  1.00  0.00     0.029 A 
ATOM     51  N   UNL A   1      45.062  29.980  30.367  1.00  0.00    -0.354 N 
ATOM     52  N   UNL A   1      41.280  30.775  32.283  1.00  0.00    -0.248 NA
ATOM     53  C   UNL A   1      41.320  31.902  30.239  1.00  0.00     0.031 C 
ATOM     54  C   UNL A   1      45.278  28.131  31.498  1.00  0.00     0.029 A 
ATOM     55  C   UNL A   1      44.565  29.327  31.464  1.00  0.00     0.049 A 
ATOM     56  H   UNL A   1      45.098  30.957  30.246  1.00  0.00     0.167 HD
ATOM     57  C   UNL A   1      42.581  30.771  31.818  1.00  0.00     0.074 A 
ATOM     58  C   UNL A   1      42.564  31.631  30.639  1.00  0.00     0.031 C 
ATOM     59  C   UNL A   1      43.460  29.822  32.248  1.00  0.00     0.037 A 
BRANCH  46  60
ATOM     60  C   UNL A   1      45.566  30.546  27.355  1.00  0.00     0.064 A 
ATOM     61  C   UNL A   1      46.930  30.798  27.097  1.00  0.00     0.173 A 
ATOM     62  C   UNL A   1      44.708  31.654  27.154  1.00  0.00     0.173 A 
ATOM     63  F   UNL A   1      47.845  29.831  27.259  1.00  0.00    -0.203 F 
ATOM     64  C   UNL A   1      47.402  32.070  26.768  1.00  0.00     0.198 A 
ATOM     65  C   UNL A   1      45.177  32.905  26.757  1.00  0.00     0.198 A 
ATOM     66  F   UNL A   1      43.403  31.624  27.434  1.00  0.00    -0.203 F 
ATOM     67  F   UNL A   1      48.722  32.285  26.682  1.00  0.00    -0.200 F 
ATOM     68  C   UNL A   1      46.526  33.125  26.603  1.00  0.00     0.200 A 
ATOM     69  F   UNL A   1      44.308  33.916  26.613  1.00  0.00    -0.200 F 
ATOM     70  F   UNL A   1      46.980  34.359  26.348  1.00  0.00    -0.200 F 
ENDBRANCH  46  60
BRANCH  47  71
ATOM     71  C   UNL A   1      38.029  31.468  30.951  1.00  0.00     0.064 A 
ATOM     72  C   UNL A   1      37.357  31.802  29.763  1.00  0.00     0.173 A 
ATOM     73  C   UNL A   1      37.333  31.703  32.152  1.00  0.00     0.173 A 
ATOM     74  F   UNL A   1      37.934  31.580  28.574  1.00  0.00    -0.203 F 
ATOM     75  C   UNL A   1      36.050  32.297  29.773  1.00  0.00     0.198 A 
ATOM     76  C   UNL A   1      36.029  32.204  32.160  1.00  0.00     0.198 A 
ATOM     77  F   UNL A   1      37.870  31.360  33.332  1.00  0.00    -0.203 F 
ATOM     78  F   UNL A   1      35.417  32.532  28.615  1.00  0.00    -0.200 F 
ATOM     79  C   UNL A   1      35.380  32.483  30.970  1.00  0.00     0.200 A 
ATOM     80  F   UNL A   1      35.378  32.347  33.324  1.00  0.00    -0.200 F 
ATOM     81  F   UNL A   1      34.102  32.887  30.977  1.00  0.00    -0.200 F 
ENDBRANCH  47  71
BRANCH  59  82
ATOM     82  C   UNL A   1      43.110  29.069  33.502  1.00  0.00     0.064 A 
ATOM     83  C   UNL A   1      42.289  27.929  33.547  1.00  0.00     0.173 A 
ATOM     84  C   UNL A   1      43.720  29.469  34.699  1.00  0.00     0.173 A 
ATOM     85  F   UNL A   1      41.749  27.420  32.433  1.00  0.00    -0.203 F 
ATOM     86  C   UNL A   1      42.049  27.256  34.744  1.00  0.00     0.198 A 
ATOM     87  C   UNL A   1      43.509  28.773  35.886  1.00  0.00     0.198 A 
ATOM     88  F   UNL A   1      44.553  30.522  34.710  1.00  0.00    -0.203 F 
ATOM     89  F   UNL A   1      41.242  26.184  34.762  1.00  0.00    -0.200 F 
ATOM     90  C   UNL A   1      42.663  27.675  35.910  1.00  0.00     0.200 A 
ATOM     91  F   UNL A   1      44.143  29.154  37.002  1.00  0.00    -0.200 F 
ATOM     92  F   UNL A   1      42.461  27.008  37.055  1.00  0.00    -0.200 F 
ENDBRANCH  59  82
ENDBRANCH  33  34
ENDBRANCH  25  28
ENDBRANCH  23  24
ENDBRANCH  22  23
ENDBRANCH   1  22
TORSDOF 14
ENDMDL
