MODEL 1
REMARK VINA RESULT:     -13.5      0.000      0.000
REMARK SMILES C/C(Nc1ccc(C(=O)NCCCNC(=O)c2ccc(-c3c4nc(c(-c5c(F)c(F)c(F)c(F)c5F)c5ccc([nH]5)c(-c5c(F)c(F)c(F)c(F)c5F)c5nc(c(-c6c(F)c(F)c(F)c(F)c6F)c6ccc3[nH]6)C=C5)C=C4)cc2)c(O)c1)=C1/C(=O)O[C@H](C)C1=O
REMARK SMILES IDX 12 1 11 2 10 3 8 4 9 5 7 7 4 8 5 9 82 10 6 11 80 12 3 13
REMARK SMILES IDX 2 15 1 16 83 17 84 18 89 19 85 20 86 21 87 22 90 23 88 24
REMARK SMILES IDX 81 25 13 27 14 28 15 29 16 31 17 32 18 33 79 34 19 35 78 36
REMARK SMILES IDX 20 37 21 38 22 39 72 40 23 41 77 42 71 43 73 44 24 45 76 46
REMARK SMILES IDX 70 47 69 48 25 50 57 51 37 52 56 53 38 54 41 55 55 56 74 57
REMARK SMILES IDX 39 58 40 59 54 61 75 62 42 63 26 64 27 65 35 66 28 67 29 68
REMARK SMILES IDX 33 69 36 70 30 71 31 72 34 73 32 74 58 75 59 76 67 77 60 78
REMARK SMILES IDX 61 79 65 80 68 81 62 82 63 83 66 84 64 85 43 86 44 87 52 88
REMARK SMILES IDX 45 89 46 90 50 91 53 92 47 93 48 94 51 95 49 96
REMARK H PARENT 10 6 3 14 81 26 14 30 73 49 41 60
REMARK Flexibility Score: inf
ROOT
ATOM      1  C   UNL A   1      31.845  28.020  26.071  1.00  0.00     0.042 C 
ENDROOT
BRANCH   1   2
ATOM      2  C   UNL A   1      31.588  27.059  24.920  1.00  0.00     0.118 C 
BRANCH   2   3
ATOM      3  N   UNL A   1      32.255  27.404  23.671  1.00  0.00    -0.352 N 
ATOM      4  C   UNL A   1      33.214  26.735  22.945  1.00  0.00     0.255 C 
ATOM      5  O   UNL A   1      33.624  27.248  21.906  1.00  0.00    -0.269 OA
ATOM      6  H   UNL A   1      31.972  28.262  23.280  1.00  0.00     0.163 HD
BRANCH   4   7
ATOM      7  C   UNL A   1      33.808  25.460  23.415  1.00  0.00     0.081 A 
ATOM      8  C   UNL A   1      34.499  23.071  24.726  1.00  0.00     0.042 A 
ATOM      9  C   UNL A   1      34.845  24.308  25.277  1.00  0.00     0.027 A 
ATOM     10  C   UNL A   1      34.002  23.051  23.417  1.00  0.00     0.073 A 
ATOM     11  C   UNL A   1      34.471  25.497  24.647  1.00  0.00     0.020 A 
ATOM     12  C   UNL A   1      33.711  24.239  22.748  1.00  0.00     0.130 A 
BRANCH   8  13
ATOM     13  N   UNL A   1      34.513  21.873  25.464  1.00  0.00    -0.358 N 
ATOM     14  H   UNL A   1      34.269  21.966  26.414  1.00  0.00     0.166 HD
BRANCH  13  15
ATOM     15  C   UNL A   1      34.819  20.579  25.058  1.00  0.00     0.030 C 
ATOM     16  C   UNL A   1      36.316  20.317  25.013  1.00  0.00     0.065 C 
ATOM     17  C   UNL A   1      33.969  19.598  24.667  1.00  0.00     0.125 C 
ATOM     18  C   UNL A   1      32.514  19.652  24.421  1.00  0.00     0.344 C 
ATOM     19  C   UNL A   1      34.332  18.176  24.524  1.00  0.00     0.212 C 
ATOM     20  O   UNL A   1      31.832  20.616  24.113  1.00  0.00    -0.246 OA
ATOM     21  O   UNL A   1      32.027  18.375  24.490  1.00  0.00    -0.451 OA
ATOM     22  C   UNL A   1      33.064  17.378  24.560  1.00  0.00     0.245 C 
ATOM     23  O   UNL A   1      35.456  17.706  24.451  1.00  0.00    -0.290 OA
ATOM     24  C   UNL A   1      32.944  16.593  25.852  1.00  0.00     0.062 C 
ENDBRANCH  13  15
ENDBRANCH   8  13
BRANCH  12  25
ATOM     25  O   UNL A   1      33.334  24.116  21.440  1.00  0.00    -0.507 OA
ATOM     26  H   UNL A   1      33.751  23.485  20.889  1.00  0.00     0.293 HD
ENDBRANCH  12  25
ENDBRANCH   4   7
ENDBRANCH   2   3
ENDBRANCH   1   2
BRANCH   1  27
ATOM     27  C   UNL A   1      32.856  29.122  25.789  1.00  0.00     0.118 C 
BRANCH  27  28
ATOM     28  N   UNL A   1      32.450  30.442  26.257  1.00  0.00    -0.352 N 
ATOM     29  C   UNL A   1      33.063  31.341  27.100  1.00  0.00     0.251 C 
ATOM     30  H   UNL A   1      31.580  30.745  25.908  1.00  0.00     0.163 HD
ATOM     31  O   UNL A   1      32.471  32.364  27.434  1.00  0.00    -0.269 OA
BRANCH  29  32
ATOM     32  C   UNL A   1      34.412  31.071  27.646  1.00  0.00     0.039 A 
ATOM     33  C   UNL A   1      35.326  32.124  27.756  1.00  0.00     0.014 A 
ATOM     34  C   UNL A   1      34.782  29.791  28.050  1.00  0.00     0.014 A 
ATOM     35  C   UNL A   1      36.563  31.914  28.374  1.00  0.00     0.010 A 
ATOM     36  C   UNL A   1      35.958  29.610  28.769  1.00  0.00     0.010 A 
ATOM     37  C   UNL A   1      36.864  30.668  28.941  1.00  0.00    -0.014 A 
BRANCH  37  38
ATOM     38  C   UNL A   1      38.111  30.412  29.709  1.00  0.00     0.031 A 
ATOM     39  C   UNL A   1      39.135  29.456  29.161  1.00  0.00     0.074 A 
ATOM     40  C   UNL A   1      38.259  30.913  30.951  1.00  0.00     0.049 A 
ATOM     41  N   UNL A   1      40.161  28.903  29.753  1.00  0.00    -0.248 NA
ATOM     42  C   UNL A   1      38.941  29.026  27.767  1.00  0.00     0.031 C 
ATOM     43  C   UNL A   1      37.319  31.811  31.622  1.00  0.00     0.029 A 
ATOM     44  N   UNL A   1      39.244  30.706  31.886  1.00  0.00    -0.354 N 
ATOM     45  C   UNL A   1      40.700  28.021  28.824  1.00  0.00     0.074 A 
ATOM     46  C   UNL A   1      39.857  28.078  27.649  1.00  0.00     0.031 C 
ATOM     47  C   UNL A   1      37.771  32.079  32.857  1.00  0.00     0.029 A 
ATOM     48  C   UNL A   1      39.003  31.333  33.085  1.00  0.00     0.049 A 
ATOM     49  H   UNL A   1      40.044  30.160  31.714  1.00  0.00     0.167 HD
ATOM     50  C   UNL A   1      41.807  27.249  28.935  1.00  0.00     0.037 A 
ATOM     51  C   UNL A   1      39.684  31.289  34.247  1.00  0.00     0.037 A 
ATOM     52  C   UNL A   1      42.668  27.239  30.087  1.00  0.00     0.049 A 
ATOM     53  C   UNL A   1      40.931  30.453  34.341  1.00  0.00     0.074 A 
ATOM     54  C   UNL A   1      43.861  26.563  30.266  1.00  0.00     0.029 A 
ATOM     55  N   UNL A   1      42.428  27.948  31.256  1.00  0.00    -0.354 N 
ATOM     56  N   UNL A   1      41.467  29.668  33.439  1.00  0.00    -0.248 NA
ATOM     57  C   UNL A   1      41.670  30.499  35.610  1.00  0.00     0.031 C 
ATOM     58  C   UNL A   1      44.321  26.827  31.561  1.00  0.00     0.029 A 
ATOM     59  C   UNL A   1      43.442  27.710  32.168  1.00  0.00     0.049 A 
ATOM     60  H   UNL A   1      41.652  28.532  31.413  1.00  0.00     0.167 HD
ATOM     61  C   UNL A   1      42.618  29.150  34.016  1.00  0.00     0.074 A 
ATOM     62  C   UNL A   1      42.705  29.710  35.348  1.00  0.00     0.031 C 
ATOM     63  C   UNL A   1      43.523  28.291  33.485  1.00  0.00     0.037 A 
BRANCH  50  64
ATOM     64  C   UNL A   1      42.137  26.347  27.779  1.00  0.00     0.064 A 
ATOM     65  C   UNL A   1      41.509  25.103  27.607  1.00  0.00     0.173 A 
ATOM     66  C   UNL A   1      43.102  26.728  26.834  1.00  0.00     0.173 A 
ATOM     67  F   UNL A   1      40.585  24.685  28.487  1.00  0.00    -0.203 F 
ATOM     68  C   UNL A   1      41.872  24.254  26.565  1.00  0.00     0.198 A 
ATOM     69  C   UNL A   1      43.435  25.893  25.772  1.00  0.00     0.198 A 
ATOM     70  F   UNL A   1      43.726  27.910  26.943  1.00  0.00    -0.203 F 
ATOM     71  F   UNL A   1      41.313  23.040  26.468  1.00  0.00    -0.200 F 
ATOM     72  C   UNL A   1      42.831  24.651  25.646  1.00  0.00     0.200 A 
ATOM     73  F   UNL A   1      44.352  26.283  24.876  1.00  0.00    -0.200 F 
ATOM     74  F   UNL A   1      43.184  23.830  24.648  1.00  0.00    -0.200 F 
ENDBRANCH  50  64
BRANCH  51  75
ATOM     75  C   UNL A   1      39.200  32.084  35.405  1.00  0.00     0.064 A 
ATOM     76  C   UNL A   1      38.422  31.489  36.408  1.00  0.00     0.173 A 
ATOM     77  C   UNL A   1      39.540  33.436  35.557  1.00  0.00     0.173 A 
ATOM     78  F   UNL A   1      38.055  30.204  36.296  1.00  0.00    -0.203 F 
ATOM     79  C   UNL A   1      37.998  32.219  37.517  1.00  0.00     0.198 A 
ATOM     80  C   UNL A   1      39.137  34.158  36.679  1.00  0.00     0.198 A 
ATOM     81  F   UNL A   1      40.290  34.048  34.629  1.00  0.00    -0.203 F 
ATOM     82  F   UNL A   1      37.233  31.634  38.449  1.00  0.00    -0.200 F 
ATOM     83  C   UNL A   1      38.364  33.550  37.656  1.00  0.00     0.200 A 
ATOM     84  F   UNL A   1      39.506  35.438  36.817  1.00  0.00    -0.200 F 
ATOM     85  F   UNL A   1      37.970  34.246  38.731  1.00  0.00    -0.200 F 
ENDBRANCH  51  75
BRANCH  63  86
ATOM     86  C   UNL A   1      44.718  27.935  34.318  1.00  0.00     0.064 A 
ATOM     87  C   UNL A   1      44.740  26.789  35.125  1.00  0.00     0.173 A 
ATOM     88  C   UNL A   1      45.891  28.702  34.229  1.00  0.00     0.173 A 
ATOM     89  F   UNL A   1      43.639  26.033  35.253  1.00  0.00    -0.203 F 
ATOM     90  C   UNL A   1      45.892  26.427  35.819  1.00  0.00     0.198 A 
ATOM     91  C   UNL A   1      47.047  28.323  34.903  1.00  0.00     0.198 A 
ATOM     92  F   UNL A   1      45.921  29.803  33.464  1.00  0.00    -0.203 F 
ATOM     93  F   UNL A   1      45.885  25.342  36.605  1.00  0.00    -0.200 F 
ATOM     94  C   UNL A   1      47.047  27.188  35.698  1.00  0.00     0.200 A 
ATOM     95  F   UNL A   1      48.165  29.050  34.774  1.00  0.00    -0.200 F 
ATOM     96  F   UNL A   1      48.160  26.824  36.348  1.00  0.00    -0.200 F 
ENDBRANCH  63  86
ENDBRANCH  37  38
ENDBRANCH  29  32
ENDBRANCH  27  28
ENDBRANCH   1  27
TORSDOF 13
ENDMDL
MODEL 2
REMARK VINA RESULT:     -13.4      1.318      2.031
REMARK SMILES C/C(Nc1ccc(C(=O)NCCCNC(=O)c2ccc(-c3c4nc(c(-c5c(F)c(F)c(F)c(F)c5F)c5ccc([nH]5)c(-c5c(F)c(F)c(F)c(F)c5F)c5nc(c(-c6c(F)c(F)c(F)c(F)c6F)c6ccc3[nH]6)C=C5)C=C4)cc2)c(O)c1)=C1/C(=O)O[C@H](C)C1=O
REMARK SMILES IDX 12 1 11 2 10 3 8 4 9 5 7 7 4 8 5 9 82 10 6 11 80 12 3 13
REMARK SMILES IDX 2 15 1 16 83 17 84 18 89 19 85 20 86 21 87 22 90 23 88 24
REMARK SMILES IDX 81 25 13 27 14 28 15 29 16 31 17 32 18 33 79 34 19 35 78 36
REMARK SMILES IDX 20 37 21 38 22 39 72 40 23 41 77 42 71 43 73 44 24 45 76 46
REMARK SMILES IDX 70 47 69 48 25 50 57 51 37 52 56 53 38 54 41 55 55 56 74 57
REMARK SMILES IDX 39 58 40 59 54 61 75 62 42 63 26 64 27 65 35 66 28 67 29 68
REMARK SMILES IDX 33 69 36 70 30 71 31 72 34 73 32 74 58 75 59 76 67 77 60 78
REMARK SMILES IDX 61 79 65 80 68 81 62 82 63 83 66 84 64 85 43 86 44 87 52 88
REMARK SMILES IDX 45 89 46 90 50 91 53 92 47 93 48 94 51 95 49 96
REMARK H PARENT 10 6 3 14 81 26 14 30 73 49 41 60
REMARK Flexibility Score: inf
ROOT
ATOM      1  C   UNL A   1      32.716  27.973  25.614  1.00  0.00     0.042 C 
ENDROOT
BRANCH   1   2
ATOM      2  C   UNL A   1      31.225  27.765  25.399  1.00  0.00     0.118 C 
BRANCH   2   3
ATOM      3  N   UNL A   1      30.705  28.298  24.145  1.00  0.00    -0.352 N 
ATOM      4  C   UNL A   1      30.641  27.743  22.887  1.00  0.00     0.255 C 
ATOM      5  O   UNL A   1      30.150  28.410  21.979  1.00  0.00    -0.269 OA
ATOM      6  H   UNL A   1      30.338  29.209  24.209  1.00  0.00     0.163 HD
BRANCH   4   7
ATOM      7  C   UNL A   1      31.206  26.406  22.588  1.00  0.00     0.081 A 
ATOM      8  C   UNL A   1      32.768  24.084  22.306  1.00  0.00     0.042 A 
ATOM      9  C   UNL A   1      32.994  25.195  21.487  1.00  0.00     0.027 A 
ATOM     10  C   UNL A   1      31.619  24.081  23.106  1.00  0.00     0.073 A 
ATOM     11  C   UNL A   1      32.245  26.362  21.650  1.00  0.00     0.020 A 
ATOM     12  C   UNL A   1      30.815  25.217  23.201  1.00  0.00     0.130 A 
BRANCH   8  13
ATOM     13  N   UNL A   1      33.698  23.038  22.450  1.00  0.00    -0.358 N 
ATOM     14  H   UNL A   1      33.806  22.465  21.657  1.00  0.00     0.166 HD
BRANCH  13  15
ATOM     15  C   UNL A   1      34.485  22.690  23.542  1.00  0.00     0.030 C 
ATOM     16  C   UNL A   1      35.889  23.269  23.461  1.00  0.00     0.065 C 
ATOM     17  C   UNL A   1      34.166  21.888  24.587  1.00  0.00     0.125 C 
ATOM     18  C   UNL A   1      32.971  21.047  24.802  1.00  0.00     0.344 C 
ATOM     19  C   UNL A   1      34.936  21.790  25.841  1.00  0.00     0.212 C 
ATOM     20  O   UNL A   1      32.225  20.563  23.966  1.00  0.00    -0.246 OA
ATOM     21  O   UNL A   1      32.872  20.788  26.141  1.00  0.00    -0.451 OA
ATOM     22  C   UNL A   1      34.032  21.208  26.885  1.00  0.00     0.245 C 
ATOM     23  O   UNL A   1      36.082  22.165  26.033  1.00  0.00    -0.290 OA
ATOM     24  C   UNL A   1      33.640  22.249  27.915  1.00  0.00     0.062 C 
ENDBRANCH  13  15
ENDBRANCH   8  13
BRANCH  12  25
ATOM     25  O   UNL A   1      29.660  25.078  23.920  1.00  0.00    -0.507 OA
ATOM     26  H   UNL A   1      28.843  25.350  23.552  1.00  0.00     0.293 HD
ENDBRANCH  12  25
ENDBRANCH   4   7
ENDBRANCH   2   3
ENDBRANCH   1   2
BRANCH   1  27
ATOM     27  C   UNL A   1      33.252  29.338  25.206  1.00  0.00     0.118 C 
BRANCH  27  28
ATOM     28  N   UNL A   1      32.675  30.454  25.946  1.00  0.00    -0.352 N 
ATOM     29  C   UNL A   1      33.142  31.176  27.020  1.00  0.00     0.251 C 
ATOM     30  H   UNL A   1      31.792  30.742  25.618  1.00  0.00     0.163 HD
ATOM     31  O   UNL A   1      32.420  32.020  27.546  1.00  0.00    -0.269 OA
BRANCH  29  32
ATOM     32  C   UNL A   1      34.488  30.920  27.580  1.00  0.00     0.039 A 
ATOM     33  C   UNL A   1      35.406  31.973  27.656  1.00  0.00     0.014 A 
ATOM     34  C   UNL A   1      34.852  29.654  28.030  1.00  0.00     0.014 A 
ATOM     35  C   UNL A   1      36.640  31.780  28.286  1.00  0.00     0.010 A 
ATOM     36  C   UNL A   1      36.024  29.493  28.758  1.00  0.00     0.010 A 
ATOM     37  C   UNL A   1      36.933  30.553  28.897  1.00  0.00    -0.014 A 
BRANCH  37  38
ATOM     38  C   UNL A   1      38.177  30.319  29.678  1.00  0.00     0.031 A 
ATOM     39  C   UNL A   1      39.214  29.367  29.150  1.00  0.00     0.074 A 
ATOM     40  C   UNL A   1      38.310  30.838  30.914  1.00  0.00     0.049 A 
ATOM     41  N   UNL A   1      40.241  28.832  29.757  1.00  0.00    -0.248 NA
ATOM     42  C   UNL A   1      39.035  28.916  27.760  1.00  0.00     0.031 C 
ATOM     43  C   UNL A   1      37.356  31.735  31.566  1.00  0.00     0.029 A 
ATOM     44  N   UNL A   1      39.290  30.652  31.859  1.00  0.00    -0.354 N 
ATOM     45  C   UNL A   1      40.795  27.942  28.844  1.00  0.00     0.074 A 
ATOM     46  C   UNL A   1      39.962  27.976  27.662  1.00  0.00     0.031 C 
ATOM     47  C   UNL A   1      37.797  32.024  32.800  1.00  0.00     0.029 A 
ATOM     48  C   UNL A   1      39.034  31.292  33.048  1.00  0.00     0.049 A 
ATOM     49  H   UNL A   1      40.097  30.112  31.700  1.00  0.00     0.167 HD
ATOM     50  C   UNL A   1      41.909  27.183  28.973  1.00  0.00     0.037 A 
ATOM     51  C   UNL A   1      39.707  31.270  34.216  1.00  0.00     0.037 A 
ATOM     52  C   UNL A   1      42.762  27.196  30.132  1.00  0.00     0.049 A 
ATOM     53  C   UNL A   1      40.961  30.448  34.330  1.00  0.00     0.074 A 
ATOM     54  C   UNL A   1      43.960  26.534  30.329  1.00  0.00     0.029 A 
ATOM     55  N   UNL A   1      42.506  27.918  31.289  1.00  0.00    -0.354 N 
ATOM     56  N   UNL A   1      41.511  29.656  33.442  1.00  0.00    -0.248 NA
ATOM     57  C   UNL A   1      41.689  30.517  35.604  1.00  0.00     0.031 C 
ATOM     58  C   UNL A   1      44.407  26.819  31.624  1.00  0.00     0.029 A 
ATOM     59  C   UNL A   1      43.515  27.701  32.213  1.00  0.00     0.049 A 
ATOM     60  H   UNL A   1      41.722  28.496  31.433  1.00  0.00     0.167 HD
ATOM     61  C   UNL A   1      42.662  29.157  34.035  1.00  0.00     0.074 A 
ATOM     62  C   UNL A   1      42.734  29.735  35.360  1.00  0.00     0.031 C 
ATOM     63  C   UNL A   1      43.580  28.300  33.523  1.00  0.00     0.037 A 
BRANCH  50  64
ATOM     64  C   UNL A   1      42.257  26.269  27.832  1.00  0.00     0.064 A 
ATOM     65  C   UNL A   1      43.218  26.618  26.869  1.00  0.00     0.173 A 
ATOM     66  C   UNL A   1      41.614  25.029  27.693  1.00  0.00     0.173 A 
ATOM     67  F   UNL A   1      43.856  27.796  26.949  1.00  0.00    -0.203 F 
ATOM     68  C   UNL A   1      43.483  25.786  25.785  1.00  0.00     0.198 A 
ATOM     69  C   UNL A   1      41.909  24.183  26.629  1.00  0.00     0.198 A 
ATOM     70  F   UNL A   1      40.696  24.640  28.589  1.00  0.00    -0.203 F 
ATOM     71  F   UNL A   1      44.348  26.178  24.839  1.00  0.00    -0.200 F 
ATOM     72  C   UNL A   1      42.832  24.568  25.667  1.00  0.00     0.200 A 
ATOM     73  F   UNL A   1      41.291  22.999  26.524  1.00  0.00    -0.200 F 
ATOM     74  F   UNL A   1      43.083  23.772  24.620  1.00  0.00    -0.200 F 
ENDBRANCH  50  64
BRANCH  51  75
ATOM     75  C   UNL A   1      39.206  32.075  35.360  1.00  0.00     0.064 A 
ATOM     76  C   UNL A   1      38.433  31.485  36.369  1.00  0.00     0.173 A 
ATOM     77  C   UNL A   1      39.524  33.435  35.492  1.00  0.00     0.173 A 
ATOM     78  F   UNL A   1      38.087  30.192  36.276  1.00  0.00    -0.203 F 
ATOM     79  C   UNL A   1      37.994  32.224  37.466  1.00  0.00     0.198 A 
ATOM     80  C   UNL A   1      39.106  34.168  36.601  1.00  0.00     0.198 A 
ATOM     81  F   UNL A   1      40.267  34.044  34.556  1.00  0.00    -0.203 F 
ATOM     82  F   UNL A   1      37.235  31.642  38.404  1.00  0.00    -0.200 F 
ATOM     83  C   UNL A   1      38.338  33.563  37.585  1.00  0.00     0.200 A 
ATOM     84  F   UNL A   1      39.454  35.456  36.720  1.00  0.00    -0.200 F 
ATOM     85  F   UNL A   1      37.930  34.269  38.647  1.00  0.00    -0.200 F 
ENDBRANCH  51  75
BRANCH  63  86
ATOM     86  C   UNL A   1      44.772  27.966  34.369  1.00  0.00     0.064 A 
ATOM     87  C   UNL A   1      44.788  26.846  35.210  1.00  0.00     0.173 A 
ATOM     88  C   UNL A   1      45.946  28.728  34.261  1.00  0.00     0.173 A 
ATOM     89  F   UNL A   1      43.686  26.096  35.357  1.00  0.00    -0.203 F 
ATOM     90  C   UNL A   1      45.938  26.502  35.918  1.00  0.00     0.198 A 
ATOM     91  C   UNL A   1      47.100  28.367  34.949  1.00  0.00     0.198 A 
ATOM     92  F   UNL A   1      45.981  29.806  33.463  1.00  0.00    -0.203 F 
ATOM     93  F   UNL A   1      45.926  25.441  36.736  1.00  0.00    -0.200 F 
ATOM     94  C   UNL A   1      47.095  27.256  35.778  1.00  0.00     0.200 A 
ATOM     95  F   UNL A   1      48.220  29.087  34.801  1.00  0.00    -0.200 F 
ATOM     96  F   UNL A   1      48.205  26.909  36.442  1.00  0.00    -0.200 F 
ENDBRANCH  63  86
ENDBRANCH  37  38
ENDBRANCH  29  32
ENDBRANCH  27  28
ENDBRANCH   1  27
TORSDOF 13
ENDMDL
MODEL 3
REMARK VINA RESULT:     -13.3      4.507     10.269
REMARK SMILES C/C(Nc1ccc(C(=O)NCCCNC(=O)c2ccc(-c3c4nc(c(-c5c(F)c(F)c(F)c(F)c5F)c5ccc([nH]5)c(-c5c(F)c(F)c(F)c(F)c5F)c5nc(c(-c6c(F)c(F)c(F)c(F)c6F)c6ccc3[nH]6)C=C5)C=C4)cc2)c(O)c1)=C1/C(=O)O[C@H](C)C1=O
REMARK SMILES IDX 12 1 11 2 10 3 8 4 9 5 7 7 4 8 5 9 82 10 6 11 80 12 3 13
REMARK SMILES IDX 2 15 1 16 83 17 84 18 89 19 85 20 86 21 87 22 90 23 88 24
REMARK SMILES IDX 81 25 13 27 14 28 15 29 16 31 17 32 18 33 79 34 19 35 78 36
REMARK SMILES IDX 20 37 21 38 22 39 72 40 23 41 77 42 71 43 73 44 24 45 76 46
REMARK SMILES IDX 70 47 69 48 25 50 57 51 37 52 56 53 38 54 41 55 55 56 74 57
REMARK SMILES IDX 39 58 40 59 54 61 75 62 42 63 26 64 27 65 35 66 28 67 29 68
REMARK SMILES IDX 33 69 36 70 30 71 31 72 34 73 32 74 58 75 59 76 67 77 60 78
REMARK SMILES IDX 61 79 65 80 68 81 62 82 63 83 66 84 64 85 43 86 44 87 52 88
REMARK SMILES IDX 45 89 46 90 50 91 53 92 47 93 48 94 51 95 49 96
REMARK H PARENT 10 6 3 14 81 26 14 30 73 49 41 60
REMARK Flexibility Score: inf
ROOT
ATOM      1  C   UNL A   1      37.751  20.442  24.810  1.00  0.00     0.042 C 
ENDROOT
BRANCH   1   2
ATOM      2  C   UNL A   1      36.356  20.705  25.356  1.00  0.00     0.118 C 
BRANCH   2   3
ATOM      3  N   UNL A   1      35.359  19.701  25.001  1.00  0.00    -0.352 N 
ATOM      4  C   UNL A   1      34.073  19.834  24.531  1.00  0.00     0.255 C 
ATOM      5  O   UNL A   1      33.424  18.814  24.307  1.00  0.00    -0.269 OA
ATOM      6  H   UNL A   1      35.657  18.771  25.118  1.00  0.00     0.163 HD
BRANCH   4   7
ATOM      7  C   UNL A   1      33.432  21.160  24.358  1.00  0.00     0.081 A 
ATOM      8  C   UNL A   1      32.176  23.505  23.447  1.00  0.00     0.042 A 
ATOM      9  C   UNL A   1      33.537  23.293  23.212  1.00  0.00     0.027 A 
ATOM     10  C   UNL A   1      31.518  22.635  24.325  1.00  0.00     0.073 A 
ATOM     11  C   UNL A   1      34.156  22.113  23.630  1.00  0.00     0.020 A 
ATOM     12  C   UNL A   1      32.162  21.501  24.819  1.00  0.00     0.130 A 
BRANCH   8  13
ATOM     13  N   UNL A   1      31.420  24.468  22.754  1.00  0.00    -0.358 N 
ATOM     14  H   UNL A   1      31.017  24.155  21.913  1.00  0.00     0.166 HD
BRANCH  13  15
ATOM     15  C   UNL A   1      31.157  25.795  23.076  1.00  0.00     0.030 C 
ATOM     16  C   UNL A   1      29.768  25.993  23.662  1.00  0.00     0.065 C 
ATOM     17  C   UNL A   1      31.947  26.880  22.882  1.00  0.00     0.125 C 
ATOM     18  C   UNL A   1      33.228  26.998  22.157  1.00  0.00     0.344 C 
ATOM     19  C   UNL A   1      31.730  28.202  23.499  1.00  0.00     0.212 C 
ATOM     20  O   UNL A   1      33.654  26.299  21.252  1.00  0.00    -0.246 OA
ATOM     21  O   UNL A   1      33.860  28.128  22.598  1.00  0.00    -0.451 OA
ATOM     22  C   UNL A   1      33.028  28.949  23.440  1.00  0.00     0.245 C 
ATOM     23  O   UNL A   1      30.706  28.611  24.023  1.00  0.00    -0.290 OA
ATOM     24  C   UNL A   1      33.650  29.080  24.816  1.00  0.00     0.062 C 
ENDBRANCH  13  15
ENDBRANCH   8  13
BRANCH  12  25
ATOM     25  O   UNL A   1      31.473  20.776  25.752  1.00  0.00    -0.507 OA
ATOM     26  H   UNL A   1      31.171  21.188  26.537  1.00  0.00     0.293 HD
ENDBRANCH  12  25
ENDBRANCH   4   7
ENDBRANCH   2   3
ENDBRANCH   1   2
BRANCH   1  27
ATOM     27  C   UNL A   1      38.891  20.659  25.794  1.00  0.00     0.118 C 
BRANCH  27  28
ATOM     28  N   UNL A   1      39.851  19.562  25.851  1.00  0.00    -0.352 N 
ATOM     29  C   UNL A   1      41.207  19.547  26.080  1.00  0.00     0.251 C 
ATOM     30  H   UNL A   1      39.456  18.673  25.699  1.00  0.00     0.163 HD
ATOM     31  O   UNL A   1      41.830  18.493  25.977  1.00  0.00    -0.269 OA
BRANCH  29  32
ATOM     32  C   UNL A   1      41.936  20.793  26.406  1.00  0.00     0.039 A 
ATOM     33  C   UNL A   1      42.283  21.671  25.373  1.00  0.00     0.014 A 
ATOM     34  C   UNL A   1      42.280  21.104  27.719  1.00  0.00     0.014 A 
ATOM     35  C   UNL A   1      42.869  22.905  25.671  1.00  0.00     0.010 A 
ATOM     36  C   UNL A   1      42.752  22.375  28.024  1.00  0.00     0.010 A 
ATOM     37  C   UNL A   1      43.052  23.292  27.006  1.00  0.00    -0.014 A 
BRANCH  37  38
ATOM     38  C   UNL A   1      43.564  24.634  27.393  1.00  0.00     0.031 A 
ATOM     39  C   UNL A   1      42.612  25.659  27.943  1.00  0.00     0.074 A 
ATOM     40  C   UNL A   1      44.837  24.980  27.116  1.00  0.00     0.049 A 
ATOM     41  N   UNL A   1      42.780  26.945  28.116  1.00  0.00    -0.248 NA
ATOM     42  C   UNL A   1      41.268  25.175  28.296  1.00  0.00     0.031 C 
ATOM     43  C   UNL A   1      45.850  24.098  26.537  1.00  0.00     0.029 A 
ATOM     44  N   UNL A   1      45.485  26.183  27.254  1.00  0.00    -0.354 N 
ATOM     45  C   UNL A   1      41.549  27.429  28.544  1.00  0.00     0.074 A 
ATOM     46  C   UNL A   1      40.635  26.308  28.557  1.00  0.00     0.031 C 
ATOM     47  C   UNL A   1      46.990  24.787  26.371  1.00  0.00     0.029 A 
ATOM     48  C   UNL A   1      46.775  26.170  26.781  1.00  0.00     0.049 A 
ATOM     49  H   UNL A   1      45.065  26.979  27.652  1.00  0.00     0.167 HD
ATOM     50  C   UNL A   1      41.218  28.690  28.911  1.00  0.00     0.037 A 
ATOM     51  C   UNL A   1      47.674  27.166  26.666  1.00  0.00     0.037 A 
ATOM     52  C   UNL A   1      42.148  29.787  28.946  1.00  0.00     0.049 A 
ATOM     53  C   UNL A   1      47.301  28.554  27.110  1.00  0.00     0.074 A 
ATOM     54  C   UNL A   1      41.938  31.081  29.387  1.00  0.00     0.029 A 
ATOM     55  N   UNL A   1      43.469  29.713  28.528  1.00  0.00    -0.354 N 
ATOM     56  N   UNL A   1      46.154  28.991  27.570  1.00  0.00    -0.248 NA
ATOM     57  C   UNL A   1      48.344  29.585  27.026  1.00  0.00     0.031 C 
ATOM     58  C   UNL A   1      43.121  31.804  29.194  1.00  0.00     0.029 A 
ATOM     59  C   UNL A   1      44.082  30.945  28.683  1.00  0.00     0.049 A 
ATOM     60  H   UNL A   1      43.905  28.905  28.173  1.00  0.00     0.167 HD
ATOM     61  C   UNL A   1      46.344  30.335  27.857  1.00  0.00     0.074 A 
ATOM     62  C   UNL A   1      47.717  30.645  27.520  1.00  0.00     0.031 C 
ATOM     63  C   UNL A   1      45.458  31.231  28.360  1.00  0.00     0.037 A 
BRANCH  50  64
ATOM     64  C   UNL A   1      39.788  28.943  29.294  1.00  0.00     0.064 A 
ATOM     65  C   UNL A   1      39.331  28.773  30.611  1.00  0.00     0.173 A 
ATOM     66  C   UNL A   1      38.857  29.356  28.329  1.00  0.00     0.173 A 
ATOM     67  F   UNL A   1      40.178  28.371  31.573  1.00  0.00    -0.203 F 
ATOM     68  C   UNL A   1      37.990  28.953  30.935  1.00  0.00     0.198 A 
ATOM     69  C   UNL A   1      37.523  29.572  28.664  1.00  0.00     0.198 A 
ATOM     70  F   UNL A   1      39.238  29.545  27.057  1.00  0.00    -0.203 F 
ATOM     71  F   UNL A   1      37.566  28.709  32.183  1.00  0.00    -0.200 F 
ATOM     72  C   UNL A   1      37.087  29.356  29.963  1.00  0.00     0.200 A 
ATOM     73  F   UNL A   1      36.655  29.976  27.727  1.00  0.00    -0.200 F 
ATOM     74  F   UNL A   1      35.795  29.523  30.275  1.00  0.00    -0.200 F 
ENDBRANCH  50  64
BRANCH  51  75
ATOM     75  C   UNL A   1      49.024  26.869  26.119  1.00  0.00     0.064 A 
ATOM     76  C   UNL A   1      50.035  26.357  26.942  1.00  0.00     0.173 A 
ATOM     77  C   UNL A   1      49.317  27.048  24.759  1.00  0.00     0.173 A 
ATOM     78  F   UNL A   1      49.807  26.187  28.253  1.00  0.00    -0.203 F 
ATOM     79  C   UNL A   1      51.290  26.038  26.428  1.00  0.00     0.198 A 
ATOM     80  C   UNL A   1      50.564  26.706  24.240  1.00  0.00     0.198 A 
ATOM     81  F   UNL A   1      48.380  27.529  23.928  1.00  0.00    -0.203 F 
ATOM     82  F   UNL A   1      52.248  25.573  27.242  1.00  0.00    -0.200 F 
ATOM     83  C   UNL A   1      51.551  26.204  25.076  1.00  0.00     0.200 A 
ATOM     84  F   UNL A   1      50.806  26.854  22.930  1.00  0.00    -0.200 F 
ATOM     85  F   UNL A   1      52.752  25.882  24.578  1.00  0.00    -0.200 F 
ENDBRANCH  51  75
BRANCH  63  86
ATOM     86  C   UNL A   1      45.949  32.622  28.628  1.00  0.00     0.064 A 
ATOM     87  C   UNL A   1      46.569  32.965  29.837  1.00  0.00     0.173 A 
ATOM     88  C   UNL A   1      45.879  33.599  27.621  1.00  0.00     0.173 A 
ATOM     89  F   UNL A   1      46.646  32.071  30.834  1.00  0.00    -0.203 F 
ATOM     90  C   UNL A   1      47.099  34.238  30.031  1.00  0.00     0.198 A 
ATOM     91  C   UNL A   1      46.433  34.861  27.809  1.00  0.00     0.198 A 
ATOM     92  F   UNL A   1      45.301  33.316  26.445  1.00  0.00    -0.203 F 
ATOM     93  F   UNL A   1      47.667  34.554  31.202  1.00  0.00    -0.200 F 
ATOM     94  C   UNL A   1      47.041  35.181  29.013  1.00  0.00     0.200 A 
ATOM     95  F   UNL A   1      46.389  35.764  26.820  1.00  0.00    -0.200 F 
ATOM     96  F   UNL A   1      47.572  36.397  29.194  1.00  0.00    -0.200 F 
ENDBRANCH  63  86
ENDBRANCH  37  38
ENDBRANCH  29  32
ENDBRANCH  27  28
ENDBRANCH   1  27
TORSDOF 13
ENDMDL
