MODEL 1
REMARK VINA RESULT:     -12.0      0.000      0.000
REMARK SMILES CC[C@](C)([NH3+])C(=O)N1CC[NH+]([C@H](C)C(=O)NCCCNC(=O)c2ccc(-c3c4nc(c(-c5c(F)c(F)c(F)c(F)c5F)c5ccc([nH]5)c(-c5c(F)c(F)c(F)c(F)c5F)c5nc(c(-c6c(F)c(F)c(F)c(F)c6F)c6ccc3[nH]6)C=C5)C=C4)cc2)CC1
REMARK SMILES IDX 17 1 16 2 14 3 15 4 12 6 13 7 11 8 6 9 7 10 8 11 9 12 87 13
REMARK SMILES IDX 10 14 86 15 3 17 4 18 2 19 1 20 5 21 18 25 19 26 20 27 21 28
REMARK SMILES IDX 22 30 23 31 24 32 85 33 25 34 84 35 26 36 27 37 28 38 78 39
REMARK SMILES IDX 29 40 83 41 77 42 79 43 30 44 82 45 76 46 75 47 31 49 63 50
REMARK SMILES IDX 43 51 62 52 44 53 47 54 61 55 80 56 45 57 46 58 60 60 81 61
REMARK SMILES IDX 48 62 32 63 33 64 41 65 34 66 35 67 39 68 42 69 36 70 37 71
REMARK SMILES IDX 40 72 38 73 64 74 65 75 73 76 66 77 67 78 71 79 74 80 68 81
REMARK SMILES IDX 69 82 72 83 70 84 49 85 50 86 58 87 51 88 52 89 56 90 59 91
REMARK SMILES IDX 53 92 54 93 57 94 55 95
REMARK H PARENT 16 5 11 16 5 22 5 23 5 24 20 29 79 48 47 59
REMARK Flexibility Score: inf
ROOT
ATOM      1  C   UNL A   1      31.400  29.249  23.842  1.00  0.00     0.118 C 
ENDROOT
BRANCH   1   2
ATOM      2  N   UNL A   1      32.642  29.095  23.113  1.00  0.00    -0.351 N 
ATOM      3  C   UNL A   1      33.153  27.995  22.482  1.00  0.00     0.278 C 
ATOM      4  O   UNL A   1      34.120  28.188  21.737  1.00  0.00    -0.268 OA
ATOM      5  H   UNL A   1      33.201  29.904  23.065  1.00  0.00     0.163 HD
BRANCH   3   6
ATOM      6  C   UNL A   1      32.599  26.568  22.715  1.00  0.00     0.271 C 
ATOM      7  C   UNL A   1      32.687  25.700  21.451  1.00  0.00     0.086 C 
BRANCH   6   8
ATOM      8  N   UNL A   1      32.992  25.955  24.022  1.00  0.00    -0.322 N 
ATOM      9  C   UNL A   1      34.002  22.311  25.429  1.00  0.00     0.283 C 
ATOM     10  O   UNL A   1      35.194  21.980  25.531  1.00  0.00    -0.268 OA
ATOM     11  N   UNL A   1      33.664  23.642  25.635  1.00  0.00    -0.326 N 
ATOM     12  C   UNL A   1      34.690  24.653  25.410  1.00  0.00     0.181 C 
ATOM     13  C   UNL A   1      32.358  24.268  25.813  1.00  0.00     0.181 C 
ATOM     14  C   UNL A   1      34.343  25.369  24.089  1.00  0.00     0.284 C 
ATOM     15  C   UNL A   1      31.951  25.029  24.534  1.00  0.00     0.284 C 
ATOM     16  H   UNL A   1      33.052  26.753  24.653  1.00  0.00     0.348 HD
BRANCH   9  17
ATOM     17  C   UNL A   1      32.991  21.259  24.829  1.00  0.00     0.171 C 
ATOM     18  C   UNL A   1      33.666  19.873  24.767  1.00  0.00     0.090 C 
BRANCH  17  19
ATOM     19  C   UNL A   1      32.559  21.731  23.413  1.00  0.00     0.075 C 
ATOM     20  C   UNL A   1      32.123  20.629  22.452  1.00  0.00     0.011 C 
ENDBRANCH  17  19
BRANCH  17  21
ATOM     21  N   UNL A   1      31.765  21.090  25.642  1.00  0.00    -0.345 N 
ATOM     22  H   UNL A   1      31.589  21.942  26.175  1.00  0.00     0.345 HD
ATOM     23  H   UNL A   1      31.887  20.307  26.284  1.00  0.00     0.345 HD
ATOM     24  H   UNL A   1      30.972  20.906  25.027  1.00  0.00     0.345 HD
ENDBRANCH  17  21
ENDBRANCH   9  17
ENDBRANCH   6   8
ENDBRANCH   3   6
ENDBRANCH   1   2
BRANCH   1  25
ATOM     25  C   UNL A   1      31.529  29.149  25.343  1.00  0.00     0.042 C 
BRANCH  25  26
ATOM     26  C   UNL A   1      32.792  29.782  25.894  1.00  0.00     0.118 C 
BRANCH  26  27
ATOM     27  N   UNL A   1      32.595  31.138  26.394  1.00  0.00    -0.352 N 
ATOM     28  C   UNL A   1      33.319  31.893  27.288  1.00  0.00     0.251 C 
ATOM     29  H   UNL A   1      31.804  31.594  26.028  1.00  0.00     0.163 HD
ATOM     30  O   UNL A   1      32.872  32.968  27.670  1.00  0.00    -0.269 OA
BRANCH  28  31
ATOM     31  C   UNL A   1      34.610  31.405  27.819  1.00  0.00     0.039 A 
ATOM     32  C   UNL A   1      35.658  32.313  27.992  1.00  0.00     0.014 A 
ATOM     33  C   UNL A   1      34.798  30.065  28.154  1.00  0.00     0.014 A 
ATOM     34  C   UNL A   1      36.850  31.889  28.581  1.00  0.00     0.010 A 
ATOM     35  C   UNL A   1      35.921  29.678  28.874  1.00  0.00     0.010 A 
ATOM     36  C   UNL A   1      36.970  30.580  29.081  1.00  0.00    -0.014 A 
BRANCH  36  37
ATOM     37  C   UNL A   1      38.187  30.149  29.813  1.00  0.00     0.031 A 
ATOM     38  C   UNL A   1      38.437  30.611  31.224  1.00  0.00     0.074 A 
ATOM     39  C   UNL A   1      39.091  29.370  29.186  1.00  0.00     0.049 A 
ATOM     40  N   UNL A   1      39.430  30.318  32.027  1.00  0.00    -0.248 NA
ATOM     41  C   UNL A   1      37.466  31.555  31.803  1.00  0.00     0.031 C 
ATOM     42  C   UNL A   1      39.006  28.931  27.792  1.00  0.00     0.029 A 
ATOM     43  N   UNL A   1      40.255  28.802  29.640  1.00  0.00    -0.354 N 
ATOM     44  C   UNL A   1      39.203  31.043  33.190  1.00  0.00     0.074 A 
ATOM     45  C   UNL A   1      38.028  31.853  32.963  1.00  0.00     0.031 C 
ATOM     46  C   UNL A   1      40.037  28.115  27.522  1.00  0.00     0.029 A 
ATOM     47  C   UNL A   1      40.877  28.006  28.710  1.00  0.00     0.049 A 
ATOM     48  H   UNL A   1      40.609  28.950  30.547  1.00  0.00     0.167 HD
ATOM     49  C   UNL A   1      39.891  31.009  34.356  1.00  0.00     0.037 A 
ATOM     50  C   UNL A   1      41.994  27.262  28.808  1.00  0.00     0.037 A 
ATOM     51  C   UNL A   1      41.047  30.183  34.583  1.00  0.00     0.049 A 
ATOM     52  C   UNL A   1      42.728  27.227  30.121  1.00  0.00     0.074 A 
ATOM     53  C   UNL A   1      41.779  30.023  35.745  1.00  0.00     0.029 A 
ATOM     54  N   UNL A   1      41.643  29.379  33.621  1.00  0.00    -0.354 N 
ATOM     55  N   UNL A   1      42.449  27.843  31.244  1.00  0.00    -0.248 NA
ATOM     56  C   UNL A   1      43.926  26.379  30.181  1.00  0.00     0.031 C 
ATOM     57  C   UNL A   1      42.852  29.167  35.471  1.00  0.00     0.029 A 
ATOM     58  C   UNL A   1      42.750  28.742  34.156  1.00  0.00     0.049 A 
ATOM     59  H   UNL A   1      41.324  29.277  32.695  1.00  0.00     0.167 HD
ATOM     60  C   UNL A   1      43.422  27.443  32.150  1.00  0.00     0.074 A 
ATOM     61  C   UNL A   1      44.277  26.504  31.453  1.00  0.00     0.031 C 
ATOM     62  C   UNL A   1      43.597  27.820  33.442  1.00  0.00     0.037 A 
BRANCH  49  63
ATOM     63  C   UNL A   1      39.402  31.884  35.476  1.00  0.00     0.064 A 
ATOM     64  C   UNL A   1      38.518  31.405  36.457  1.00  0.00     0.173 A 
ATOM     65  C   UNL A   1      39.847  33.211  35.592  1.00  0.00     0.173 A 
ATOM     66  F   UNL A   1      38.051  30.150  36.388  1.00  0.00    -0.203 F 
ATOM     67  C   UNL A   1      38.072  32.228  37.487  1.00  0.00     0.198 A 
ATOM     68  C   UNL A   1      39.426  34.021  36.645  1.00  0.00     0.198 A 
ATOM     69  F   UNL A   1      40.694  33.721  34.685  1.00  0.00    -0.203 F 
ATOM     70  F   UNL A   1      37.183  31.765  38.377  1.00  0.00    -0.200 F 
ATOM     71  C   UNL A   1      38.533  33.532  37.586  1.00  0.00     0.200 A 
ATOM     72  F   UNL A   1      39.883  35.277  36.745  1.00  0.00    -0.200 F 
ATOM     73  F   UNL A   1      38.110  34.321  38.583  1.00  0.00    -0.200 F 
ENDBRANCH  49  63
BRANCH  50  74
ATOM     74  C   UNL A   1      42.462  26.460  27.646  1.00  0.00     0.064 A 
ATOM     75  C   UNL A   1      41.950  25.178  27.399  1.00  0.00     0.173 A 
ATOM     76  C   UNL A   1      43.430  26.955  26.760  1.00  0.00     0.173 A 
ATOM     77  F   UNL A   1      41.033  24.653  28.226  1.00  0.00    -0.203 F 
ATOM     78  C   UNL A   1      42.409  24.411  26.330  1.00  0.00     0.198 A 
ATOM     79  C   UNL A   1      43.864  26.199  25.672  1.00  0.00     0.198 A 
ATOM     80  F   UNL A   1      43.947  28.179  26.944  1.00  0.00    -0.203 F 
ATOM     81  F   UNL A   1      41.941  23.167  26.151  1.00  0.00    -0.200 F 
ATOM     82  C   UNL A   1      43.362  24.924  25.464  1.00  0.00     0.200 A 
ATOM     83  F   UNL A   1      44.771  26.708  24.826  1.00  0.00    -0.200 F 
ATOM     84  F   UNL A   1      43.800  24.189  24.434  1.00  0.00    -0.200 F 
ENDBRANCH  50  74
BRANCH  62  85
ATOM     85  C   UNL A   1      44.747  27.198  34.181  1.00  0.00     0.064 A 
ATOM     86  C   UNL A   1      46.008  27.811  34.233  1.00  0.00     0.173 A 
ATOM     87  C   UNL A   1      44.586  25.974  34.848  1.00  0.00     0.173 A 
ATOM     88  F   UNL A   1      46.220  28.975  33.601  1.00  0.00    -0.203 F 
ATOM     89  C   UNL A   1      47.077  27.198  34.882  1.00  0.00     0.198 A 
ATOM     90  C   UNL A   1      45.645  25.383  35.530  1.00  0.00     0.198 A 
ATOM     91  F   UNL A   1      43.398  25.350  34.841  1.00  0.00    -0.203 F 
ATOM     92  F   UNL A   1      48.290  27.766  34.854  1.00  0.00    -0.200 F 
ATOM     93  C   UNL A   1      46.893  25.987  35.534  1.00  0.00     0.200 A 
ATOM     94  F   UNL A   1      45.461  24.223  36.174  1.00  0.00    -0.200 F 
ATOM     95  F   UNL A   1      47.922  25.398  36.156  1.00  0.00    -0.200 F 
ENDBRANCH  62  85
ENDBRANCH  36  37
ENDBRANCH  28  31
ENDBRANCH  26  27
ENDBRANCH  25  26
ENDBRANCH   1  25
TORSDOF 14
ENDMDL
MODEL 2
REMARK VINA RESULT:     -12.0      1.772      2.886
REMARK SMILES CC[C@](C)([NH3+])C(=O)N1CC[NH+]([C@H](C)C(=O)NCCCNC(=O)c2ccc(-c3c4nc(c(-c5c(F)c(F)c(F)c(F)c5F)c5ccc([nH]5)c(-c5c(F)c(F)c(F)c(F)c5F)c5nc(c(-c6c(F)c(F)c(F)c(F)c6F)c6ccc3[nH]6)C=C5)C=C4)cc2)CC1
REMARK SMILES IDX 17 1 16 2 14 3 15 4 12 6 13 7 11 8 6 9 7 10 8 11 9 12 87 13
REMARK SMILES IDX 10 14 86 15 3 17 4 18 2 19 1 20 5 21 18 25 19 26 20 27 21 28
REMARK SMILES IDX 22 30 23 31 24 32 85 33 25 34 84 35 26 36 27 37 28 38 78 39
REMARK SMILES IDX 29 40 83 41 77 42 79 43 30 44 82 45 76 46 75 47 31 49 63 50
REMARK SMILES IDX 43 51 62 52 44 53 47 54 61 55 80 56 45 57 46 58 60 60 81 61
REMARK SMILES IDX 48 62 32 63 33 64 41 65 34 66 35 67 39 68 42 69 36 70 37 71
REMARK SMILES IDX 40 72 38 73 64 74 65 75 73 76 66 77 67 78 71 79 74 80 68 81
REMARK SMILES IDX 69 82 72 83 70 84 49 85 50 86 58 87 51 88 52 89 56 90 59 91
REMARK SMILES IDX 53 92 54 93 57 94 55 95
REMARK H PARENT 16 5 11 16 5 22 5 23 5 24 20 29 79 48 47 59
REMARK Flexibility Score: inf
ROOT
ATOM      1  C   UNL A   1      31.677  30.480  25.765  1.00  0.00     0.118 C 
ENDROOT
BRANCH   1   2
ATOM      2  N   UNL A   1      31.028  30.444  24.471  1.00  0.00    -0.351 N 
ATOM      3  C   UNL A   1      30.460  29.391  23.808  1.00  0.00     0.278 C 
ATOM      4  O   UNL A   1      29.768  29.671  22.823  1.00  0.00    -0.268 OA
ATOM      5  H   UNL A   1      30.991  31.307  23.998  1.00  0.00     0.163 HD
BRANCH   3   6
ATOM      6  C   UNL A   1      30.700  27.918  24.222  1.00  0.00     0.271 C 
ATOM      7  C   UNL A   1      29.500  27.020  23.885  1.00  0.00     0.086 C 
BRANCH   6   8
ATOM      8  N   UNL A   1      32.073  27.406  23.924  1.00  0.00    -0.322 N 
ATOM      9  C   UNL A   1      33.867  23.841  23.332  1.00  0.00     0.283 C 
ATOM     10  O   UNL A   1      34.039  23.401  22.184  1.00  0.00    -0.268 OA
ATOM     11  N   UNL A   1      33.929  25.213  23.533  1.00  0.00    -0.326 N 
ATOM     12  C   UNL A   1      33.637  26.085  22.402  1.00  0.00     0.181 C 
ATOM     13  C   UNL A   1      34.002  25.984  24.770  1.00  0.00     0.181 C 
ATOM     14  C   UNL A   1      32.241  26.694  22.643  1.00  0.00     0.284 C 
ATOM     15  C   UNL A   1      32.641  26.648  25.067  1.00  0.00     0.284 C 
ATOM     16  H   UNL A   1      32.624  28.254  23.794  1.00  0.00     0.348 HD
BRANCH   9  17
ATOM     17  C   UNL A   1      33.343  22.842  24.435  1.00  0.00     0.171 C 
ATOM     18  C   UNL A   1      33.356  21.404  23.876  1.00  0.00     0.090 C 
BRANCH  17  19
ATOM     19  C   UNL A   1      31.906  23.263  24.850  1.00  0.00     0.075 C 
ATOM     20  C   UNL A   1      30.894  23.378  23.715  1.00  0.00     0.011 C 
ENDBRANCH  17  19
BRANCH  17  21
ATOM     21  N   UNL A   1      34.178  22.822  25.658  1.00  0.00    -0.345 N 
ATOM     22  H   UNL A   1      34.971  23.453  25.539  1.00  0.00     0.345 HD
ATOM     23  H   UNL A   1      34.520  21.875  25.822  1.00  0.00     0.345 HD
ATOM     24  H   UNL A   1      33.620  23.126  26.456  1.00  0.00     0.345 HD
ENDBRANCH  17  21
ENDBRANCH   9  17
ENDBRANCH   6   8
ENDBRANCH   3   6
ENDBRANCH   1   2
BRANCH   1  25
ATOM     25  C   UNL A   1      31.401  31.722  26.579  1.00  0.00     0.042 C 
BRANCH  25  26
ATOM     26  C   UNL A   1      32.652  32.421  27.073  1.00  0.00     0.118 C 
BRANCH  26  27
ATOM     27  N   UNL A   1      32.423  33.798  27.497  1.00  0.00    -0.352 N 
ATOM     28  C   UNL A   1      33.026  34.564  28.468  1.00  0.00     0.251 C 
ATOM     29  H   UNL A   1      31.712  34.262  27.000  1.00  0.00     0.163 HD
ATOM     30  O   UNL A   1      32.559  35.663  28.744  1.00  0.00    -0.269 OA
BRANCH  28  31
ATOM     31  C   UNL A   1      34.205  34.062  29.205  1.00  0.00     0.039 A 
ATOM     32  C   UNL A   1      34.018  33.127  30.226  1.00  0.00     0.014 A 
ATOM     33  C   UNL A   1      35.494  34.497  28.898  1.00  0.00     0.014 A 
ATOM     34  C   UNL A   1      35.126  32.572  30.867  1.00  0.00     0.010 A 
ATOM     35  C   UNL A   1      36.595  33.838  29.428  1.00  0.00     0.010 A 
ATOM     36  C   UNL A   1      36.428  32.880  30.433  1.00  0.00    -0.014 A 
BRANCH  36  37
ATOM     37  C   UNL A   1      37.612  32.209  31.026  1.00  0.00     0.031 A 
ATOM     38  C   UNL A   1      38.086  32.570  32.409  1.00  0.00     0.074 A 
ATOM     39  C   UNL A   1      38.286  31.298  30.296  1.00  0.00     0.049 A 
ATOM     40  N   UNL A   1      39.083  32.074  33.097  1.00  0.00    -0.248 NA
ATOM     41  C   UNL A   1      37.372  33.658  33.099  1.00  0.00     0.031 C 
ATOM     42  C   UNL A   1      37.978  30.928  28.913  1.00  0.00     0.029 A 
ATOM     43  N   UNL A   1      39.363  30.511  30.617  1.00  0.00    -0.354 N 
ATOM     44  C   UNL A   1      39.115  32.790  34.287  1.00  0.00     0.074 A 
ATOM     45  C   UNL A   1      38.095  33.809  34.197  1.00  0.00     0.031 C 
ATOM     46  C   UNL A   1      38.806  29.945  28.525  1.00  0.00     0.029 A 
ATOM     47  C   UNL A   1      39.727  29.644  29.615  1.00  0.00     0.049 A 
ATOM     48  H   UNL A   1      39.829  30.561  31.483  1.00  0.00     0.167 HD
ATOM     49  C   UNL A   1      39.900  32.592  35.373  1.00  0.00     0.037 A 
ATOM     50  C   UNL A   1      40.690  28.705  29.584  1.00  0.00     0.037 A 
ATOM     51  C   UNL A   1      40.899  31.560  35.465  1.00  0.00     0.049 A 
ATOM     52  C   UNL A   1      41.535  28.492  30.812  1.00  0.00     0.074 A 
ATOM     53  C   UNL A   1      41.702  31.230  36.540  1.00  0.00     0.029 A 
ATOM     54  N   UNL A   1      41.232  30.692  34.434  1.00  0.00    -0.354 N 
ATOM     55  N   UNL A   1      41.491  29.112  31.966  1.00  0.00    -0.248 NA
ATOM     56  C   UNL A   1      42.553  27.436  30.733  1.00  0.00     0.031 C 
ATOM     57  C   UNL A   1      42.563  30.200  36.143  1.00  0.00     0.029 A 
ATOM     58  C   UNL A   1      42.250  29.845  34.840  1.00  0.00     0.049 A 
ATOM     59  H   UNL A   1      40.808  30.681  33.546  1.00  0.00     0.167 HD
ATOM     60  C   UNL A   1      42.459  28.510  32.758  1.00  0.00     0.074 A 
ATOM     61  C   UNL A   1      43.049  27.453  31.961  1.00  0.00     0.031 C 
ATOM     62  C   UNL A   1      42.833  28.806  34.029  1.00  0.00     0.037 A 
BRANCH  49  63
ATOM     63  C   UNL A   1      39.700  33.505  36.550  1.00  0.00     0.064 A 
ATOM     64  C   UNL A   1      40.340  34.752  36.635  1.00  0.00     0.173 A 
ATOM     65  C   UNL A   1      38.834  33.144  37.595  1.00  0.00     0.173 A 
ATOM     66  F   UNL A   1      41.189  35.142  35.672  1.00  0.00    -0.203 F 
ATOM     67  C   UNL A   1      40.147  35.586  37.733  1.00  0.00     0.198 A 
ATOM     68  C   UNL A   1      38.616  33.997  38.674  1.00  0.00     0.198 A 
ATOM     69  F   UNL A   1      38.194  31.966  37.566  1.00  0.00    -0.203 F 
ATOM     70  F   UNL A   1      40.815  36.746  37.818  1.00  0.00    -0.200 F 
ATOM     71  C   UNL A   1      39.279  35.213  38.747  1.00  0.00     0.200 A 
ATOM     72  F   UNL A   1      37.766  33.640  39.647  1.00  0.00    -0.200 F 
ATOM     73  F   UNL A   1      39.087  36.021  39.799  1.00  0.00    -0.200 F 
ENDBRANCH  49  63
BRANCH  50  74
ATOM     74  C   UNL A   1      40.879  27.869  28.368  1.00  0.00     0.064 A 
ATOM     75  C   UNL A   1      40.237  26.629  28.237  1.00  0.00     0.173 A 
ATOM     76  C   UNL A   1      41.706  28.287  27.316  1.00  0.00     0.173 A 
ATOM     77  F   UNL A   1      39.447  26.176  29.223  1.00  0.00    -0.203 F 
ATOM     78  C   UNL A   1      40.437  25.828  27.114  1.00  0.00     0.198 A 
ATOM     79  C   UNL A   1      41.878  27.501  26.178  1.00  0.00     0.198 A 
ATOM     80  F   UNL A   1      42.337  29.469  27.386  1.00  0.00    -0.203 F 
ATOM     81  F   UNL A   1      39.853  24.624  27.040  1.00  0.00    -0.200 F 
ATOM     82  C   UNL A   1      41.253  26.267  26.083  1.00  0.00     0.200 A 
ATOM     83  F   UNL A   1      42.653  27.938  25.176  1.00  0.00    -0.200 F 
ATOM     84  F   UNL A   1      41.441  25.500  25.002  1.00  0.00    -0.200 F 
ENDBRANCH  50  74
BRANCH  62  85
ATOM     85  C   UNL A   1      43.916  27.959  34.633  1.00  0.00     0.064 A 
ATOM     86  C   UNL A   1      43.628  26.754  35.292  1.00  0.00     0.173 A 
ATOM     87  C   UNL A   1      45.259  28.356  34.551  1.00  0.00     0.173 A 
ATOM     88  F   UNL A   1      42.358  26.335  35.410  1.00  0.00    -0.203 F 
ATOM     89  C   UNL A   1      44.638  26.004  35.888  1.00  0.00     0.198 A 
ATOM     90  C   UNL A   1      46.271  27.583  35.113  1.00  0.00     0.198 A 
ATOM     91  F   UNL A   1      45.593  29.493  33.923  1.00  0.00    -0.203 F 
ATOM     92  F   UNL A   1      44.330  24.896  36.576  1.00  0.00    -0.200 F 
ATOM     93  C   UNL A   1      45.959  26.417  35.794  1.00  0.00     0.200 A 
ATOM     94  F   UNL A   1      47.548  27.975  35.006  1.00  0.00    -0.200 F 
ATOM     95  F   UNL A   1      46.929  25.695  36.370  1.00  0.00    -0.200 F 
ENDBRANCH  62  85
ENDBRANCH  36  37
ENDBRANCH  28  31
ENDBRANCH  26  27
ENDBRANCH  25  26
ENDBRANCH   1  25
TORSDOF 14
ENDMDL
MODEL 3
REMARK VINA RESULT:     -11.9      2.122      7.887
REMARK SMILES CC[C@](C)([NH3+])C(=O)N1CC[NH+]([C@H](C)C(=O)NCCCNC(=O)c2ccc(-c3c4nc(c(-c5c(F)c(F)c(F)c(F)c5F)c5ccc([nH]5)c(-c5c(F)c(F)c(F)c(F)c5F)c5nc(c(-c6c(F)c(F)c(F)c(F)c6F)c6ccc3[nH]6)C=C5)C=C4)cc2)CC1
REMARK SMILES IDX 17 1 16 2 14 3 15 4 12 6 13 7 11 8 6 9 7 10 8 11 9 12 87 13
REMARK SMILES IDX 10 14 86 15 3 17 4 18 2 19 1 20 5 21 18 25 19 26 20 27 21 28
REMARK SMILES IDX 22 30 23 31 24 32 85 33 25 34 84 35 26 36 27 37 28 38 78 39
REMARK SMILES IDX 29 40 83 41 77 42 79 43 30 44 82 45 76 46 75 47 31 49 63 50
REMARK SMILES IDX 43 51 62 52 44 53 47 54 61 55 80 56 45 57 46 58 60 60 81 61
REMARK SMILES IDX 48 62 32 63 33 64 41 65 34 66 35 67 39 68 42 69 36 70 37 71
REMARK SMILES IDX 40 72 38 73 64 74 65 75 73 76 66 77 67 78 71 79 74 80 68 81
REMARK SMILES IDX 69 82 72 83 70 84 49 85 50 86 58 87 51 88 52 89 56 90 59 91
REMARK SMILES IDX 53 92 54 93 57 94 55 95
REMARK H PARENT 16 5 11 16 5 22 5 23 5 24 20 29 79 48 47 59
REMARK Flexibility Score: inf
ROOT
ATOM      1  C   UNL A   1      31.530  30.934  25.987  1.00  0.00     0.118 C 
ENDROOT
BRANCH   1   2
ATOM      2  N   UNL A   1      32.613  30.053  26.372  1.00  0.00    -0.351 N 
ATOM      3  C   UNL A   1      33.288  29.123  25.629  1.00  0.00     0.278 C 
ATOM      4  O   UNL A   1      34.323  28.668  26.127  1.00  0.00    -0.268 OA
ATOM      5  H   UNL A   1      32.906  30.135  27.308  1.00  0.00     0.163 HD
BRANCH   3   6
ATOM      6  C   UNL A   1      32.773  28.617  24.260  1.00  0.00     0.271 C 
ATOM      7  C   UNL A   1      33.871  28.638  23.185  1.00  0.00     0.086 C 
BRANCH   6   8
ATOM      8  N   UNL A   1      31.880  27.419  24.336  1.00  0.00    -0.322 N 
ATOM      9  C   UNL A   1      31.764  23.902  26.309  1.00  0.00     0.283 C 
ATOM     10  O   UNL A   1      31.109  23.786  27.357  1.00  0.00    -0.268 OA
ATOM     11  N   UNL A   1      31.291  24.758  25.324  1.00  0.00    -0.326 N 
ATOM     12  C   UNL A   1      30.423  25.857  25.730  1.00  0.00     0.181 C 
ATOM     13  C   UNL A   1      31.702  24.917  23.933  1.00  0.00     0.181 C 
ATOM     14  C   UNL A   1      31.256  27.152  25.645  1.00  0.00     0.284 C 
ATOM     15  C   UNL A   1      32.525  26.211  23.763  1.00  0.00     0.284 C 
ATOM     16  H   UNL A   1      31.088  27.672  23.747  1.00  0.00     0.348 HD
BRANCH   9  17
ATOM     17  C   UNL A   1      33.208  23.270  26.265  1.00  0.00     0.171 C 
ATOM     18  C   UNL A   1      33.447  22.442  27.545  1.00  0.00     0.090 C 
BRANCH  17  19
ATOM     19  C   UNL A   1      34.252  24.415  26.142  1.00  0.00     0.075 C 
ATOM     20  C   UNL A   1      35.431  24.140  25.213  1.00  0.00     0.011 C 
ENDBRANCH  17  19
BRANCH  17  21
ATOM     21  N   UNL A   1      33.414  22.347  25.126  1.00  0.00    -0.345 N 
ATOM     22  H   UNL A   1      32.594  21.750  25.019  1.00  0.00     0.345 HD
ATOM     23  H   UNL A   1      34.235  21.767  25.301  1.00  0.00     0.345 HD
ATOM     24  H   UNL A   1      33.555  22.887  24.272  1.00  0.00     0.345 HD
ENDBRANCH  17  21
ENDBRANCH   9  17
ENDBRANCH   6   8
ENDBRANCH   3   6
ENDBRANCH   1   2
BRANCH   1  25
ATOM     25  C   UNL A   1      31.332  32.127  26.891  1.00  0.00     0.042 C 
BRANCH  25  26
ATOM     26  C   UNL A   1      32.613  32.869  27.218  1.00  0.00     0.118 C 
BRANCH  26  27
ATOM     27  N   UNL A   1      32.400  34.255  27.618  1.00  0.00    -0.352 N 
ATOM     28  C   UNL A   1      32.983  35.018  28.604  1.00  0.00     0.251 C 
ATOM     29  H   UNL A   1      31.720  34.729  27.090  1.00  0.00     0.163 HD
ATOM     30  O   UNL A   1      32.532  36.130  28.851  1.00  0.00    -0.269 OA
BRANCH  28  31
ATOM     31  C   UNL A   1      34.121  34.496  29.391  1.00  0.00     0.039 A 
ATOM     32  C   UNL A   1      33.868  33.871  30.615  1.00  0.00     0.014 A 
ATOM     33  C   UNL A   1      35.434  34.611  28.935  1.00  0.00     0.014 A 
ATOM     34  C   UNL A   1      34.920  33.290  31.324  1.00  0.00     0.010 A 
ATOM     35  C   UNL A   1      36.452  33.906  29.562  1.00  0.00     0.010 A 
ATOM     36  C   UNL A   1      36.214  33.251  30.775  1.00  0.00    -0.014 A 
BRANCH  36  37
ATOM     37  C   UNL A   1      37.317  32.535  31.463  1.00  0.00     0.031 A 
ATOM     38  C   UNL A   1      38.026  31.390  30.790  1.00  0.00     0.074 A 
ATOM     39  C   UNL A   1      37.652  32.895  32.718  1.00  0.00     0.049 A 
ATOM     40  N   UNL A   1      39.024  30.664  31.227  1.00  0.00    -0.248 NA
ATOM     41  C   UNL A   1      37.526  30.976  29.467  1.00  0.00     0.031 C 
ATOM     42  C   UNL A   1      36.981  33.928  33.509  1.00  0.00     0.029 A 
ATOM     43  N   UNL A   1      38.646  32.438  33.547  1.00  0.00    -0.354 N 
ATOM     44  C   UNL A   1      39.263  29.715  30.240  1.00  0.00     0.074 A 
ATOM     45  C   UNL A   1      38.255  29.900  29.222  1.00  0.00     0.031 C 
ATOM     46  C   UNL A   1      37.618  34.069  34.682  1.00  0.00     0.029 A 
ATOM     47  C   UNL A   1      38.716  33.110  34.743  1.00  0.00     0.049 A 
ATOM     48  H   UNL A   1      39.253  31.701  33.307  1.00  0.00     0.167 HD
ATOM     49  C   UNL A   1      40.256  28.796  30.172  1.00  0.00     0.037 A 
ATOM     50  C   UNL A   1      39.575  32.975  35.769  1.00  0.00     0.037 A 
ATOM     51  C   UNL A   1      41.269  28.633  31.180  1.00  0.00     0.049 A 
ATOM     52  C   UNL A   1      40.681  31.959  35.659  1.00  0.00     0.074 A 
ATOM     53  C   UNL A   1      42.357  27.779  31.180  1.00  0.00     0.029 A 
ATOM     54  N   UNL A   1      41.315  29.340  32.374  1.00  0.00    -0.354 N 
ATOM     55  N   UNL A   1      40.953  31.133  34.678  1.00  0.00    -0.248 NA
ATOM     56  C   UNL A   1      41.607  31.871  36.796  1.00  0.00     0.031 C 
ATOM     57  C   UNL A   1      43.029  27.927  32.398  1.00  0.00     0.029 A 
ATOM     58  C   UNL A   1      42.398  28.921  33.130  1.00  0.00     0.049 A 
ATOM     59  H   UNL A   1      40.674  30.036  32.642  1.00  0.00     0.167 HD
ATOM     60  C   UNL A   1      42.092  30.441  35.068  1.00  0.00     0.074 A 
ATOM     61  C   UNL A   1      42.477  30.971  36.361  1.00  0.00     0.031 C 
ATOM     62  C   UNL A   1      42.758  29.452  34.420  1.00  0.00     0.037 A 
BRANCH  49  63
ATOM     63  C   UNL A   1      40.295  27.905  28.962  1.00  0.00     0.064 A 
ATOM     64  C   UNL A   1      41.032  28.247  27.816  1.00  0.00     0.173 A 
ATOM     65  C   UNL A   1      39.613  26.678  28.957  1.00  0.00     0.173 A 
ATOM     66  F   UNL A   1      41.692  29.414  27.762  1.00  0.00    -0.203 F 
ATOM     67  C   UNL A   1      41.057  27.413  26.702  1.00  0.00     0.198 A 
ATOM     68  C   UNL A   1      39.671  25.829  27.853  1.00  0.00     0.198 A 
ATOM     69  F   UNL A   1      38.895  26.299  30.024  1.00  0.00    -0.203 F 
ATOM     70  F   UNL A   1      41.721  27.789  25.600  1.00  0.00    -0.200 F 
ATOM     71  C   UNL A   1      40.385  26.201  26.724  1.00  0.00     0.200 A 
ATOM     72  F   UNL A   1      39.030  24.653  27.881  1.00  0.00    -0.200 F 
ATOM     73  F   UNL A   1      40.417  25.395  25.654  1.00  0.00    -0.200 F 
ENDBRANCH  49  63
BRANCH  50  74
ATOM     74  C   UNL A   1      39.452  33.847  36.968  1.00  0.00     0.064 A 
ATOM     75  C   UNL A   1      38.762  33.413  38.109  1.00  0.00     0.173 A 
ATOM     76  C   UNL A   1      40.016  35.130  36.998  1.00  0.00     0.173 A 
ATOM     77  F   UNL A   1      38.190  32.199  38.125  1.00  0.00    -0.203 F 
ATOM     78  C   UNL A   1      38.616  34.239  39.222  1.00  0.00     0.198 A 
ATOM     79  C   UNL A   1      39.898  35.943  38.124  1.00  0.00     0.198 A 
ATOM     80  F   UNL A   1      40.694  35.592  35.937  1.00  0.00    -0.203 F 
ATOM     81  F   UNL A   1      37.905  33.818  40.277  1.00  0.00    -0.200 F 
ATOM     82  C   UNL A   1      39.189  35.501  39.231  1.00  0.00     0.200 A 
ATOM     83  F   UNL A   1      40.470  37.155  38.135  1.00  0.00    -0.200 F 
ATOM     84  F   UNL A   1      39.053  36.293  40.302  1.00  0.00    -0.200 F 
ENDBRANCH  50  74
BRANCH  62  85
ATOM     85  C   UNL A   1      43.980  28.900  35.097  1.00  0.00     0.064 A 
ATOM     86  C   UNL A   1      45.258  29.428  34.857  1.00  0.00     0.173 A 
ATOM     87  C   UNL A   1      43.872  27.831  35.999  1.00  0.00     0.173 A 
ATOM     88  F   UNL A   1      45.418  30.443  33.994  1.00  0.00    -0.203 F 
ATOM     89  C   UNL A   1      46.386  28.875  35.457  1.00  0.00     0.198 A 
ATOM     90  C   UNL A   1      44.997  27.306  36.627  1.00  0.00     0.198 A 
ATOM     91  F   UNL A   1      42.674  27.295  36.275  1.00  0.00    -0.203 F 
ATOM     92  F   UNL A   1      47.603  29.347  35.153  1.00  0.00    -0.200 F 
ATOM     93  C   UNL A   1      46.254  27.817  36.344  1.00  0.00     0.200 A 
ATOM     94  F   UNL A   1      44.866  26.296  37.498  1.00  0.00    -0.200 F 
ATOM     95  F   UNL A   1      47.341  27.284  36.918  1.00  0.00    -0.200 F 
ENDBRANCH  62  85
ENDBRANCH  36  37
ENDBRANCH  28  31
ENDBRANCH  26  27
ENDBRANCH  25  26
ENDBRANCH   1  25
TORSDOF 14
ENDMDL
