MODEL 1
REMARK VINA RESULT:     -14.8      0.000      0.000
REMARK SMILES CC(=O)Nc1cnc(N2CC=C(c3ccccc3C)CC2)c(C(=O)NCCCNC(=O)c2ccc(-c3c4nc(c(-c5c(F)c(F)c(F)c(F)c5F)c5ccc([nH]5)c(-c5c(F)c(F)c(F)c(F)c5F)c5nc(c(-c6c(F)c(F)c(F)c(F)c6F)c6ccc3[nH]6)C=C5)C=C4)cc2)c1
REMARK SMILES IDX 27 1 26 2 25 3 23 4 24 5 22 7 5 8 6 9 95 10 7 11 8 12 4 13
REMARK SMILES IDX 1 14 2 15 3 16 9 18 10 19 21 20 11 21 20 22 12 23 13 24
REMARK SMILES IDX 14 25 18 26 15 27 17 28 19 29 16 30 28 31 29 32 30 33 31 35
REMARK SMILES IDX 32 36 33 37 94 38 34 39 93 40 35 41 36 42 37 43 87 44 38 45
REMARK SMILES IDX 92 46 86 47 88 48 39 49 91 50 85 51 84 52 40 54 72 55 52 56
REMARK SMILES IDX 71 57 53 58 56 59 70 60 89 61 54 62 55 63 69 65 90 66 57 67
REMARK SMILES IDX 41 68 42 69 50 70 43 71 44 72 48 73 51 74 45 75 46 76 49 77
REMARK SMILES IDX 47 78 73 79 74 80 82 81 75 82 76 83 80 84 83 85 77 86 78 87
REMARK SMILES IDX 81 88 79 89 58 90 59 91 67 92 60 93 61 94 65 95 68 96 62 97
REMARK SMILES IDX 63 98 66 99 64 100
REMARK H PARENT 25 6 4 17 29 34 88 53 56 64
REMARK Flexibility Score: inf
ROOT
ATOM      1  C   UNL A   1      38.172  22.214  25.366  1.00  0.00     0.042 C 
ENDROOT
BRANCH   1   2
ATOM      2  C   UNL A   1      36.819  22.827  24.993  1.00  0.00     0.118 C 
BRANCH   2   3
ATOM      3  N   UNL A   1      35.946  22.949  26.150  1.00  0.00    -0.352 N 
ATOM      4  C   UNL A   1      34.749  22.397  26.555  1.00  0.00     0.255 C 
ATOM      5  O   UNL A   1      34.412  22.781  27.676  1.00  0.00    -0.269 OA
ATOM      6  H   UNL A   1      36.299  23.588  26.811  1.00  0.00     0.163 HD
BRANCH   4   7
ATOM      7  C   UNL A   1      33.903  21.431  25.756  1.00  0.00     0.084 A 
ATOM      8  C   UNL A   1      33.287  19.121  25.193  1.00  0.00     0.060 A 
ATOM      9  C   UNL A   1      32.335  19.644  24.345  1.00  0.00     0.139 A 
ATOM     10  C   UNL A   1      34.084  20.038  25.870  1.00  0.00     0.045 A 
ATOM     11  N   UNL A   1      32.115  20.964  24.196  1.00  0.00    -0.236 NA
ATOM     12  C   UNL A   1      32.881  21.863  24.878  1.00  0.00     0.141 A 
BRANCH   8  13
ATOM     13  N   UNL A   1      33.446  17.726  25.271  1.00  0.00    -0.325 N 
ATOM     14  C   UNL A   1      34.010  17.158  22.905  1.00  0.00     0.114 C 
ATOM     15  C   UNL A   1      33.614  16.775  24.305  1.00  0.00     0.221 C 
ATOM     16  O   UNL A   1      33.494  15.588  24.614  1.00  0.00    -0.275 OA
ATOM     17  H   UNL A   1      33.434  17.370  26.188  1.00  0.00     0.169 HD
ENDBRANCH   8  13
BRANCH  12  18
ATOM     18  N   UNL A   1      32.545  23.168  24.613  1.00  0.00    -0.352 N 
ATOM     19  C   UNL A   1      33.445  23.962  23.789  1.00  0.00     0.146 C 
ATOM     20  C   UNL A   1      31.426  23.822  25.280  1.00  0.00     0.123 C 
ATOM     21  C   UNL A   1      33.497  25.400  24.230  1.00  0.00    -0.002 C 
ATOM     22  C   UNL A   1      31.912  25.030  26.094  1.00  0.00     0.057 C 
ATOM     23  C   UNL A   1      32.821  25.908  25.276  1.00  0.00    -0.041 C 
BRANCH  23  24
ATOM     24  C   UNL A   1      32.925  27.342  25.614  1.00  0.00    -0.020 A 
ATOM     25  C   UNL A   1      33.995  27.750  26.432  1.00  0.00     0.008 A 
ATOM     26  C   UNL A   1      32.006  28.310  25.160  1.00  0.00    -0.044 A 
ATOM     27  C   UNL A   1      34.161  29.088  26.790  1.00  0.00     0.001 A 
ATOM     28  C   UNL A   1      32.197  29.658  25.517  1.00  0.00     0.004 A 
ATOM     29  C   UNL A   1      30.831  27.962  24.288  1.00  0.00     0.045 C 
ATOM     30  C   UNL A   1      33.263  30.043  26.329  1.00  0.00     0.000 A 
ENDBRANCH  23  24
ENDBRANCH  12  18
ENDBRANCH   4   7
ENDBRANCH   2   3
ENDBRANCH   1   2
BRANCH   1  31
ATOM     31  C   UNL A   1      38.852  22.901  26.536  1.00  0.00     0.118 C 
BRANCH  31  32
ATOM     32  N   UNL A   1      40.296  23.047  26.375  1.00  0.00    -0.352 N 
ATOM     33  C   UNL A   1      41.049  24.208  26.447  1.00  0.00     0.251 C 
ATOM     34  H   UNL A   1      40.796  22.219  26.191  1.00  0.00     0.163 HD
ATOM     35  O   UNL A   1      42.254  24.196  26.286  1.00  0.00    -0.269 OA
BRANCH  33  36
ATOM     36  C   UNL A   1      40.350  25.449  26.847  1.00  0.00     0.039 A 
ATOM     37  C   UNL A   1      40.743  26.639  26.229  1.00  0.00     0.014 A 
ATOM     38  C   UNL A   1      39.548  25.456  27.986  1.00  0.00     0.014 A 
ATOM     39  C   UNL A   1      40.536  27.840  26.900  1.00  0.00     0.010 A 
ATOM     40  C   UNL A   1      39.419  26.638  28.692  1.00  0.00     0.010 A 
ATOM     41  C   UNL A   1      39.986  27.812  28.182  1.00  0.00    -0.014 A 
BRANCH  41  42
ATOM     42  C   UNL A   1      40.098  28.936  29.104  1.00  0.00     0.031 A 
ATOM     43  C   UNL A   1      39.094  30.017  29.102  1.00  0.00     0.074 A 
ATOM     44  C   UNL A   1      41.118  28.971  29.993  1.00  0.00     0.049 A 
ATOM     45  N   UNL A   1      39.303  31.184  29.613  1.00  0.00    -0.248 NA
ATOM     46  C   UNL A   1      37.788  29.899  28.457  1.00  0.00     0.031 C 
ATOM     47  C   UNL A   1      41.270  29.864  31.140  1.00  0.00     0.029 A 
ATOM     48  N   UNL A   1      42.374  28.342  29.878  1.00  0.00    -0.354 N 
ATOM     49  C   UNL A   1      38.094  31.826  29.665  1.00  0.00     0.074 A 
ATOM     50  C   UNL A   1      37.231  31.067  28.795  1.00  0.00     0.031 C 
ATOM     51  C   UNL A   1      42.577  29.998  31.408  1.00  0.00     0.029 A 
ATOM     52  C   UNL A   1      43.302  29.300  30.364  1.00  0.00     0.049 A 
ATOM     53  H   UNL A   1      42.565  27.439  29.537  1.00  0.00     0.167 HD
ATOM     54  C   UNL A   1      37.925  32.833  30.566  1.00  0.00     0.037 A 
ATOM     55  C   UNL A   1      44.236  29.858  29.539  1.00  0.00     0.037 A 
ATOM     56  C   UNL A   1      39.206  33.336  31.063  1.00  0.00     0.049 A 
ATOM     57  C   UNL A   1      44.153  31.365  29.405  1.00  0.00     0.074 A 
ATOM     58  C   UNL A   1      39.868  33.335  32.277  1.00  0.00     0.029 A 
ATOM     59  N   UNL A   1      40.120  33.807  30.132  1.00  0.00    -0.354 N 
ATOM     60  N   UNL A   1      43.240  32.107  29.966  1.00  0.00    -0.248 NA
ATOM     61  C   UNL A   1      45.036  32.136  28.526  1.00  0.00     0.031 C 
ATOM     62  C   UNL A   1      41.221  33.736  32.040  1.00  0.00     0.029 A 
ATOM     63  C   UNL A   1      41.363  34.012  30.692  1.00  0.00     0.049 A 
ATOM     64  H   UNL A   1      39.906  33.975  29.186  1.00  0.00     0.167 HD
ATOM     65  C   UNL A   1      43.349  33.386  29.493  1.00  0.00     0.074 A 
ATOM     66  C   UNL A   1      44.490  33.361  28.600  1.00  0.00     0.031 C 
ATOM     67  C   UNL A   1      42.469  34.373  29.822  1.00  0.00     0.037 A 
BRANCH  54  68
ATOM     68  C   UNL A   1      36.586  33.275  31.111  1.00  0.00     0.064 A 
ATOM     69  C   UNL A   1      35.730  34.076  30.327  1.00  0.00     0.173 A 
ATOM     70  C   UNL A   1      36.146  33.064  32.438  1.00  0.00     0.173 A 
ATOM     71  F   UNL A   1      36.035  34.377  29.057  1.00  0.00    -0.203 F 
ATOM     72  C   UNL A   1      34.539  34.616  30.830  1.00  0.00     0.198 A 
ATOM     73  C   UNL A   1      34.928  33.551  32.918  1.00  0.00     0.198 A 
ATOM     74  F   UNL A   1      36.901  32.443  33.351  1.00  0.00    -0.203 F 
ATOM     75  F   UNL A   1      33.796  35.423  30.059  1.00  0.00    -0.200 F 
ATOM     76  C   UNL A   1      34.131  34.339  32.120  1.00  0.00     0.200 A 
ATOM     77  F   UNL A   1      34.555  33.274  34.177  1.00  0.00    -0.200 F 
ATOM     78  F   UNL A   1      32.990  34.850  32.601  1.00  0.00    -0.200 F 
ENDBRANCH  54  68
BRANCH  55  79
ATOM     79  C   UNL A   1      44.694  28.935  28.469  1.00  0.00     0.064 A 
ATOM     80  C   UNL A   1      45.534  27.861  28.820  1.00  0.00     0.173 A 
ATOM     81  C   UNL A   1      44.066  28.884  27.221  1.00  0.00     0.173 A 
ATOM     82  F   UNL A   1      46.159  27.857  30.009  1.00  0.00    -0.203 F 
ATOM     83  C   UNL A   1      45.646  26.734  28.009  1.00  0.00     0.198 A 
ATOM     84  C   UNL A   1      44.198  27.764  26.401  1.00  0.00     0.198 A 
ATOM     85  F   UNL A   1      43.233  29.862  26.838  1.00  0.00    -0.203 F 
ATOM     86  F   UNL A   1      46.356  25.676  28.429  1.00  0.00    -0.200 F 
ATOM     87  C   UNL A   1      44.958  26.677  26.810  1.00  0.00     0.200 A 
ATOM     88  F   UNL A   1      43.510  27.696  25.252  1.00  0.00    -0.200 F 
ATOM     89  F   UNL A   1      44.990  25.561  26.070  1.00  0.00    -0.200 F 
ENDBRANCH  55  79
BRANCH  67  90
ATOM     90  C   UNL A   1      42.600  35.770  29.299  1.00  0.00     0.064 A 
ATOM     91  C   UNL A   1      41.976  36.177  28.110  1.00  0.00     0.173 A 
ATOM     92  C   UNL A   1      43.441  36.711  29.925  1.00  0.00     0.173 A 
ATOM     93  F   UNL A   1      41.179  35.335  27.434  1.00  0.00    -0.203 F 
ATOM     94  C   UNL A   1      42.164  37.457  27.589  1.00  0.00     0.198 A 
ATOM     95  C   UNL A   1      43.663  37.974  29.378  1.00  0.00     0.198 A 
ATOM     96  F   UNL A   1      44.043  36.434  31.091  1.00  0.00    -0.203 F 
ATOM     97  F   UNL A   1      41.517  37.824  26.474  1.00  0.00    -0.200 F 
ATOM     98  C   UNL A   1      43.019  38.349  28.214  1.00  0.00     0.200 A 
ATOM     99  F   UNL A   1      44.499  38.826  29.989  1.00  0.00    -0.200 F 
ATOM    100  F   UNL A   1      43.217  39.571  27.700  1.00  0.00    -0.200 F 
ENDBRANCH  67  90
ENDBRANCH  41  42
ENDBRANCH  33  36
ENDBRANCH  31  32
ENDBRANCH   1  31
TORSDOF 13
ENDMDL
MODEL 2
REMARK VINA RESULT:     -14.7      1.449      4.730
REMARK SMILES CC(=O)Nc1cnc(N2CC=C(c3ccccc3C)CC2)c(C(=O)NCCCNC(=O)c2ccc(-c3c4nc(c(-c5c(F)c(F)c(F)c(F)c5F)c5ccc([nH]5)c(-c5c(F)c(F)c(F)c(F)c5F)c5nc(c(-c6c(F)c(F)c(F)c(F)c6F)c6ccc3[nH]6)C=C5)C=C4)cc2)c1
REMARK SMILES IDX 27 1 26 2 25 3 23 4 24 5 22 7 5 8 6 9 95 10 7 11 8 12 4 13
REMARK SMILES IDX 1 14 2 15 3 16 9 18 10 19 21 20 11 21 20 22 12 23 13 24
REMARK SMILES IDX 14 25 18 26 15 27 17 28 19 29 16 30 28 31 29 32 30 33 31 35
REMARK SMILES IDX 32 36 33 37 94 38 34 39 93 40 35 41 36 42 37 43 87 44 38 45
REMARK SMILES IDX 92 46 86 47 88 48 39 49 91 50 85 51 84 52 40 54 72 55 52 56
REMARK SMILES IDX 71 57 53 58 56 59 70 60 89 61 54 62 55 63 69 65 90 66 57 67
REMARK SMILES IDX 41 68 42 69 50 70 43 71 44 72 48 73 51 74 45 75 46 76 49 77
REMARK SMILES IDX 47 78 73 79 74 80 82 81 75 82 76 83 80 84 83 85 77 86 78 87
REMARK SMILES IDX 81 88 79 89 58 90 59 91 67 92 60 93 61 94 65 95 68 96 62 97
REMARK SMILES IDX 63 98 66 99 64 100
REMARK H PARENT 25 6 4 17 29 34 88 53 56 64
REMARK Flexibility Score: inf
ROOT
ATOM      1  C   UNL A   1      37.796  23.669  25.363  1.00  0.00     0.042 C 
ENDROOT
BRANCH   1   2
ATOM      2  C   UNL A   1      36.277  23.665  25.555  1.00  0.00     0.118 C 
BRANCH   2   3
ATOM      3  N   UNL A   1      35.576  23.897  24.302  1.00  0.00    -0.352 N 
ATOM      4  C   UNL A   1      34.464  24.609  23.902  1.00  0.00     0.255 C 
ATOM      5  O   UNL A   1      34.281  24.547  22.686  1.00  0.00    -0.269 OA
ATOM      6  H   UNL A   1      36.003  23.429  23.548  1.00  0.00     0.163 HD
BRANCH   4   7
ATOM      7  C   UNL A   1      33.538  25.389  24.809  1.00  0.00     0.084 A 
ATOM      8  C   UNL A   1      32.745  27.545  25.677  1.00  0.00     0.060 A 
ATOM      9  C   UNL A   1      31.822  26.841  26.419  1.00  0.00     0.139 A 
ATOM     10  C   UNL A   1      33.617  26.793  24.897  1.00  0.00     0.045 A 
ATOM     11  N   UNL A   1      31.698  25.501  26.375  1.00  0.00    -0.236 NA
ATOM     12  C   UNL A   1      32.537  24.764  25.591  1.00  0.00     0.141 A 
BRANCH   8  13
ATOM     13  N   UNL A   1      32.803  28.945  25.801  1.00  0.00    -0.325 N 
ATOM     14  C   UNL A   1      34.543  29.215  27.572  1.00  0.00     0.114 C 
ATOM     15  C   UNL A   1      33.444  29.752  26.697  1.00  0.00     0.221 C 
ATOM     16  O   UNL A   1      33.146  30.948  26.737  1.00  0.00    -0.275 OA
ATOM     17  H   UNL A   1      32.288  29.431  25.118  1.00  0.00     0.169 HD
ENDBRANCH   8  13
BRANCH  12  18
ATOM     18  N   UNL A   1      32.295  23.415  25.661  1.00  0.00    -0.352 N 
ATOM     19  C   UNL A   1      32.938  22.648  26.717  1.00  0.00     0.146 C 
ATOM     20  C   UNL A   1      31.572  22.710  24.608  1.00  0.00     0.123 C 
ATOM     21  C   UNL A   1      33.320  21.265  26.263  1.00  0.00    -0.002 C 
ATOM     22  C   UNL A   1      32.460  21.632  23.971  1.00  0.00     0.057 C 
ATOM     23  C   UNL A   1      33.124  20.782  25.022  1.00  0.00    -0.041 C 
BRANCH  23  24
ATOM     24  C   UNL A   1      33.518  19.401  24.682  1.00  0.00    -0.020 A 
ATOM     25  C   UNL A   1      32.497  18.478  24.387  1.00  0.00     0.008 A 
ATOM     26  C   UNL A   1      34.860  18.969  24.643  1.00  0.00    -0.044 A 
ATOM     27  C   UNL A   1      32.792  17.156  24.053  1.00  0.00     0.001 A 
ATOM     28  C   UNL A   1      35.141  17.636  24.289  1.00  0.00     0.004 A 
ATOM     29  C   UNL A   1      36.013  19.885  24.950  1.00  0.00     0.045 C 
ATOM     30  C   UNL A   1      34.116  16.736  24.001  1.00  0.00     0.000 A 
ENDBRANCH  23  24
ENDBRANCH  12  18
ENDBRANCH   4   7
ENDBRANCH   2   3
ENDBRANCH   1   2
BRANCH   1  31
ATOM     31  C   UNL A   1      38.567  23.177  26.575  1.00  0.00     0.118 C 
BRANCH  31  32
ATOM     32  N   UNL A   1      40.017  23.260  26.424  1.00  0.00    -0.352 N 
ATOM     33  C   UNL A   1      40.820  24.386  26.514  1.00  0.00     0.251 C 
ATOM     34  H   UNL A   1      40.481  22.413  26.234  1.00  0.00     0.163 HD
ATOM     35  O   UNL A   1      42.024  24.323  26.361  1.00  0.00    -0.269 OA
BRANCH  33  36
ATOM     36  C   UNL A   1      40.174  25.652  26.923  1.00  0.00     0.039 A 
ATOM     37  C   UNL A   1      40.581  26.823  26.278  1.00  0.00     0.014 A 
ATOM     38  C   UNL A   1      39.414  25.697  28.090  1.00  0.00     0.014 A 
ATOM     39  C   UNL A   1      40.436  28.036  26.941  1.00  0.00     0.010 A 
ATOM     40  C   UNL A   1      39.346  26.890  28.786  1.00  0.00     0.010 A 
ATOM     41  C   UNL A   1      39.931  28.040  28.241  1.00  0.00    -0.014 A 
BRANCH  41  42
ATOM     42  C   UNL A   1      40.109  29.171  29.145  1.00  0.00     0.031 A 
ATOM     43  C   UNL A   1      39.133  30.276  29.175  1.00  0.00     0.074 A 
ATOM     44  C   UNL A   1      41.167  29.189  29.989  1.00  0.00     0.049 A 
ATOM     45  N   UNL A   1      39.392  31.443  29.663  1.00  0.00    -0.248 NA
ATOM     46  C   UNL A   1      37.798  30.184  28.587  1.00  0.00     0.031 C 
ATOM     47  C   UNL A   1      41.390  30.090  31.119  1.00  0.00     0.029 A 
ATOM     48  N   UNL A   1      42.401  28.528  29.828  1.00  0.00    -0.354 N 
ATOM     49  C   UNL A   1      38.202  32.115  29.759  1.00  0.00     0.074 A 
ATOM     50  C   UNL A   1      37.285  31.369  28.936  1.00  0.00     0.031 C 
ATOM     51  C   UNL A   1      42.710  30.194  31.329  1.00  0.00     0.029 A 
ATOM     52  C   UNL A   1      43.373  29.467  30.263  1.00  0.00     0.049 A 
ATOM     53  H   UNL A   1      42.555  27.617  29.489  1.00  0.00     0.167 HD
ATOM     54  C   UNL A   1      38.097  33.135  30.656  1.00  0.00     0.037 A 
ATOM     55  C   UNL A   1      44.284  29.994  29.393  1.00  0.00     0.037 A 
ATOM     56  C   UNL A   1      39.411  33.610  31.092  1.00  0.00     0.049 A 
ATOM     57  C   UNL A   1      44.232  31.500  29.246  1.00  0.00     0.074 A 
ATOM     58  C   UNL A   1      40.124  33.605  32.276  1.00  0.00     0.029 A 
ATOM     59  N   UNL A   1      40.295  34.050  30.117  1.00  0.00    -0.354 N 
ATOM     60  N   UNL A   1      43.362  32.271  29.837  1.00  0.00    -0.248 NA
ATOM     61  C   UNL A   1      45.095  32.241  28.321  1.00  0.00     0.031 C 
ATOM     62  C   UNL A   1      41.475  33.971  31.977  1.00  0.00     0.029 A 
ATOM     63  C   UNL A   1      41.565  34.230  30.621  1.00  0.00     0.049 A 
ATOM     64  H   UNL A   1      40.045  34.213  29.179  1.00  0.00     0.167 HD
ATOM     65  C   UNL A   1      43.482  33.542  29.346  1.00  0.00     0.074 A 
ATOM     66  C   UNL A   1      44.583  33.480  28.405  1.00  0.00     0.031 C 
ATOM     67  C   UNL A   1      42.641  34.554  29.700  1.00  0.00     0.037 A 
BRANCH  54  68
ATOM     68  C   UNL A   1      36.794  33.616  31.252  1.00  0.00     0.064 A 
ATOM     69  C   UNL A   1      36.489  33.346  32.603  1.00  0.00     0.173 A 
ATOM     70  C   UNL A   1      35.747  34.221  30.520  1.00  0.00     0.173 A 
ATOM     71  F   UNL A   1      37.381  32.752  33.408  1.00  0.00    -0.203 F 
ATOM     72  C   UNL A   1      35.246  33.657  33.167  1.00  0.00     0.198 A 
ATOM     73  C   UNL A   1      34.532  34.588  31.100  1.00  0.00     0.198 A 
ATOM     74  F   UNL A   1      35.821  34.420  29.199  1.00  0.00    -0.203 F 
ATOM     75  F   UNL A   1      34.988  33.320  34.438  1.00  0.00    -0.200 F 
ATOM     76  C   UNL A   1      34.274  34.293  32.420  1.00  0.00     0.200 A 
ATOM     77  F   UNL A   1      33.599  35.200  30.354  1.00  0.00    -0.200 F 
ATOM     78  F   UNL A   1      33.085  34.597  32.960  1.00  0.00    -0.200 F 
ENDBRANCH  54  68
BRANCH  55  79
ATOM     79  C   UNL A   1      44.673  29.048  28.314  1.00  0.00     0.064 A 
ATOM     80  C   UNL A   1      45.503  27.959  28.641  1.00  0.00     0.173 A 
ATOM     81  C   UNL A   1      43.988  28.998  27.096  1.00  0.00     0.173 A 
ATOM     82  F   UNL A   1      46.180  27.954  29.801  1.00  0.00    -0.203 F 
ATOM     83  C   UNL A   1      45.554  26.821  27.839  1.00  0.00     0.198 A 
ATOM     84  C   UNL A   1      44.059  27.866  26.285  1.00  0.00     0.198 A 
ATOM     85  F   UNL A   1      43.161  29.991  26.739  1.00  0.00    -0.203 F 
ATOM     86  F   UNL A   1      46.257  25.752  28.239  1.00  0.00    -0.200 F 
ATOM     87  C   UNL A   1      44.812  26.768  26.673  1.00  0.00     0.200 A 
ATOM     88  F   UNL A   1      43.318  27.803  25.169  1.00  0.00    -0.200 F 
ATOM     89  F   UNL A   1      44.785  25.643  25.945  1.00  0.00    -0.200 F 
ENDBRANCH  55  79
BRANCH  67  90
ATOM     90  C   UNL A   1      42.783  35.941  29.157  1.00  0.00     0.064 A 
ATOM     91  C   UNL A   1      43.500  36.935  29.842  1.00  0.00     0.173 A 
ATOM     92  C   UNL A   1      42.115  36.341  27.984  1.00  0.00     0.173 A 
ATOM     93  F   UNL A   1      44.144  36.647  30.983  1.00  0.00    -0.203 F 
ATOM     94  C   UNL A   1      43.564  38.246  29.369  1.00  0.00     0.198 A 
ATOM     95  C   UNL A   1      42.143  37.662  27.537  1.00  0.00     0.198 A 
ATOM     96  F   UNL A   1      41.443  35.456  27.233  1.00  0.00    -0.203 F 
ATOM     97  F   UNL A   1      44.295  39.156  30.027  1.00  0.00    -0.200 F 
ATOM     98  C   UNL A   1      42.873  38.612  28.226  1.00  0.00     0.200 A 
ATOM     99  F   UNL A   1      41.464  38.006  26.434  1.00  0.00    -0.200 F 
ATOM    100  F   UNL A   1      42.917  39.877  27.785  1.00  0.00    -0.200 F 
ENDBRANCH  67  90
ENDBRANCH  41  42
ENDBRANCH  33  36
ENDBRANCH  31  32
ENDBRANCH   1  31
TORSDOF 13
ENDMDL
MODEL 3
REMARK VINA RESULT:     -14.7      4.106     10.537
REMARK SMILES CC(=O)Nc1cnc(N2CC=C(c3ccccc3C)CC2)c(C(=O)NCCCNC(=O)c2ccc(-c3c4nc(c(-c5c(F)c(F)c(F)c(F)c5F)c5ccc([nH]5)c(-c5c(F)c(F)c(F)c(F)c5F)c5nc(c(-c6c(F)c(F)c(F)c(F)c6F)c6ccc3[nH]6)C=C5)C=C4)cc2)c1
REMARK SMILES IDX 27 1 26 2 25 3 23 4 24 5 22 7 5 8 6 9 95 10 7 11 8 12 4 13
REMARK SMILES IDX 1 14 2 15 3 16 9 18 10 19 21 20 11 21 20 22 12 23 13 24
REMARK SMILES IDX 14 25 18 26 15 27 17 28 19 29 16 30 28 31 29 32 30 33 31 35
REMARK SMILES IDX 32 36 33 37 94 38 34 39 93 40 35 41 36 42 37 43 87 44 38 45
REMARK SMILES IDX 92 46 86 47 88 48 39 49 91 50 85 51 84 52 40 54 72 55 52 56
REMARK SMILES IDX 71 57 53 58 56 59 70 60 89 61 54 62 55 63 69 65 90 66 57 67
REMARK SMILES IDX 41 68 42 69 50 70 43 71 44 72 48 73 51 74 45 75 46 76 49 77
REMARK SMILES IDX 47 78 73 79 74 80 82 81 75 82 76 83 80 84 83 85 77 86 78 87
REMARK SMILES IDX 81 88 79 89 58 90 59 91 67 92 60 93 61 94 65 95 68 96 62 97
REMARK SMILES IDX 63 98 66 99 64 100
REMARK H PARENT 25 6 4 17 29 34 88 53 56 64
REMARK Flexibility Score: inf
ROOT
ATOM      1  C   UNL A   1      32.892  30.455  27.252  1.00  0.00     0.042 C 
ENDROOT
BRANCH   1   2
ATOM      2  C   UNL A   1      32.217  29.133  26.875  1.00  0.00     0.118 C 
BRANCH   2   3
ATOM      3  N   UNL A   1      32.714  28.617  25.609  1.00  0.00    -0.352 N 
ATOM      4  C   UNL A   1      32.196  28.414  24.346  1.00  0.00     0.255 C 
ATOM      5  O   UNL A   1      33.041  27.988  23.557  1.00  0.00    -0.269 OA
ATOM      6  H   UNL A   1      33.659  28.346  25.667  1.00  0.00     0.163 HD
BRANCH   4   7
ATOM      7  C   UNL A   1      30.765  28.661  23.925  1.00  0.00     0.084 A 
ATOM      8  C   UNL A   1      28.985  30.231  23.294  1.00  0.00     0.060 A 
ATOM      9  C   UNL A   1      28.168  29.137  23.104  1.00  0.00     0.139 A 
ATOM     10  C   UNL A   1      30.277  29.969  23.735  1.00  0.00     0.045 A 
ATOM     11  N   UNL A   1      28.578  27.865  23.268  1.00  0.00    -0.236 NA
ATOM     12  C   UNL A   1      29.853  27.607  23.677  1.00  0.00     0.141 A 
BRANCH   8  13
ATOM     13  N   UNL A   1      28.459  31.522  23.107  1.00  0.00    -0.325 N 
ATOM     14  C   UNL A   1      28.223  31.607  20.623  1.00  0.00     0.114 C 
ATOM     15  C   UNL A   1      28.236  32.257  21.979  1.00  0.00     0.221 C 
ATOM     16  O   UNL A   1      27.986  33.459  22.094  1.00  0.00    -0.275 OA
ATOM     17  H   UNL A   1      28.206  31.978  23.941  1.00  0.00     0.169 HD
ENDBRANCH   8  13
BRANCH  12  18
ATOM     18  N   UNL A   1      30.117  26.266  23.810  1.00  0.00    -0.352 N 
ATOM     19  C   UNL A   1      30.143  25.693  25.147  1.00  0.00     0.146 C 
ATOM     20  C   UNL A   1      30.550  25.455  22.678  1.00  0.00     0.123 C 
ATOM     21  C   UNL A   1      31.180  24.611  25.280  1.00  0.00    -0.002 C 
ATOM     22  C   UNL A   1      31.942  24.862  22.938  1.00  0.00     0.057 C 
ATOM     23  C   UNL A   1      32.015  24.221  24.299  1.00  0.00    -0.041 C 
BRANCH  23  24
ATOM     24  C   UNL A   1      32.987  23.133  24.526  1.00  0.00    -0.020 A 
ATOM     25  C   UNL A   1      32.571  21.814  24.265  1.00  0.00     0.008 A 
ATOM     26  C   UNL A   1      34.299  23.355  24.992  1.00  0.00    -0.044 A 
ATOM     27  C   UNL A   1      33.434  20.734  24.452  1.00  0.00     0.001 A 
ATOM     28  C   UNL A   1      35.162  22.257  25.160  1.00  0.00     0.004 A 
ATOM     29  C   UNL A   1      34.824  24.730  25.302  1.00  0.00     0.045 C 
ATOM     30  C   UNL A   1      34.732  20.956  24.897  1.00  0.00     0.000 A 
ENDBRANCH  23  24
ENDBRANCH  12  18
ENDBRANCH   4   7
ENDBRANCH   2   3
ENDBRANCH   1   2
BRANCH   1  31
ATOM     31  C   UNL A   1      34.379  30.325  27.524  1.00  0.00     0.118 C 
BRANCH  31  32
ATOM     32  N   UNL A   1      34.858  31.185  28.604  1.00  0.00    -0.352 N 
ATOM     33  C   UNL A   1      35.937  30.973  29.447  1.00  0.00     0.251 C 
ATOM     34  H   UNL A   1      34.350  32.015  28.751  1.00  0.00     0.163 HD
ATOM     35  O   UNL A   1      36.229  31.769  30.318  1.00  0.00    -0.269 OA
BRANCH  33  36
ATOM     36  C   UNL A   1      36.796  29.801  29.173  1.00  0.00     0.039 A 
ATOM     37  C   UNL A   1      37.151  28.993  30.256  1.00  0.00     0.014 A 
ATOM     38  C   UNL A   1      37.444  29.689  27.944  1.00  0.00     0.014 A 
ATOM     39  C   UNL A   1      38.322  28.247  30.178  1.00  0.00     0.010 A 
ATOM     40  C   UNL A   1      38.650  29.015  27.896  1.00  0.00     0.010 A 
ATOM     41  C   UNL A   1      39.124  28.364  29.042  1.00  0.00    -0.014 A 
BRANCH  41  42
ATOM     42  C   UNL A   1      40.523  27.955  29.028  1.00  0.00     0.031 A 
ATOM     43  C   UNL A   1      40.905  26.578  28.662  1.00  0.00     0.074 A 
ATOM     44  C   UNL A   1      41.485  28.860  29.324  1.00  0.00     0.049 A 
ATOM     45  N   UNL A   1      42.044  26.050  28.962  1.00  0.00    -0.248 NA
ATOM     46  C   UNL A   1      40.001  25.647  27.986  1.00  0.00     0.031 C 
ATOM     47  C   UNL A   1      42.928  28.720  29.134  1.00  0.00     0.029 A 
ATOM     48  N   UNL A   1      41.353  30.024  30.107  1.00  0.00    -0.354 N 
ATOM     49  C   UNL A   1      42.149  24.882  28.253  1.00  0.00     0.074 A 
ATOM     50  C   UNL A   1      40.810  24.598  27.803  1.00  0.00     0.031 C 
ATOM     51  C   UNL A   1      43.554  29.506  30.022  1.00  0.00     0.029 A 
ATOM     52  C   UNL A   1      42.537  30.069  30.889  1.00  0.00     0.049 A 
ATOM     53  H   UNL A   1      40.605  30.663  30.112  1.00  0.00     0.167 HD
ATOM     54  C   UNL A   1      43.389  24.382  27.996  1.00  0.00     0.037 A 
ATOM     55  C   UNL A   1      42.491  29.937  32.247  1.00  0.00     0.037 A 
ATOM     56  C   UNL A   1      44.403  24.970  28.874  1.00  0.00     0.049 A 
ATOM     57  C   UNL A   1      43.268  28.762  32.803  1.00  0.00     0.074 A 
ATOM     58  C   UNL A   1      45.495  25.800  28.709  1.00  0.00     0.029 A 
ATOM     59  N   UNL A   1      44.219  24.849  30.243  1.00  0.00    -0.354 N 
ATOM     60  N   UNL A   1      43.897  27.881  32.075  1.00  0.00    -0.248 NA
ATOM     61  C   UNL A   1      43.295  28.427  34.229  1.00  0.00     0.031 C 
ATOM     62  C   UNL A   1      45.911  26.241  30.005  1.00  0.00     0.029 A 
ATOM     63  C   UNL A   1      45.093  25.649  30.950  1.00  0.00     0.049 A 
ATOM     64  H   UNL A   1      43.547  24.264  30.660  1.00  0.00     0.167 HD
ATOM     65  C   UNL A   1      44.332  26.863  32.878  1.00  0.00     0.074 A 
ATOM     66  C   UNL A   1      43.941  27.249  34.219  1.00  0.00     0.031 C 
ATOM     67  C   UNL A   1      44.939  25.745  32.391  1.00  0.00     0.037 A 
BRANCH  54  68
ATOM     68  C   UNL A   1      43.714  23.455  26.847  1.00  0.00     0.064 A 
ATOM     69  C   UNL A   1      43.277  22.115  26.871  1.00  0.00     0.173 A 
ATOM     70  C   UNL A   1      44.564  23.780  25.765  1.00  0.00     0.173 A 
ATOM     71  F   UNL A   1      42.485  21.662  27.854  1.00  0.00    -0.203 F 
ATOM     72  C   UNL A   1      43.658  21.184  25.896  1.00  0.00     0.198 A 
ATOM     73  C   UNL A   1      44.892  22.868  24.760  1.00  0.00     0.198 A 
ATOM     74  F   UNL A   1      45.174  24.966  25.667  1.00  0.00    -0.203 F 
ATOM     75  F   UNL A   1      43.265  19.907  26.003  1.00  0.00    -0.200 F 
ATOM     76  C   UNL A   1      44.451  21.566  24.832  1.00  0.00     0.200 A 
ATOM     77  F   UNL A   1      45.669  23.259  23.739  1.00  0.00    -0.200 F 
ATOM     78  F   UNL A   1      44.813  20.678  23.895  1.00  0.00    -0.200 F 
ENDBRANCH  54  68
BRANCH  55  79
ATOM     79  C   UNL A   1      41.249  30.492  32.845  1.00  0.00     0.064 A 
ATOM     80  C   UNL A   1      41.084  31.890  32.878  1.00  0.00     0.173 A 
ATOM     81  C   UNL A   1      40.115  29.701  33.054  1.00  0.00     0.173 A 
ATOM     82  F   UNL A   1      42.139  32.696  32.680  1.00  0.00    -0.203 F 
ATOM     83  C   UNL A   1      39.822  32.468  32.999  1.00  0.00     0.198 A 
ATOM     84  C   UNL A   1      38.856  30.283  33.197  1.00  0.00     0.198 A 
ATOM     85  F   UNL A   1      40.200  28.364  33.008  1.00  0.00    -0.203 F 
ATOM     86  F   UNL A   1      39.684  33.798  32.904  1.00  0.00    -0.200 F 
ATOM     87  C   UNL A   1      38.706  31.661  33.135  1.00  0.00     0.200 A 
ATOM     88  F   UNL A   1      37.771  29.502  33.300  1.00  0.00    -0.200 F 
ATOM     89  F   UNL A   1      37.483  32.207  33.160  1.00  0.00    -0.200 F 
ENDBRANCH  55  79
BRANCH  67  90
ATOM     90  C   UNL A   1      45.413  24.638  33.280  1.00  0.00     0.064 A 
ATOM     91  C   UNL A   1      46.709  24.624  33.819  1.00  0.00     0.173 A 
ATOM     92  C   UNL A   1      44.612  23.507  33.532  1.00  0.00     0.173 A 
ATOM     93  F   UNL A   1      47.548  25.649  33.605  1.00  0.00    -0.203 F 
ATOM     94  C   UNL A   1      47.169  23.552  34.584  1.00  0.00     0.198 A 
ATOM     95  C   UNL A   1      45.090  22.417  34.259  1.00  0.00     0.198 A 
ATOM     96  F   UNL A   1      43.343  23.447  33.102  1.00  0.00    -0.203 F 
ATOM     97  F   UNL A   1      48.398  23.594  35.118  1.00  0.00    -0.200 F 
ATOM     98  C   UNL A   1      46.366  22.443  34.790  1.00  0.00     0.200 A 
ATOM     99  F   UNL A   1      44.306  21.346  34.445  1.00  0.00    -0.200 F 
ATOM    100  F   UNL A   1      46.817  21.404  35.506  1.00  0.00    -0.200 F 
ENDBRANCH  67  90
ENDBRANCH  41  42
ENDBRANCH  33  36
ENDBRANCH  31  32
ENDBRANCH   1  31
TORSDOF 13
ENDMDL
