MODEL 1
REMARK VINA RESULT:     -12.1      0.000      0.000
REMARK SMILES O=C(CNc1ccccc1C(=O)N1CCCC1)NCCCNC(=O)c1ccc(-c2c3nc(c(-c4c(F)c(F)c(F)c(F)c4F)c4ccc([nH]4)c(-c4c(F)c(F)c(F)c(F)c4F)c4nc(c(-c5c(F)c(F)c(F)c(F)c5F)c5ccc2[nH]5)C=C4)C=C3)cc1
REMARK SMILES IDX 19 1 18 2 1 3 2 4 3 6 4 7 5 9 6 10 10 11 7 12 9 13 8 14
REMARK SMILES IDX 11 15 12 16 13 17 14 18 17 19 15 20 16 21 20 22 21 23 22 24
REMARK SMILES IDX 23 25 24 27 25 28 26 29 87 30 27 31 86 32 28 33 29 34 30 35
REMARK SMILES IDX 80 36 31 37 85 38 79 39 81 40 32 41 84 42 78 43 77 44 33 46
REMARK SMILES IDX 65 47 45 48 64 49 46 50 49 51 63 52 82 53 47 54 48 55 62 57
REMARK SMILES IDX 83 58 50 59 34 60 35 61 43 62 36 63 37 64 41 65 44 66 38 67
REMARK SMILES IDX 39 68 42 69 40 70 66 71 67 72 75 73 68 74 69 75 73 76 76 77
REMARK SMILES IDX 70 78 71 79 74 80 72 81 51 82 52 83 60 84 53 85 54 86 58 87
REMARK SMILES IDX 61 88 55 89 56 90 59 91 57 92
REMARK H PARENT 18 5 4 8 22 26 81 45 49 56
REMARK Flexibility Score: inf
ROOT
ATOM      1  C   UNL A   1      31.404  30.758  25.754  1.00  0.00     0.117 C 
ENDROOT
BRANCH   1   2
ATOM      2  N   UNL A   1      31.774  29.664  26.622  1.00  0.00    -0.355 N 
ATOM      3  O   UNL A   1      33.561  28.982  25.353  1.00  0.00    -0.273 OA
ATOM      4  C   UNL A   1      32.724  28.749  26.220  1.00  0.00     0.239 C 
ATOM      5  H   UNL A   1      31.346  29.571  27.504  1.00  0.00     0.163 HD
BRANCH   4   6
ATOM      6  C   UNL A   1      32.542  27.386  26.872  1.00  0.00     0.213 C 
BRANCH   6   7
ATOM      7  N   UNL A   1      31.179  26.891  26.720  1.00  0.00    -0.376 N 
ATOM      8  H   UNL A   1      30.483  27.108  27.382  1.00  0.00     0.161 HD
BRANCH   7   9
ATOM      9  C   UNL A   1      30.891  26.100  25.606  1.00  0.00     0.047 A 
ATOM     10  C   UNL A   1      30.611  26.790  24.409  1.00  0.00     0.026 A 
ATOM     11  C   UNL A   1      31.027  24.694  25.541  1.00  0.00     0.063 A 
ATOM     12  C   UNL A   1      30.516  26.128  23.182  1.00  0.00     0.002 A 
ATOM     13  C   UNL A   1      30.916  24.036  24.299  1.00  0.00     0.016 A 
ATOM     14  C   UNL A   1      30.673  24.750  23.126  1.00  0.00     0.001 A 
BRANCH  11  15
ATOM     15  C   UNL A   1      31.462  23.831  26.679  1.00  0.00     0.255 C 
ATOM     16  O   UNL A   1      30.574  23.390  27.414  1.00  0.00    -0.269 OA
ATOM     17  N   UNL A   1      32.785  23.472  26.855  1.00  0.00    -0.339 N 
ATOM     18  C   UNL A   1      33.993  24.069  26.321  1.00  0.00     0.120 C 
ATOM     19  C   UNL A   1      33.122  22.293  27.624  1.00  0.00     0.120 C 
ATOM     20  C   UNL A   1      34.899  22.875  26.051  1.00  0.00     0.023 C 
ATOM     21  C   UNL A   1      34.399  21.763  26.980  1.00  0.00     0.023 C 
ENDBRANCH  11  15
ENDBRANCH   7   9
ENDBRANCH   6   7
ENDBRANCH   4   6
ENDBRANCH   1   2
BRANCH   1  22
ATOM     22  C   UNL A   1      31.268  32.054  26.560  1.00  0.00     0.042 C 
BRANCH  22  23
ATOM     23  C   UNL A   1      32.598  32.617  27.060  1.00  0.00     0.118 C 
BRANCH  23  24
ATOM     24  N   UNL A   1      32.468  33.968  27.587  1.00  0.00    -0.352 N 
ATOM     25  C   UNL A   1      33.108  34.578  28.625  1.00  0.00     0.251 C 
ATOM     26  H   UNL A   1      31.812  34.533  27.117  1.00  0.00     0.163 HD
ATOM     27  O   UNL A   1      32.695  35.667  29.034  1.00  0.00    -0.269 OA
BRANCH  25  28
ATOM     28  C   UNL A   1      34.274  33.949  29.269  1.00  0.00     0.039 A 
ATOM     29  C   UNL A   1      35.550  34.308  28.830  1.00  0.00     0.014 A 
ATOM     30  C   UNL A   1      34.116  32.972  30.258  1.00  0.00     0.014 A 
ATOM     31  C   UNL A   1      36.669  33.704  29.400  1.00  0.00     0.010 A 
ATOM     32  C   UNL A   1      35.236  32.435  30.885  1.00  0.00     0.010 A 
ATOM     33  C   UNL A   1      36.523  32.774  30.441  1.00  0.00    -0.014 A 
BRANCH  33  34
ATOM     34  C   UNL A   1      37.714  32.115  31.034  1.00  0.00     0.031 A 
ATOM     35  C   UNL A   1      38.171  32.487  32.418  1.00  0.00     0.074 A 
ATOM     36  C   UNL A   1      38.385  31.192  30.320  1.00  0.00     0.049 A 
ATOM     37  N   UNL A   1      39.169  32.008  33.117  1.00  0.00    -0.248 NA
ATOM     38  C   UNL A   1      37.425  33.557  33.099  1.00  0.00     0.031 C 
ATOM     39  C   UNL A   1      38.068  30.789  28.949  1.00  0.00     0.029 A 
ATOM     40  N   UNL A   1      39.471  30.422  30.652  1.00  0.00    -0.354 N 
ATOM     41  C   UNL A   1      39.173  32.723  34.307  1.00  0.00     0.074 A 
ATOM     42  C   UNL A   1      38.124  33.713  34.212  1.00  0.00     0.031 C 
ATOM     43  C   UNL A   1      38.915  29.819  28.571  1.00  0.00     0.029 A 
ATOM     44  C   UNL A   1      39.853  29.556  29.657  1.00  0.00     0.049 A 
ATOM     45  H   UNL A   1      39.932  30.485  31.520  1.00  0.00     0.167 HD
ATOM     46  C   UNL A   1      39.961  32.548  35.396  1.00  0.00     0.037 A 
ATOM     47  C   UNL A   1      40.843  28.644  29.634  1.00  0.00     0.037 A 
ATOM     48  C   UNL A   1      40.990  31.546  35.493  1.00  0.00     0.049 A 
ATOM     49  C   UNL A   1      41.696  28.462  30.861  1.00  0.00     0.074 A 
ATOM     50  C   UNL A   1      41.816  31.256  36.564  1.00  0.00     0.029 A 
ATOM     51  N   UNL A   1      41.335  30.672  34.472  1.00  0.00    -0.354 N 
ATOM     52  N   UNL A   1      41.643  29.092  32.009  1.00  0.00    -0.248 NA
ATOM     53  C   UNL A   1      42.733  27.424  30.793  1.00  0.00     0.031 C 
ATOM     54  C   UNL A   1      42.693  30.237  36.175  1.00  0.00     0.029 A 
ATOM     55  C   UNL A   1      42.372  29.850  34.884  1.00  0.00     0.049 A 
ATOM     56  H   UNL A   1      40.907  30.639  33.586  1.00  0.00     0.167 HD
ATOM     57  C   UNL A   1      42.611  28.503  32.813  1.00  0.00     0.074 A 
ATOM     58  C   UNL A   1      43.223  27.455  32.023  1.00  0.00     0.031 C 
ATOM     59  C   UNL A   1      42.960  28.801  34.089  1.00  0.00     0.037 A 
BRANCH  46  60
ATOM     60  C   UNL A   1      39.734  33.460  36.570  1.00  0.00     0.064 A 
ATOM     61  C   UNL A   1      40.388  34.697  36.680  1.00  0.00     0.173 A 
ATOM     62  C   UNL A   1      38.837  33.103  37.587  1.00  0.00     0.173 A 
ATOM     63  F   UNL A   1      41.268  35.082  35.743  1.00  0.00    -0.203 F 
ATOM     64  C   UNL A   1      40.177  35.525  37.780  1.00  0.00     0.198 A 
ATOM     65  C   UNL A   1      38.602  33.950  38.667  1.00  0.00     0.198 A 
ATOM     66  F   UNL A   1      38.180  31.933  37.531  1.00  0.00    -0.203 F 
ATOM     67  F   UNL A   1      40.858  36.675  37.891  1.00  0.00    -0.200 F 
ATOM     68  C   UNL A   1      39.279  35.155  38.768  1.00  0.00     0.200 A 
ATOM     69  F   UNL A   1      37.722  33.596  39.615  1.00  0.00    -0.200 F 
ATOM     70  F   UNL A   1      39.072  35.956  39.822  1.00  0.00    -0.200 F 
ENDBRANCH  46  60
BRANCH  47  71
ATOM     71  C   UNL A   1      41.053  27.805  28.425  1.00  0.00     0.064 A 
ATOM     72  C   UNL A   1      41.928  28.212  27.407  1.00  0.00     0.173 A 
ATOM     73  C   UNL A   1      40.379  26.587  28.255  1.00  0.00     0.173 A 
ATOM     74  F   UNL A   1      42.584  29.376  27.514  1.00  0.00    -0.203 F 
ATOM     75  C   UNL A   1      42.096  27.449  26.253  1.00  0.00     0.198 A 
ATOM     76  C   UNL A   1      40.572  25.809  27.116  1.00  0.00     0.198 A 
ATOM     77  F   UNL A   1      39.538  26.147  29.203  1.00  0.00    -0.203 F 
ATOM     78  F   UNL A   1      42.896  27.889  25.273  1.00  0.00    -0.200 F 
ATOM     79  C   UNL A   1      41.422  26.246  26.111  1.00  0.00     0.200 A 
ATOM     80  F   UNL A   1      39.933  24.638  26.990  1.00  0.00    -0.200 F 
ATOM     81  F   UNL A   1      41.586  25.511  25.002  1.00  0.00    -0.200 F 
ENDBRANCH  47  71
BRANCH  59  82
ATOM     82  C   UNL A   1      44.014  27.943  34.729  1.00  0.00     0.064 A 
ATOM     83  C   UNL A   1      43.696  26.758  35.410  1.00  0.00     0.173 A 
ATOM     84  C   UNL A   1      45.367  28.308  34.647  1.00  0.00     0.173 A 
ATOM     85  F   UNL A   1      42.417  26.368  35.527  1.00  0.00    -0.203 F 
ATOM     86  C   UNL A   1      44.687  25.995  36.022  1.00  0.00     0.198 A 
ATOM     87  C   UNL A   1      46.359  27.524  35.229  1.00  0.00     0.198 A 
ATOM     88  F   UNL A   1      45.727  29.426  34.000  1.00  0.00    -0.203 F 
ATOM     89  F   UNL A   1      44.353  24.905  36.724  1.00  0.00    -0.200 F 
ATOM     90  C   UNL A   1      46.018  26.376  35.927  1.00  0.00     0.200 A 
ATOM     91  F   UNL A   1      47.645  27.885  35.120  1.00  0.00    -0.200 F 
ATOM     92  F   UNL A   1      46.971  25.642  36.517  1.00  0.00    -0.200 F 
ENDBRANCH  59  82
ENDBRANCH  33  34
ENDBRANCH  25  28
ENDBRANCH  23  24
ENDBRANCH  22  23
ENDBRANCH   1  22
TORSDOF 13
ENDMDL
MODEL 2
REMARK VINA RESULT:     -12.0      4.016      8.987
REMARK SMILES O=C(CNc1ccccc1C(=O)N1CCCC1)NCCCNC(=O)c1ccc(-c2c3nc(c(-c4c(F)c(F)c(F)c(F)c4F)c4ccc([nH]4)c(-c4c(F)c(F)c(F)c(F)c4F)c4nc(c(-c5c(F)c(F)c(F)c(F)c5F)c5ccc2[nH]5)C=C4)C=C3)cc1
REMARK SMILES IDX 19 1 18 2 1 3 2 4 3 6 4 7 5 9 6 10 10 11 7 12 9 13 8 14
REMARK SMILES IDX 11 15 12 16 13 17 14 18 17 19 15 20 16 21 20 22 21 23 22 24
REMARK SMILES IDX 23 25 24 27 25 28 26 29 87 30 27 31 86 32 28 33 29 34 30 35
REMARK SMILES IDX 80 36 31 37 85 38 79 39 81 40 32 41 84 42 78 43 77 44 33 46
REMARK SMILES IDX 65 47 45 48 64 49 46 50 49 51 63 52 82 53 47 54 48 55 62 57
REMARK SMILES IDX 83 58 50 59 34 60 35 61 43 62 36 63 37 64 41 65 44 66 38 67
REMARK SMILES IDX 39 68 42 69 40 70 66 71 67 72 75 73 68 74 69 75 73 76 76 77
REMARK SMILES IDX 70 78 71 79 74 80 72 81 51 82 52 83 60 84 53 85 54 86 58 87
REMARK SMILES IDX 61 88 55 89 56 90 59 91 57 92
REMARK H PARENT 18 5 4 8 22 26 81 45 49 56
REMARK Flexibility Score: inf
ROOT
ATOM      1  C   UNL A   1      33.850  23.071  25.991  1.00  0.00     0.117 C 
ENDROOT
BRANCH   1   2
ATOM      2  N   UNL A   1      32.997  24.236  25.951  1.00  0.00    -0.355 N 
ATOM      3  O   UNL A   1      31.480  23.440  27.479  1.00  0.00    -0.273 OA
ATOM      4  C   UNL A   1      31.767  24.218  26.574  1.00  0.00     0.239 C 
ATOM      5  H   UNL A   1      33.295  25.046  25.478  1.00  0.00     0.163 HD
BRANCH   4   6
ATOM      6  C   UNL A   1      30.770  25.174  25.936  1.00  0.00     0.213 C 
BRANCH   6   7
ATOM      7  N   UNL A   1      31.151  25.524  24.573  1.00  0.00    -0.376 N 
ATOM      8  H   UNL A   1      31.541  24.852  23.967  1.00  0.00     0.161 HD
BRANCH   7   9
ATOM      9  C   UNL A   1      30.947  26.839  24.154  1.00  0.00     0.047 A 
ATOM     10  C   UNL A   1      29.746  27.092  23.461  1.00  0.00     0.026 A 
ATOM     11  C   UNL A   1      31.747  27.949  24.514  1.00  0.00     0.063 A 
ATOM     12  C   UNL A   1      29.319  28.391  23.174  1.00  0.00     0.002 A 
ATOM     13  C   UNL A   1      31.313  29.255  24.207  1.00  0.00     0.016 A 
ATOM     14  C   UNL A   1      30.102  29.475  23.551  1.00  0.00     0.001 A 
BRANCH  11  15
ATOM     15  C   UNL A   1      32.968  27.871  25.369  1.00  0.00     0.255 C 
ATOM     16  O   UNL A   1      33.811  27.025  25.060  1.00  0.00    -0.269 OA
ATOM     17  N   UNL A   1      33.187  28.757  26.407  1.00  0.00    -0.339 N 
ATOM     18  C   UNL A   1      32.257  29.613  27.115  1.00  0.00     0.120 C 
ATOM     19  C   UNL A   1      34.531  28.989  26.894  1.00  0.00     0.120 C 
ATOM     20  C   UNL A   1      33.060  30.877  27.388  1.00  0.00     0.023 C 
ATOM     21  C   UNL A   1      34.530  30.444  27.354  1.00  0.00     0.023 C 
ENDBRANCH  11  15
ENDBRANCH   7   9
ENDBRANCH   6   7
ENDBRANCH   4   6
ENDBRANCH   1   2
BRANCH   1  22
ATOM     22  C   UNL A   1      35.146  23.385  26.745  1.00  0.00     0.042 C 
BRANCH  22  23
ATOM     23  C   UNL A   1      36.325  23.732  25.837  1.00  0.00     0.118 C 
BRANCH  23  24
ATOM     24  N   UNL A   1      37.392  22.744  25.906  1.00  0.00    -0.352 N 
ATOM     25  C   UNL A   1      38.709  22.887  26.228  1.00  0.00     0.251 C 
ATOM     26  H   UNL A   1      37.118  21.825  25.685  1.00  0.00     0.163 HD
ATOM     27  O   UNL A   1      39.486  21.949  26.023  1.00  0.00    -0.269 OA
BRANCH  25  28
ATOM     28  C   UNL A   1      39.215  24.143  26.806  1.00  0.00     0.039 A 
ATOM     29  C   UNL A   1      38.970  24.401  28.157  1.00  0.00     0.014 A 
ATOM     30  C   UNL A   1      39.878  25.089  26.017  1.00  0.00     0.014 A 
ATOM     31  C   UNL A   1      39.410  25.597  28.720  1.00  0.00     0.010 A 
ATOM     32  C   UNL A   1      40.391  26.242  26.602  1.00  0.00     0.010 A 
ATOM     33  C   UNL A   1      40.136  26.521  27.952  1.00  0.00    -0.014 A 
BRANCH  33  34
ATOM     34  C   UNL A   1      40.586  27.804  28.547  1.00  0.00     0.031 A 
ATOM     35  C   UNL A   1      42.041  28.020  28.861  1.00  0.00     0.074 A 
ATOM     36  C   UNL A   1      39.682  28.765  28.812  1.00  0.00     0.049 A 
ATOM     37  N   UNL A   1      42.633  29.079  29.357  1.00  0.00    -0.248 NA
ATOM     38  C   UNL A   1      42.950  26.892  28.609  1.00  0.00     0.031 C 
ATOM     39  C   UNL A   1      38.238  28.649  28.602  1.00  0.00     0.029 A 
ATOM     40  N   UNL A   1      39.845  30.033  29.312  1.00  0.00    -0.354 N 
ATOM     41  C   UNL A   1      43.973  28.737  29.483  1.00  0.00     0.074 A 
ATOM     42  C   UNL A   1      44.098  27.355  29.077  1.00  0.00     0.031 C 
ATOM     43  C   UNL A   1      37.652  29.811  28.932  1.00  0.00     0.029 A 
ATOM     44  C   UNL A   1      38.672  30.740  29.408  1.00  0.00     0.049 A 
ATOM     45  H   UNL A   1      40.720  30.399  29.576  1.00  0.00     0.167 HD
ATOM     46  C   UNL A   1      45.011  29.515  29.873  1.00  0.00     0.037 A 
ATOM     47  C   UNL A   1      38.450  32.001  29.824  1.00  0.00     0.037 A 
ATOM     48  C   UNL A   1      44.882  30.897  30.256  1.00  0.00     0.049 A 
ATOM     49  C   UNL A   1      39.622  32.848  30.239  1.00  0.00     0.074 A 
ATOM     50  C   UNL A   1      45.873  31.788  30.626  1.00  0.00     0.029 A 
ATOM     51  N   UNL A   1      43.679  31.586  30.321  1.00  0.00    -0.354 N 
ATOM     52  N   UNL A   1      40.896  32.539  30.284  1.00  0.00    -0.248 NA
ATOM     53  C   UNL A   1      39.326  34.229  30.643  1.00  0.00     0.031 C 
ATOM     54  C   UNL A   1      45.266  33.003  30.961  1.00  0.00     0.029 A 
ATOM     55  C   UNL A   1      43.903  32.888  30.740  1.00  0.00     0.049 A 
ATOM     56  H   UNL A   1      42.797  31.207  30.103  1.00  0.00     0.167 HD
ATOM     57  C   UNL A   1      41.556  33.695  30.682  1.00  0.00     0.074 A 
ATOM     58  C   UNL A   1      40.541  34.714  30.850  1.00  0.00     0.031 C 
ATOM     59  C   UNL A   1      42.882  33.894  30.888  1.00  0.00     0.037 A 
BRANCH  46  60
ATOM     60  C   UNL A   1      46.377  28.888  29.898  1.00  0.00     0.064 A 
ATOM     61  C   UNL A   1      47.213  28.894  28.770  1.00  0.00     0.173 A 
ATOM     62  C   UNL A   1      46.867  28.294  31.071  1.00  0.00     0.173 A 
ATOM     63  F   UNL A   1      46.789  29.436  27.618  1.00  0.00    -0.203 F 
ATOM     64  C   UNL A   1      48.471  28.299  28.806  1.00  0.00     0.198 A 
ATOM     65  C   UNL A   1      48.140  27.732  31.112  1.00  0.00     0.198 A 
ATOM     66  F   UNL A   1      46.113  28.264  32.181  1.00  0.00    -0.203 F 
ATOM     67  F   UNL A   1      49.227  28.266  27.698  1.00  0.00    -0.200 F 
ATOM     68  C   UNL A   1      48.937  27.725  29.978  1.00  0.00     0.200 A 
ATOM     69  F   UNL A   1      48.595  27.190  32.251  1.00  0.00    -0.200 F 
ATOM     70  F   UNL A   1      50.151  27.160  30.012  1.00  0.00    -0.200 F 
ENDBRANCH  46  60
BRANCH  47  71
ATOM     71  C   UNL A   1      37.069  32.552  29.825  1.00  0.00     0.064 A 
ATOM     72  C   UNL A   1      36.576  33.266  28.723  1.00  0.00     0.173 A 
ATOM     73  C   UNL A   1      36.219  32.387  30.927  1.00  0.00     0.173 A 
ATOM     74  F   UNL A   1      37.356  33.464  27.650  1.00  0.00    -0.203 F 
ATOM     75  C   UNL A   1      35.298  33.819  28.736  1.00  0.00     0.198 A 
ATOM     76  C   UNL A   1      34.929  32.914  30.927  1.00  0.00     0.198 A 
ATOM     77  F   UNL A   1      36.638  31.705  32.003  1.00  0.00    -0.203 F 
ATOM     78  F   UNL A   1      34.872  34.543  27.692  1.00  0.00    -0.200 F 
ATOM     79  C   UNL A   1      34.474  33.639  29.836  1.00  0.00     0.200 A 
ATOM     80  F   UNL A   1      34.129  32.721  31.985  1.00  0.00    -0.200 F 
ATOM     81  F   UNL A   1      33.243  34.169  29.848  1.00  0.00    -0.200 F 
ENDBRANCH  47  71
BRANCH  59  82
ATOM     82  C   UNL A   1      43.315  35.284  31.260  1.00  0.00     0.064 A 
ATOM     83  C   UNL A   1      43.400  35.705  32.596  1.00  0.00     0.173 A 
ATOM     84  C   UNL A   1      43.662  36.206  30.259  1.00  0.00     0.173 A 
ATOM     85  F   UNL A   1      43.069  34.867  33.590  1.00  0.00    -0.203 F 
ATOM     86  C   UNL A   1      43.774  37.008  32.914  1.00  0.00     0.198 A 
ATOM     87  C   UNL A   1      44.070  37.496  30.582  1.00  0.00     0.198 A 
ATOM     88  F   UNL A   1      43.608  35.853  28.966  1.00  0.00    -0.203 F 
ATOM     89  F   UNL A   1      43.782  37.406  34.192  1.00  0.00    -0.200 F 
ATOM     90  C   UNL A   1      44.114  37.900  31.908  1.00  0.00     0.200 A 
ATOM     91  F   UNL A   1      44.415  38.352  29.610  1.00  0.00    -0.200 F 
ATOM     92  F   UNL A   1      44.472  39.155  32.216  1.00  0.00    -0.200 F 
ENDBRANCH  59  82
ENDBRANCH  33  34
ENDBRANCH  25  28
ENDBRANCH  23  24
ENDBRANCH  22  23
ENDBRANCH   1  22
TORSDOF 13
ENDMDL
MODEL 3
REMARK VINA RESULT:     -12.0      2.150      3.488
REMARK SMILES O=C(CNc1ccccc1C(=O)N1CCCC1)NCCCNC(=O)c1ccc(-c2c3nc(c(-c4c(F)c(F)c(F)c(F)c4F)c4ccc([nH]4)c(-c4c(F)c(F)c(F)c(F)c4F)c4nc(c(-c5c(F)c(F)c(F)c(F)c5F)c5ccc2[nH]5)C=C4)C=C3)cc1
REMARK SMILES IDX 19 1 18 2 1 3 2 4 3 6 4 7 5 9 6 10 10 11 7 12 9 13 8 14
REMARK SMILES IDX 11 15 12 16 13 17 14 18 17 19 15 20 16 21 20 22 21 23 22 24
REMARK SMILES IDX 23 25 24 27 25 28 26 29 87 30 27 31 86 32 28 33 29 34 30 35
REMARK SMILES IDX 80 36 31 37 85 38 79 39 81 40 32 41 84 42 78 43 77 44 33 46
REMARK SMILES IDX 65 47 45 48 64 49 46 50 49 51 63 52 82 53 47 54 48 55 62 57
REMARK SMILES IDX 83 58 50 59 34 60 35 61 43 62 36 63 37 64 41 65 44 66 38 67
REMARK SMILES IDX 39 68 42 69 40 70 66 71 67 72 75 73 68 74 69 75 73 76 76 77
REMARK SMILES IDX 70 78 71 79 74 80 72 81 51 82 52 83 60 84 53 85 54 86 58 87
REMARK SMILES IDX 61 88 55 89 56 90 59 91 57 92
REMARK H PARENT 18 5 4 8 22 26 81 45 49 56
REMARK Flexibility Score: inf
ROOT
ATOM      1  C   UNL A   1      33.135  28.089  23.415  1.00  0.00     0.117 C 
ENDROOT
BRANCH   1   2
ATOM      2  N   UNL A   1      33.039  26.653  23.538  1.00  0.00    -0.355 N 
ATOM      3  O   UNL A   1      33.709  26.210  21.388  1.00  0.00    -0.273 OA
ATOM      4  C   UNL A   1      33.156  25.850  22.422  1.00  0.00     0.239 C 
ATOM      5  H   UNL A   1      32.889  26.245  24.421  1.00  0.00     0.163 HD
BRANCH   4   6
ATOM      6  C   UNL A   1      32.420  24.527  22.569  1.00  0.00     0.213 C 
BRANCH   6   7
ATOM      7  N   UNL A   1      33.326  23.389  22.465  1.00  0.00    -0.376 N 
ATOM      8  H   UNL A   1      33.952  23.305  21.709  1.00  0.00     0.161 HD
BRANCH   7   9
ATOM      9  C   UNL A   1      33.280  22.422  23.471  1.00  0.00     0.047 A 
ATOM     10  C   UNL A   1      32.422  21.327  23.243  1.00  0.00     0.026 A 
ATOM     11  C   UNL A   1      34.136  22.366  24.596  1.00  0.00     0.063 A 
ATOM     12  C   UNL A   1      32.439  20.194  24.060  1.00  0.00     0.002 A 
ATOM     13  C   UNL A   1      34.134  21.223  25.421  1.00  0.00     0.016 A 
ATOM     14  C   UNL A   1      33.298  20.140  25.149  1.00  0.00     0.001 A 
BRANCH  11  15
ATOM     15  C   UNL A   1      35.199  23.367  24.901  1.00  0.00     0.255 C 
ATOM     16  O   UNL A   1      34.825  24.507  25.189  1.00  0.00    -0.269 OA
ATOM     17  N   UNL A   1      36.536  23.019  24.943  1.00  0.00    -0.339 N 
ATOM     18  C   UNL A   1      37.218  21.868  24.385  1.00  0.00     0.120 C 
ATOM     19  C   UNL A   1      37.476  23.829  25.689  1.00  0.00     0.120 C 
ATOM     20  C   UNL A   1      38.281  21.536  25.424  1.00  0.00     0.023 C 
ATOM     21  C   UNL A   1      38.524  22.841  26.192  1.00  0.00     0.023 C 
ENDBRANCH  11  15
ENDBRANCH   7   9
ENDBRANCH   6   7
ENDBRANCH   4   6
ENDBRANCH   1   2
BRANCH   1  22
ATOM     22  C   UNL A   1      32.384  28.772  24.562  1.00  0.00     0.042 C 
BRANCH  22  23
ATOM     23  C   UNL A   1      33.291  29.284  25.681  1.00  0.00     0.118 C 
BRANCH  23  24
ATOM     24  N   UNL A   1      32.909  30.610  26.145  1.00  0.00    -0.352 N 
ATOM     25  C   UNL A   1      33.428  31.380  27.144  1.00  0.00     0.251 C 
ATOM     26  H   UNL A   1      32.154  31.015  25.660  1.00  0.00     0.163 HD
ATOM     27  O   UNL A   1      32.817  32.390  27.507  1.00  0.00    -0.269 OA
BRANCH  25  28
ATOM     28  C   UNL A   1      34.696  31.018  27.797  1.00  0.00     0.039 A 
ATOM     29  C   UNL A   1      34.823  29.738  28.342  1.00  0.00     0.014 A 
ATOM     30  C   UNL A   1      35.737  31.944  27.924  1.00  0.00     0.014 A 
ATOM     31  C   UNL A   1      36.002  29.381  28.994  1.00  0.00     0.010 A 
ATOM     32  C   UNL A   1      36.943  31.557  28.499  1.00  0.00     0.010 A 
ATOM     33  C   UNL A   1      37.077  30.281  29.066  1.00  0.00    -0.014 A 
BRANCH  33  34
ATOM     34  C   UNL A   1      38.323  29.908  29.778  1.00  0.00     0.031 A 
ATOM     35  C   UNL A   1      38.591  30.441  31.159  1.00  0.00     0.074 A 
ATOM     36  C   UNL A   1      39.215  29.098  29.176  1.00  0.00     0.049 A 
ATOM     37  N   UNL A   1      39.607  30.210  31.953  1.00  0.00    -0.248 NA
ATOM     38  C   UNL A   1      37.602  31.378  31.713  1.00  0.00     0.031 C 
ATOM     39  C   UNL A   1      39.089  28.563  27.820  1.00  0.00     0.029 A 
ATOM     40  N   UNL A   1      40.400  28.579  29.630  1.00  0.00    -0.354 N 
ATOM     41  C   UNL A   1      39.381  30.978  33.088  1.00  0.00     0.074 A 
ATOM     42  C   UNL A   1      38.170  31.732  32.855  1.00  0.00     0.031 C 
ATOM     43  C   UNL A   1      40.135  27.761  27.566  1.00  0.00     0.029 A 
ATOM     44  C   UNL A   1      41.019  27.751  28.727  1.00  0.00     0.049 A 
ATOM     45  H   UNL A   1      40.772  28.782  30.520  1.00  0.00     0.167 HD
ATOM     46  C   UNL A   1      40.101  31.025  34.234  1.00  0.00     0.037 A 
ATOM     47  C   UNL A   1      42.167  27.055  28.831  1.00  0.00     0.037 A 
ATOM     48  C   UNL A   1      41.295  30.256  34.468  1.00  0.00     0.049 A 
ATOM     49  C   UNL A   1      42.941  27.116  30.120  1.00  0.00     0.074 A 
ATOM     50  C   UNL A   1      42.076  30.196  35.608  1.00  0.00     0.029 A 
ATOM     51  N   UNL A   1      41.881  29.411  33.535  1.00  0.00    -0.354 N 
ATOM     52  N   UNL A   1      42.679  27.787  31.216  1.00  0.00    -0.248 NA
ATOM     53  C   UNL A   1      44.162  26.303  30.193  1.00  0.00     0.031 C 
ATOM     54  C   UNL A   1      43.162  29.352  35.349  1.00  0.00     0.029 A 
ATOM     55  C   UNL A   1      43.023  28.837  34.070  1.00  0.00     0.049 A 
ATOM     56  H   UNL A   1      41.537  29.244  32.629  1.00  0.00     0.167 HD
ATOM     57  C   UNL A   1      43.678  27.449  32.120  1.00  0.00     0.074 A 
ATOM     58  C   UNL A   1      44.541  26.501  31.447  1.00  0.00     0.031 C 
ATOM     59  C   UNL A   1      43.863  27.883  33.391  1.00  0.00     0.037 A 
BRANCH  46  60
ATOM     60  C   UNL A   1      39.612  31.938  35.324  1.00  0.00     0.064 A 
ATOM     61  C   UNL A   1      38.663  31.517  36.269  1.00  0.00     0.173 A 
ATOM     62  C   UNL A   1      40.113  33.244  35.440  1.00  0.00     0.173 A 
ATOM     63  F   UNL A   1      38.140  30.283  36.198  1.00  0.00    -0.203 F 
ATOM     64  C   UNL A   1      38.211  32.378  37.266  1.00  0.00     0.198 A 
ATOM     65  C   UNL A   1      39.685  34.090  36.459  1.00  0.00     0.198 A 
ATOM     66  F   UNL A   1      41.025  33.698  34.566  1.00  0.00    -0.203 F 
ATOM     67  F   UNL A   1      37.262  31.971  38.121  1.00  0.00    -0.200 F 
ATOM     68  C   UNL A   1      38.728  33.660  37.365  1.00  0.00     0.200 A 
ATOM     69  F   UNL A   1      40.195  35.325  36.562  1.00  0.00    -0.200 F 
ATOM     70  F   UNL A   1      38.296  34.485  38.329  1.00  0.00    -0.200 F 
ENDBRANCH  46  60
BRANCH  47  71
ATOM     71  C   UNL A   1      42.628  26.207  27.700  1.00  0.00     0.064 A 
ATOM     72  C   UNL A   1      43.581  26.680  26.787  1.00  0.00     0.173 A 
ATOM     73  C   UNL A   1      42.121  24.915  27.502  1.00  0.00     0.173 A 
ATOM     74  F   UNL A   1      44.085  27.915  26.923  1.00  0.00    -0.203 F 
ATOM     75  C   UNL A   1      43.986  25.905  25.702  1.00  0.00     0.198 A 
ATOM     76  C   UNL A   1      42.551  24.128  26.436  1.00  0.00     0.198 A 
ATOM     77  F   UNL A   1      41.215  24.412  28.353  1.00  0.00    -0.203 F 
ATOM     78  F   UNL A   1      44.857  26.403  24.814  1.00  0.00    -0.200 F 
ATOM     79  C   UNL A   1      43.474  24.628  25.530  1.00  0.00     0.200 A 
ATOM     80  F   UNL A   1      42.067  22.888  26.284  1.00  0.00    -0.200 F 
ATOM     81  F   UNL A   1      43.865  23.882  24.488  1.00  0.00    -0.200 F 
ENDBRANCH  47  71
BRANCH  59  82
ATOM     82  C   UNL A   1      45.011  27.288  34.157  1.00  0.00     0.064 A 
ATOM     83  C   UNL A   1      46.285  27.876  34.164  1.00  0.00     0.173 A 
ATOM     84  C   UNL A   1      44.827  26.116  34.906  1.00  0.00     0.173 A 
ATOM     85  F   UNL A   1      46.518  28.991  33.456  1.00  0.00    -0.203 F 
ATOM     86  C   UNL A   1      47.341  27.289  34.856  1.00  0.00     0.198 A 
ATOM     87  C   UNL A   1      45.875  25.551  35.627  1.00  0.00     0.198 A 
ATOM     88  F   UNL A   1      43.626  25.518  34.943  1.00  0.00    -0.203 F 
ATOM     89  F   UNL A   1      48.564  27.830  34.792  1.00  0.00    -0.200 F 
ATOM     90  C   UNL A   1      47.134  26.130  35.590  1.00  0.00     0.200 A 
ATOM     91  F   UNL A   1      45.668  24.442  36.350  1.00  0.00    -0.200 F 
ATOM     92  F   UNL A   1      48.152  25.565  36.255  1.00  0.00    -0.200 F 
ENDBRANCH  59  82
ENDBRANCH  33  34
ENDBRANCH  25  28
ENDBRANCH  23  24
ENDBRANCH  22  23
ENDBRANCH   1  22
TORSDOF 13
ENDMDL
