MODEL 1
REMARK VINA RESULT:     -13.4      0.000      0.000
REMARK SMILES CC[NH+]1CCN(c2ccc(NC(=O)C3CCCC3)c(C(=O)NCCCNC(=O)c3ccc(-c4c5nc(c(-c6c(F)c(F)c(F)c(F)c6F)c6ccc([nH]6)c(-c6c(F)c(F)c(F)c(F)c6F)c6nc(c(-c7c(F)c(F)c(F)c(F)c7F)c7ccc4[nH]7)C=C6)C=C5)cc3)c2)CC1
REMARK SMILES IDX 24 1 23 2 22 3 20 4 21 5 19 7 7 8 8 9 92 10 9 11 10 12 6 13
REMARK SMILES IDX 3 14 4 15 94 16 5 18 93 19 2 20 1 21 11 22 12 23 13 25 14 26
REMARK SMILES IDX 15 27 18 28 16 29 17 30 25 31 26 32 27 33 28 35 29 36 30 37
REMARK SMILES IDX 91 38 31 39 90 40 32 41 33 42 34 43 84 44 35 45 89 46 83 47
REMARK SMILES IDX 85 48 36 49 88 50 82 51 81 52 37 54 69 55 49 56 68 57 50 58
REMARK SMILES IDX 53 59 67 60 86 61 51 62 52 63 66 65 87 66 54 67 38 68 39 69
REMARK SMILES IDX 47 70 40 71 41 72 45 73 48 74 42 75 43 76 46 77 44 78 70 79
REMARK SMILES IDX 71 80 79 81 72 82 73 83 77 84 80 85 74 86 75 87 78 88 76 89
REMARK SMILES IDX 55 90 56 91 64 92 57 93 58 94 62 95 65 96 59 97 60 98 63 99
REMARK SMILES IDX 61 100
REMARK H PARENT 22 6 3 17 11 24 26 34 85 53 53 64
REMARK Flexibility Score: inf
ROOT
ATOM      1  C   UNL A   1      33.332  28.347  24.912  1.00  0.00     0.042 C 
ENDROOT
BRANCH   1   2
ATOM      2  C   UNL A   1      33.828  26.915  24.825  1.00  0.00     0.118 C 
BRANCH   2   3
ATOM      3  N   UNL A   1      34.000  26.394  23.465  1.00  0.00    -0.352 N 
ATOM      4  C   UNL A   1      33.119  26.115  22.431  1.00  0.00     0.253 C 
ATOM      5  O   UNL A   1      33.581  25.683  21.375  1.00  0.00    -0.269 OA
ATOM      6  H   UNL A   1      34.939  26.205  23.237  1.00  0.00     0.163 HD
BRANCH   4   7
ATOM      7  C   UNL A   1      31.641  26.202  22.602  1.00  0.00     0.065 A 
ATOM      8  C   UNL A   1      29.837  27.789  22.953  1.00  0.00     0.038 A 
ATOM      9  C   UNL A   1      29.216  26.812  23.730  1.00  0.00     0.028 A 
ATOM     10  C   UNL A   1      30.986  27.389  22.276  1.00  0.00     0.042 A 
ATOM     11  C   UNL A   1      29.732  25.523  23.837  1.00  0.00     0.029 A 
ATOM     12  C   UNL A   1      30.908  25.171  23.203  1.00  0.00     0.054 A 
BRANCH   8  13
ATOM     13  N   UNL A   1      29.434  29.111  22.985  1.00  0.00    -0.360 N 
ATOM     14  N   UNL A   1      28.223  31.761  23.458  1.00  0.00    -0.332 N 
ATOM     15  C   UNL A   1      27.433  30.621  22.985  1.00  0.00     0.283 C 
ATOM     16  C   UNL A   1      29.392  31.284  24.211  1.00  0.00     0.283 C 
ATOM     17  H   UNL A   1      27.638  32.287  24.107  1.00  0.00     0.348 HD
ATOM     18  C   UNL A   1      28.208  29.499  22.268  1.00  0.00     0.178 C 
ATOM     19  C   UNL A   1      30.258  30.195  23.540  1.00  0.00     0.178 C 
BRANCH  14  20
ATOM     20  C   UNL A   1      28.505  32.785  22.453  1.00  0.00     0.258 C 
ATOM     21  C   UNL A   1      27.952  32.622  21.042  1.00  0.00     0.071 C 
ENDBRANCH  14  20
ENDBRANCH   8  13
BRANCH  12  22
ATOM     22  N   UNL A   1      31.346  23.838  23.139  1.00  0.00    -0.325 N 
ATOM     23  C   UNL A   1      32.050  23.044  23.997  1.00  0.00     0.227 C 
ATOM     24  H   UNL A   1      31.092  23.382  22.304  1.00  0.00     0.169 HD
ATOM     25  O   UNL A   1      32.315  21.902  23.594  1.00  0.00    -0.274 OA
BRANCH  23  26
ATOM     26  C   UNL A   1      32.524  23.423  25.411  1.00  0.00     0.079 C 
ATOM     27  C   UNL A   1      31.815  22.654  26.523  1.00  0.00     0.013 C 
ATOM     28  C   UNL A   1      34.019  23.450  25.749  1.00  0.00     0.013 C 
ATOM     29  C   UNL A   1      32.796  22.613  27.688  1.00  0.00     0.001 C 
ATOM     30  C   UNL A   1      34.186  22.718  27.081  1.00  0.00     0.001 C 
ENDBRANCH  23  26
ENDBRANCH  12  22
ENDBRANCH   4   7
ENDBRANCH   2   3
ENDBRANCH   1   2
BRANCH   1  31
ATOM     31  C   UNL A   1      32.759  28.726  26.262  1.00  0.00     0.118 C 
BRANCH  31  32
ATOM     32  N   UNL A   1      32.460  30.153  26.373  1.00  0.00    -0.352 N 
ATOM     33  C   UNL A   1      33.118  31.163  27.033  1.00  0.00     0.251 C 
ATOM     34  H   UNL A   1      31.650  30.438  25.892  1.00  0.00     0.163 HD
ATOM     35  O   UNL A   1      32.583  32.264  27.154  1.00  0.00    -0.269 OA
BRANCH  33  36
ATOM     36  C   UNL A   1      34.452  30.929  27.622  1.00  0.00     0.039 A 
ATOM     37  C   UNL A   1      35.356  31.991  27.730  1.00  0.00     0.014 A 
ATOM     38  C   UNL A   1      34.815  29.659  28.068  1.00  0.00     0.014 A 
ATOM     39  C   UNL A   1      36.581  31.797  28.378  1.00  0.00     0.010 A 
ATOM     40  C   UNL A   1      35.977  29.495  28.808  1.00  0.00     0.010 A 
ATOM     41  C   UNL A   1      36.876  30.560  28.969  1.00  0.00    -0.014 A 
BRANCH  41  42
ATOM     42  C   UNL A   1      38.120  30.319  29.743  1.00  0.00     0.031 A 
ATOM     43  C   UNL A   1      39.151  29.367  29.200  1.00  0.00     0.074 A 
ATOM     44  C   UNL A   1      38.269  30.849  30.973  1.00  0.00     0.049 A 
ATOM     45  N   UNL A   1      40.189  28.835  29.793  1.00  0.00    -0.248 NA
ATOM     46  C   UNL A   1      38.961  28.920  27.810  1.00  0.00     0.031 C 
ATOM     47  C   UNL A   1      37.325  31.757  31.627  1.00  0.00     0.029 A 
ATOM     48  N   UNL A   1      39.258  30.669  31.910  1.00  0.00    -0.354 N 
ATOM     49  C   UNL A   1      40.754  27.976  28.860  1.00  0.00     0.074 A 
ATOM     50  C   UNL A   1      39.912  28.007  27.686  1.00  0.00     0.031 C 
ATOM     51  C   UNL A   1      37.780  32.056  32.854  1.00  0.00     0.029 A 
ATOM     52  C   UNL A   1      39.018  31.320  33.096  1.00  0.00     0.049 A 
ATOM     53  H   UNL A   1      40.062  30.126  31.747  1.00  0.00     0.167 HD
ATOM     54  C   UNL A   1      41.890  27.247  28.964  1.00  0.00     0.037 A 
ATOM     55  C   UNL A   1      39.701  31.300  34.256  1.00  0.00     0.037 A 
ATOM     56  C   UNL A   1      42.739  27.242  30.126  1.00  0.00     0.049 A 
ATOM     57  C   UNL A   1      40.953  30.467  34.355  1.00  0.00     0.074 A 
ATOM     58  C   UNL A   1      43.930  26.566  30.321  1.00  0.00     0.029 A 
ATOM     59  N   UNL A   1      42.486  27.957  31.287  1.00  0.00    -0.354 N 
ATOM     60  N   UNL A   1      41.501  29.688  33.454  1.00  0.00    -0.248 NA
ATOM     61  C   UNL A   1      41.683  30.511  35.630  1.00  0.00     0.031 C 
ATOM     62  C   UNL A   1      44.377  26.840  31.617  1.00  0.00     0.029 A 
ATOM     63  C   UNL A   1      43.495  27.731  32.207  1.00  0.00     0.049 A 
ATOM     64  H   UNL A   1      41.706  28.539  31.434  1.00  0.00     0.167 HD
ATOM     65  C   UNL A   1      42.655  29.183  34.036  1.00  0.00     0.074 A 
ATOM     66  C   UNL A   1      42.733  29.746  35.368  1.00  0.00     0.031 C 
ATOM     67  C   UNL A   1      43.570  28.328  33.516  1.00  0.00     0.037 A 
BRANCH  54  68
ATOM     68  C   UNL A   1      42.287  26.406  27.786  1.00  0.00     0.064 A 
ATOM     69  C   UNL A   1      43.226  26.858  26.846  1.00  0.00     0.173 A 
ATOM     70  C   UNL A   1      41.753  25.121  27.609  1.00  0.00     0.173 A 
ATOM     71  F   UNL A   1      43.759  28.085  26.961  1.00  0.00    -0.203 F 
ATOM     72  C   UNL A   1      43.590  26.070  25.758  1.00  0.00     0.198 A 
ATOM     73  C   UNL A   1      42.145  24.321  26.540  1.00  0.00     0.198 A 
ATOM     74  F   UNL A   1      40.855  24.635  28.481  1.00  0.00    -0.203 F 
ATOM     75  F   UNL A   1      44.448  26.547  24.845  1.00  0.00    -0.200 F 
ATOM     76  C   UNL A   1      43.057  24.799  25.610  1.00  0.00     0.200 A 
ATOM     77  F   UNL A   1      41.640  23.087  26.406  1.00  0.00    -0.200 F 
ATOM     78  F   UNL A   1      43.416  24.037  24.568  1.00  0.00    -0.200 F 
ENDBRANCH  54  68
BRANCH  55  79
ATOM     79  C   UNL A   1      39.220  32.090  35.423  1.00  0.00     0.064 A 
ATOM     80  C   UNL A   1      39.566  33.441  35.571  1.00  0.00     0.173 A 
ATOM     81  C   UNL A   1      38.427  31.509  36.423  1.00  0.00     0.173 A 
ATOM     82  F   UNL A   1      40.339  34.039  34.652  1.00  0.00    -0.203 F 
ATOM     83  C   UNL A   1      39.163  34.170  36.689  1.00  0.00     0.198 A 
ATOM     84  C   UNL A   1      37.997  32.248  37.524  1.00  0.00     0.198 A 
ATOM     85  F   UNL A   1      38.061  30.222  36.328  1.00  0.00    -0.203 F 
ATOM     86  F   UNL A   1      39.558  35.443  36.832  1.00  0.00    -0.200 F 
ATOM     87  C   UNL A   1      38.375  33.575  37.661  1.00  0.00     0.200 A 
ATOM     88  F   UNL A   1      37.222  31.673  38.453  1.00  0.00    -0.200 F 
ATOM     89  F   UNL A   1      37.989  34.276  38.736  1.00  0.00    -0.200 F 
ENDBRANCH  55  79
BRANCH  67  90
ATOM     90  C   UNL A   1      44.770  27.996  34.354  1.00  0.00     0.064 A 
ATOM     91  C   UNL A   1      45.938  28.769  34.314  1.00  0.00     0.173 A 
ATOM     92  C   UNL A   1      44.714  26.931  35.268  1.00  0.00     0.173 A 
ATOM     93  F   UNL A   1      46.044  29.788  33.448  1.00  0.00    -0.203 F 
ATOM     94  C   UNL A   1      47.013  28.481  35.150  1.00  0.00     0.198 A 
ATOM     95  C   UNL A   1      45.779  26.666  36.123  1.00  0.00     0.198 A 
ATOM     96  F   UNL A   1      43.616  26.166  35.349  1.00  0.00    -0.203 F 
ATOM     97  F   UNL A   1      48.134  29.212  35.072  1.00  0.00    -0.200 F 
ATOM     98  C   UNL A   1      46.929  27.438  36.060  1.00  0.00     0.200 A 
ATOM     99  F   UNL A   1      45.689  25.668  37.013  1.00  0.00    -0.200 F 
ATOM    100  F   UNL A   1      47.958  27.175  36.878  1.00  0.00    -0.200 F 
ENDBRANCH  67  90
ENDBRANCH  41  42
ENDBRANCH  33  36
ENDBRANCH  31  32
ENDBRANCH   1  31
TORSDOF 14
ENDMDL
MODEL 2
REMARK VINA RESULT:     -13.1      3.876      7.742
REMARK SMILES CC[NH+]1CCN(c2ccc(NC(=O)C3CCCC3)c(C(=O)NCCCNC(=O)c3ccc(-c4c5nc(c(-c6c(F)c(F)c(F)c(F)c6F)c6ccc([nH]6)c(-c6c(F)c(F)c(F)c(F)c6F)c6nc(c(-c7c(F)c(F)c(F)c(F)c7F)c7ccc4[nH]7)C=C6)C=C5)cc3)c2)CC1
REMARK SMILES IDX 24 1 23 2 22 3 20 4 21 5 19 7 7 8 8 9 92 10 9 11 10 12 6 13
REMARK SMILES IDX 3 14 4 15 94 16 5 18 93 19 2 20 1 21 11 22 12 23 13 25 14 26
REMARK SMILES IDX 15 27 18 28 16 29 17 30 25 31 26 32 27 33 28 35 29 36 30 37
REMARK SMILES IDX 91 38 31 39 90 40 32 41 33 42 34 43 84 44 35 45 89 46 83 47
REMARK SMILES IDX 85 48 36 49 88 50 82 51 81 52 37 54 69 55 49 56 68 57 50 58
REMARK SMILES IDX 53 59 67 60 86 61 51 62 52 63 66 65 87 66 54 67 38 68 39 69
REMARK SMILES IDX 47 70 40 71 41 72 45 73 48 74 42 75 43 76 46 77 44 78 70 79
REMARK SMILES IDX 71 80 79 81 72 82 73 83 77 84 80 85 74 86 75 87 78 88 76 89
REMARK SMILES IDX 55 90 56 91 64 92 57 93 58 94 62 95 65 96 59 97 60 98 63 99
REMARK SMILES IDX 61 100
REMARK H PARENT 22 6 3 17 11 24 26 34 85 53 53 64
REMARK Flexibility Score: inf
ROOT
ATOM      1  C   UNL A   1      35.698  23.480  25.982  1.00  0.00     0.042 C 
ENDROOT
BRANCH   1   2
ATOM      2  C   UNL A   1      34.652  24.505  25.585  1.00  0.00     0.118 C 
BRANCH   2   3
ATOM      3  N   UNL A   1      33.450  24.529  26.425  1.00  0.00    -0.352 N 
ATOM      4  C   UNL A   1      32.239  23.855  26.378  1.00  0.00     0.253 C 
ATOM      5  O   UNL A   1      31.409  24.091  27.255  1.00  0.00    -0.269 OA
ATOM      6  H   UNL A   1      33.517  25.155  27.182  1.00  0.00     0.163 HD
BRANCH   4   7
ATOM      7  C   UNL A   1      31.872  22.961  25.244  1.00  0.00     0.065 A 
ATOM      8  C   UNL A   1      32.398  20.812  24.242  1.00  0.00     0.038 A 
ATOM      9  C   UNL A   1      32.155  21.404  23.003  1.00  0.00     0.028 A 
ATOM     10  C   UNL A   1      32.096  21.589  25.357  1.00  0.00     0.042 A 
ATOM     11  C   UNL A   1      31.662  22.702  22.894  1.00  0.00     0.029 A 
ATOM     12  C   UNL A   1      31.429  23.473  24.017  1.00  0.00     0.054 A 
BRANCH   8  13
ATOM     13  N   UNL A   1      33.052  19.600  24.355  1.00  0.00    -0.360 N 
ATOM     14  N   UNL A   1      34.535  17.067  24.043  1.00  0.00    -0.332 N 
ATOM     15  C   UNL A   1      33.263  17.310  23.357  1.00  0.00     0.283 C 
ATOM     16  C   UNL A   1      35.208  18.344  24.320  1.00  0.00     0.283 C 
ATOM     17  H   UNL A   1      35.130  16.543  23.402  1.00  0.00     0.348 HD
ATOM     18  C   UNL A   1      32.336  18.368  23.985  1.00  0.00     0.178 C 
ATOM     19  C   UNL A   1      34.365  19.445  25.000  1.00  0.00     0.178 C 
BRANCH  14  20
ATOM     20  C   UNL A   1      34.469  16.140  25.172  1.00  0.00     0.258 C 
ATOM     21  C   UNL A   1      33.228  15.273  25.358  1.00  0.00     0.071 C 
ENDBRANCH  14  20
ENDBRANCH   8  13
BRANCH  12  22
ATOM     22  N   UNL A   1      30.759  24.704  23.945  1.00  0.00    -0.325 N 
ATOM     23  C   UNL A   1      31.182  25.988  23.756  1.00  0.00     0.227 C 
ATOM     24  H   UNL A   1      29.783  24.626  24.053  1.00  0.00     0.169 HD
ATOM     25  O   UNL A   1      30.306  26.865  23.799  1.00  0.00    -0.274 OA
BRANCH  23  26
ATOM     26  C   UNL A   1      32.624  26.442  23.476  1.00  0.00     0.079 C 
ATOM     27  C   UNL A   1      32.898  26.749  22.006  1.00  0.00     0.013 C 
ATOM     28  C   UNL A   1      33.262  27.561  24.308  1.00  0.00     0.013 C 
ATOM     29  C   UNL A   1      34.028  27.771  22.001  1.00  0.00     0.001 C 
ATOM     30  C   UNL A   1      33.939  28.515  23.323  1.00  0.00     0.001 C 
ENDBRANCH  23  26
ENDBRANCH  12  22
ENDBRANCH   4   7
ENDBRANCH   2   3
ENDBRANCH   1   2
BRANCH   1  31
ATOM     31  C   UNL A   1      36.947  23.501  25.123  1.00  0.00     0.118 C 
BRANCH  31  32
ATOM     32  N   UNL A   1      37.993  22.609  25.619  1.00  0.00    -0.352 N 
ATOM     33  C   UNL A   1      39.141  22.871  26.326  1.00  0.00     0.251 C 
ATOM     34  H   UNL A   1      37.848  21.656  25.412  1.00  0.00     0.163 HD
ATOM     35  O   UNL A   1      39.983  21.987  26.476  1.00  0.00    -0.269 OA
BRANCH  33  36
ATOM     36  C   UNL A   1      39.387  24.217  26.885  1.00  0.00     0.039 A 
ATOM     37  C   UNL A   1      38.960  24.514  28.183  1.00  0.00     0.014 A 
ATOM     38  C   UNL A   1      40.037  25.189  26.127  1.00  0.00     0.014 A 
ATOM     39  C   UNL A   1      39.278  25.752  28.752  1.00  0.00     0.010 A 
ATOM     40  C   UNL A   1      40.449  26.369  26.727  1.00  0.00     0.010 A 
ATOM     41  C   UNL A   1      40.072  26.667  28.046  1.00  0.00    -0.014 A 
BRANCH  41  42
ATOM     42  C   UNL A   1      40.515  27.960  28.628  1.00  0.00     0.031 A 
ATOM     43  C   UNL A   1      41.931  28.099  29.118  1.00  0.00     0.074 A 
ATOM     44  C   UNL A   1      39.628  28.954  28.829  1.00  0.00     0.049 A 
ATOM     45  N   UNL A   1      42.469  29.036  29.855  1.00  0.00    -0.248 NA
ATOM     46  C   UNL A   1      42.856  27.009  28.763  1.00  0.00     0.031 C 
ATOM     47  C   UNL A   1      38.219  28.929  28.432  1.00  0.00     0.029 A 
ATOM     48  N   UNL A   1      39.775  30.171  29.451  1.00  0.00    -0.354 N 
ATOM     49  C   UNL A   1      43.781  28.635  30.072  1.00  0.00     0.074 A 
ATOM     50  C   UNL A   1      43.941  27.342  29.445  1.00  0.00     0.031 C 
ATOM     51  C   UNL A   1      37.632  30.073  28.818  1.00  0.00     0.029 A 
ATOM     52  C   UNL A   1      38.607  30.890  29.537  1.00  0.00     0.049 A 
ATOM     53  H   UNL A   1      40.635  30.496  29.803  1.00  0.00     0.167 HD
ATOM     54  C   UNL A   1      44.771  29.298  30.714  1.00  0.00     0.037 A 
ATOM     55  C   UNL A   1      38.346  32.059  30.152  1.00  0.00     0.037 A 
ATOM     56  C   UNL A   1      44.612  30.597  31.312  1.00  0.00     0.049 A 
ATOM     57  C   UNL A   1      39.459  32.771  30.875  1.00  0.00     0.074 A 
ATOM     58  C   UNL A   1      45.560  31.372  31.956  1.00  0.00     0.029 A 
ATOM     59  N   UNL A   1      43.426  31.315  31.330  1.00  0.00    -0.354 N 
ATOM     60  N   UNL A   1      40.706  32.403  31.042  1.00  0.00    -0.248 NA
ATOM     61  C   UNL A   1      39.130  34.063  31.496  1.00  0.00     0.031 C 
ATOM     62  C   UNL A   1      44.936  32.541  32.400  1.00  0.00     0.029 A 
ATOM     63  C   UNL A   1      43.615  32.520  31.983  1.00  0.00     0.049 A 
ATOM     64  H   UNL A   1      42.575  31.011  30.936  1.00  0.00     0.167 HD
ATOM     65  C   UNL A   1      41.318  33.429  31.747  1.00  0.00     0.074 A 
ATOM     66  C   UNL A   1      40.307  34.440  31.975  1.00  0.00     0.031 C 
ATOM     67  C   UNL A   1      42.602  33.527  32.170  1.00  0.00     0.037 A 
BRANCH  54  68
ATOM     68  C   UNL A   1      46.116  28.637  30.789  1.00  0.00     0.064 A 
ATOM     69  C   UNL A   1      46.451  27.773  31.844  1.00  0.00     0.173 A 
ATOM     70  C   UNL A   1      47.072  28.839  29.782  1.00  0.00     0.173 A 
ATOM     71  F   UNL A   1      45.578  27.555  32.840  1.00  0.00    -0.203 F 
ATOM     72  C   UNL A   1      47.700  27.162  31.903  1.00  0.00     0.198 A 
ATOM     73  C   UNL A   1      48.307  28.199  29.826  1.00  0.00     0.198 A 
ATOM     74  F   UNL A   1      46.803  29.650  28.747  1.00  0.00    -0.203 F 
ATOM     75  F   UNL A   1      48.014  26.384  32.948  1.00  0.00    -0.200 F 
ATOM     76  C   UNL A   1      48.624  27.368  30.890  1.00  0.00     0.200 A 
ATOM     77  F   UNL A   1      49.194  28.387  28.838  1.00  0.00    -0.200 F 
ATOM     78  F   UNL A   1      49.823  26.772  30.943  1.00  0.00    -0.200 F 
ENDBRANCH  54  68
BRANCH  55  79
ATOM     79  C   UNL A   1      36.973  32.634  30.115  1.00  0.00     0.064 A 
ATOM     80  C   UNL A   1      36.540  33.398  29.022  1.00  0.00     0.173 A 
ATOM     81  C   UNL A   1      36.076  32.453  31.178  1.00  0.00     0.173 A 
ATOM     82  F   UNL A   1      37.366  33.617  27.989  1.00  0.00    -0.203 F 
ATOM     83  C   UNL A   1      35.275  33.984  29.007  1.00  0.00     0.198 A 
ATOM     84  C   UNL A   1      34.799  33.011  31.147  1.00  0.00     0.198 A 
ATOM     85  F   UNL A   1      36.435  31.725  32.245  1.00  0.00    -0.203 F 
ATOM     86  F   UNL A   1      34.910  34.757  27.975  1.00  0.00    -0.200 F 
ATOM     87  C   UNL A   1      34.404  33.786  30.067  1.00  0.00     0.200 A 
ATOM     88  F   UNL A   1      33.954  32.804  32.166  1.00  0.00    -0.200 F 
ATOM     89  F   UNL A   1      33.189  34.350  30.053  1.00  0.00    -0.200 F 
ENDBRANCH  55  79
BRANCH  67  90
ATOM     90  C   UNL A   1      43.013  34.793  32.864  1.00  0.00     0.064 A 
ATOM     91  C   UNL A   1      43.437  35.923  32.153  1.00  0.00     0.173 A 
ATOM     92  C   UNL A   1      42.903  34.895  34.260  1.00  0.00     0.173 A 
ATOM     93  F   UNL A   1      43.571  35.870  30.819  1.00  0.00    -0.203 F 
ATOM     94  C   UNL A   1      43.749  37.107  32.814  1.00  0.00     0.198 A 
ATOM     95  C   UNL A   1      43.186  36.090  34.915  1.00  0.00     0.198 A 
ATOM     96  F   UNL A   1      42.495  33.843  34.985  1.00  0.00    -0.203 F 
ATOM     97  F   UNL A   1      44.186  38.166  32.118  1.00  0.00    -0.200 F 
ATOM     98  C   UNL A   1      43.613  37.193  34.192  1.00  0.00     0.200 A 
ATOM     99  F   UNL A   1      43.038  36.174  36.244  1.00  0.00    -0.200 F 
ATOM    100  F   UNL A   1      43.895  38.340  34.825  1.00  0.00    -0.200 F 
ENDBRANCH  67  90
ENDBRANCH  41  42
ENDBRANCH  33  36
ENDBRANCH  31  32
ENDBRANCH   1  31
TORSDOF 14
ENDMDL
MODEL 3
REMARK VINA RESULT:     -13.0      1.983      3.379
REMARK SMILES CC[NH+]1CCN(c2ccc(NC(=O)C3CCCC3)c(C(=O)NCCCNC(=O)c3ccc(-c4c5nc(c(-c6c(F)c(F)c(F)c(F)c6F)c6ccc([nH]6)c(-c6c(F)c(F)c(F)c(F)c6F)c6nc(c(-c7c(F)c(F)c(F)c(F)c7F)c7ccc4[nH]7)C=C6)C=C5)cc3)c2)CC1
REMARK SMILES IDX 24 1 23 2 22 3 20 4 21 5 19 7 7 8 8 9 92 10 9 11 10 12 6 13
REMARK SMILES IDX 3 14 4 15 94 16 5 18 93 19 2 20 1 21 11 22 12 23 13 25 14 26
REMARK SMILES IDX 15 27 18 28 16 29 17 30 25 31 26 32 27 33 28 35 29 36 30 37
REMARK SMILES IDX 91 38 31 39 90 40 32 41 33 42 34 43 84 44 35 45 89 46 83 47
REMARK SMILES IDX 85 48 36 49 88 50 82 51 81 52 37 54 69 55 49 56 68 57 50 58
REMARK SMILES IDX 53 59 67 60 86 61 51 62 52 63 66 65 87 66 54 67 38 68 39 69
REMARK SMILES IDX 47 70 40 71 41 72 45 73 48 74 42 75 43 76 46 77 44 78 70 79
REMARK SMILES IDX 71 80 79 81 72 82 73 83 77 84 80 85 74 86 75 87 78 88 76 89
REMARK SMILES IDX 55 90 56 91 64 92 57 93 58 94 62 95 65 96 59 97 60 98 63 99
REMARK SMILES IDX 61 100
REMARK H PARENT 22 6 3 17 11 24 26 34 85 53 53 64
REMARK Flexibility Score: inf
ROOT
ATOM      1  C   UNL A   1      31.684  32.028  26.819  1.00  0.00     0.042 C 
ENDROOT
BRANCH   1   2
ATOM      2  C   UNL A   1      31.668  30.587  27.295  1.00  0.00     0.118 C 
BRANCH   2   3
ATOM      3  N   UNL A   1      32.930  29.858  27.126  1.00  0.00    -0.352 N 
ATOM      4  C   UNL A   1      33.362  28.893  26.229  1.00  0.00     0.253 C 
ATOM      5  O   UNL A   1      34.512  28.470  26.341  1.00  0.00    -0.269 OA
ATOM      6  H   UNL A   1      33.614  30.108  27.788  1.00  0.00     0.163 HD
BRANCH   4   7
ATOM      7  C   UNL A   1      32.449  28.274  25.228  1.00  0.00     0.065 A 
ATOM      8  C   UNL A   1      30.566  28.771  23.776  1.00  0.00     0.038 A 
ATOM      9  C   UNL A   1      30.116  27.475  24.025  1.00  0.00     0.028 A 
ATOM     10  C   UNL A   1      31.826  29.084  24.279  1.00  0.00     0.042 A 
ATOM     11  C   UNL A   1      30.875  26.563  24.753  1.00  0.00     0.029 A 
ATOM     12  C   UNL A   1      32.095  26.920  25.294  1.00  0.00     0.054 A 
BRANCH   8  13
ATOM     13  N   UNL A   1      29.748  29.732  23.214  1.00  0.00    -0.360 N 
ATOM     14  N   UNL A   1      27.593  31.400  22.080  1.00  0.00    -0.332 N 
ATOM     15  C   UNL A   1      27.991  30.129  21.469  1.00  0.00     0.283 C 
ATOM     16  C   UNL A   1      27.905  31.387  23.516  1.00  0.00     0.283 C 
ATOM     17  H   UNL A   1      26.580  31.475  21.990  1.00  0.00     0.348 HD
ATOM     18  C   UNL A   1      29.416  29.635  21.782  1.00  0.00     0.178 C 
ATOM     19  C   UNL A   1      29.332  30.955  23.916  1.00  0.00     0.178 C 
BRANCH  14  20
ATOM     20  C   UNL A   1      28.019  32.600  21.361  1.00  0.00     0.258 C 
ATOM     21  C   UNL A   1      27.983  32.612  19.836  1.00  0.00     0.071 C 
ENDBRANCH  14  20
ENDBRANCH   8  13
BRANCH  12  22
ATOM     22  N   UNL A   1      32.960  25.972  25.864  1.00  0.00    -0.325 N 
ATOM     23  C   UNL A   1      33.750  24.992  25.337  1.00  0.00     0.227 C 
ATOM     24  H   UNL A   1      33.006  26.026  26.846  1.00  0.00     0.169 HD
ATOM     25  O   UNL A   1      34.362  24.284  26.151  1.00  0.00    -0.274 OA
BRANCH  23  26
ATOM     26  C   UNL A   1      33.966  24.699  23.842  1.00  0.00     0.079 C 
ATOM     27  C   UNL A   1      33.184  23.490  23.334  1.00  0.00     0.013 C 
ATOM     28  C   UNL A   1      33.820  25.815  22.802  1.00  0.00     0.013 C 
ATOM     29  C   UNL A   1      32.955  23.742  21.849  1.00  0.00     0.001 C 
ATOM     30  C   UNL A   1      32.970  25.250  21.662  1.00  0.00     0.001 C 
ENDBRANCH  23  26
ENDBRANCH  12  22
ENDBRANCH   4   7
ENDBRANCH   2   3
ENDBRANCH   1   2
BRANCH   1  31
ATOM     31  C   UNL A   1      32.907  32.812  27.250  1.00  0.00     0.118 C 
BRANCH  31  32
ATOM     32  N   UNL A   1      32.593  34.184  27.644  1.00  0.00    -0.352 N 
ATOM     33  C   UNL A   1      33.098  34.971  28.651  1.00  0.00     0.251 C 
ATOM     34  H   UNL A   1      31.902  34.619  27.093  1.00  0.00     0.163 HD
ATOM     35  O   UNL A   1      32.552  36.037  28.927  1.00  0.00    -0.269 OA
BRANCH  33  36
ATOM     36  C   UNL A   1      34.279  34.532  29.424  1.00  0.00     0.039 A 
ATOM     37  C   UNL A   1      34.100  33.898  30.658  1.00  0.00     0.014 A 
ATOM     38  C   UNL A   1      35.565  34.749  28.934  1.00  0.00     0.014 A 
ATOM     39  C   UNL A   1      35.208  33.393  31.346  1.00  0.00     0.010 A 
ATOM     40  C   UNL A   1      36.650  34.151  29.558  1.00  0.00     0.010 A 
ATOM     41  C   UNL A   1      36.486  33.468  30.773  1.00  0.00    -0.014 A 
BRANCH  41  42
ATOM     42  C   UNL A   1      37.688  32.875  31.413  1.00  0.00     0.031 A 
ATOM     43  C   UNL A   1      38.372  31.709  30.753  1.00  0.00     0.074 A 
ATOM     44  C   UNL A   1      38.086  33.293  32.630  1.00  0.00     0.049 A 
ATOM     45  N   UNL A   1      39.281  30.897  31.229  1.00  0.00    -0.248 NA
ATOM     46  C   UNL A   1      37.940  31.387  29.382  1.00  0.00     0.031 C 
ATOM     47  C   UNL A   1      37.484  34.389  33.391  1.00  0.00     0.029 A 
ATOM     48  N   UNL A   1      39.075  32.820  33.459  1.00  0.00    -0.354 N 
ATOM     49  C   UNL A   1      39.507  29.960  30.229  1.00  0.00     0.074 A 
ATOM     50  C   UNL A   1      38.597  30.262  29.148  1.00  0.00     0.031 C 
ATOM     51  C   UNL A   1      38.115  34.506  34.571  1.00  0.00     0.029 A 
ATOM     52  C   UNL A   1      39.129  33.460  34.674  1.00  0.00     0.049 A 
ATOM     53  H   UNL A   1      39.687  32.091  33.206  1.00  0.00     0.167 HD
ATOM     54  C   UNL A   1      40.412  28.954  30.206  1.00  0.00     0.037 A 
ATOM     55  C   UNL A   1      39.888  33.210  35.758  1.00  0.00     0.037 A 
ATOM     56  C   UNL A   1      41.333  28.675  31.274  1.00  0.00     0.049 A 
ATOM     57  C   UNL A   1      40.876  32.074  35.715  1.00  0.00     0.074 A 
ATOM     58  C   UNL A   1      42.314  27.702  31.337  1.00  0.00     0.029 A 
ATOM     59  N   UNL A   1      41.391  29.382  32.467  1.00  0.00    -0.354 N 
ATOM     60  N   UNL A   1      41.110  31.217  34.751  1.00  0.00    -0.248 NA
ATOM     61  C   UNL A   1      41.707  31.869  36.910  1.00  0.00     0.031 C 
ATOM     62  C   UNL A   1      42.938  27.793  32.585  1.00  0.00     0.029 A 
ATOM     63  C   UNL A   1      42.384  28.859  33.276  1.00  0.00     0.049 A 
ATOM     64  H   UNL A   1      40.811  30.142  32.702  1.00  0.00     0.167 HD
ATOM     65  C   UNL A   1      42.137  30.401  35.204  1.00  0.00     0.074 A 
ATOM     66  C   UNL A   1      42.486  30.866  36.530  1.00  0.00     0.031 C 
ATOM     67  C   UNL A   1      42.738  29.359  34.580  1.00  0.00     0.037 A 
BRANCH  54  68
ATOM     68  C   UNL A   1      40.459  28.089  28.979  1.00  0.00     0.064 A 
ATOM     69  C   UNL A   1      39.710  26.905  28.888  1.00  0.00     0.173 A 
ATOM     70  C   UNL A   1      41.231  28.461  27.869  1.00  0.00     0.173 A 
ATOM     71  F   UNL A   1      38.964  26.496  29.926  1.00  0.00    -0.203 F 
ATOM     72  C   UNL A   1      39.759  26.112  27.745  1.00  0.00     0.198 A 
ATOM     73  C   UNL A   1      41.250  27.684  26.715  1.00  0.00     0.198 A 
ATOM     74  F   UNL A   1      41.962  29.586  27.899  1.00  0.00    -0.203 F 
ATOM     75  F   UNL A   1      39.077  24.959  27.704  1.00  0.00    -0.200 F 
ATOM     76  C   UNL A   1      40.520  26.505  26.656  1.00  0.00     0.200 A 
ATOM     77  F   UNL A   1      41.975  28.073  25.657  1.00  0.00    -0.200 F 
ATOM     78  F   UNL A   1      40.558  25.746  25.553  1.00  0.00    -0.200 F 
ENDBRANCH  54  68
BRANCH  55  79
ATOM     79  C   UNL A   1      39.746  34.049  36.980  1.00  0.00     0.064 A 
ATOM     80  C   UNL A   1      38.929  33.641  38.044  1.00  0.00     0.173 A 
ATOM     81  C   UNL A   1      40.402  35.283  37.100  1.00  0.00     0.173 A 
ATOM     82  F   UNL A   1      38.264  32.479  37.970  1.00  0.00    -0.203 F 
ATOM     83  C   UNL A   1      38.750  34.449  39.166  1.00  0.00     0.198 A 
ATOM     84  C   UNL A   1      40.249  36.074  38.237  1.00  0.00     0.198 A 
ATOM     85  F   UNL A   1      41.202  35.719  36.115  1.00  0.00    -0.203 F 
ATOM     86  F   UNL A   1      37.917  34.059  40.141  1.00  0.00    -0.200 F 
ATOM     87  C   UNL A   1      39.413  35.661  39.264  1.00  0.00     0.200 A 
ATOM     88  F   UNL A   1      40.905  37.238  38.335  1.00  0.00    -0.200 F 
ATOM     89  F   UNL A   1      39.240  36.437  40.342  1.00  0.00    -0.200 F 
ENDBRANCH  55  79
BRANCH  67  90
ATOM     90  C   UNL A   1      43.878  28.686  35.287  1.00  0.00     0.064 A 
ATOM     91  C   UNL A   1      45.206  29.096  35.106  1.00  0.00     0.173 A 
ATOM     92  C   UNL A   1      43.624  27.667  36.218  1.00  0.00     0.173 A 
ATOM     93  F   UNL A   1      45.501  30.057  34.217  1.00  0.00    -0.203 F 
ATOM     94  C   UNL A   1      46.240  28.503  35.823  1.00  0.00     0.198 A 
ATOM     95  C   UNL A   1      44.657  27.096  36.955  1.00  0.00     0.198 A 
ATOM     96  F   UNL A   1      42.369  27.244  36.432  1.00  0.00    -0.203 F 
ATOM     97  F   UNL A   1      47.507  28.886  35.611  1.00  0.00    -0.200 F 
ATOM     98  C   UNL A   1      45.964  27.512  36.754  1.00  0.00     0.200 A 
ATOM     99  F   UNL A   1      44.385  26.151  37.866  1.00  0.00    -0.200 F 
ATOM    100  F   UNL A   1      46.960  26.955  37.458  1.00  0.00    -0.200 F 
ENDBRANCH  67  90
ENDBRANCH  41  42
ENDBRANCH  33  36
ENDBRANCH  31  32
ENDBRANCH   1  31
TORSDOF 14
ENDMDL
