MODEL 1
REMARK VINA RESULT:     -12.8      0.000      0.000
REMARK SMILES O=C(NCCCNC(=O)[C@H]1CCC(=O)N(C[C@@H]2COc3ccccc32)C1)c1ccc(-c2c3nc(c(-c4c(F)c(F)c(F)c(F)c4F)c4ccc([nH]4)c(-c4c(F)c(F)c(F)c(F)c4F)c4nc(c(-c5c(F)c(F)c(F)c(F)c5F)c5ccc2[nH]5)C=C4)C=C3)cc1
REMARK SMILES IDX 5 1 4 2 3 3 1 4 2 5 27 7 28 8 89 9 29 10 88 11 30 12 31 13
REMARK SMILES IDX 32 14 82 15 33 16 87 17 81 18 83 19 34 20 86 21 80 22 79 23
REMARK SMILES IDX 35 25 67 26 47 27 66 28 48 29 51 30 65 31 84 32 49 33 50 34
REMARK SMILES IDX 64 36 85 37 52 38 36 39 37 40 45 41 38 42 39 43 43 44 46 45
REMARK SMILES IDX 40 46 41 47 44 48 42 49 68 50 69 51 77 52 70 53 71 54 75 55
REMARK SMILES IDX 78 56 72 57 73 58 76 59 74 60 53 61 54 62 62 63 55 64 56 65
REMARK SMILES IDX 60 66 63 67 57 68 58 69 61 70 59 71 6 72 7 73 8 74 9 76
REMARK SMILES IDX 10 77 11 78 26 79 12 80 15 81 13 82 14 83 16 84 17 85 18 86
REMARK SMILES IDX 25 87 19 88 20 89 24 90 21 91 23 92 22 93
REMARK H PARENT 3 6 83 24 51 35 7 75
REMARK Flexibility Score: inf
ROOT
ATOM      1  C   UNL A   1      31.258  32.000  26.425  1.00  0.00     0.042 C 
ENDROOT
BRANCH   1   2
ATOM      2  C   UNL A   1      32.572  32.582  26.918  1.00  0.00     0.118 C 
BRANCH   2   3
ATOM      3  N   UNL A   1      32.412  33.930  27.448  1.00  0.00    -0.352 N 
ATOM      4  O   UNL A   1      32.618  35.596  28.950  1.00  0.00    -0.269 OA
ATOM      5  C   UNL A   1      33.043  34.538  28.503  1.00  0.00     0.251 C 
ATOM      6  H   UNL A   1      31.751  34.488  26.977  1.00  0.00     0.163 HD
BRANCH   5   7
ATOM      7  C   UNL A   1      34.233  33.904  29.105  1.00  0.00     0.039 A 
ATOM      8  C   UNL A   1      34.092  32.810  29.961  1.00  0.00     0.014 A 
ATOM      9  C   UNL A   1      35.503  34.400  28.799  1.00  0.00     0.014 A 
ATOM     10  C   UNL A   1      35.199  32.315  30.634  1.00  0.00     0.010 A 
ATOM     11  C   UNL A   1      36.629  33.827  29.391  1.00  0.00     0.010 A 
ATOM     12  C   UNL A   1      36.482  32.799  30.336  1.00  0.00    -0.014 A 
BRANCH  12  13
ATOM     13  C   UNL A   1      37.658  32.159  30.975  1.00  0.00     0.031 A 
ATOM     14  C   UNL A   1      38.087  32.531  32.364  1.00  0.00     0.074 A 
ATOM     15  C   UNL A   1      38.324  31.215  30.285  1.00  0.00     0.049 A 
ATOM     16  N   UNL A   1      39.083  32.061  33.072  1.00  0.00    -0.248 NA
ATOM     17  C   UNL A   1      37.305  33.573  33.044  1.00  0.00     0.031 C 
ATOM     18  C   UNL A   1      37.997  30.780  28.925  1.00  0.00     0.029 A 
ATOM     19  N   UNL A   1      39.399  30.439  30.631  1.00  0.00    -0.354 N 
ATOM     20  C   UNL A   1      39.059  32.762  34.271  1.00  0.00     0.074 A 
ATOM     21  C   UNL A   1      37.972  33.713  34.181  1.00  0.00     0.031 C 
ATOM     22  C   UNL A   1      38.817  29.780  28.573  1.00  0.00     0.029 A 
ATOM     23  C   UNL A   1      39.774  29.557  29.649  1.00  0.00     0.049 A 
ATOM     24  H   UNL A   1      39.858  30.508  31.501  1.00  0.00     0.167 HD
ATOM     25  C   UNL A   1      39.871  32.615  35.347  1.00  0.00     0.037 A 
ATOM     26  C   UNL A   1      40.790  28.677  29.610  1.00  0.00     0.037 A 
ATOM     27  C   UNL A   1      40.951  31.662  35.421  1.00  0.00     0.049 A 
ATOM     28  C   UNL A   1      41.701  28.570  30.797  1.00  0.00     0.074 A 
ATOM     29  C   UNL A   1      41.808  31.408  36.477  1.00  0.00     0.029 A 
ATOM     30  N   UNL A   1      41.329  30.814  34.388  1.00  0.00    -0.354 N 
ATOM     31  N   UNL A   1      41.648  29.207  31.941  1.00  0.00    -0.248 NA
ATOM     32  C   UNL A   1      42.816  27.621  30.686  1.00  0.00     0.031 C 
ATOM     33  C   UNL A   1      42.745  30.455  36.062  1.00  0.00     0.029 A 
ATOM     34  C   UNL A   1      42.429  30.060  34.772  1.00  0.00     0.049 A 
ATOM     35  H   UNL A   1      40.883  30.755  33.514  1.00  0.00     0.167 HD
ATOM     36  C   UNL A   1      42.703  28.721  32.698  1.00  0.00     0.074 A 
ATOM     37  C   UNL A   1      43.370  27.722  31.885  1.00  0.00     0.031 C 
ATOM     38  C   UNL A   1      43.084  29.069  33.953  1.00  0.00     0.037 A 
BRANCH  25  39
ATOM     39  C   UNL A   1      39.643  33.534  36.517  1.00  0.00     0.064 A 
ATOM     40  C   UNL A   1      38.834  33.168  37.604  1.00  0.00     0.173 A 
ATOM     41  C   UNL A   1      40.258  34.796  36.557  1.00  0.00     0.173 A 
ATOM     42  F   UNL A   1      38.216  31.978  37.616  1.00  0.00    -0.203 F 
ATOM     43  C   UNL A   1      38.616  34.046  38.664  1.00  0.00     0.198 A 
ATOM     44  C   UNL A   1      40.065  35.656  37.635  1.00  0.00     0.198 A 
ATOM     45  F   UNL A   1      41.049  35.195  35.550  1.00  0.00    -0.203 F 
ATOM     46  F   UNL A   1      37.788  33.699  39.659  1.00  0.00    -0.200 F 
ATOM     47  C   UNL A   1      39.235  35.286  38.681  1.00  0.00     0.200 A 
ATOM     48  F   UNL A   1      40.678  36.848  37.656  1.00  0.00    -0.200 F 
ATOM     49  F   UNL A   1      39.023  36.130  39.701  1.00  0.00    -0.200 F 
ENDBRANCH  25  39
BRANCH  26  50
ATOM     50  C   UNL A   1      40.982  27.832  28.403  1.00  0.00     0.064 A 
ATOM     51  C   UNL A   1      40.316  26.607  28.270  1.00  0.00     0.173 A 
ATOM     52  C   UNL A   1      41.807  28.246  27.347  1.00  0.00     0.173 A 
ATOM     53  F   UNL A   1      39.528  26.162  29.260  1.00  0.00    -0.203 F 
ATOM     54  C   UNL A   1      40.478  25.821  27.132  1.00  0.00     0.198 A 
ATOM     55  C   UNL A   1      41.943  27.475  26.195  1.00  0.00     0.198 A 
ATOM     56  F   UNL A   1      42.459  29.416  27.422  1.00  0.00    -0.203 F 
ATOM     57  F   UNL A   1      39.858  24.636  27.044  1.00  0.00    -0.200 F 
ATOM     58  C   UNL A   1      41.284  26.261  26.091  1.00  0.00     0.200 A 
ATOM     59  F   UNL A   1      42.705  27.915  25.185  1.00  0.00    -0.200 F 
ATOM     60  F   UNL A   1      41.428  25.511  24.989  1.00  0.00    -0.200 F 
ENDBRANCH  26  50
BRANCH  38  61
ATOM     61  C   UNL A   1      44.254  28.332  34.540  1.00  0.00     0.064 A 
ATOM     62  C   UNL A   1      45.562  28.832  34.460  1.00  0.00     0.173 A 
ATOM     63  C   UNL A   1      44.056  27.117  35.215  1.00  0.00     0.173 A 
ATOM     64  F   UNL A   1      45.807  29.980  33.810  1.00  0.00    -0.203 F 
ATOM     65  C   UNL A   1      46.631  28.128  35.006  1.00  0.00     0.198 A 
ATOM     66  C   UNL A   1      45.123  26.435  35.792  1.00  0.00     0.198 A 
ATOM     67  F   UNL A   1      42.825  26.596  35.324  1.00  0.00    -0.203 F 
ATOM     68  F   UNL A   1      47.880  28.596  34.867  1.00  0.00    -0.200 F 
ATOM     69  C   UNL A   1      46.411  26.935  35.678  1.00  0.00     0.200 A 
ATOM     70  F   UNL A   1      44.905  25.290  36.454  1.00  0.00    -0.200 F 
ATOM     71  F   UNL A   1      47.441  26.263  36.210  1.00  0.00    -0.200 F 
ENDBRANCH  38  61
ENDBRANCH  12  13
ENDBRANCH   5   7
ENDBRANCH   2   3
ENDBRANCH   1   2
BRANCH   1  72
ATOM     72  C   UNL A   1      31.433  30.631  25.790  1.00  0.00     0.117 C 
BRANCH  72  73
ATOM     73  N   UNL A   1      32.664  30.000  26.247  1.00  0.00    -0.356 N 
ATOM     74  C   UNL A   1      33.388  28.965  25.742  1.00  0.00     0.224 C 
ATOM     75  H   UNL A   1      33.039  30.392  27.068  1.00  0.00     0.163 HD
ATOM     76  O   UNL A   1      34.372  28.589  26.384  1.00  0.00    -0.275 OA
BRANCH  74  77
ATOM     77  C   UNL A   1      33.052  28.330  24.404  1.00  0.00     0.098 C 
ATOM     78  C   UNL A   1      34.076  28.600  23.317  1.00  0.00     0.025 C 
ATOM     79  C   UNL A   1      32.778  26.852  24.625  1.00  0.00     0.133 C 
ATOM     80  C   UNL A   1      33.720  27.843  22.055  1.00  0.00     0.101 C 
ATOM     81  N   UNL A   1      32.809  25.996  23.451  1.00  0.00    -0.341 N 
ATOM     82  C   UNL A   1      33.392  26.375  22.250  1.00  0.00     0.222 C 
ATOM     83  O   UNL A   1      33.548  25.592  21.312  1.00  0.00    -0.275 OA
BRANCH  81  84
ATOM     84  C   UNL A   1      32.281  24.628  23.598  1.00  0.00     0.131 C 
BRANCH  84  85
ATOM     85  C   UNL A   1      33.014  23.665  24.548  1.00  0.00     0.080 C 
ATOM     86  C   UNL A   1      32.902  23.980  26.050  1.00  0.00     0.239 C 
ATOM     87  C   UNL A   1      34.486  23.511  24.430  1.00  0.00     0.002 A 
ATOM     88  O   UNL A   1      34.140  23.631  26.714  1.00  0.00    -0.493 OA
ATOM     89  C   UNL A   1      35.042  23.465  25.699  1.00  0.00     0.122 A 
ATOM     90  C   UNL A   1      35.271  23.304  23.309  1.00  0.00     0.008 A 
ATOM     91  C   UNL A   1      36.387  23.222  25.901  1.00  0.00     0.047 A 
ATOM     92  C   UNL A   1      36.635  23.061  23.489  1.00  0.00     0.001 A 
ATOM     93  C   UNL A   1      37.191  23.019  24.778  1.00  0.00     0.004 A 
ENDBRANCH  84  85
ENDBRANCH  81  84
ENDBRANCH  74  77
ENDBRANCH  72  73
ENDBRANCH   1  72
TORSDOF 12
ENDMDL
MODEL 2
REMARK VINA RESULT:     -12.8      5.088     10.499
REMARK SMILES O=C(NCCCNC(=O)[C@H]1CCC(=O)N(C[C@@H]2COc3ccccc32)C1)c1ccc(-c2c3nc(c(-c4c(F)c(F)c(F)c(F)c4F)c4ccc([nH]4)c(-c4c(F)c(F)c(F)c(F)c4F)c4nc(c(-c5c(F)c(F)c(F)c(F)c5F)c5ccc2[nH]5)C=C4)C=C3)cc1
REMARK SMILES IDX 5 1 4 2 3 3 1 4 2 5 27 7 28 8 89 9 29 10 88 11 30 12 31 13
REMARK SMILES IDX 32 14 82 15 33 16 87 17 81 18 83 19 34 20 86 21 80 22 79 23
REMARK SMILES IDX 35 25 67 26 47 27 66 28 48 29 51 30 65 31 84 32 49 33 50 34
REMARK SMILES IDX 64 36 85 37 52 38 36 39 37 40 45 41 38 42 39 43 43 44 46 45
REMARK SMILES IDX 40 46 41 47 44 48 42 49 68 50 69 51 77 52 70 53 71 54 75 55
REMARK SMILES IDX 78 56 72 57 73 58 76 59 74 60 53 61 54 62 62 63 55 64 56 65
REMARK SMILES IDX 60 66 63 67 57 68 58 69 61 70 59 71 6 72 7 73 8 74 9 76
REMARK SMILES IDX 10 77 11 78 26 79 12 80 15 81 13 82 14 83 16 84 17 85 18 86
REMARK SMILES IDX 25 87 19 88 20 89 24 90 21 91 23 92 22 93
REMARK H PARENT 3 6 83 24 51 35 7 75
REMARK Flexibility Score: inf
ROOT
ATOM      1  C   UNL A   1      37.985  19.554  24.925  1.00  0.00     0.042 C 
ENDROOT
BRANCH   1   2
ATOM      2  C   UNL A   1      39.097  20.089  25.813  1.00  0.00     0.118 C 
BRANCH   2   3
ATOM      3  N   UNL A   1      40.218  19.163  25.907  1.00  0.00    -0.352 N 
ATOM      4  O   UNL A   1      42.380  18.529  25.876  1.00  0.00    -0.269 OA
ATOM      5  C   UNL A   1      41.559  19.421  26.048  1.00  0.00     0.251 C 
ATOM      6  H   UNL A   1      39.978  18.210  25.861  1.00  0.00     0.163 HD
BRANCH   5   7
ATOM      7  C   UNL A   1      42.007  20.784  26.397  1.00  0.00     0.039 A 
ATOM      8  C   UNL A   1      42.165  21.154  27.734  1.00  0.00     0.014 A 
ATOM      9  C   UNL A   1      42.286  21.696  25.376  1.00  0.00     0.014 A 
ATOM     10  C   UNL A   1      42.444  22.474  28.055  1.00  0.00     0.010 A 
ATOM     11  C   UNL A   1      42.677  22.996  25.700  1.00  0.00     0.010 A 
ATOM     12  C   UNL A   1      42.730  23.402  27.042  1.00  0.00    -0.014 A 
BRANCH  12  13
ATOM     13  C   UNL A   1      43.154  24.772  27.422  1.00  0.00     0.031 A 
ATOM     14  C   UNL A   1      44.598  25.178  27.383  1.00  0.00     0.074 A 
ATOM     15  C   UNL A   1      42.206  25.656  27.786  1.00  0.00     0.049 A 
ATOM     16  N   UNL A   1      45.136  26.336  27.671  1.00  0.00    -0.248 NA
ATOM     17  C   UNL A   1      45.566  24.150  26.977  1.00  0.00     0.031 C 
ATOM     18  C   UNL A   1      40.772  25.366  27.865  1.00  0.00     0.029 A 
ATOM     19  N   UNL A   1      42.297  26.977  28.138  1.00  0.00    -0.354 N 
ATOM     20  C   UNL A   1      46.504  26.171  27.501  1.00  0.00     0.074 A 
ATOM     21  C   UNL A   1      46.717  24.792  27.118  1.00  0.00     0.031 C 
ATOM     22  C   UNL A   1      40.114  26.487  28.190  1.00  0.00     0.029 A 
ATOM     23  C   UNL A   1      41.082  27.552  28.415  1.00  0.00     0.049 A 
ATOM     24  H   UNL A   1      43.151  27.466  28.188  1.00  0.00     0.167 HD
ATOM     25  C   UNL A   1      47.487  27.093  27.648  1.00  0.00     0.037 A 
ATOM     26  C   UNL A   1      40.781  28.796  28.827  1.00  0.00     0.037 A 
ATOM     27  C   UNL A   1      47.259  28.464  28.030  1.00  0.00     0.049 A 
ATOM     28  C   UNL A   1      41.894  29.782  29.026  1.00  0.00     0.074 A 
ATOM     29  C   UNL A   1      48.180  29.487  28.171  1.00  0.00     0.029 A 
ATOM     30  N   UNL A   1      46.017  29.001  28.347  1.00  0.00    -0.354 N 
ATOM     31  N   UNL A   1      43.180  29.629  28.826  1.00  0.00    -0.248 NA
ATOM     32  C   UNL A   1      41.513  31.114  29.513  1.00  0.00     0.031 C 
ATOM     33  C   UNL A   1      47.507  30.623  28.636  1.00  0.00     0.029 A 
ATOM     34  C   UNL A   1      46.155  30.332  28.715  1.00  0.00     0.049 A 
ATOM     35  H   UNL A   1      45.165  28.511  28.314  1.00  0.00     0.167 HD
ATOM     36  C   UNL A   1      43.762  30.851  29.134  1.00  0.00     0.074 A 
ATOM     37  C   UNL A   1      42.682  31.737  29.521  1.00  0.00     0.031 C 
ATOM     38  C   UNL A   1      45.071  31.204  29.098  1.00  0.00     0.037 A 
BRANCH  25  39
ATOM     39  C   UNL A   1      48.904  26.636  27.429  1.00  0.00     0.064 A 
ATOM     40  C   UNL A   1      49.468  26.546  26.147  1.00  0.00     0.173 A 
ATOM     41  C   UNL A   1      49.716  26.297  28.524  1.00  0.00     0.173 A 
ATOM     42  F   UNL A   1      48.737  26.849  25.065  1.00  0.00    -0.203 F 
ATOM     43  C   UNL A   1      50.774  26.094  25.967  1.00  0.00     0.198 A 
ATOM     44  C   UNL A   1      51.032  25.880  28.341  1.00  0.00     0.198 A 
ATOM     45  F   UNL A   1      49.234  26.373  29.773  1.00  0.00    -0.203 F 
ATOM     46  F   UNL A   1      51.267  25.954  24.729  1.00  0.00    -0.200 F 
ATOM     47  C   UNL A   1      51.556  25.766  27.063  1.00  0.00     0.200 A 
ATOM     48  F   UNL A   1      51.791  25.579  29.405  1.00  0.00    -0.200 F 
ATOM     49  F   UNL A   1      52.812  25.330  26.888  1.00  0.00    -0.200 F 
ENDBRANCH  25  39
BRANCH  26  50
ATOM     50  C   UNL A   1      39.362  29.166  29.066  1.00  0.00     0.064 A 
ATOM     51  C   UNL A   1      38.810  29.105  30.352  1.00  0.00     0.173 A 
ATOM     52  C   UNL A   1      38.540  29.617  28.023  1.00  0.00     0.173 A 
ATOM     53  F   UNL A   1      39.553  28.666  31.379  1.00  0.00    -0.203 F 
ATOM     54  C   UNL A   1      37.487  29.470  30.584  1.00  0.00     0.198 A 
ATOM     55  C   UNL A   1      37.226  30.013  28.262  1.00  0.00     0.198 A 
ATOM     56  F   UNL A   1      39.025  29.703  26.775  1.00  0.00    -0.203 F 
ATOM     57  F   UNL A   1      36.972  29.369  31.817  1.00  0.00    -0.200 F 
ATOM     58  C   UNL A   1      36.699  29.933  29.540  1.00  0.00     0.200 A 
ATOM     59  F   UNL A   1      36.477  30.480  27.253  1.00  0.00    -0.200 F 
ATOM     60  F   UNL A   1      35.429  30.298  29.767  1.00  0.00    -0.200 F 
ENDBRANCH  26  50
BRANCH  38  61
ATOM     61  C   UNL A   1      45.403  32.626  29.449  1.00  0.00     0.064 A 
ATOM     62  C   UNL A   1      45.749  33.008  30.754  1.00  0.00     0.173 A 
ATOM     63  C   UNL A   1      45.398  33.618  28.455  1.00  0.00     0.173 A 
ATOM     64  F   UNL A   1      45.751  32.103  31.744  1.00  0.00    -0.203 F 
ATOM     65  C   UNL A   1      46.047  34.334  31.056  1.00  0.00     0.198 A 
ATOM     66  C   UNL A   1      45.732  34.935  28.754  1.00  0.00     0.198 A 
ATOM     67  F   UNL A   1      45.079  33.306  27.190  1.00  0.00    -0.203 F 
ATOM     68  F   UNL A   1      46.317  34.686  32.321  1.00  0.00    -0.200 F 
ATOM     69  C   UNL A   1      46.046  35.294  30.056  1.00  0.00     0.200 A 
ATOM     70  F   UNL A   1      45.746  35.858  27.782  1.00  0.00    -0.200 F 
ATOM     71  F   UNL A   1      46.340  36.569  30.348  1.00  0.00    -0.200 F 
ENDBRANCH  38  61
ENDBRANCH  12  13
ENDBRANCH   5   7
ENDBRANCH   2   3
ENDBRANCH   1   2
BRANCH   1  72
ATOM     72  C   UNL A   1      36.726  20.401  25.001  1.00  0.00     0.117 C 
BRANCH  72  73
ATOM     73  N   UNL A   1      37.041  21.766  25.406  1.00  0.00    -0.356 N 
ATOM     74  C   UNL A   1      36.249  22.785  25.831  1.00  0.00     0.224 C 
ATOM     75  H   UNL A   1      37.999  21.989  25.365  1.00  0.00     0.163 HD
ATOM     76  O   UNL A   1      36.785  23.874  26.046  1.00  0.00    -0.275 OA
BRANCH  74  77
ATOM     77  C   UNL A   1      34.767  22.589  26.100  1.00  0.00     0.098 C 
ATOM     78  C   UNL A   1      34.398  22.618  27.573  1.00  0.00     0.025 C 
ATOM     79  C   UNL A   1      33.985  23.586  25.261  1.00  0.00     0.133 C 
ATOM     80  C   UNL A   1      32.896  22.524  27.744  1.00  0.00     0.101 C 
ATOM     81  N   UNL A   1      32.603  23.824  25.642  1.00  0.00    -0.341 N 
ATOM     82  C   UNL A   1      32.085  23.473  26.881  1.00  0.00     0.222 C 
ATOM     83  O   UNL A   1      30.961  23.812  27.251  1.00  0.00    -0.275 OA
BRANCH  81  84
ATOM     84  C   UNL A   1      31.758  24.565  24.689  1.00  0.00     0.131 C 
BRANCH  84  85
ATOM     85  C   UNL A   1      32.103  26.037  24.404  1.00  0.00     0.080 C 
ATOM     86  C   UNL A   1      33.383  26.285  23.586  1.00  0.00     0.239 C 
ATOM     87  C   UNL A   1      32.347  26.957  25.542  1.00  0.00     0.002 A 
ATOM     88  O   UNL A   1      34.028  27.496  24.047  1.00  0.00    -0.493 OA
ATOM     89  C   UNL A   1      33.428  27.772  25.246  1.00  0.00     0.122 A 
ATOM     90  C   UNL A   1      31.610  27.157  26.697  1.00  0.00     0.008 A 
ATOM     91  C   UNL A   1      33.821  28.801  26.081  1.00  0.00     0.047 A 
ATOM     92  C   UNL A   1      31.992  28.189  27.559  1.00  0.00     0.001 A 
ATOM     93  C   UNL A   1      33.091  29.008  27.252  1.00  0.00     0.004 A 
ENDBRANCH  84  85
ENDBRANCH  81  84
ENDBRANCH  74  77
ENDBRANCH  72  73
ENDBRANCH   1  72
TORSDOF 12
ENDMDL
MODEL 3
REMARK VINA RESULT:     -12.8      5.021     10.426
REMARK SMILES O=C(NCCCNC(=O)[C@H]1CCC(=O)N(C[C@@H]2COc3ccccc32)C1)c1ccc(-c2c3nc(c(-c4c(F)c(F)c(F)c(F)c4F)c4ccc([nH]4)c(-c4c(F)c(F)c(F)c(F)c4F)c4nc(c(-c5c(F)c(F)c(F)c(F)c5F)c5ccc2[nH]5)C=C4)C=C3)cc1
REMARK SMILES IDX 5 1 4 2 3 3 1 4 2 5 27 7 28 8 89 9 29 10 88 11 30 12 31 13
REMARK SMILES IDX 32 14 82 15 33 16 87 17 81 18 83 19 34 20 86 21 80 22 79 23
REMARK SMILES IDX 35 25 67 26 47 27 66 28 48 29 51 30 65 31 84 32 49 33 50 34
REMARK SMILES IDX 64 36 85 37 52 38 36 39 37 40 45 41 38 42 39 43 43 44 46 45
REMARK SMILES IDX 40 46 41 47 44 48 42 49 68 50 69 51 77 52 70 53 71 54 75 55
REMARK SMILES IDX 78 56 72 57 73 58 76 59 74 60 53 61 54 62 62 63 55 64 56 65
REMARK SMILES IDX 60 66 63 67 57 68 58 69 61 70 59 71 6 72 7 73 8 74 9 76
REMARK SMILES IDX 10 77 11 78 26 79 12 80 15 81 13 82 14 83 16 84 17 85 18 86
REMARK SMILES IDX 25 87 19 88 20 89 24 90 21 91 23 92 22 93
REMARK H PARENT 3 6 83 24 51 35 7 75
REMARK Flexibility Score: inf
ROOT
ATOM      1  C   UNL A   1      38.004  19.592  24.924  1.00  0.00     0.042 C 
ENDROOT
BRANCH   1   2
ATOM      2  C   UNL A   1      39.116  20.130  25.810  1.00  0.00     0.118 C 
BRANCH   2   3
ATOM      3  N   UNL A   1      40.230  19.197  25.919  1.00  0.00    -0.352 N 
ATOM      4  O   UNL A   1      42.388  18.550  25.928  1.00  0.00    -0.269 OA
ATOM      5  C   UNL A   1      41.569  19.446  26.090  1.00  0.00     0.251 C 
ATOM      6  H   UNL A   1      39.985  18.245  25.861  1.00  0.00     0.163 HD
BRANCH   5   7
ATOM      7  C   UNL A   1      42.017  20.803  26.459  1.00  0.00     0.039 A 
ATOM      8  C   UNL A   1      42.173  21.155  27.801  1.00  0.00     0.014 A 
ATOM      9  C   UNL A   1      42.299  21.729  25.451  1.00  0.00     0.014 A 
ATOM     10  C   UNL A   1      42.452  22.469  28.141  1.00  0.00     0.010 A 
ATOM     11  C   UNL A   1      42.691  23.024  25.794  1.00  0.00     0.010 A 
ATOM     12  C   UNL A   1      42.741  23.412  27.142  1.00  0.00    -0.014 A 
BRANCH  12  13
ATOM     13  C   UNL A   1      43.165  24.775  27.542  1.00  0.00     0.031 A 
ATOM     14  C   UNL A   1      44.612  25.173  27.536  1.00  0.00     0.074 A 
ATOM     15  C   UNL A   1      42.216  25.662  27.893  1.00  0.00     0.049 A 
ATOM     16  N   UNL A   1      45.151  26.325  27.845  1.00  0.00    -0.248 NA
ATOM     17  C   UNL A   1      45.583  24.142  27.141  1.00  0.00     0.031 C 
ATOM     18  C   UNL A   1      40.779  25.381  27.940  1.00  0.00     0.029 A 
ATOM     19  N   UNL A   1      42.307  26.980  28.258  1.00  0.00    -0.354 N 
ATOM     20  C   UNL A   1      46.522  26.153  27.702  1.00  0.00     0.074 A 
ATOM     21  C   UNL A   1      46.734  24.776  27.312  1.00  0.00     0.031 C 
ATOM     22  C   UNL A   1      40.121  26.503  28.260  1.00  0.00     0.029 A 
ATOM     23  C   UNL A   1      41.091  27.560  28.515  1.00  0.00     0.049 A 
ATOM     24  H   UNL A   1      43.163  27.463  28.329  1.00  0.00     0.167 HD
ATOM     25  C   UNL A   1      47.507  27.067  27.876  1.00  0.00     0.037 A 
ATOM     26  C   UNL A   1      40.788  28.803  28.930  1.00  0.00     0.037 A 
ATOM     27  C   UNL A   1      47.280  28.437  28.265  1.00  0.00     0.049 A 
ATOM     28  C   UNL A   1      41.903  29.780  29.161  1.00  0.00     0.074 A 
ATOM     29  C   UNL A   1      48.204  29.453  28.434  1.00  0.00     0.029 A 
ATOM     30  N   UNL A   1      46.035  28.979  28.560  1.00  0.00    -0.354 N 
ATOM     31  N   UNL A   1      43.192  29.621  28.985  1.00  0.00    -0.248 NA
ATOM     32  C   UNL A   1      41.521  31.110  29.650  1.00  0.00     0.031 C 
ATOM     33  C   UNL A   1      47.528  30.589  28.893  1.00  0.00     0.029 A 
ATOM     34  C   UNL A   1      46.173  30.306  28.942  1.00  0.00     0.049 A 
ATOM     35  H   UNL A   1      45.180  28.494  28.505  1.00  0.00     0.167 HD
ATOM     36  C   UNL A   1      43.775  30.836  29.316  1.00  0.00     0.074 A 
ATOM     37  C   UNL A   1      42.693  31.726  29.688  1.00  0.00     0.031 C 
ATOM     38  C   UNL A   1      45.087  31.181  29.310  1.00  0.00     0.037 A 
BRANCH  25  39
ATOM     39  C   UNL A   1      48.926  26.604  27.683  1.00  0.00     0.064 A 
ATOM     40  C   UNL A   1      49.495  26.459  26.409  1.00  0.00     0.173 A 
ATOM     41  C   UNL A   1      49.734  26.313  28.795  1.00  0.00     0.173 A 
ATOM     42  F   UNL A   1      48.768  26.715  25.311  1.00  0.00    -0.203 F 
ATOM     43  C   UNL A   1      50.802  26.002  26.253  1.00  0.00     0.198 A 
ATOM     44  C   UNL A   1      51.051  25.890  28.636  1.00  0.00     0.198 A 
ATOM     45  F   UNL A   1      49.246  26.441  30.038  1.00  0.00    -0.203 F 
ATOM     46  F   UNL A   1      51.301  25.809  25.025  1.00  0.00    -0.200 F 
ATOM     47  C   UNL A   1      51.580  25.722  27.366  1.00  0.00     0.200 A 
ATOM     48  F   UNL A   1      51.805  25.636  29.714  1.00  0.00    -0.200 F 
ATOM     49  F   UNL A   1      52.837  25.281  27.215  1.00  0.00    -0.200 F 
ENDBRANCH  25  39
BRANCH  26  50
ATOM     50  C   UNL A   1      39.368  29.180  29.143  1.00  0.00     0.064 A 
ATOM     51  C   UNL A   1      38.558  29.568  28.068  1.00  0.00     0.173 A 
ATOM     52  C   UNL A   1      38.783  29.129  30.417  1.00  0.00     0.173 A 
ATOM     53  F   UNL A   1      39.076  29.646  26.833  1.00  0.00    -0.203 F 
ATOM     54  C   UNL A   1      37.220  29.903  28.261  1.00  0.00     0.198 A 
ATOM     55  C   UNL A   1      37.436  29.432  30.603  1.00  0.00     0.198 A 
ATOM     56  F   UNL A   1      39.513  28.753  31.477  1.00  0.00    -0.203 F 
ATOM     57  F   UNL A   1      36.476  30.305  27.221  1.00  0.00    -0.200 F 
ATOM     58  C   UNL A   1      36.658  29.825  29.527  1.00  0.00     0.200 A 
ATOM     59  F   UNL A   1      36.893  29.335  31.824  1.00  0.00    -0.200 F 
ATOM     60  F   UNL A   1      35.366  30.134  29.708  1.00  0.00    -0.200 F 
ENDBRANCH  26  50
BRANCH  38  61
ATOM     61  C   UNL A   1      45.420  32.599  29.679  1.00  0.00     0.064 A 
ATOM     62  C   UNL A   1      45.445  33.628  28.727  1.00  0.00     0.173 A 
ATOM     63  C   UNL A   1      45.696  32.934  31.015  1.00  0.00     0.173 A 
ATOM     64  F   UNL A   1      45.206  33.358  27.435  1.00  0.00    -0.203 F 
ATOM     65  C   UNL A   1      45.763  34.933  29.092  1.00  0.00     0.198 A 
ATOM     66  C   UNL A   1      45.978  34.247  31.381  1.00  0.00     0.198 A 
ATOM     67  F   UNL A   1      45.683  31.989  31.966  1.00  0.00    -0.203 F 
ATOM     68  F   UNL A   1      45.837  35.890  28.155  1.00  0.00    -0.200 F 
ATOM     69  C   UNL A   1      46.021  35.243  30.418  1.00  0.00     0.200 A 
ATOM     70  F   UNL A   1      46.212  34.546  32.666  1.00  0.00    -0.200 F 
ATOM     71  F   UNL A   1      46.320  36.502  30.769  1.00  0.00    -0.200 F 
ENDBRANCH  38  61
ENDBRANCH  12  13
ENDBRANCH   5   7
ENDBRANCH   2   3
ENDBRANCH   1   2
BRANCH   1  72
ATOM     72  C   UNL A   1      36.728  20.410  25.038  1.00  0.00     0.117 C 
BRANCH  72  73
ATOM     73  N   UNL A   1      37.024  21.785  25.421  1.00  0.00    -0.356 N 
ATOM     74  C   UNL A   1      36.217  22.801  25.827  1.00  0.00     0.224 C 
ATOM     75  H   UNL A   1      37.979  22.020  25.377  1.00  0.00     0.163 HD
ATOM     76  O   UNL A   1      36.738  23.900  26.025  1.00  0.00    -0.275 OA
BRANCH  74  77
ATOM     77  C   UNL A   1      34.737  22.589  26.098  1.00  0.00     0.098 C 
ATOM     78  C   UNL A   1      34.372  22.601  27.572  1.00  0.00     0.025 C 
ATOM     79  C   UNL A   1      33.945  23.585  25.269  1.00  0.00     0.133 C 
ATOM     80  C   UNL A   1      32.871  22.493  27.745  1.00  0.00     0.101 C 
ATOM     81  N   UNL A   1      32.562  23.808  25.655  1.00  0.00    -0.341 N 
ATOM     82  C   UNL A   1      32.050  23.442  26.892  1.00  0.00     0.222 C 
ATOM     83  O   UNL A   1      30.923  23.768  27.267  1.00  0.00    -0.275 OA
BRANCH  81  84
ATOM     84  C   UNL A   1      31.708  24.549  24.710  1.00  0.00     0.131 C 
BRANCH  84  85
ATOM     85  C   UNL A   1      32.053  26.020  24.420  1.00  0.00     0.080 C 
ATOM     86  C   UNL A   1      33.342  26.266  23.615  1.00  0.00     0.239 C 
ATOM     87  C   UNL A   1      32.281  26.949  25.554  1.00  0.00     0.002 A 
ATOM     88  O   UNL A   1      33.978  27.482  24.076  1.00  0.00    -0.493 OA
ATOM     89  C   UNL A   1      33.364  27.764  25.266  1.00  0.00     0.122 A 
ATOM     90  C   UNL A   1      31.531  27.154  26.700  1.00  0.00     0.008 A 
ATOM     91  C   UNL A   1      33.745  28.799  26.099  1.00  0.00     0.047 A 
ATOM     92  C   UNL A   1      31.900  28.192  27.559  1.00  0.00     0.001 A 
ATOM     93  C   UNL A   1      33.001  29.012  27.260  1.00  0.00     0.004 A 
ENDBRANCH  84  85
ENDBRANCH  81  84
ENDBRANCH  74  77
ENDBRANCH  72  73
ENDBRANCH   1  72
TORSDOF 12
ENDMDL
