MODEL 1
REMARK VINA RESULT:     -13.5      0.000      0.000
REMARK SMILES Cc1[nH]c2ccccc2c1/N=N\c1ccccc1C(=O)NCCCNC(=O)c1ccc(-c2c3nc(c(-c4c(F)c(F)c(F)c(F)c4F)c4ccc([nH]4)c(-c4c(F)c(F)c(F)c(F)c4F)c4nc(c(-c5c(F)c(F)c(F)c(F)c5F)c5ccc2[nH]5)C=C4)C=C3)cc1
REMARK SMILES IDX 23 1 22 2 21 3 19 4 20 5 18 7 13 8 14 9 15 10 17 11 16 12
REMARK SMILES IDX 12 13 11 14 10 15 1 16 2 17 3 18 4 19 9 21 5 22 8 23 6 24
REMARK SMILES IDX 7 25 24 26 25 27 26 28 27 30 28 31 29 32 90 33 30 34 89 35
REMARK SMILES IDX 31 36 32 37 33 38 83 39 34 40 88 41 82 42 84 43 35 44 87 45
REMARK SMILES IDX 81 46 80 47 36 49 68 50 48 51 67 52 49 53 52 54 66 55 85 56
REMARK SMILES IDX 50 57 51 58 65 60 86 61 53 62 37 63 38 64 46 65 39 66 40 67
REMARK SMILES IDX 44 68 47 69 41 70 42 71 45 72 43 73 69 74 70 75 78 76 71 77
REMARK SMILES IDX 72 78 76 79 79 80 73 81 74 82 77 83 75 84 54 85 55 86 63 87
REMARK SMILES IDX 56 88 57 89 61 90 64 91 58 92 59 93 62 94 60 95
REMARK H PARENT 21 6 3 20 25 29 84 48 52 59
REMARK Flexibility Score: inf
ROOT
ATOM      1  C   UNL A   1      31.705  29.461  26.970  1.00  0.00     0.042 C 
ENDROOT
BRANCH   1   2
ATOM      2  C   UNL A   1      32.131  28.010  26.934  1.00  0.00     0.118 C 
BRANCH   2   3
ATOM      3  N   UNL A   1      31.029  27.080  26.781  1.00  0.00    -0.352 N 
ATOM      4  C   UNL A   1      30.992  25.876  26.128  1.00  0.00     0.253 C 
ATOM      5  O   UNL A   1      29.934  25.247  26.100  1.00  0.00    -0.269 OA
ATOM      6  H   UNL A   1      30.185  27.354  27.208  1.00  0.00     0.163 HD
BRANCH   4   7
ATOM      7  C   UNL A   1      32.161  25.351  25.387  1.00  0.00     0.067 A 
ATOM      8  C   UNL A   1      32.149  25.012  24.021  1.00  0.00     0.098 A 
ATOM      9  C   UNL A   1      33.325  24.476  23.465  1.00  0.00     0.031 A 
ATOM     10  C   UNL A   1      34.499  24.360  24.215  1.00  0.00     0.002 A 
ATOM     11  C   UNL A   1      33.356  25.270  26.126  1.00  0.00     0.016 A 
ATOM     12  C   UNL A   1      34.522  24.778  25.542  1.00  0.00     0.001 A 
BRANCH   8  13
ATOM     13  N   UNL A   1      31.000  25.100  23.198  1.00  0.00    -0.150 NA
ATOM     14  N   UNL A   1      31.026  25.958  22.283  1.00  0.00    -0.148 NA
BRANCH  14  15
ATOM     15  C   UNL A   1      31.023  27.306  22.681  1.00  0.00     0.114 A 
ATOM     16  C   UNL A   1      33.573  27.798  22.474  1.00  0.00     0.067 C 
ATOM     17  C   UNL A   1      32.150  28.093  22.752  1.00  0.00     0.041 A 
ATOM     18  N   UNL A   1      31.738  29.328  23.184  1.00  0.00    -0.357 N 
ATOM     19  C   UNL A   1      30.363  29.387  23.246  1.00  0.00     0.048 A 
ATOM     20  H   UNL A   1      32.341  30.070  23.417  1.00  0.00     0.166 HD
ATOM     21  C   UNL A   1      29.876  28.111  22.946  1.00  0.00     0.027 A 
ATOM     22  C   UNL A   1      29.530  30.477  23.531  1.00  0.00     0.027 A 
ATOM     23  C   UNL A   1      28.476  27.920  22.942  1.00  0.00     0.012 A 
ATOM     24  C   UNL A   1      28.150  30.265  23.501  1.00  0.00     0.002 A 
ATOM     25  C   UNL A   1      27.628  29.005  23.218  1.00  0.00     0.001 A 
ENDBRANCH  14  15
ENDBRANCH   8  13
ENDBRANCH   4   7
ENDBRANCH   2   3
ENDBRANCH   1   2
BRANCH   1  26
ATOM     26  C   UNL A   1      32.692  30.416  26.322  1.00  0.00     0.118 C 
BRANCH  26  27
ATOM     27  N   UNL A   1      32.611  31.787  26.810  1.00  0.00    -0.352 N 
ATOM     28  C   UNL A   1      33.455  32.518  27.618  1.00  0.00     0.251 C 
ATOM     29  H   UNL A   1      31.813  32.278  26.510  1.00  0.00     0.163 HD
ATOM     30  O   UNL A   1      33.133  33.641  27.980  1.00  0.00    -0.269 OA
BRANCH  28  31
ATOM     31  C   UNL A   1      34.730  31.931  28.090  1.00  0.00     0.039 A 
ATOM     32  C   UNL A   1      35.846  32.757  28.239  1.00  0.00     0.014 A 
ATOM     33  C   UNL A   1      34.824  30.580  28.416  1.00  0.00     0.014 A 
ATOM     34  C   UNL A   1      37.012  32.247  28.816  1.00  0.00     0.010 A 
ATOM     35  C   UNL A   1      35.925  30.114  29.124  1.00  0.00     0.010 A 
ATOM     36  C   UNL A   1      37.040  30.936  29.322  1.00  0.00    -0.014 A 
BRANCH  36  37
ATOM     37  C   UNL A   1      38.221  30.413  30.057  1.00  0.00     0.031 A 
ATOM     38  C   UNL A   1      38.468  30.811  31.488  1.00  0.00     0.074 A 
ATOM     39  C   UNL A   1      39.112  29.631  29.412  1.00  0.00     0.049 A 
ATOM     40  N   UNL A   1      39.453  30.475  32.284  1.00  0.00    -0.248 NA
ATOM     41  C   UNL A   1      37.510  31.747  32.096  1.00  0.00     0.031 C 
ATOM     42  C   UNL A   1      39.044  29.258  27.997  1.00  0.00     0.029 A 
ATOM     43  N   UNL A   1      40.248  29.008  29.862  1.00  0.00    -0.354 N 
ATOM     44  C   UNL A   1      39.242  31.176  33.464  1.00  0.00     0.074 A 
ATOM     45  C   UNL A   1      38.083  32.014  33.258  1.00  0.00     0.031 C 
ATOM     46  C   UNL A   1      40.058  28.426  27.711  1.00  0.00     0.029 A 
ATOM     47  C   UNL A   1      40.864  28.232  28.910  1.00  0.00     0.049 A 
ATOM     48  H   UNL A   1      40.589  29.106  30.780  1.00  0.00     0.167 HD
ATOM     49  C   UNL A   1      39.926  31.100  34.631  1.00  0.00     0.037 A 
ATOM     50  C   UNL A   1      41.947  27.438  29.002  1.00  0.00     0.037 A 
ATOM     51  C   UNL A   1      41.048  30.226  34.848  1.00  0.00     0.049 A 
ATOM     52  C   UNL A   1      42.646  27.313  30.328  1.00  0.00     0.074 A 
ATOM     53  C   UNL A   1      41.766  30.013  36.011  1.00  0.00     0.029 A 
ATOM     54  N   UNL A   1      41.608  29.411  33.875  1.00  0.00    -0.354 N 
ATOM     55  N   UNL A   1      42.382  27.911  31.464  1.00  0.00    -0.248 NA
ATOM     56  C   UNL A   1      43.785  26.386  30.388  1.00  0.00     0.031 C 
ATOM     57  C   UNL A   1      42.783  29.092  35.733  1.00  0.00     0.029 A 
ATOM     58  C   UNL A   1      42.670  28.700  34.409  1.00  0.00     0.049 A 
ATOM     59  H   UNL A   1      41.298  29.349  32.943  1.00  0.00     0.167 HD
ATOM     60  C   UNL A   1      43.302  27.420  32.377  1.00  0.00     0.074 A 
ATOM     61  C   UNL A   1      44.117  26.454  31.670  1.00  0.00     0.031 C 
ATOM     62  C   UNL A   1      43.465  27.743  33.684  1.00  0.00     0.037 A 
BRANCH  49  63
ATOM     63  C   UNL A   1      39.459  31.968  35.764  1.00  0.00     0.064 A 
ATOM     64  C   UNL A   1      39.994  33.248  35.979  1.00  0.00     0.173 A 
ATOM     65  C   UNL A   1      38.454  31.524  36.637  1.00  0.00     0.173 A 
ATOM     66  F   UNL A   1      40.968  33.715  35.183  1.00  0.00    -0.203 F 
ATOM     67  C   UNL A   1      39.570  34.034  37.048  1.00  0.00     0.198 A 
ATOM     68  C   UNL A   1      38.009  32.327  37.685  1.00  0.00     0.198 A 
ATOM     69  F   UNL A   1      37.903  30.312  36.476  1.00  0.00    -0.203 F 
ATOM     70  F   UNL A   1      40.141  35.226  37.267  1.00  0.00    -0.200 F 
ATOM     71  C   UNL A   1      38.573  33.576  37.895  1.00  0.00     0.200 A 
ATOM     72  F   UNL A   1      37.037  31.889  38.497  1.00  0.00    -0.200 F 
ATOM     73  F   UNL A   1      38.164  34.335  38.921  1.00  0.00    -0.200 F 
ENDBRANCH  49  63
BRANCH  50  74
ATOM     74  C   UNL A   1      42.394  26.648  27.824  1.00  0.00     0.064 A 
ATOM     75  C   UNL A   1      41.841  25.386  27.557  1.00  0.00     0.173 A 
ATOM     76  C   UNL A   1      43.373  27.130  26.945  1.00  0.00     0.173 A 
ATOM     77  F   UNL A   1      40.913  24.875  28.380  1.00  0.00    -0.203 F 
ATOM     78  C   UNL A   1      42.267  24.628  26.469  1.00  0.00     0.198 A 
ATOM     79  C   UNL A   1      43.779  26.382  25.840  1.00  0.00     0.198 A 
ATOM     80  F   UNL A   1      43.926  28.333  27.150  1.00  0.00    -0.203 F 
ATOM     81  F   UNL A   1      41.755  23.407  26.265  1.00  0.00    -0.200 F 
ATOM     82  C   UNL A   1      43.232  25.128  25.608  1.00  0.00     0.200 A 
ATOM     83  F   UNL A   1      44.701  26.874  25.003  1.00  0.00    -0.200 F 
ATOM     84  F   UNL A   1      43.639  24.400  24.560  1.00  0.00    -0.200 F 
ENDBRANCH  50  74
BRANCH  62  85
ATOM     85  C   UNL A   1      44.550  27.023  34.431  1.00  0.00     0.064 A 
ATOM     86  C   UNL A   1      45.847  27.548  34.526  1.00  0.00     0.173 A 
ATOM     87  C   UNL A   1      44.283  25.803  35.071  1.00  0.00     0.173 A 
ATOM     88  F   UNL A   1      46.154  28.705  33.919  1.00  0.00    -0.203 F 
ATOM     89  C   UNL A   1      46.848  26.858  35.204  1.00  0.00     0.198 A 
ATOM     90  C   UNL A   1      45.279  25.133  35.774  1.00  0.00     0.198 A 
ATOM     91  F   UNL A   1      43.056  25.265  35.017  1.00  0.00    -0.203 F 
ATOM     92  F   UNL A   1      48.096  27.348  35.232  1.00  0.00    -0.200 F 
ATOM     93  C   UNL A   1      46.563  25.655  35.831  1.00  0.00     0.200 A 
ATOM     94  F   UNL A   1      44.999  23.976  36.390  1.00  0.00    -0.200 F 
ATOM     95  F   UNL A   1      47.528  24.991  36.481  1.00  0.00    -0.200 F 
ENDBRANCH  62  85
ENDBRANCH  36  37
ENDBRANCH  28  31
ENDBRANCH  26  27
ENDBRANCH   1  26
TORSDOF 12
ENDMDL
MODEL 2
REMARK VINA RESULT:     -13.4      1.750      3.884
REMARK SMILES Cc1[nH]c2ccccc2c1/N=N\c1ccccc1C(=O)NCCCNC(=O)c1ccc(-c2c3nc(c(-c4c(F)c(F)c(F)c(F)c4F)c4ccc([nH]4)c(-c4c(F)c(F)c(F)c(F)c4F)c4nc(c(-c5c(F)c(F)c(F)c(F)c5F)c5ccc2[nH]5)C=C4)C=C3)cc1
REMARK SMILES IDX 23 1 22 2 21 3 19 4 20 5 18 7 13 8 14 9 15 10 17 11 16 12
REMARK SMILES IDX 12 13 11 14 10 15 1 16 2 17 3 18 4 19 9 21 5 22 8 23 6 24
REMARK SMILES IDX 7 25 24 26 25 27 26 28 27 30 28 31 29 32 90 33 30 34 89 35
REMARK SMILES IDX 31 36 32 37 33 38 83 39 34 40 88 41 82 42 84 43 35 44 87 45
REMARK SMILES IDX 81 46 80 47 36 49 68 50 48 51 67 52 49 53 52 54 66 55 85 56
REMARK SMILES IDX 50 57 51 58 65 60 86 61 53 62 37 63 38 64 46 65 39 66 40 67
REMARK SMILES IDX 44 68 47 69 41 70 42 71 45 72 43 73 69 74 70 75 78 76 71 77
REMARK SMILES IDX 72 78 76 79 79 80 73 81 74 82 77 83 75 84 54 85 55 86 63 87
REMARK SMILES IDX 56 88 57 89 61 90 64 91 58 92 59 93 62 94 60 95
REMARK H PARENT 21 6 3 20 25 29 84 48 52 59
REMARK Flexibility Score: inf
ROOT
ATOM      1  C   UNL A   1      32.714  29.312  24.856  1.00  0.00     0.042 C 
ENDROOT
BRANCH   1   2
ATOM      2  C   UNL A   1      33.724  28.229  24.547  1.00  0.00     0.118 C 
BRANCH   2   3
ATOM      3  N   UNL A   1      33.374  27.411  23.401  1.00  0.00    -0.352 N 
ATOM      4  C   UNL A   1      32.840  26.150  23.365  1.00  0.00     0.253 C 
ATOM      5  O   UNL A   1      32.636  25.623  22.271  1.00  0.00    -0.269 OA
ATOM      6  H   UNL A   1      33.544  27.823  22.523  1.00  0.00     0.163 HD
BRANCH   4   7
ATOM      7  C   UNL A   1      32.580  25.373  24.597  1.00  0.00     0.067 A 
ATOM      8  C   UNL A   1      33.581  24.773  25.384  1.00  0.00     0.098 A 
ATOM      9  C   UNL A   1      33.176  24.022  26.503  1.00  0.00     0.031 A 
ATOM     10  C   UNL A   1      31.832  23.939  26.879  1.00  0.00     0.002 A 
ATOM     11  C   UNL A   1      31.233  25.320  25.003  1.00  0.00     0.016 A 
ATOM     12  C   UNL A   1      30.860  24.607  26.141  1.00  0.00     0.001 A 
BRANCH   8  13
ATOM     13  N   UNL A   1      34.960  24.812  25.067  1.00  0.00    -0.150 NA
ATOM     14  N   UNL A   1      35.360  24.010  24.190  1.00  0.00    -0.148 NA
BRANCH  14  15
ATOM     15  C   UNL A   1      35.328  22.645  24.521  1.00  0.00     0.114 A 
ATOM     16  C   UNL A   1      37.491  22.526  25.970  1.00  0.00     0.067 C 
ATOM     17  C   UNL A   1      36.269  22.018  25.307  1.00  0.00     0.041 A 
ATOM     18  N   UNL A   1      35.895  20.701  25.390  1.00  0.00    -0.357 N 
ATOM     19  C   UNL A   1      34.665  20.507  24.801  1.00  0.00     0.048 A 
ATOM     20  H   UNL A   1      36.432  19.992  25.811  1.00  0.00     0.166 HD
ATOM     21  C   UNL A   1      34.281  21.722  24.225  1.00  0.00     0.027 A 
ATOM     22  C   UNL A   1      33.871  19.353  24.755  1.00  0.00     0.027 A 
ATOM     23  C   UNL A   1      33.037  21.776  23.560  1.00  0.00     0.012 A 
ATOM     24  C   UNL A   1      32.637  19.440  24.107  1.00  0.00     0.002 A 
ATOM     25  C   UNL A   1      32.226  20.631  23.512  1.00  0.00     0.001 A 
ENDBRANCH  14  15
ENDBRANCH   8  13
ENDBRANCH   4   7
ENDBRANCH   2   3
ENDBRANCH   1   2
BRANCH   1  26
ATOM     26  C   UNL A   1      32.554  29.609  26.336  1.00  0.00     0.118 C 
BRANCH  26  27
ATOM     27  N   UNL A   1      32.455  31.028  26.657  1.00  0.00    -0.352 N 
ATOM     28  C   UNL A   1      33.314  31.873  27.326  1.00  0.00     0.251 C 
ATOM     29  H   UNL A   1      31.628  31.458  26.341  1.00  0.00     0.163 HD
ATOM     30  O   UNL A   1      32.975  33.024  27.565  1.00  0.00    -0.269 OA
BRANCH  28  31
ATOM     31  C   UNL A   1      34.628  31.379  27.798  1.00  0.00     0.039 A 
ATOM     32  C   UNL A   1      35.671  32.290  27.981  1.00  0.00     0.014 A 
ATOM     33  C   UNL A   1      34.829  30.032  28.091  1.00  0.00     0.014 A 
ATOM     34  C   UNL A   1      36.869  31.861  28.560  1.00  0.00     0.010 A 
ATOM     35  C   UNL A   1      35.957  29.640  28.801  1.00  0.00     0.010 A 
ATOM     36  C   UNL A   1      36.999  30.544  29.033  1.00  0.00    -0.014 A 
BRANCH  36  37
ATOM     37  C   UNL A   1      38.211  30.100  29.769  1.00  0.00     0.031 A 
ATOM     38  C   UNL A   1      38.462  30.564  31.179  1.00  0.00     0.074 A 
ATOM     39  C   UNL A   1      39.124  29.331  29.141  1.00  0.00     0.049 A 
ATOM     40  N   UNL A   1      39.471  30.301  31.972  1.00  0.00    -0.248 NA
ATOM     41  C   UNL A   1      37.473  31.484  31.765  1.00  0.00     0.031 C 
ATOM     42  C   UNL A   1      39.052  28.899  27.743  1.00  0.00     0.029 A 
ATOM     43  N   UNL A   1      40.292  28.773  29.597  1.00  0.00    -0.354 N 
ATOM     44  C   UNL A   1      39.247  31.040  33.127  1.00  0.00     0.074 A 
ATOM     45  C   UNL A   1      38.052  31.821  32.907  1.00  0.00     0.031 C 
ATOM     46  C   UNL A   1      40.096  28.099  27.473  1.00  0.00     0.029 A 
ATOM     47  C   UNL A   1      40.927  27.986  28.666  1.00  0.00     0.049 A 
ATOM     48  H   UNL A   1      40.641  28.922  30.505  1.00  0.00     0.167 HD
ATOM     49  C   UNL A   1      39.951  31.038  34.285  1.00  0.00     0.037 A 
ATOM     50  C   UNL A   1      42.043  27.242  28.772  1.00  0.00     0.037 A 
ATOM     51  C   UNL A   1      41.111  30.221  34.518  1.00  0.00     0.049 A 
ATOM     52  C   UNL A   1      42.766  27.198  30.091  1.00  0.00     0.074 A 
ATOM     53  C   UNL A   1      41.855  30.085  35.677  1.00  0.00     0.029 A 
ATOM     54  N   UNL A   1      41.691  29.392  33.569  1.00  0.00    -0.354 N 
ATOM     55  N   UNL A   1      42.492  27.830  31.206  1.00  0.00    -0.248 NA
ATOM     56  C   UNL A   1      43.943  26.323  30.169  1.00  0.00     0.031 C 
ATOM     57  C   UNL A   1      42.905  29.196  35.419  1.00  0.00     0.029 A 
ATOM     58  C   UNL A   1      42.790  28.747  34.113  1.00  0.00     0.049 A 
ATOM     59  H   UNL A   1      41.370  29.280  32.645  1.00  0.00     0.167 HD
ATOM     60  C   UNL A   1      43.446  27.414  32.124  1.00  0.00     0.074 A 
ATOM     61  C   UNL A   1      44.290  26.455  31.442  1.00  0.00     0.031 C 
ATOM     62  C   UNL A   1      43.614  27.795  33.414  1.00  0.00     0.037 A 
BRANCH  49  63
ATOM     63  C   UNL A   1      39.464  31.931  35.390  1.00  0.00     0.064 A 
ATOM     64  C   UNL A   1      38.561  31.471  36.363  1.00  0.00     0.173 A 
ATOM     65  C   UNL A   1      39.913  33.256  35.490  1.00  0.00     0.173 A 
ATOM     66  F   UNL A   1      38.088  30.217  36.305  1.00  0.00    -0.203 F 
ATOM     67  C   UNL A   1      38.097  32.315  37.368  1.00  0.00     0.198 A 
ATOM     68  C   UNL A   1      39.472  34.087  36.518  1.00  0.00     0.198 A 
ATOM     69  F   UNL A   1      40.780  33.747  34.592  1.00  0.00    -0.203 F 
ATOM     70  F   UNL A   1      37.189  31.869  38.248  1.00  0.00    -0.200 F 
ATOM     71  C   UNL A   1      38.558  33.619  37.450  1.00  0.00     0.200 A 
ATOM     72  F   UNL A   1      39.928  35.345  36.603  1.00  0.00    -0.200 F 
ATOM     73  F   UNL A   1      38.113  34.429  38.420  1.00  0.00    -0.200 F 
ENDBRANCH  49  63
BRANCH  50  74
ATOM     74  C   UNL A   1      42.505  26.424  27.620  1.00  0.00     0.064 A 
ATOM     75  C   UNL A   1      43.500  26.903  26.754  1.00  0.00     0.173 A 
ATOM     76  C   UNL A   1      41.970  25.155  27.359  1.00  0.00     0.173 A 
ATOM     77  F   UNL A   1      44.030  28.119  26.953  1.00  0.00    -0.203 F 
ATOM     78  C   UNL A   1      43.925  26.154  25.659  1.00  0.00     0.198 A 
ATOM     79  C   UNL A   1      42.416  24.395  26.278  1.00  0.00     0.198 A 
ATOM     80  F   UNL A   1      41.024  24.647  28.160  1.00  0.00    -0.203 F 
ATOM     81  F   UNL A   1      44.843  26.657  24.823  1.00  0.00    -0.200 F 
ATOM     82  C   UNL A   1      43.386  24.899  25.424  1.00  0.00     0.200 A 
ATOM     83  F   UNL A   1      41.904  23.176  26.062  1.00  0.00    -0.200 F 
ATOM     84  F   UNL A   1      43.797  24.178  24.373  1.00  0.00    -0.200 F 
ENDBRANCH  50  74
BRANCH  62  85
ATOM     85  C   UNL A   1      44.738  27.152  34.172  1.00  0.00     0.064 A 
ATOM     86  C   UNL A   1      44.558  25.947  34.868  1.00  0.00     0.173 A 
ATOM     87  C   UNL A   1      46.012  27.740  34.189  1.00  0.00     0.173 A 
ATOM     88  F   UNL A   1      43.354  25.355  34.892  1.00  0.00    -0.203 F 
ATOM     89  C   UNL A   1      45.604  25.374  35.584  1.00  0.00     0.198 A 
ATOM     90  C   UNL A   1      47.063  27.147  34.881  1.00  0.00     0.198 A 
ATOM     91  F   UNL A   1      46.237  28.887  33.532  1.00  0.00    -0.203 F 
ATOM     92  F   UNL A   1      45.395  24.254  36.291  1.00  0.00    -0.200 F 
ATOM     93  C   UNL A   1      46.856  25.971  35.586  1.00  0.00     0.200 A 
ATOM     94  F   UNL A   1      48.275  27.718  34.872  1.00  0.00    -0.200 F 
ATOM     95  F   UNL A   1      47.862  25.418  36.278  1.00  0.00    -0.200 F 
ENDBRANCH  62  85
ENDBRANCH  36  37
ENDBRANCH  28  31
ENDBRANCH  26  27
ENDBRANCH   1  26
TORSDOF 12
ENDMDL
MODEL 3
REMARK VINA RESULT:     -13.4      1.844      3.657
REMARK SMILES Cc1[nH]c2ccccc2c1/N=N\c1ccccc1C(=O)NCCCNC(=O)c1ccc(-c2c3nc(c(-c4c(F)c(F)c(F)c(F)c4F)c4ccc([nH]4)c(-c4c(F)c(F)c(F)c(F)c4F)c4nc(c(-c5c(F)c(F)c(F)c(F)c5F)c5ccc2[nH]5)C=C4)C=C3)cc1
REMARK SMILES IDX 23 1 22 2 21 3 19 4 20 5 18 7 13 8 14 9 15 10 17 11 16 12
REMARK SMILES IDX 12 13 11 14 10 15 1 16 2 17 3 18 4 19 9 21 5 22 8 23 6 24
REMARK SMILES IDX 7 25 24 26 25 27 26 28 27 30 28 31 29 32 90 33 30 34 89 35
REMARK SMILES IDX 31 36 32 37 33 38 83 39 34 40 88 41 82 42 84 43 35 44 87 45
REMARK SMILES IDX 81 46 80 47 36 49 68 50 48 51 67 52 49 53 52 54 66 55 85 56
REMARK SMILES IDX 50 57 51 58 65 60 86 61 53 62 37 63 38 64 46 65 39 66 40 67
REMARK SMILES IDX 44 68 47 69 41 70 42 71 45 72 43 73 69 74 70 75 78 76 71 77
REMARK SMILES IDX 72 78 76 79 79 80 73 81 74 82 77 83 75 84 54 85 55 86 63 87
REMARK SMILES IDX 56 88 57 89 61 90 64 91 58 92 59 93 62 94 60 95
REMARK H PARENT 21 6 3 20 25 29 84 48 52 59
REMARK Flexibility Score: inf
ROOT
ATOM      1  C   UNL A   1      31.494  31.813  26.805  1.00  0.00     0.042 C 
ENDROOT
BRANCH   1   2
ATOM      2  C   UNL A   1      31.778  30.354  26.520  1.00  0.00     0.118 C 
BRANCH   2   3
ATOM      3  N   UNL A   1      32.616  30.138  25.356  1.00  0.00    -0.352 N 
ATOM      4  C   UNL A   1      32.505  29.195  24.368  1.00  0.00     0.253 C 
ATOM      5  O   UNL A   1      33.346  29.174  23.470  1.00  0.00    -0.269 OA
ATOM      6  H   UNL A   1      33.374  30.759  25.262  1.00  0.00     0.163 HD
BRANCH   4   7
ATOM      7  C   UNL A   1      31.453  28.153  24.395  1.00  0.00     0.067 A 
ATOM      8  C   UNL A   1      31.485  27.014  25.220  1.00  0.00     0.098 A 
ATOM      9  C   UNL A   1      30.437  26.084  25.099  1.00  0.00     0.031 A 
ATOM     10  C   UNL A   1      29.350  26.316  24.250  1.00  0.00     0.002 A 
ATOM     11  C   UNL A   1      30.338  28.401  23.572  1.00  0.00     0.016 A 
ATOM     12  C   UNL A   1      29.290  27.487  23.501  1.00  0.00     0.001 A 
BRANCH   8  13
ATOM     13  N   UNL A   1      32.550  26.711  26.103  1.00  0.00    -0.150 NA
ATOM     14  N   UNL A   1      33.627  26.338  25.579  1.00  0.00    -0.148 NA
BRANCH  14  15
ATOM     15  C   UNL A   1      33.617  25.091  24.933  1.00  0.00     0.114 A 
ATOM     16  C   UNL A   1      33.653  25.913  22.460  1.00  0.00     0.067 C 
ATOM     17  C   UNL A   1      33.634  24.929  23.566  1.00  0.00     0.041 A 
ATOM     18  N   UNL A   1      33.607  23.578  23.331  1.00  0.00    -0.357 N 
ATOM     19  C   UNL A   1      33.723  22.878  24.512  1.00  0.00     0.048 A 
ATOM     20  H   UNL A   1      33.517  23.165  22.442  1.00  0.00     0.166 HD
ATOM     21  C   UNL A   1      33.716  23.811  25.553  1.00  0.00     0.027 A 
ATOM     22  C   UNL A   1      33.845  21.498  24.721  1.00  0.00     0.027 A 
ATOM     23  C   UNL A   1      33.831  23.328  26.876  1.00  0.00     0.012 A 
ATOM     24  C   UNL A   1      33.976  21.050  26.038  1.00  0.00     0.002 A 
ATOM     25  C   UNL A   1      33.963  21.949  27.102  1.00  0.00     0.001 A 
ENDBRANCH  14  15
ENDBRANCH   8  13
ENDBRANCH   4   7
ENDBRANCH   2   3
ENDBRANCH   1   2
BRANCH   1  26
ATOM     26  C   UNL A   1      32.720  32.621  27.194  1.00  0.00     0.118 C 
BRANCH  26  27
ATOM     27  N   UNL A   1      32.430  33.983  27.626  1.00  0.00    -0.352 N 
ATOM     28  C   UNL A   1      33.018  34.779  28.584  1.00  0.00     0.251 C 
ATOM     29  H   UNL A   1      31.682  34.409  27.149  1.00  0.00     0.163 HD
ATOM     30  O   UNL A   1      32.540  35.874  28.845  1.00  0.00    -0.269 OA
BRANCH  28  31
ATOM     31  C   UNL A   1      34.201  34.295  29.333  1.00  0.00     0.039 A 
ATOM     32  C   UNL A   1      34.010  33.555  30.502  1.00  0.00     0.014 A 
ATOM     33  C   UNL A   1      35.494  34.538  28.874  1.00  0.00     0.014 A 
ATOM     34  C   UNL A   1      35.109  32.973  31.139  1.00  0.00     0.010 A 
ATOM     35  C   UNL A   1      36.563  33.838  29.417  1.00  0.00     0.010 A 
ATOM     36  C   UNL A   1      36.390  33.057  30.565  1.00  0.00    -0.014 A 
BRANCH  36  37
ATOM     37  C   UNL A   1      37.551  32.339  31.151  1.00  0.00     0.031 A 
ATOM     38  C   UNL A   1      38.033  32.671  32.539  1.00  0.00     0.074 A 
ATOM     39  C   UNL A   1      38.217  31.432  30.406  1.00  0.00     0.049 A 
ATOM     40  N   UNL A   1      39.041  32.169  33.210  1.00  0.00    -0.248 NA
ATOM     41  C   UNL A   1      37.321  33.742  33.255  1.00  0.00     0.031 C 
ATOM     42  C   UNL A   1      37.916  31.095  29.013  1.00  0.00     0.029 A 
ATOM     43  N   UNL A   1      39.283  30.626  30.717  1.00  0.00    -0.354 N 
ATOM     44  C   UNL A   1      39.092  32.878  34.402  1.00  0.00     0.074 A 
ATOM     45  C   UNL A   1      38.069  33.896  34.336  1.00  0.00     0.031 C 
ATOM     46  C   UNL A   1      38.739  30.114  28.609  1.00  0.00     0.029 A 
ATOM     47  C   UNL A   1      39.643  29.774  29.701  1.00  0.00     0.049 A 
ATOM     48  H   UNL A   1      39.745  30.656  31.585  1.00  0.00     0.167 HD
ATOM     49  C   UNL A   1      39.893  32.675  35.476  1.00  0.00     0.037 A 
ATOM     50  C   UNL A   1      40.586  28.814  29.663  1.00  0.00     0.037 A 
ATOM     51  C   UNL A   1      40.875  31.628  35.559  1.00  0.00     0.049 A 
ATOM     52  C   UNL A   1      41.412  28.559  30.894  1.00  0.00     0.074 A 
ATOM     53  C   UNL A   1      41.687  31.285  36.626  1.00  0.00     0.029 A 
ATOM     54  N   UNL A   1      41.172  30.747  34.529  1.00  0.00    -0.354 N 
ATOM     55  N   UNL A   1      41.390  29.176  32.050  1.00  0.00    -0.248 NA
ATOM     56  C   UNL A   1      42.384  27.459  30.819  1.00  0.00     0.031 C 
ATOM     57  C   UNL A   1      42.499  30.216  36.230  1.00  0.00     0.029 A 
ATOM     58  C   UNL A   1      42.162  29.866  34.932  1.00  0.00     0.049 A 
ATOM     59  H   UNL A   1      40.744  30.749  33.643  1.00  0.00     0.167 HD
ATOM     60  C   UNL A   1      42.323  28.529  32.846  1.00  0.00     0.074 A 
ATOM     61  C   UNL A   1      42.877  27.453  32.049  1.00  0.00     0.031 C 
ATOM     62  C   UNL A   1      42.696  28.803  34.121  1.00  0.00     0.037 A 
BRANCH  49  63
ATOM     63  C   UNL A   1      39.715  33.591  36.653  1.00  0.00     0.064 A 
ATOM     64  C   UNL A   1      38.858  33.265  37.717  1.00  0.00     0.173 A 
ATOM     65  C   UNL A   1      40.419  34.803  36.729  1.00  0.00     0.173 A 
ATOM     66  F   UNL A   1      38.150  32.126  37.688  1.00  0.00    -0.203 F 
ATOM     67  C   UNL A   1      38.683  34.134  38.791  1.00  0.00     0.198 A 
ATOM     68  C   UNL A   1      40.266  35.654  37.822  1.00  0.00     0.198 A 
ATOM     69  F   UNL A   1      41.255  35.163  35.745  1.00  0.00    -0.203 F 
ATOM     70  F   UNL A   1      37.812  33.826  39.763  1.00  0.00    -0.200 F 
ATOM     71  C   UNL A   1      39.392  35.323  38.846  1.00  0.00     0.200 A 
ATOM     72  F   UNL A   1      40.960  36.798  37.880  1.00  0.00    -0.200 F 
ATOM     73  F   UNL A   1      39.224  36.157  39.882  1.00  0.00    -0.200 F 
ENDBRANCH  49  63
BRANCH  50  74
ATOM     74  C   UNL A   1      40.750  27.979  28.445  1.00  0.00     0.064 A 
ATOM     75  C   UNL A   1      40.075  26.756  28.318  1.00  0.00     0.173 A 
ATOM     76  C   UNL A   1      41.576  28.379  27.386  1.00  0.00     0.173 A 
ATOM     77  F   UNL A   1      39.286  26.321  29.313  1.00  0.00    -0.203 F 
ATOM     78  C   UNL A   1      40.238  25.955  27.190  1.00  0.00     0.198 A 
ATOM     79  C   UNL A   1      41.717  27.590  26.245  1.00  0.00     0.198 A 
ATOM     80  F   UNL A   1      42.236  29.544  27.452  1.00  0.00    -0.203 F 
ATOM     81  F   UNL A   1      39.617  24.770  27.118  1.00  0.00    -0.200 F 
ATOM     82  C   UNL A   1      41.055  26.375  26.152  1.00  0.00     0.200 A 
ATOM     83  F   UNL A   1      42.496  28.005  25.237  1.00  0.00    -0.200 F 
ATOM     84  F   UNL A   1      41.209  25.606  25.066  1.00  0.00    -0.200 F 
ENDBRANCH  50  74
BRANCH  62  85
ATOM     85  C   UNL A   1      43.732  27.906  34.733  1.00  0.00     0.064 A 
ATOM     86  C   UNL A   1      45.098  28.220  34.678  1.00  0.00     0.173 A 
ATOM     87  C   UNL A   1      43.352  26.729  35.394  1.00  0.00     0.173 A 
ATOM     88  F   UNL A   1      45.511  29.329  34.044  1.00  0.00    -0.203 F 
ATOM     89  C   UNL A   1      46.049  27.368  35.231  1.00  0.00     0.198 A 
ATOM     90  C   UNL A   1      44.304  25.895  35.973  1.00  0.00     0.198 A 
ATOM     91  F   UNL A   1      42.058  26.389  35.482  1.00  0.00    -0.203 F 
ATOM     92  F   UNL A   1      47.353  27.657  35.115  1.00  0.00    -0.200 F 
ATOM     93  C   UNL A   1      45.652  26.210  35.881  1.00  0.00     0.200 A 
ATOM     94  F   UNL A   1      43.918  24.783  36.612  1.00  0.00    -0.200 F 
ATOM     95  F   UNL A   1      46.569  25.389  36.412  1.00  0.00    -0.200 F 
ENDBRANCH  62  85
ENDBRANCH  36  37
ENDBRANCH  28  31
ENDBRANCH  26  27
ENDBRANCH   1  26
TORSDOF 12
ENDMDL
