MODEL 1
REMARK VINA RESULT:     -13.7      0.000      0.000
REMARK SMILES O=C(NCCCNC(=O)c1ccc(N2C(=O)/C(=C\C3=Cc4ccccc4OC3)SC2=S)cc1)c1ccc(-c2c3nc(c(-c4c(F)c(F)c(F)c(F)c4F)c4ccc([nH]4)c(-c4c(F)c(F)c(F)c(F)c4F)c4nc(c(-c5c(F)c(F)c(F)c(F)c5F)c5ccc2[nH]5)C=C4)C=C3)cc1
REMARK SMILES IDX 5 1 4 2 3 3 1 4 2 5 34 7 35 8 96 9 36 10 95 11 37 12 38 13
REMARK SMILES IDX 39 14 89 15 40 16 94 17 88 18 90 19 41 20 93 21 87 22 86 23
REMARK SMILES IDX 42 25 74 26 54 27 73 28 55 29 58 30 72 31 91 32 56 33 57 34
REMARK SMILES IDX 71 36 92 37 59 38 43 39 44 40 52 41 45 42 46 43 50 44 53 45
REMARK SMILES IDX 47 46 48 47 51 48 49 49 75 50 76 51 84 52 77 53 78 54 82 55
REMARK SMILES IDX 85 56 79 57 80 58 83 59 81 60 60 61 61 62 69 63 62 64 63 65
REMARK SMILES IDX 67 66 70 67 64 68 65 69 68 70 66 71 6 72 7 73 8 74 9 76
REMARK SMILES IDX 10 77 11 78 33 79 12 80 32 81 13 82 14 83 15 84 30 85 16 86
REMARK SMILES IDX 17 87 29 88 31 89 18 90 19 91 20 92 28 93 21 94 27 95 22 96
REMARK SMILES IDX 26 97 23 98 25 99 24 100
REMARK H PARENT 3 6 90 24 58 35 7 75
REMARK Flexibility Score: inf
ROOT
ATOM      1  C   UNL A   1      31.417  32.299  26.789  1.00  0.00     0.042 C 
ENDROOT
BRANCH   1   2
ATOM      2  C   UNL A   1      32.593  33.264  26.853  1.00  0.00     0.118 C 
BRANCH   2   3
ATOM      3  N   UNL A   1      32.321  34.456  27.646  1.00  0.00    -0.352 N 
ATOM      4  O   UNL A   1      32.436  35.897  29.369  1.00  0.00    -0.269 OA
ATOM      5  C   UNL A   1      32.923  34.930  28.788  1.00  0.00     0.251 C 
ATOM      6  H   UNL A   1      31.583  35.014  27.309  1.00  0.00     0.163 HD
BRANCH   5   7
ATOM      7  C   UNL A   1      34.132  34.279  29.343  1.00  0.00     0.039 A 
ATOM      8  C   UNL A   1      34.038  33.276  30.308  1.00  0.00     0.014 A 
ATOM      9  C   UNL A   1      35.390  34.650  28.853  1.00  0.00     0.014 A 
ATOM     10  C   UNL A   1      35.192  32.769  30.897  1.00  0.00     0.010 A 
ATOM     11  C   UNL A   1      36.550  34.067  29.378  1.00  0.00     0.010 A 
ATOM     12  C   UNL A   1      36.462  33.145  30.430  1.00  0.00    -0.014 A 
BRANCH  12  13
ATOM     13  C   UNL A   1      37.662  32.502  31.026  1.00  0.00     0.031 A 
ATOM     14  C   UNL A   1      38.128  32.841  32.415  1.00  0.00     0.074 A 
ATOM     15  C   UNL A   1      38.299  31.550  30.316  1.00  0.00     0.049 A 
ATOM     16  N   UNL A   1      39.103  32.306  33.109  1.00  0.00    -0.248 NA
ATOM     17  C   UNL A   1      37.419  33.921  33.116  1.00  0.00     0.031 C 
ATOM     18  C   UNL A   1      37.958  31.156  28.946  1.00  0.00     0.029 A 
ATOM     19  N   UNL A   1      39.336  30.718  30.651  1.00  0.00    -0.354 N 
ATOM     20  C   UNL A   1      39.128  32.987  34.320  1.00  0.00     0.074 A 
ATOM     21  C   UNL A   1      38.091  33.994  34.257  1.00  0.00     0.031 C 
ATOM     22  C   UNL A   1      38.727  30.120  28.582  1.00  0.00     0.029 A 
ATOM     23  C   UNL A   1      39.649  29.811  29.668  1.00  0.00     0.049 A 
ATOM     24  H   UNL A   1      39.810  30.766  31.512  1.00  0.00     0.167 HD
ATOM     25  C   UNL A   1      39.936  32.779  35.388  1.00  0.00     0.037 A 
ATOM     26  C   UNL A   1      40.578  28.837  29.641  1.00  0.00     0.037 A 
ATOM     27  C   UNL A   1      40.959  31.766  35.454  1.00  0.00     0.049 A 
ATOM     28  C   UNL A   1      41.449  28.625  30.846  1.00  0.00     0.074 A 
ATOM     29  C   UNL A   1      41.816  31.470  36.501  1.00  0.00     0.029 A 
ATOM     30  N   UNL A   1      41.261  30.880  34.430  1.00  0.00    -0.354 N 
ATOM     31  N   UNL A   1      41.440  29.259  31.993  1.00  0.00    -0.248 NA
ATOM     32  C   UNL A   1      42.456  27.561  30.752  1.00  0.00     0.031 C 
ATOM     33  C   UNL A   1      42.658  30.427  36.099  1.00  0.00     0.029 A 
ATOM     34  C   UNL A   1      42.299  30.046  34.816  1.00  0.00     0.049 A 
ATOM     35  H   UNL A   1      40.804  30.848  33.558  1.00  0.00     0.167 HD
ATOM     36  C   UNL A   1      42.439  28.674  32.756  1.00  0.00     0.074 A 
ATOM     37  C   UNL A   1      43.007  27.608  31.956  1.00  0.00     0.031 C 
ATOM     38  C   UNL A   1      42.859  28.998  34.002  1.00  0.00     0.037 A 
BRANCH  25  39
ATOM     39  C   UNL A   1      39.753  33.665  36.586  1.00  0.00     0.064 A 
ATOM     40  C   UNL A   1      40.368  34.923  36.666  1.00  0.00     0.173 A 
ATOM     41  C   UNL A   1      38.894  33.285  37.628  1.00  0.00     0.173 A 
ATOM     42  F   UNL A   1      41.206  35.327  35.700  1.00  0.00    -0.203 F 
ATOM     43  C   UNL A   1      40.139  35.764  37.751  1.00  0.00     0.198 A 
ATOM     44  C   UNL A   1      38.650  34.138  38.702  1.00  0.00     0.198 A 
ATOM     45  F   UNL A   1      38.277  32.095  37.596  1.00  0.00    -0.203 F 
ATOM     46  F   UNL A   1      40.757  36.951  37.821  1.00  0.00    -0.200 F 
ATOM     47  C   UNL A   1      39.273  35.375  38.764  1.00  0.00     0.200 A 
ATOM     48  F   UNL A   1      37.805  33.766  39.674  1.00  0.00    -0.200 F 
ATOM     49  F   UNL A   1      39.042  36.192  39.801  1.00  0.00    -0.200 F 
ENDBRANCH  25  39
BRANCH  26  50
ATOM     50  C   UNL A   1      40.727  27.993  28.430  1.00  0.00     0.064 A 
ATOM     51  C   UNL A   1      41.508  28.412  27.346  1.00  0.00     0.173 A 
ATOM     52  C   UNL A   1      40.092  26.746  28.334  1.00  0.00     0.173 A 
ATOM     53  F   UNL A   1      42.119  29.606  27.382  1.00  0.00    -0.203 F 
ATOM     54  C   UNL A   1      41.637  27.624  26.204  1.00  0.00     0.198 A 
ATOM     55  C   UNL A   1      40.244  25.945  27.206  1.00  0.00     0.198 A 
ATOM     56  F   UNL A   1      39.336  26.297  29.348  1.00  0.00    -0.203 F 
ATOM     57  F   UNL A   1      42.354  28.067  25.164  1.00  0.00    -0.200 F 
ATOM     58  C   UNL A   1      41.009  26.388  26.138  1.00  0.00     0.200 A 
ATOM     59  F   UNL A   1      39.650  24.745  27.152  1.00  0.00    -0.200 F 
ATOM     60  F   UNL A   1      41.137  25.628  25.042  1.00  0.00    -0.200 F 
ENDBRANCH  26  50
BRANCH  38  61
ATOM     61  C   UNL A   1      43.984  28.187  34.569  1.00  0.00     0.064 A 
ATOM     62  C   UNL A   1      45.319  28.588  34.415  1.00  0.00     0.173 A 
ATOM     63  C   UNL A   1      43.728  27.002  35.273  1.00  0.00     0.173 A 
ATOM     64  F   UNL A   1      45.615  29.705  33.733  1.00  0.00    -0.203 F 
ATOM     65  C   UNL A   1      46.361  27.814  34.920  1.00  0.00     0.198 A 
ATOM     66  C   UNL A   1      44.771  26.244  35.799  1.00  0.00     0.198 A 
ATOM     67  F   UNL A   1      42.467  26.579  35.450  1.00  0.00    -0.203 F 
ATOM     68  F   UNL A   1      47.631  28.189  34.716  1.00  0.00    -0.200 F 
ATOM     69  C   UNL A   1      46.085  26.645  35.615  1.00  0.00     0.200 A 
ATOM     70  F   UNL A   1      44.503  25.119  36.476  1.00  0.00    -0.200 F 
ATOM     71  F   UNL A   1      47.088  25.899  36.097  1.00  0.00    -0.200 F 
ENDBRANCH  38  61
ENDBRANCH  12  13
ENDBRANCH   5   7
ENDBRANCH   2   3
ENDBRANCH   1   2
BRANCH   1  72
ATOM     72  C   UNL A   1      31.789  30.826  26.884  1.00  0.00     0.118 C 
BRANCH  72  73
ATOM     73  N   UNL A   1      33.090  30.612  27.499  1.00  0.00    -0.352 N 
ATOM     74  C   UNL A   1      33.957  29.552  27.440  1.00  0.00     0.251 C 
ATOM     75  H   UNL A   1      33.401  31.361  28.058  1.00  0.00     0.163 HD
ATOM     76  O   UNL A   1      34.919  29.529  28.204  1.00  0.00    -0.269 OA
BRANCH  74  77
ATOM     77  C   UNL A   1      33.751  28.426  26.499  1.00  0.00     0.039 A 
ATOM     78  C   UNL A   1      34.217  28.559  25.193  1.00  0.00     0.016 A 
ATOM     79  C   UNL A   1      33.058  27.271  26.853  1.00  0.00     0.016 A 
ATOM     80  C   UNL A   1      34.061  27.513  24.274  1.00  0.00     0.027 A 
ATOM     81  C   UNL A   1      32.934  26.214  25.939  1.00  0.00     0.027 A 
ATOM     82  C   UNL A   1      33.433  26.307  24.629  1.00  0.00     0.051 A 
BRANCH  82  83
ATOM     83  N   UNL A   1      33.392  25.180  23.734  1.00  0.00    -0.261 N 
ATOM     84  C   UNL A   1      34.161  24.044  23.997  1.00  0.00     0.270 C 
ATOM     85  C   UNL A   1      32.654  25.100  22.558  1.00  0.00     0.152 C 
ATOM     86  O   UNL A   1      35.226  23.970  24.591  1.00  0.00    -0.268 OA
ATOM     87  C   UNL A   1      33.566  22.876  23.291  1.00  0.00     0.081 C 
ATOM     88  S   UNL A   1      32.770  23.464  21.881  1.00  0.00    -0.054 SA
ATOM     89  S   UNL A   1      31.816  26.278  21.710  1.00  0.00    -0.051 S 
ATOM     90  C   UNL A   1      33.412  21.609  23.710  1.00  0.00     0.028 C 
BRANCH  90  91
ATOM     91  C   UNL A   1      33.624  21.028  25.043  1.00  0.00    -0.009 C 
ATOM     92  C   UNL A   1      32.826  20.098  25.606  1.00  0.00     0.019 C 
ATOM     93  C   UNL A   1      35.103  20.730  25.278  1.00  0.00     0.265 C 
ATOM     94  C   UNL A   1      33.258  18.725  25.209  1.00  0.00     0.017 A 
ATOM     95  O   UNL A   1      35.483  19.525  24.579  1.00  0.00    -0.488 OA
ATOM     96  C   UNL A   1      32.358  17.660  25.277  1.00  0.00     0.012 A 
ATOM     97  C   UNL A   1      34.542  18.520  24.667  1.00  0.00     0.127 A 
ATOM     98  C   UNL A   1      32.714  16.416  24.753  1.00  0.00     0.001 A 
ATOM     99  C   UNL A   1      34.887  17.283  24.129  1.00  0.00     0.047 A 
ATOM    100  C   UNL A   1      33.967  16.233  24.165  1.00  0.00     0.004 A 
ENDBRANCH  90  91
ENDBRANCH  82  83
ENDBRANCH  74  77
ENDBRANCH  72  73
ENDBRANCH   1  72
TORSDOF 12
ENDMDL
MODEL 2
REMARK VINA RESULT:     -13.4      5.224     10.947
REMARK SMILES O=C(NCCCNC(=O)c1ccc(N2C(=O)/C(=C\C3=Cc4ccccc4OC3)SC2=S)cc1)c1ccc(-c2c3nc(c(-c4c(F)c(F)c(F)c(F)c4F)c4ccc([nH]4)c(-c4c(F)c(F)c(F)c(F)c4F)c4nc(c(-c5c(F)c(F)c(F)c(F)c5F)c5ccc2[nH]5)C=C4)C=C3)cc1
REMARK SMILES IDX 5 1 4 2 3 3 1 4 2 5 34 7 35 8 96 9 36 10 95 11 37 12 38 13
REMARK SMILES IDX 39 14 89 15 40 16 94 17 88 18 90 19 41 20 93 21 87 22 86 23
REMARK SMILES IDX 42 25 74 26 54 27 73 28 55 29 58 30 72 31 91 32 56 33 57 34
REMARK SMILES IDX 71 36 92 37 59 38 43 39 44 40 52 41 45 42 46 43 50 44 53 45
REMARK SMILES IDX 47 46 48 47 51 48 49 49 75 50 76 51 84 52 77 53 78 54 82 55
REMARK SMILES IDX 85 56 79 57 80 58 83 59 81 60 60 61 61 62 69 63 62 64 63 65
REMARK SMILES IDX 67 66 70 67 64 68 65 69 68 70 66 71 6 72 7 73 8 74 9 76
REMARK SMILES IDX 10 77 11 78 33 79 12 80 32 81 13 82 14 83 15 84 30 85 16 86
REMARK SMILES IDX 17 87 29 88 31 89 18 90 19 91 20 92 28 93 21 94 27 95 22 96
REMARK SMILES IDX 26 97 23 98 25 99 24 100
REMARK H PARENT 3 6 90 24 58 35 7 75
REMARK Flexibility Score: inf
ROOT
ATOM      1  C   UNL A   1      38.362  19.565  24.990  1.00  0.00     0.042 C 
ENDROOT
BRANCH   1   2
ATOM      2  C   UNL A   1      39.349  19.584  26.150  1.00  0.00     0.118 C 
BRANCH   2   3
ATOM      3  N   UNL A   1      40.584  18.861  25.871  1.00  0.00    -0.352 N 
ATOM      4  O   UNL A   1      42.774  18.526  25.485  1.00  0.00    -0.269 OA
ATOM      5  C   UNL A   1      41.893  19.281  25.890  1.00  0.00     0.251 C 
ATOM      6  H   UNL A   1      40.459  17.915  25.629  1.00  0.00     0.163 HD
BRANCH   5   7
ATOM      7  C   UNL A   1      42.256  20.636  26.364  1.00  0.00     0.039 A 
ATOM      8  C   UNL A   1      42.518  21.673  25.468  1.00  0.00     0.014 A 
ATOM      9  C   UNL A   1      42.292  20.888  27.742  1.00  0.00     0.014 A 
ATOM     10  C   UNL A   1      42.973  22.900  25.940  1.00  0.00     0.010 A 
ATOM     11  C   UNL A   1      42.655  22.154  28.217  1.00  0.00     0.010 A 
ATOM     12  C   UNL A   1      43.032  23.163  27.319  1.00  0.00    -0.014 A 
BRANCH  12  13
ATOM     13  C   UNL A   1      43.431  24.521  27.772  1.00  0.00     0.031 A 
ATOM     14  C   UNL A   1      44.871  24.954  27.783  1.00  0.00     0.074 A 
ATOM     15  C   UNL A   1      42.463  25.392  28.117  1.00  0.00     0.049 A 
ATOM     16  N   UNL A   1      45.374  26.131  28.066  1.00  0.00    -0.248 NA
ATOM     17  C   UNL A   1      45.880  23.942  27.441  1.00  0.00     0.031 C 
ATOM     18  C   UNL A   1      41.033  25.078  28.174  1.00  0.00     0.029 A 
ATOM     19  N   UNL A   1      42.524  26.721  28.450  1.00  0.00    -0.354 N 
ATOM     20  C   UNL A   1      46.752  25.999  27.944  1.00  0.00     0.074 A 
ATOM     21  C   UNL A   1      47.011  24.619  27.590  1.00  0.00     0.031 C 
ATOM     22  C   UNL A   1      40.348  26.194  28.459  1.00  0.00     0.029 A 
ATOM     23  C   UNL A   1      41.291  27.290  28.656  1.00  0.00     0.049 A 
ATOM     24  H   UNL A   1      43.369  27.219  28.532  1.00  0.00     0.167 HD
ATOM     25  C   UNL A   1      47.707  26.946  28.102  1.00  0.00     0.037 A 
ATOM     26  C   UNL A   1      40.953  28.554  28.972  1.00  0.00     0.037 A 
ATOM     27  C   UNL A   1      47.446  28.322  28.441  1.00  0.00     0.049 A 
ATOM     28  C   UNL A   1      42.035  29.582  29.128  1.00  0.00     0.074 A 
ATOM     29  C   UNL A   1      48.351  29.358  28.607  1.00  0.00     0.029 A 
ATOM     30  N   UNL A   1      46.186  28.855  28.664  1.00  0.00    -0.354 N 
ATOM     31  N   UNL A   1      43.330  29.446  28.981  1.00  0.00    -0.248 NA
ATOM     32  C   UNL A   1      41.609  30.939  29.491  1.00  0.00     0.031 C 
ATOM     33  C   UNL A   1      47.640  30.510  28.961  1.00  0.00     0.029 A 
ATOM     34  C   UNL A   1      46.289  30.202  28.977  1.00  0.00     0.049 A 
ATOM     35  H   UNL A   1      45.342  28.352  28.607  1.00  0.00     0.167 HD
ATOM     36  C   UNL A   1      43.874  30.696  29.235  1.00  0.00     0.074 A 
ATOM     37  C   UNL A   1      42.765  31.587  29.506  1.00  0.00     0.031 C 
ATOM     38  C   UNL A   1      45.176  31.070  29.255  1.00  0.00     0.037 A 
BRANCH  25  39
ATOM     39  C   UNL A   1      49.138  26.534  27.910  1.00  0.00     0.064 A 
ATOM     40  C   UNL A   1      49.700  26.420  26.630  1.00  0.00     0.173 A 
ATOM     41  C   UNL A   1      49.975  26.325  29.017  1.00  0.00     0.173 A 
ATOM     42  F   UNL A   1      48.939  26.599  25.540  1.00  0.00    -0.203 F 
ATOM     43  C   UNL A   1      51.046  26.101  26.465  1.00  0.00     0.198 A 
ATOM     44  C   UNL A   1      51.325  26.028  28.849  1.00  0.00     0.198 A 
ATOM     45  F   UNL A   1      49.487  26.428  30.262  1.00  0.00    -0.203 F 
ATOM     46  F   UNL A   1      51.557  25.971  25.233  1.00  0.00    -0.200 F 
ATOM     47  C   UNL A   1      51.859  25.914  27.574  1.00  0.00     0.200 A 
ATOM     48  F   UNL A   1      52.112  25.858  29.920  1.00  0.00    -0.200 F 
ATOM     49  F   UNL A   1      53.157  25.621  27.413  1.00  0.00    -0.200 F 
ENDBRANCH  25  39
BRANCH  26  50
ATOM     50  C   UNL A   1      39.524  28.910  29.160  1.00  0.00     0.064 A 
ATOM     51  C   UNL A   1      38.911  28.809  30.415  1.00  0.00     0.173 A 
ATOM     52  C   UNL A   1      38.744  29.366  28.087  1.00  0.00     0.173 A 
ATOM     53  F   UNL A   1      39.611  28.360  31.468  1.00  0.00    -0.203 F 
ATOM     54  C   UNL A   1      37.567  29.132  30.587  1.00  0.00     0.198 A 
ATOM     55  C   UNL A   1      37.409  29.717  28.265  1.00  0.00     0.198 A 
ATOM     56  F   UNL A   1      39.287  29.485  26.865  1.00  0.00    -0.203 F 
ATOM     57  F   UNL A   1      36.993  28.983  31.788  1.00  0.00    -0.200 F 
ATOM     58  C   UNL A   1      36.819  29.591  29.513  1.00  0.00     0.200 A 
ATOM     59  F   UNL A   1      36.695  30.176  27.229  1.00  0.00    -0.200 F 
ATOM     60  F   UNL A   1      35.528  29.908  29.680  1.00  0.00    -0.200 F 
ENDBRANCH  26  50
BRANCH  38  61
ATOM     61  C   UNL A   1      45.460  32.505  29.582  1.00  0.00     0.064 A 
ATOM     62  C   UNL A   1      45.501  33.485  28.578  1.00  0.00     0.173 A 
ATOM     63  C   UNL A   1      45.692  32.905  30.905  1.00  0.00     0.173 A 
ATOM     64  F   UNL A   1      45.304  33.146  27.295  1.00  0.00    -0.203 F 
ATOM     65  C   UNL A   1      45.794  34.810  28.886  1.00  0.00     0.198 A 
ATOM     66  C   UNL A   1      45.958  34.237  31.212  1.00  0.00     0.198 A 
ATOM     67  F   UNL A   1      45.659  32.006  31.899  1.00  0.00    -0.203 F 
ATOM     68  F   UNL A   1      45.879  35.721  27.906  1.00  0.00    -0.200 F 
ATOM     69  C   UNL A   1      46.018  35.186  30.203  1.00  0.00     0.200 A 
ATOM     70  F   UNL A   1      46.168  34.600  32.485  1.00  0.00    -0.200 F 
ATOM     71  F   UNL A   1      46.304  36.462  30.497  1.00  0.00    -0.200 F 
ENDBRANCH  38  61
ENDBRANCH  12  13
ENDBRANCH   5   7
ENDBRANCH   2   3
ENDBRANCH   1   2
BRANCH   1  72
ATOM     72  C   UNL A   1      37.653  20.886  24.728  1.00  0.00     0.118 C 
BRANCH  72  73
ATOM     73  N   UNL A   1      38.339  22.021  25.325  1.00  0.00    -0.352 N 
ATOM     74  C   UNL A   1      37.900  23.281  25.643  1.00  0.00     0.251 C 
ATOM     75  H   UNL A   1      39.286  21.856  25.537  1.00  0.00     0.163 HD
ATOM     76  O   UNL A   1      38.724  24.132  25.969  1.00  0.00    -0.269 OA
BRANCH  74  77
ATOM     77  C   UNL A   1      36.466  23.647  25.578  1.00  0.00     0.039 A 
ATOM     78  C   UNL A   1      35.676  23.435  26.707  1.00  0.00     0.016 A 
ATOM     79  C   UNL A   1      35.868  24.135  24.419  1.00  0.00     0.016 A 
ATOM     80  C   UNL A   1      34.319  23.784  26.697  1.00  0.00     0.027 A 
ATOM     81  C   UNL A   1      34.517  24.513  24.426  1.00  0.00     0.027 A 
ATOM     82  C   UNL A   1      33.710  24.349  25.564  1.00  0.00     0.051 A 
BRANCH  82  83
ATOM     83  N   UNL A   1      32.355  24.835  25.594  1.00  0.00    -0.261 N 
ATOM     84  C   UNL A   1      32.101  26.207  25.643  1.00  0.00     0.270 C 
ATOM     85  C   UNL A   1      31.208  24.049  25.606  1.00  0.00     0.152 C 
ATOM     86  O   UNL A   1      32.791  27.090  26.131  1.00  0.00    -0.268 OA
ATOM     87  C   UNL A   1      30.728  26.470  25.130  1.00  0.00     0.081 C 
ATOM     88  S   UNL A   1      29.768  25.077  25.460  1.00  0.00    -0.054 SA
ATOM     89  S   UNL A   1      31.014  22.399  25.824  1.00  0.00    -0.051 S 
ATOM     90  C   UNL A   1      30.284  27.458  24.337  1.00  0.00     0.028 C 
BRANCH  90  91
ATOM     91  C   UNL A   1      31.038  28.480  23.597  1.00  0.00    -0.009 C 
ATOM     92  C   UNL A   1      30.727  28.910  22.358  1.00  0.00     0.019 C 
ATOM     93  C   UNL A   1      31.443  29.630  24.517  1.00  0.00     0.265 C 
ATOM     94  C   UNL A   1      29.746  30.035  22.422  1.00  0.00     0.017 A 
ATOM     95  O   UNL A   1      30.311  30.494  24.758  1.00  0.00    -0.488 OA
ATOM     96  C   UNL A   1      28.946  30.332  21.317  1.00  0.00     0.012 A 
ATOM     97  C   UNL A   1      29.551  30.730  23.631  1.00  0.00     0.127 A 
ATOM     98  C   UNL A   1      27.921  31.271  21.434  1.00  0.00     0.001 A 
ATOM     99  C   UNL A   1      28.516  31.653  23.750  1.00  0.00     0.047 A 
ATOM    100  C   UNL A   1      27.695  31.917  22.652  1.00  0.00     0.004 A 
ENDBRANCH  90  91
ENDBRANCH  82  83
ENDBRANCH  74  77
ENDBRANCH  72  73
ENDBRANCH   1  72
TORSDOF 12
ENDMDL
MODEL 3
REMARK VINA RESULT:     -12.9      5.384     11.249
REMARK SMILES O=C(NCCCNC(=O)c1ccc(N2C(=O)/C(=C\C3=Cc4ccccc4OC3)SC2=S)cc1)c1ccc(-c2c3nc(c(-c4c(F)c(F)c(F)c(F)c4F)c4ccc([nH]4)c(-c4c(F)c(F)c(F)c(F)c4F)c4nc(c(-c5c(F)c(F)c(F)c(F)c5F)c5ccc2[nH]5)C=C4)C=C3)cc1
REMARK SMILES IDX 5 1 4 2 3 3 1 4 2 5 34 7 35 8 96 9 36 10 95 11 37 12 38 13
REMARK SMILES IDX 39 14 89 15 40 16 94 17 88 18 90 19 41 20 93 21 87 22 86 23
REMARK SMILES IDX 42 25 74 26 54 27 73 28 55 29 58 30 72 31 91 32 56 33 57 34
REMARK SMILES IDX 71 36 92 37 59 38 43 39 44 40 52 41 45 42 46 43 50 44 53 45
REMARK SMILES IDX 47 46 48 47 51 48 49 49 75 50 76 51 84 52 77 53 78 54 82 55
REMARK SMILES IDX 85 56 79 57 80 58 83 59 81 60 60 61 61 62 69 63 62 64 63 65
REMARK SMILES IDX 67 66 70 67 64 68 65 69 68 70 66 71 6 72 7 73 8 74 9 76
REMARK SMILES IDX 10 77 11 78 33 79 12 80 32 81 13 82 14 83 15 84 30 85 16 86
REMARK SMILES IDX 17 87 29 88 31 89 18 90 19 91 20 92 28 93 21 94 27 95 22 96
REMARK SMILES IDX 26 97 23 98 25 99 24 100
REMARK H PARENT 3 6 90 24 58 35 7 75
REMARK Flexibility Score: inf
ROOT
ATOM      1  C   UNL A   1      34.461  32.666  30.125  1.00  0.00     0.042 C 
ENDROOT
BRANCH   1   2
ATOM      2  C   UNL A   1      34.466  32.510  28.611  1.00  0.00     0.118 C 
BRANCH   2   3
ATOM      3  N   UNL A   1      33.895  31.249  28.156  1.00  0.00    -0.352 N 
ATOM      4  O   UNL A   1      33.827  29.134  27.394  1.00  0.00    -0.269 OA
ATOM      5  C   UNL A   1      34.490  30.035  27.903  1.00  0.00     0.251 C 
ATOM      6  H   UNL A   1      32.922  31.269  28.007  1.00  0.00     0.163 HD
BRANCH   5   7
ATOM      7  C   UNL A   1      35.920  29.804  28.209  1.00  0.00     0.039 A 
ATOM      8  C   UNL A   1      36.916  30.077  27.272  1.00  0.00     0.014 A 
ATOM      9  C   UNL A   1      36.278  29.344  29.483  1.00  0.00     0.014 A 
ATOM     10  C   UNL A   1      38.238  29.738  27.543  1.00  0.00     0.010 A 
ATOM     11  C   UNL A   1      37.622  29.095  29.789  1.00  0.00     0.010 A 
ATOM     12  C   UNL A   1      38.611  29.258  28.810  1.00  0.00    -0.014 A 
BRANCH  12  13
ATOM     13  C   UNL A   1      40.049  29.001  29.083  1.00  0.00     0.031 A 
ATOM     14  C   UNL A   1      40.736  27.762  28.579  1.00  0.00     0.074 A 
ATOM     15  C   UNL A   1      40.754  29.941  29.743  1.00  0.00     0.049 A 
ATOM     16  N   UNL A   1      42.003  27.434  28.658  1.00  0.00    -0.248 NA
ATOM     17  C   UNL A   1      39.901  26.756  27.907  1.00  0.00     0.031 C 
ATOM     18  C   UNL A   1      40.190  31.171  30.307  1.00  0.00     0.029 A 
ATOM     19  N   UNL A   1      42.093  30.031  30.024  1.00  0.00    -0.354 N 
ATOM     20  C   UNL A   1      42.114  26.187  28.056  1.00  0.00     0.074 A 
ATOM     21  C   UNL A   1      40.782  25.801  27.642  1.00  0.00     0.031 C 
ATOM     22  C   UNL A   1      41.182  31.920  30.808  1.00  0.00     0.029 A 
ATOM     23  C   UNL A   1      42.443  31.202  30.651  1.00  0.00     0.049 A 
ATOM     24  H   UNL A   1      42.741  29.326  29.798  1.00  0.00     0.167 HD
ATOM     25  C   UNL A   1      43.228  25.442  27.858  1.00  0.00     0.037 A 
ATOM     26  C   UNL A   1      43.644  31.651  31.058  1.00  0.00     0.037 A 
ATOM     27  C   UNL A   1      44.555  25.834  28.259  1.00  0.00     0.049 A 
ATOM     28  C   UNL A   1      44.860  30.806  30.813  1.00  0.00     0.074 A 
ATOM     29  C   UNL A   1      45.748  25.150  28.086  1.00  0.00     0.029 A 
ATOM     30  N   UNL A   1      44.866  27.018  28.911  1.00  0.00    -0.354 N 
ATOM     31  N   UNL A   1      44.951  29.643  30.217  1.00  0.00    -0.248 NA
ATOM     32  C   UNL A   1      46.141  31.338  31.295  1.00  0.00     0.031 C 
ATOM     33  C   UNL A   1      46.775  25.906  28.661  1.00  0.00     0.029 A 
ATOM     34  C   UNL A   1      46.229  27.079  29.158  1.00  0.00     0.049 A 
ATOM     35  H   UNL A   1      44.215  27.713  29.160  1.00  0.00     0.167 HD
ATOM     36  C   UNL A   1      46.294  29.302  30.253  1.00  0.00     0.074 A 
ATOM     37  C   UNL A   1      46.987  30.400  30.895  1.00  0.00     0.031 C 
ATOM     38  C   UNL A   1      46.899  28.175  29.808  1.00  0.00     0.037 A 
BRANCH  25  39
ATOM     39  C   UNL A   1      43.069  24.115  27.174  1.00  0.00     0.064 A 
ATOM     40  C   UNL A   1      43.371  23.954  25.813  1.00  0.00     0.173 A 
ATOM     41  C   UNL A   1      42.684  22.979  27.901  1.00  0.00     0.173 A 
ATOM     42  F   UNL A   1      43.733  25.012  25.072  1.00  0.00    -0.203 F 
ATOM     43  C   UNL A   1      43.283  22.705  25.204  1.00  0.00     0.198 A 
ATOM     44  C   UNL A   1      42.618  21.728  27.294  1.00  0.00     0.198 A 
ATOM     45  F   UNL A   1      42.391  23.079  29.206  1.00  0.00    -0.203 F 
ATOM     46  F   UNL A   1      43.552  22.577  23.897  1.00  0.00    -0.200 F 
ATOM     47  C   UNL A   1      42.916  21.591  25.946  1.00  0.00     0.200 A 
ATOM     48  F   UNL A   1      42.274  20.651  28.014  1.00  0.00    -0.200 F 
ATOM     49  F   UNL A   1      42.845  20.387  25.361  1.00  0.00    -0.200 F 
ENDBRANCH  25  39
BRANCH  26  50
ATOM     50  C   UNL A   1      43.749  32.966  31.739  1.00  0.00     0.064 A 
ATOM     51  C   UNL A   1      43.825  34.157  31.006  1.00  0.00     0.173 A 
ATOM     52  C   UNL A   1      43.770  33.057  33.138  1.00  0.00     0.173 A 
ATOM     53  F   UNL A   1      43.827  34.120  29.665  1.00  0.00    -0.203 F 
ATOM     54  C   UNL A   1      43.936  35.390  31.646  1.00  0.00     0.198 A 
ATOM     55  C   UNL A   1      43.851  34.291  33.778  1.00  0.00     0.198 A 
ATOM     56  F   UNL A   1      43.695  31.945  33.885  1.00  0.00    -0.203 F 
ATOM     57  F   UNL A   1      44.051  36.510  30.922  1.00  0.00    -0.200 F 
ATOM     58  C   UNL A   1      43.943  35.456  33.032  1.00  0.00     0.200 A 
ATOM     59  F   UNL A   1      43.841  34.352  35.117  1.00  0.00    -0.200 F 
ATOM     60  F   UNL A   1      44.044  36.641  33.647  1.00  0.00    -0.200 F 
ENDBRANCH  26  50
BRANCH  38  61
ATOM     61  C   UNL A   1      48.382  28.082  30.003  1.00  0.00     0.064 A 
ATOM     62  C   UNL A   1      48.930  27.620  31.209  1.00  0.00     0.173 A 
ATOM     63  C   UNL A   1      49.263  28.455  28.978  1.00  0.00     0.173 A 
ATOM     64  F   UNL A   1      48.127  27.270  32.225  1.00  0.00    -0.203 F 
ATOM     65  C   UNL A   1      50.309  27.564  31.392  1.00  0.00     0.198 A 
ATOM     66  C   UNL A   1      50.641  28.372  29.155  1.00  0.00     0.198 A 
ATOM     67  F   UNL A   1      48.787  28.898  27.805  1.00  0.00    -0.203 F 
ATOM     68  F   UNL A   1      50.811  27.169  32.570  1.00  0.00    -0.200 F 
ATOM     69  C   UNL A   1      51.163  27.936  30.363  1.00  0.00     0.200 A 
ATOM     70  F   UNL A   1      51.466  28.725  28.159  1.00  0.00    -0.200 F 
ATOM     71  F   UNL A   1      52.490  27.885  30.543  1.00  0.00    -0.200 F 
ENDBRANCH  38  61
ENDBRANCH  12  13
ENDBRANCH   5   7
ENDBRANCH   2   3
ENDBRANCH   1   2
BRANCH   1  72
ATOM     72  C   UNL A   1      35.678  33.376  30.703  1.00  0.00     0.118 C 
BRANCH  72  73
ATOM     73  N   UNL A   1      35.329  34.577  31.445  1.00  0.00    -0.352 N 
ATOM     74  C   UNL A   1      35.737  35.035  32.672  1.00  0.00     0.251 C 
ATOM     75  H   UNL A   1      34.684  35.163  30.987  1.00  0.00     0.163 HD
ATOM     76  O   UNL A   1      35.153  35.993  33.172  1.00  0.00    -0.269 OA
BRANCH  74  77
ATOM     77  C   UNL A   1      36.844  34.391  33.416  1.00  0.00     0.039 A 
ATOM     78  C   UNL A   1      36.567  33.832  34.663  1.00  0.00     0.016 A 
ATOM     79  C   UNL A   1      38.155  34.378  32.947  1.00  0.00     0.016 A 
ATOM     80  C   UNL A   1      37.579  33.195  35.394  1.00  0.00     0.027 A 
ATOM     81  C   UNL A   1      39.156  33.710  33.668  1.00  0.00     0.027 A 
ATOM     82  C   UNL A   1      38.894  33.101  34.908  1.00  0.00     0.051 A 
BRANCH  82  83
ATOM     83  N   UNL A   1      39.902  32.331  35.589  1.00  0.00    -0.261 N 
ATOM     84  C   UNL A   1      39.938  30.942  35.451  1.00  0.00     0.270 C 
ATOM     85  C   UNL A   1      40.881  32.839  36.435  1.00  0.00     0.152 C 
ATOM     86  O   UNL A   1      39.010  30.176  35.236  1.00  0.00    -0.268 OA
ATOM     87  C   UNL A   1      41.309  30.455  35.767  1.00  0.00     0.081 C 
ATOM     88  S   UNL A   1      42.008  31.549  36.899  1.00  0.00    -0.054 SA
ATOM     89  S   UNL A   1      41.066  34.365  37.103  1.00  0.00    -0.051 S 
ATOM     90  C   UNL A   1      42.041  29.504  35.163  1.00  0.00     0.028 C 
BRANCH  90  91
ATOM     91  C   UNL A   1      41.788  28.776  33.912  1.00  0.00    -0.009 C 
ATOM     92  C   UNL A   1      42.723  28.522  32.974  1.00  0.00     0.019 C 
ATOM     93  C   UNL A   1      40.881  27.572  34.156  1.00  0.00     0.265 C 
ATOM     94  C   UNL A   1      43.442  27.249  33.280  1.00  0.00     0.017 A 
ATOM     95  O   UNL A   1      41.637  26.494  34.750  1.00  0.00    -0.488 OA
ATOM     96  C   UNL A   1      44.710  27.015  32.746  1.00  0.00     0.012 A 
ATOM     97  C   UNL A   1      42.888  26.329  34.192  1.00  0.00     0.127 A 
ATOM     98  C   UNL A   1      45.445  25.904  33.163  1.00  0.00     0.001 A 
ATOM     99  C   UNL A   1      43.631  25.233  34.620  1.00  0.00     0.047 A 
ATOM    100  C   UNL A   1      44.915  25.026  34.111  1.00  0.00     0.004 A 
ENDBRANCH  90  91
ENDBRANCH  82  83
ENDBRANCH  74  77
ENDBRANCH  72  73
ENDBRANCH   1  72
TORSDOF 12
ENDMDL
