MODEL 1
REMARK VINA RESULT:     -12.0      0.000      0.000
REMARK SMILES C[C@@H](C(=O)NCCCNC(=O)c1ccc(-c2c3nc(c(-c4c(F)c(F)c(F)c(F)c4F)c4ccc([nH]4)c(-c4c(F)c(F)c(F)c(F)c4F)c4nc(c(-c5c(F)c(F)c(F)c(F)c5F)c5ccc2[nH]5)C=C4)C=C3)cc1)c1ccc(O[C@H]2CCCC2=O)cc1F
REMARK SMILES IDX 6 1 5 2 3 3 4 4 2 6 1 7 75 8 76 9 87 10 77 11 86 12 88 13
REMARK SMILES IDX 78 14 79 15 80 16 81 17 84 18 82 19 83 20 85 21 7 22 8 23
REMARK SMILES IDX 9 24 10 25 11 27 12 28 13 29 74 30 14 31 73 32 15 33 16 34
REMARK SMILES IDX 17 35 67 36 18 37 72 38 66 39 68 40 19 41 71 42 65 43 64 44
REMARK SMILES IDX 20 46 52 47 32 48 51 49 33 50 36 51 50 52 69 53 34 54 35 55
REMARK SMILES IDX 49 57 70 58 37 59 21 60 22 61 30 62 23 63 24 64 28 65 31 66
REMARK SMILES IDX 25 67 26 68 29 69 27 70 53 71 54 72 62 73 55 74 56 75 60 76
REMARK SMILES IDX 63 77 57 78 58 79 61 80 59 81 38 82 39 83 47 84 40 85 41 86
REMARK SMILES IDX 45 87 48 88 42 89 43 90 46 91 44 92
REMARK H PARENT 5 5 9 26 68 45 36 56
REMARK Flexibility Score: inf
ROOT
ATOM      1  C   UNL A   1      31.379  30.873  25.931  1.00  0.00     0.117 C 
ENDROOT
BRANCH   1   2
ATOM      2  N   UNL A   1      32.716  30.339  26.094  1.00  0.00    -0.356 N 
ATOM      3  C   UNL A   1      33.170  29.052  26.091  1.00  0.00     0.227 C 
ATOM      4  O   UNL A   1      34.388  28.905  26.214  1.00  0.00    -0.274 OA
ATOM      5  H   UNL A   1      33.415  31.019  26.230  1.00  0.00     0.163 HD
BRANCH   3   6
ATOM      6  C   UNL A   1      32.194  27.880  25.879  1.00  0.00     0.108 C 
ATOM      7  C   UNL A   1      31.381  27.543  27.134  1.00  0.00     0.023 C 
BRANCH   6   8
ATOM      8  C   UNL A   1      32.907  26.630  25.379  1.00  0.00     0.000 A 
ATOM      9  C   UNL A   1      33.183  25.566  26.244  1.00  0.00     0.011 A 
ATOM     10  C   UNL A   1      33.318  26.513  24.047  1.00  0.00     0.130 A 
ATOM     11  C   UNL A   1      33.860  24.435  25.774  1.00  0.00     0.047 A 
ATOM     12  C   UNL A   1      33.994  25.387  23.578  1.00  0.00     0.086 A 
ATOM     13  F   UNL A   1      33.083  27.510  23.182  1.00  0.00    -0.207 F 
ATOM     14  C   UNL A   1      34.269  24.335  24.439  1.00  0.00     0.123 A 
BRANCH  14  15
ATOM     15  O   UNL A   1      34.923  23.179  24.143  1.00  0.00    -0.483 OA
BRANCH  15  16
ATOM     16  C   UNL A   1      35.751  22.523  25.074  1.00  0.00     0.239 C 
ATOM     17  C   UNL A   1      35.770  20.995  24.922  1.00  0.00     0.054 C 
ATOM     18  C   UNL A   1      37.216  22.879  25.320  1.00  0.00     0.173 C 
ATOM     19  C   UNL A   1      37.235  20.580  24.809  1.00  0.00     0.012 C 
ATOM     20  C   UNL A   1      38.050  21.645  25.527  1.00  0.00     0.080 C 
ATOM     21  O   UNL A   1      37.662  24.017  25.389  1.00  0.00    -0.296 OA
ENDBRANCH  15  16
ENDBRANCH  14  15
ENDBRANCH   6   8
ENDBRANCH   3   6
ENDBRANCH   1   2
BRANCH   1  22
ATOM     22  C   UNL A   1      31.258  32.298  26.467  1.00  0.00     0.042 C 
BRANCH  22  23
ATOM     23  C   UNL A   1      32.497  32.813  27.200  1.00  0.00     0.118 C 
BRANCH  23  24
ATOM     24  N   UNL A   1      32.364  34.194  27.634  1.00  0.00    -0.352 N 
ATOM     25  C   UNL A   1      33.028  34.894  28.608  1.00  0.00     0.251 C 
ATOM     26  H   UNL A   1      31.683  34.714  27.147  1.00  0.00     0.163 HD
ATOM     27  O   UNL A   1      32.631  36.019  28.911  1.00  0.00    -0.269 OA
BRANCH  25  28
ATOM     28  C   UNL A   1      34.195  34.322  29.317  1.00  0.00     0.039 A 
ATOM     29  C   UNL A   1      33.966  33.618  30.505  1.00  0.00     0.014 A 
ATOM     30  C   UNL A   1      35.505  34.519  28.872  1.00  0.00     0.014 A 
ATOM     31  C   UNL A   1      35.038  33.066  31.211  1.00  0.00     0.010 A 
ATOM     32  C   UNL A   1      36.571  33.917  29.546  1.00  0.00     0.010 A 
ATOM     33  C   UNL A   1      36.347  33.185  30.721  1.00  0.00    -0.014 A 
BRANCH  33  34
ATOM     34  C   UNL A   1      37.481  32.528  31.424  1.00  0.00     0.031 A 
ATOM     35  C   UNL A   1      38.202  31.366  30.801  1.00  0.00     0.074 A 
ATOM     36  C   UNL A   1      37.835  32.960  32.649  1.00  0.00     0.049 A 
ATOM     37  N   UNL A   1      39.192  30.654  31.281  1.00  0.00    -0.248 NA
ATOM     38  C   UNL A   1      37.741  30.934  29.473  1.00  0.00     0.031 C 
ATOM     39  C   UNL A   1      37.183  34.046  33.383  1.00  0.00     0.029 A 
ATOM     40  N   UNL A   1      38.826  32.532  33.498  1.00  0.00    -0.354 N 
ATOM     41  C   UNL A   1      39.465  29.689  30.320  1.00  0.00     0.074 A 
ATOM     42  C   UNL A   1      38.511  29.878  29.248  1.00  0.00     0.031 C 
ATOM     43  C   UNL A   1      37.799  34.209  34.564  1.00  0.00     0.029 A 
ATOM     44  C   UNL A   1      38.872  33.226  34.682  1.00  0.00     0.049 A 
ATOM     45  H   UNL A   1      39.444  31.798  33.278  1.00  0.00     0.167 HD
ATOM     46  C   UNL A   1      40.437  28.745  30.323  1.00  0.00     0.037 A 
ATOM     47  C   UNL A   1      39.685  33.084  35.746  1.00  0.00     0.037 A 
ATOM     48  C   UNL A   1      41.401  28.567  31.379  1.00  0.00     0.049 A 
ATOM     49  C   UNL A   1      40.765  32.038  35.714  1.00  0.00     0.074 A 
ATOM     50  C   UNL A   1      42.451  27.667  31.449  1.00  0.00     0.029 A 
ATOM     51  N   UNL A   1      41.432  29.307  32.551  1.00  0.00    -0.354 N 
ATOM     52  N   UNL A   1      41.049  31.171  34.775  1.00  0.00    -0.248 NA
ATOM     53  C   UNL A   1      41.644  31.961  36.890  1.00  0.00     0.031 C 
ATOM     54  C   UNL A   1      43.099  27.841  32.677  1.00  0.00     0.029 A 
ATOM     55  C   UNL A   1      42.475  28.875  33.356  1.00  0.00     0.049 A 
ATOM     56  H   UNL A   1      40.806  30.032  32.779  1.00  0.00     0.167 HD
ATOM     57  C   UNL A   1      42.145  30.457  35.236  1.00  0.00     0.074 A 
ATOM     58  C   UNL A   1      42.491  31.007  36.529  1.00  0.00     0.031 C 
ATOM     59  C   UNL A   1      42.805  29.432  34.642  1.00  0.00     0.037 A 
BRANCH  46  60
ATOM     60  C   UNL A   1      40.519  27.832  29.136  1.00  0.00     0.064 A 
ATOM     61  C   UNL A   1      39.743  26.666  29.057  1.00  0.00     0.173 A 
ATOM     62  C   UNL A   1      41.341  28.150  28.044  1.00  0.00     0.173 A 
ATOM     63  F   UNL A   1      38.949  26.314  30.079  1.00  0.00    -0.203 F 
ATOM     64  C   UNL A   1      39.801  25.842  27.936  1.00  0.00     0.198 A 
ATOM     65  C   UNL A   1      41.378  27.337  26.915  1.00  0.00     0.198 A 
ATOM     66  F   UNL A   1      42.099  29.257  28.067  1.00  0.00    -0.203 F 
ATOM     67  F   UNL A   1      39.077  24.715  27.897  1.00  0.00    -0.200 F 
ATOM     68  C   UNL A   1      40.612  26.181  26.863  1.00  0.00     0.200 A 
ATOM     69  F   UNL A   1      42.154  27.671  25.874  1.00  0.00    -0.200 F 
ATOM     70  F   UNL A   1      40.659  25.391  25.781  1.00  0.00    -0.200 F 
ENDBRANCH  46  60
BRANCH  47  71
ATOM     71  C   UNL A   1      39.521  33.971  36.925  1.00  0.00     0.064 A 
ATOM     72  C   UNL A   1      40.126  35.235  36.963  1.00  0.00     0.173 A 
ATOM     73  C   UNL A   1      38.762  33.573  38.034  1.00  0.00     0.173 A 
ATOM     74  F   UNL A   1      40.878  35.648  35.933  1.00  0.00    -0.203 F 
ATOM     75  C   UNL A   1      39.994  36.061  38.078  1.00  0.00     0.198 A 
ATOM     76  C   UNL A   1      38.609  34.410  39.137  1.00  0.00     0.198 A 
ATOM     77  F   UNL A   1      38.160  32.375  38.042  1.00  0.00    -0.203 F 
ATOM     78  F   UNL A   1      40.616  37.247  38.107  1.00  0.00    -0.200 F 
ATOM     79  C   UNL A   1      39.231  35.650  39.161  1.00  0.00     0.200 A 
ATOM     80  F   UNL A   1      37.863  34.015  40.178  1.00  0.00    -0.200 F 
ATOM     81  F   UNL A   1      39.103  36.445  40.231  1.00  0.00    -0.200 F 
ENDBRANCH  47  71
BRANCH  59  82
ATOM     82  C   UNL A   1      43.973  28.854  35.381  1.00  0.00     0.064 A 
ATOM     83  C   UNL A   1      43.809  27.817  36.313  1.00  0.00     0.173 A 
ATOM     84  C   UNL A   1      45.272  29.325  35.144  1.00  0.00     0.173 A 
ATOM     85  F   UNL A   1      42.583  27.344  36.587  1.00  0.00    -0.203 F 
ATOM     86  C   UNL A   1      44.901  27.293  37.000  1.00  0.00     0.198 A 
ATOM     87  C   UNL A   1      46.365  28.782  35.813  1.00  0.00     0.198 A 
ATOM     88  F   UNL A   1      45.481  30.312  34.260  1.00  0.00    -0.203 F 
ATOM     89  F   UNL A   1      44.716  26.336  37.919  1.00  0.00    -0.200 F 
ATOM     90  C   UNL A   1      46.177  27.771  36.746  1.00  0.00     0.200 A 
ATOM     91  F   UNL A   1      47.598  29.240  35.562  1.00  0.00    -0.200 F 
ATOM     92  F   UNL A   1      47.227  27.266  37.408  1.00  0.00    -0.200 F 
ENDBRANCH  59  82
ENDBRANCH  33  34
ENDBRANCH  25  28
ENDBRANCH  23  24
ENDBRANCH  22  23
ENDBRANCH   1  22
TORSDOF 13
ENDMDL
MODEL 2
REMARK VINA RESULT:     -11.9      3.950      9.069
REMARK SMILES C[C@@H](C(=O)NCCCNC(=O)c1ccc(-c2c3nc(c(-c4c(F)c(F)c(F)c(F)c4F)c4ccc([nH]4)c(-c4c(F)c(F)c(F)c(F)c4F)c4nc(c(-c5c(F)c(F)c(F)c(F)c5F)c5ccc2[nH]5)C=C4)C=C3)cc1)c1ccc(O[C@H]2CCCC2=O)cc1F
REMARK SMILES IDX 6 1 5 2 3 3 4 4 2 6 1 7 75 8 76 9 87 10 77 11 86 12 88 13
REMARK SMILES IDX 78 14 79 15 80 16 81 17 84 18 82 19 83 20 85 21 7 22 8 23
REMARK SMILES IDX 9 24 10 25 11 27 12 28 13 29 74 30 14 31 73 32 15 33 16 34
REMARK SMILES IDX 17 35 67 36 18 37 72 38 66 39 68 40 19 41 71 42 65 43 64 44
REMARK SMILES IDX 20 46 52 47 32 48 51 49 33 50 36 51 50 52 69 53 34 54 35 55
REMARK SMILES IDX 49 57 70 58 37 59 21 60 22 61 30 62 23 63 24 64 28 65 31 66
REMARK SMILES IDX 25 67 26 68 29 69 27 70 53 71 54 72 62 73 55 74 56 75 60 76
REMARK SMILES IDX 63 77 57 78 58 79 61 80 59 81 38 82 39 83 47 84 40 85 41 86
REMARK SMILES IDX 45 87 48 88 42 89 43 90 46 91 44 92
REMARK H PARENT 5 5 9 26 68 45 36 56
REMARK Flexibility Score: inf
ROOT
ATOM      1  C   UNL A   1      31.579  27.488  25.928  1.00  0.00     0.117 C 
ENDROOT
BRANCH   1   2
ATOM      2  N   UNL A   1      31.371  26.263  26.672  1.00  0.00    -0.356 N 
ATOM      3  C   UNL A   1      31.456  24.957  26.282  1.00  0.00     0.227 C 
ATOM      4  O   UNL A   1      31.261  24.115  27.162  1.00  0.00    -0.274 OA
ATOM      5  H   UNL A   1      31.125  26.393  27.616  1.00  0.00     0.163 HD
BRANCH   3   6
ATOM      6  C   UNL A   1      31.840  24.596  24.836  1.00  0.00     0.108 C 
ATOM      7  C   UNL A   1      30.640  24.586  23.883  1.00  0.00     0.023 C 
BRANCH   6   8
ATOM      8  C   UNL A   1      32.568  23.260  24.757  1.00  0.00     0.000 A 
ATOM      9  C   UNL A   1      31.934  22.126  24.238  1.00  0.00     0.011 A 
ATOM     10  C   UNL A   1      33.884  23.123  25.211  1.00  0.00     0.130 A 
ATOM     11  C   UNL A   1      32.609  20.901  24.196  1.00  0.00     0.047 A 
ATOM     12  C   UNL A   1      34.557  21.903  25.170  1.00  0.00     0.086 A 
ATOM     13  F   UNL A   1      34.530  24.181  25.724  1.00  0.00    -0.207 F 
ATOM     14  C   UNL A   1      33.925  20.780  24.659  1.00  0.00     0.123 A 
BRANCH  14  15
ATOM     15  O   UNL A   1      34.436  19.522  24.558  1.00  0.00    -0.483 OA
BRANCH  15  16
ATOM     16  C   UNL A   1      33.627  18.401  24.295  1.00  0.00     0.239 C 
ATOM     17  C   UNL A   1      34.297  17.345  23.403  1.00  0.00     0.054 C 
ATOM     18  C   UNL A   1      32.933  17.571  25.374  1.00  0.00     0.173 C 
ATOM     19  C   UNL A   1      34.199  16.013  24.142  1.00  0.00     0.012 C 
ATOM     20  C   UNL A   1      32.981  16.104  25.050  1.00  0.00     0.080 C 
ATOM     21  O   UNL A   1      32.365  18.029  26.358  1.00  0.00    -0.296 OA
ENDBRANCH  15  16
ENDBRANCH  14  15
ENDBRANCH   6   8
ENDBRANCH   3   6
ENDBRANCH   1   2
BRANCH   1  22
ATOM     22  C   UNL A   1      33.057  27.864  25.838  1.00  0.00     0.042 C 
BRANCH  22  23
ATOM     23  C   UNL A   1      33.702  28.242  27.171  1.00  0.00     0.118 C 
BRANCH  23  24
ATOM     24  N   UNL A   1      33.610  29.665  27.460  1.00  0.00    -0.352 N 
ATOM     25  C   UNL A   1      34.506  30.517  28.052  1.00  0.00     0.251 C 
ATOM     26  H   UNL A   1      32.764  30.086  27.184  1.00  0.00     0.163 HD
ATOM     27  O   UNL A   1      34.144  31.657  28.341  1.00  0.00    -0.269 OA
BRANCH  25  28
ATOM     28  C   UNL A   1      35.888  30.093  28.371  1.00  0.00     0.039 A 
ATOM     29  C   UNL A   1      36.857  30.189  27.366  1.00  0.00     0.014 A 
ATOM     30  C   UNL A   1      36.231  29.547  29.611  1.00  0.00     0.014 A 
ATOM     31  C   UNL A   1      38.174  29.795  27.620  1.00  0.00     0.010 A 
ATOM     32  C   UNL A   1      37.559  29.209  29.885  1.00  0.00     0.010 A 
ATOM     33  C   UNL A   1      38.542  29.330  28.892  1.00  0.00    -0.014 A 
BRANCH  33  34
ATOM     34  C   UNL A   1      39.957  28.989  29.192  1.00  0.00     0.031 A 
ATOM     35  C   UNL A   1      40.829  29.937  29.966  1.00  0.00     0.074 A 
ATOM     36  C   UNL A   1      40.469  27.832  28.728  1.00  0.00     0.049 A 
ATOM     37  N   UNL A   1      42.093  29.818  30.295  1.00  0.00    -0.248 NA
ATOM     38  C   UNL A   1      40.208  31.191  30.416  1.00  0.00     0.031 C 
ATOM     39  C   UNL A   1      39.742  26.850  27.923  1.00  0.00     0.029 A 
ATOM     40  N   UNL A   1      41.724  27.291  28.860  1.00  0.00    -0.354 N 
ATOM     41  C   UNL A   1      42.417  30.981  30.980  1.00  0.00     0.074 A 
ATOM     42  C   UNL A   1      41.232  31.812  30.986  1.00  0.00     0.031 C 
ATOM     43  C   UNL A   1      40.556  25.820  27.645  1.00  0.00     0.029 A 
ATOM     44  C   UNL A   1      41.868  26.079  28.230  1.00  0.00     0.049 A 
ATOM     45  H   UNL A   1      42.450  27.729  29.359  1.00  0.00     0.167 HD
ATOM     46  C   UNL A   1      43.590  31.315  31.570  1.00  0.00     0.037 A 
ATOM     47  C   UNL A   1      42.939  25.269  28.131  1.00  0.00     0.037 A 
ATOM     48  C   UNL A   1      44.765  30.480  31.584  1.00  0.00     0.049 A 
ATOM     49  C   UNL A   1      44.224  25.658  28.809  1.00  0.00     0.074 A 
ATOM     50  C   UNL A   1      45.985  30.715  32.195  1.00  0.00     0.029 A 
ATOM     51  N   UNL A   1      44.864  29.247  30.957  1.00  0.00    -0.354 N 
ATOM     52  N   UNL A   1      44.499  26.734  29.503  1.00  0.00    -0.248 NA
ATOM     53  C   UNL A   1      45.343  24.712  28.696  1.00  0.00     0.031 C 
ATOM     54  C   UNL A   1      46.833  29.639  31.912  1.00  0.00     0.029 A 
ATOM     55  C   UNL A   1      46.129  28.716  31.156  1.00  0.00     0.049 A 
ATOM     56  H   UNL A   1      44.143  28.814  30.446  1.00  0.00     0.167 HD
ATOM     57  C   UNL A   1      45.813  26.589  29.923  1.00  0.00     0.074 A 
ATOM     58  C   UNL A   1      46.274  25.310  29.426  1.00  0.00     0.031 C 
ATOM     59  C   UNL A   1      46.573  27.443  30.653  1.00  0.00     0.037 A 
BRANCH  46  60
ATOM     60  C   UNL A   1      43.662  32.641  32.267  1.00  0.00     0.064 A 
ATOM     61  C   UNL A   1      44.024  33.808  31.577  1.00  0.00     0.173 A 
ATOM     62  C   UNL A   1      43.317  32.758  33.621  1.00  0.00     0.173 A 
ATOM     63  F   UNL A   1      44.372  33.747  30.284  1.00  0.00    -0.203 F 
ATOM     64  C   UNL A   1      44.055  35.041  32.225  1.00  0.00     0.198 A 
ATOM     65  C   UNL A   1      43.326  33.995  34.259  1.00  0.00     0.198 A 
ATOM     66  F   UNL A   1      42.958  31.672  34.324  1.00  0.00    -0.203 F 
ATOM     67  F   UNL A   1      44.438  36.137  31.555  1.00  0.00    -0.200 F 
ATOM     68  C   UNL A   1      43.700  35.135  33.562  1.00  0.00     0.200 A 
ATOM     69  F   UNL A   1      42.972  34.087  35.549  1.00  0.00    -0.200 F 
ATOM     70  F   UNL A   1      43.723  36.324  34.180  1.00  0.00    -0.200 F 
ENDBRANCH  46  60
BRANCH  47  71
ATOM     71  C   UNL A   1      42.835  23.996  27.374  1.00  0.00     0.064 A 
ATOM     72  C   UNL A   1      42.395  22.822  28.001  1.00  0.00     0.173 A 
ATOM     73  C   UNL A   1      43.175  23.927  26.016  1.00  0.00     0.173 A 
ATOM     74  F   UNL A   1      42.079  22.836  29.304  1.00  0.00    -0.203 F 
ATOM     75  C   UNL A   1      42.318  21.620  27.301  1.00  0.00     0.198 A 
ATOM     76  C   UNL A   1      43.073  22.730  25.311  1.00  0.00     0.198 A 
ATOM     77  F   UNL A   1      43.596  25.025  25.373  1.00  0.00    -0.203 F 
ATOM     78  F   UNL A   1      41.935  20.502  27.933  1.00  0.00    -0.200 F 
ATOM     79  C   UNL A   1      42.652  21.577  25.955  1.00  0.00     0.200 A 
ATOM     80  F   UNL A   1      43.386  22.694  24.008  1.00  0.00    -0.200 F 
ATOM     81  F   UNL A   1      42.577  20.421  25.282  1.00  0.00    -0.200 F 
ENDBRANCH  47  71
BRANCH  59  82
ATOM     82  C   UNL A   1      47.973  27.010  30.967  1.00  0.00     0.064 A 
ATOM     83  C   UNL A   1      49.058  27.411  30.172  1.00  0.00     0.173 A 
ATOM     84  C   UNL A   1      48.238  26.204  32.083  1.00  0.00     0.173 A 
ATOM     85  F   UNL A   1      48.853  28.168  29.083  1.00  0.00    -0.203 F 
ATOM     86  C   UNL A   1      50.354  26.997  30.468  1.00  0.00     0.198 A 
ATOM     87  C   UNL A   1      49.537  25.812  32.392  1.00  0.00     0.198 A 
ATOM     88  F   UNL A   1      47.235  25.799  32.876  1.00  0.00    -0.203 F 
ATOM     89  F   UNL A   1      51.368  27.352  29.669  1.00  0.00    -0.200 F 
ATOM     90  C   UNL A   1      50.593  26.203  31.580  1.00  0.00     0.200 A 
ATOM     91  F   UNL A   1      49.768  25.052  33.470  1.00  0.00    -0.200 F 
ATOM     92  F   UNL A   1      51.841  25.805  31.864  1.00  0.00    -0.200 F 
ENDBRANCH  59  82
ENDBRANCH  33  34
ENDBRANCH  25  28
ENDBRANCH  23  24
ENDBRANCH  22  23
ENDBRANCH   1  22
TORSDOF 13
ENDMDL
MODEL 3
REMARK VINA RESULT:     -11.9      5.790     11.045
REMARK SMILES C[C@@H](C(=O)NCCCNC(=O)c1ccc(-c2c3nc(c(-c4c(F)c(F)c(F)c(F)c4F)c4ccc([nH]4)c(-c4c(F)c(F)c(F)c(F)c4F)c4nc(c(-c5c(F)c(F)c(F)c(F)c5F)c5ccc2[nH]5)C=C4)C=C3)cc1)c1ccc(O[C@H]2CCCC2=O)cc1F
REMARK SMILES IDX 6 1 5 2 3 3 4 4 2 6 1 7 75 8 76 9 87 10 77 11 86 12 88 13
REMARK SMILES IDX 78 14 79 15 80 16 81 17 84 18 82 19 83 20 85 21 7 22 8 23
REMARK SMILES IDX 9 24 10 25 11 27 12 28 13 29 74 30 14 31 73 32 15 33 16 34
REMARK SMILES IDX 17 35 67 36 18 37 72 38 66 39 68 40 19 41 71 42 65 43 64 44
REMARK SMILES IDX 20 46 52 47 32 48 51 49 33 50 36 51 50 52 69 53 34 54 35 55
REMARK SMILES IDX 49 57 70 58 37 59 21 60 22 61 30 62 23 63 24 64 28 65 31 66
REMARK SMILES IDX 25 67 26 68 29 69 27 70 53 71 54 72 62 73 55 74 56 75 60 76
REMARK SMILES IDX 63 77 57 78 58 79 61 80 59 81 38 82 39 83 47 84 40 85 41 86
REMARK SMILES IDX 45 87 48 88 42 89 43 90 46 91 44 92
REMARK H PARENT 5 5 9 26 68 45 36 56
REMARK Flexibility Score: inf
ROOT
ATOM      1  C   UNL A   1      37.515  21.281  24.272  1.00  0.00     0.117 C 
ENDROOT
BRANCH   1   2
ATOM      2  N   UNL A   1      37.515  22.291  25.311  1.00  0.00    -0.356 N 
ATOM      3  C   UNL A   1      36.656  23.324  25.551  1.00  0.00     0.227 C 
ATOM      4  O   UNL A   1      36.894  24.006  26.551  1.00  0.00    -0.274 OA
ATOM      5  H   UNL A   1      38.261  22.221  25.950  1.00  0.00     0.163 HD
BRANCH   3   6
ATOM      6  C   UNL A   1      35.436  23.554  24.642  1.00  0.00     0.108 C 
ATOM      7  C   UNL A   1      34.690  24.855  24.959  1.00  0.00     0.023 C 
BRANCH   6   8
ATOM      8  C   UNL A   1      34.464  22.382  24.686  1.00  0.00     0.000 A 
ATOM      9  C   UNL A   1      34.433  21.516  25.784  1.00  0.00     0.011 A 
ATOM     10  C   UNL A   1      33.585  22.128  23.628  1.00  0.00     0.130 A 
ATOM     11  C   UNL A   1      33.551  20.430  25.799  1.00  0.00     0.047 A 
ATOM     12  C   UNL A   1      32.707  21.045  23.641  1.00  0.00     0.086 A 
ATOM     13  F   UNL A   1      33.583  22.925  22.550  1.00  0.00    -0.207 F 
ATOM     14  C   UNL A   1      32.680  20.186  24.729  1.00  0.00     0.123 A 
BRANCH  14  15
ATOM     15  O   UNL A   1      31.895  19.087  24.892  1.00  0.00    -0.483 OA
BRANCH  15  16
ATOM     16  C   UNL A   1      32.229  17.836  24.340  1.00  0.00     0.239 C 
ATOM     17  C   UNL A   1      32.693  17.904  22.878  1.00  0.00     0.054 C 
ATOM     18  C   UNL A   1      33.203  16.848  24.980  1.00  0.00     0.173 C 
ATOM     19  C   UNL A   1      34.042  17.193  22.807  1.00  0.00     0.012 C 
ATOM     20  C   UNL A   1      34.065  16.183  23.944  1.00  0.00     0.080 C 
ATOM     21  O   UNL A   1      33.254  16.585  26.176  1.00  0.00    -0.296 OA
ENDBRANCH  15  16
ENDBRANCH  14  15
ENDBRANCH   6   8
ENDBRANCH   3   6
ENDBRANCH   1   2
BRANCH   1  22
ATOM     22  C   UNL A   1      38.078  19.949  24.763  1.00  0.00     0.042 C 
BRANCH  22  23
ATOM     23  C   UNL A   1      38.975  20.050  25.997  1.00  0.00     0.118 C 
BRANCH  23  24
ATOM     24  N   UNL A   1      40.101  19.130  25.954  1.00  0.00    -0.352 N 
ATOM     25  C   UNL A   1      41.448  19.360  26.054  1.00  0.00     0.251 C 
ATOM     26  H   UNL A   1      39.853  18.185  25.835  1.00  0.00     0.163 HD
ATOM     27  O   UNL A   1      42.230  18.438  25.826  1.00  0.00    -0.269 OA
BRANCH  25  28
ATOM     28  C   UNL A   1      41.985  20.694  26.407  1.00  0.00     0.039 A 
ATOM     29  C   UNL A   1      42.231  21.603  25.372  1.00  0.00     0.014 A 
ATOM     30  C   UNL A   1      42.309  21.042  27.722  1.00  0.00     0.014 A 
ATOM     31  C   UNL A   1      42.743  22.871  25.657  1.00  0.00     0.010 A 
ATOM     32  C   UNL A   1      42.764  22.330  28.014  1.00  0.00     0.010 A 
ATOM     33  C   UNL A   1      42.985  23.256  26.985  1.00  0.00    -0.014 A 
BRANCH  33  34
ATOM     34  C   UNL A   1      43.450  24.632  27.300  1.00  0.00     0.031 A 
ATOM     35  C   UNL A   1      42.502  25.655  27.860  1.00  0.00     0.074 A 
ATOM     36  C   UNL A   1      44.728  24.971  27.044  1.00  0.00     0.049 A 
ATOM     37  N   UNL A   1      42.725  26.909  28.167  1.00  0.00    -0.248 NA
ATOM     38  C   UNL A   1      41.116  25.219  28.089  1.00  0.00     0.031 C 
ATOM     39  C   UNL A   1      45.734  24.086  26.455  1.00  0.00     0.029 A 
ATOM     40  N   UNL A   1      45.398  26.155  27.236  1.00  0.00    -0.354 N 
ATOM     41  C   UNL A   1      41.511  27.411  28.617  1.00  0.00     0.074 A 
ATOM     42  C   UNL A   1      40.543  26.340  28.503  1.00  0.00     0.031 C 
ATOM     43  C   UNL A   1      46.896  24.751  26.348  1.00  0.00     0.029 A 
ATOM     44  C   UNL A   1      46.711  26.114  26.836  1.00  0.00     0.049 A 
ATOM     45  H   UNL A   1      44.976  26.955  27.623  1.00  0.00     0.167 HD
ATOM     46  C   UNL A   1      41.234  28.647  29.100  1.00  0.00     0.037 A 
ATOM     47  C   UNL A   1      47.659  27.069  26.856  1.00  0.00     0.037 A 
ATOM     48  C   UNL A   1      42.199  29.708  29.232  1.00  0.00     0.049 A 
ATOM     49  C   UNL A   1      47.327  28.427  27.413  1.00  0.00     0.074 A 
ATOM     50  C   UNL A   1      42.021  30.978  29.753  1.00  0.00     0.029 A 
ATOM     51  N   UNL A   1      43.527  29.620  28.841  1.00  0.00    -0.354 N 
ATOM     52  N   UNL A   1      46.190  28.869  27.888  1.00  0.00    -0.248 NA
ATOM     53  C   UNL A   1      48.417  29.412  27.444  1.00  0.00     0.031 C 
ATOM     54  C   UNL A   1      43.233  31.670  29.649  1.00  0.00     0.029 A 
ATOM     55  C   UNL A   1      44.175  30.818  29.097  1.00  0.00     0.049 A 
ATOM     56  H   UNL A   1      43.946  28.825  28.441  1.00  0.00     0.167 HD
ATOM     57  C   UNL A   1      46.429  30.176  28.288  1.00  0.00     0.074 A 
ATOM     58  C   UNL A   1      47.826  30.448  28.022  1.00  0.00     0.031 C 
ATOM     59  C   UNL A   1      45.566  31.073  28.825  1.00  0.00     0.037 A 
BRANCH  46  60
ATOM     60  C   UNL A   1      39.825  28.919  29.537  1.00  0.00     0.064 A 
ATOM     61  C   UNL A   1      38.860  29.391  28.635  1.00  0.00     0.173 A 
ATOM     62  C   UNL A   1      39.421  28.658  30.854  1.00  0.00     0.173 A 
ATOM     63  F   UNL A   1      39.199  29.665  27.367  1.00  0.00    -0.203 F 
ATOM     64  C   UNL A   1      37.546  29.610  29.042  1.00  0.00     0.198 A 
ATOM     65  C   UNL A   1      38.102  28.854  31.252  1.00  0.00     0.198 A 
ATOM     66  F   UNL A   1      40.305  28.200  31.755  1.00  0.00    -0.203 F 
ATOM     67  F   UNL A   1      36.649  30.095  28.172  1.00  0.00    -0.200 F 
ATOM     68  C   UNL A   1      37.166  29.335  30.347  1.00  0.00     0.200 A 
ATOM     69  F   UNL A   1      37.733  28.579  32.511  1.00  0.00    -0.200 F 
ATOM     70  F   UNL A   1      35.899  29.537  30.734  1.00  0.00    -0.200 F 
ENDBRANCH  46  60
BRANCH  47  71
ATOM     71  C   UNL A   1      49.022  26.768  26.352  1.00  0.00     0.064 A 
ATOM     72  C   UNL A   1      50.006  26.250  27.205  1.00  0.00     0.173 A 
ATOM     73  C   UNL A   1      49.368  26.995  25.013  1.00  0.00     0.173 A 
ATOM     74  F   UNL A   1      49.726  26.037  28.499  1.00  0.00    -0.203 F 
ATOM     75  C   UNL A   1      51.294  25.988  26.741  1.00  0.00     0.198 A 
ATOM     76  C   UNL A   1      50.648  26.709  24.544  1.00  0.00     0.198 A 
ATOM     77  F   UNL A   1      48.460  27.485  24.158  1.00  0.00    -0.203 F 
ATOM     78  F   UNL A   1      52.228  25.532  27.586  1.00  0.00    -0.200 F 
ATOM     79  C   UNL A   1      51.612  26.212  25.410  1.00  0.00     0.200 A 
ATOM     80  F   UNL A   1      50.950  26.916  23.255  1.00  0.00    -0.200 F 
ATOM     81  F   UNL A   1      52.849  25.959  24.963  1.00  0.00    -0.200 F 
ENDBRANCH  47  71
BRANCH  59  82
ATOM     82  C   UNL A   1      46.116  32.424  29.172  1.00  0.00     0.064 A 
ATOM     83  C   UNL A   1      46.679  32.684  30.431  1.00  0.00     0.173 A 
ATOM     84  C   UNL A   1      46.098  33.464  28.232  1.00  0.00     0.173 A 
ATOM     85  F   UNL A   1      46.702  31.725  31.370  1.00  0.00    -0.203 F 
ATOM     86  C   UNL A   1      47.179  33.944  30.745  1.00  0.00     0.198 A 
ATOM     87  C   UNL A   1      46.622  34.717  28.540  1.00  0.00     0.198 A 
ATOM     88  F   UNL A   1      45.575  33.265  27.013  1.00  0.00    -0.203 F 
ATOM     89  F   UNL A   1      47.669  34.183  31.968  1.00  0.00    -0.200 F 
ATOM     90  C   UNL A   1      47.155  34.958  29.798  1.00  0.00     0.200 A 
ATOM     91  F   UNL A   1      46.606  35.692  27.623  1.00  0.00    -0.200 F 
ATOM     92  F   UNL A   1      47.637  36.171  30.102  1.00  0.00    -0.200 F 
ENDBRANCH  59  82
ENDBRANCH  33  34
ENDBRANCH  25  28
ENDBRANCH  23  24
ENDBRANCH  22  23
ENDBRANCH   1  22
TORSDOF 13
ENDMDL
