MODEL 1
REMARK VINA RESULT:     -11.4      0.000      0.000
REMARK SMILES Cc1cc(N(C)C(C)C)cc(C(=O)NCCCNC(=O)c2ccc(-c3c4nc(c(-c5c(F)c(F)c(F)c(F)c5F)c5ccc([nH]5)c(-c5c(F)c(F)c(F)c(F)c5F)c5nc(c(-c6c(F)c(F)c(F)c(F)c6F)c6ccc3[nH]6)C=C5)C=C4)cc2)c1N
REMARK SMILES IDX 16 1 15 2 14 3 12 4 13 5 11 7 1 8 2 9 3 10 84 11 4 12 10 13
REMARK SMILES IDX 85 14 5 17 6 18 7 19 8 20 9 21 17 22 18 23 19 24 20 26 21 27
REMARK SMILES IDX 22 28 83 29 23 30 82 31 24 32 25 33 26 34 76 35 27 36 81 37
REMARK SMILES IDX 75 38 77 39 28 40 80 41 74 42 73 43 29 45 61 46 41 47 60 48
REMARK SMILES IDX 42 49 45 50 59 51 78 52 43 53 44 54 58 56 79 57 46 58 30 59
REMARK SMILES IDX 31 60 39 61 32 62 33 63 37 64 40 65 34 66 35 67 38 68 36 69
REMARK SMILES IDX 62 70 63 71 71 72 64 73 65 74 69 75 72 76 66 77 67 78 70 79
REMARK SMILES IDX 68 80 47 81 48 82 56 83 49 84 50 85 54 86 57 87 51 88 52 89
REMARK SMILES IDX 55 90 53 91
REMARK H PARENT 14 6 85 15 85 16 18 25 77 44 45 55
REMARK Flexibility Score: inf
ROOT
ATOM      1  C   UNL A   1      31.529  31.838  26.688  1.00  0.00     0.042 C 
ENDROOT
BRANCH   1   2
ATOM      2  C   UNL A   1      31.775  30.329  26.616  1.00  0.00     0.118 C 
BRANCH   2   3
ATOM      3  N   UNL A   1      33.150  30.020  26.957  1.00  0.00    -0.352 N 
ATOM      4  C   UNL A   1      33.988  28.976  26.650  1.00  0.00     0.253 C 
ATOM      5  O   UNL A   1      35.116  29.030  27.150  1.00  0.00    -0.269 OA
ATOM      6  H   UNL A   1      33.573  30.702  27.527  1.00  0.00     0.163 HD
BRANCH   4   7
ATOM      7  C   UNL A   1      33.628  27.843  25.732  1.00  0.00     0.065 A 
ATOM      8  C   UNL A   1      33.300  27.151  21.993  1.00  0.00     0.046 C 
ATOM      9  C   UNL A   1      33.282  27.003  23.491  1.00  0.00    -0.025 A 
ATOM     10  C   UNL A   1      32.875  25.770  24.044  1.00  0.00     0.031 A 
ATOM     11  C   UNL A   1      33.653  28.061  24.336  1.00  0.00     0.047 A 
ATOM     12  C   UNL A   1      32.836  25.511  25.418  1.00  0.00     0.038 A 
ATOM     13  C   UNL A   1      33.317  26.559  26.220  1.00  0.00     0.042 A 
BRANCH  11  14
ATOM     14  N   UNL A   1      33.886  29.329  23.794  1.00  0.00    -0.398 N 
ATOM     15  H   UNL A   1      33.584  29.537  22.880  1.00  0.00     0.156 HD
ATOM     16  H   UNL A   1      34.353  30.013  24.325  1.00  0.00     0.156 HD
ENDBRANCH  11  14
BRANCH  12  17
ATOM     17  N   UNL A   1      32.342  24.329  25.961  1.00  0.00    -0.372 N 
ATOM     18  C   UNL A   1      30.901  24.145  26.175  1.00  0.00     0.144 C 
BRANCH  17  19
ATOM     19  C   UNL A   1      33.136  23.112  26.265  1.00  0.00     0.075 C 
ATOM     20  C   UNL A   1      34.607  23.257  25.873  1.00  0.00     0.030 C 
ATOM     21  C   UNL A   1      32.900  22.576  27.674  1.00  0.00     0.030 C 
ENDBRANCH  17  19
ENDBRANCH  12  17
ENDBRANCH   4   7
ENDBRANCH   2   3
ENDBRANCH   1   2
BRANCH   1  22
ATOM     22  C   UNL A   1      32.809  32.647  26.885  1.00  0.00     0.118 C 
BRANCH  22  23
ATOM     23  N   UNL A   1      32.535  33.971  27.424  1.00  0.00    -0.352 N 
ATOM     24  C   UNL A   1      33.052  34.596  28.531  1.00  0.00     0.251 C 
ATOM     25  H   UNL A   1      31.876  34.500  26.918  1.00  0.00     0.163 HD
ATOM     26  O   UNL A   1      32.526  35.621  28.952  1.00  0.00    -0.269 OA
BRANCH  24  27
ATOM     27  C   UNL A   1      34.234  34.040  29.228  1.00  0.00     0.039 A 
ATOM     28  C   UNL A   1      34.032  33.140  30.278  1.00  0.00     0.014 A 
ATOM     29  C   UNL A   1      35.529  34.438  28.888  1.00  0.00     0.014 A 
ATOM     30  C   UNL A   1      35.128  32.601  30.954  1.00  0.00     0.010 A 
ATOM     31  C   UNL A   1      36.624  33.851  29.518  1.00  0.00     0.010 A 
ATOM     32  C   UNL A   1      36.435  32.931  30.560  1.00  0.00    -0.014 A 
BRANCH  32  33
ATOM     33  C   UNL A   1      37.617  32.328  31.227  1.00  0.00     0.031 A 
ATOM     34  C   UNL A   1      38.375  31.215  30.560  1.00  0.00     0.074 A 
ATOM     35  C   UNL A   1      37.959  32.734  32.464  1.00  0.00     0.049 A 
ATOM     36  N   UNL A   1      39.365  30.494  31.021  1.00  0.00    -0.248 NA
ATOM     37  C   UNL A   1      37.944  30.845  29.203  1.00  0.00     0.031 C 
ATOM     38  C   UNL A   1      37.275  33.776  33.231  1.00  0.00     0.029 A 
ATOM     39  N   UNL A   1      38.958  32.305  33.304  1.00  0.00    -0.354 N 
ATOM     40  C   UNL A   1      39.661  29.575  30.023  1.00  0.00     0.074 A 
ATOM     41  C   UNL A   1      38.718  29.799  28.949  1.00  0.00     0.031 C 
ATOM     42  C   UNL A   1      37.879  33.914  34.422  1.00  0.00     0.029 A 
ATOM     43  C   UNL A   1      38.966  32.945  34.519  1.00  0.00     0.049 A 
ATOM     44  H   UNL A   1      39.605  31.607  33.058  1.00  0.00     0.167 HD
ATOM     45  C   UNL A   1      40.642  28.642  29.999  1.00  0.00     0.037 A 
ATOM     46  C   UNL A   1      39.753  32.760  35.596  1.00  0.00     0.037 A 
ATOM     47  C   UNL A   1      41.596  28.444  31.059  1.00  0.00     0.049 A 
ATOM     48  C   UNL A   1      40.837  31.718  35.543  1.00  0.00     0.074 A 
ATOM     49  C   UNL A   1      42.668  27.569  31.103  1.00  0.00     0.029 A 
ATOM     50  N   UNL A   1      41.591  29.130  32.264  1.00  0.00    -0.354 N 
ATOM     51  N   UNL A   1      41.148  30.898  34.569  1.00  0.00    -0.248 NA
ATOM     52  C   UNL A   1      41.682  31.578  36.736  1.00  0.00     0.031 C 
ATOM     53  C   UNL A   1      43.284  27.694  32.352  1.00  0.00     0.029 A 
ATOM     54  C   UNL A   1      42.627  28.684  33.068  1.00  0.00     0.049 A 
ATOM     55  H   UNL A   1      40.945  29.831  32.512  1.00  0.00     0.167 HD
ATOM     56  C   UNL A   1      42.238  30.166  35.019  1.00  0.00     0.074 A 
ATOM     57  C   UNL A   1      42.543  30.648  36.349  1.00  0.00     0.031 C 
ATOM     58  C   UNL A   1      42.923  29.183  34.387  1.00  0.00     0.037 A 
BRANCH  45  59
ATOM     59  C   UNL A   1      40.738  27.762  28.786  1.00  0.00     0.064 A 
ATOM     60  C   UNL A   1      39.985  26.583  28.669  1.00  0.00     0.173 A 
ATOM     61  C   UNL A   1      41.561  28.123  27.709  1.00  0.00     0.173 A 
ATOM     62  F   UNL A   1      39.190  26.188  29.674  1.00  0.00    -0.203 F 
ATOM     63  C   UNL A   1      40.075  25.786  27.531  1.00  0.00     0.198 A 
ATOM     64  C   UNL A   1      41.625  27.339  26.559  1.00  0.00     0.198 A 
ATOM     65  F   UNL A   1      42.297  29.243  27.764  1.00  0.00    -0.203 F 
ATOM     66  F   UNL A   1      39.382  24.641  27.462  1.00  0.00    -0.200 F 
ATOM     67  C   UNL A   1      40.888  26.168  26.475  1.00  0.00     0.200 A 
ATOM     68  F   UNL A   1      42.401  27.717  25.533  1.00  0.00    -0.200 F 
ATOM     69  F   UNL A   1      40.966  25.403  25.377  1.00  0.00    -0.200 F 
ENDBRANCH  45  59
BRANCH  46  70
ATOM     70  C   UNL A   1      39.556  33.595  36.809  1.00  0.00     0.064 A 
ATOM     71  C   UNL A   1      38.742  33.154  37.861  1.00  0.00     0.173 A 
ATOM     72  C   UNL A   1      40.178  34.845  36.945  1.00  0.00     0.173 A 
ATOM     73  F   UNL A   1      38.111  31.975  37.769  1.00  0.00    -0.203 F 
ATOM     74  C   UNL A   1      38.542  33.939  38.995  1.00  0.00     0.198 A 
ATOM     75  C   UNL A   1      39.999  35.617  38.090  1.00  0.00     0.198 A 
ATOM     76  F   UNL A   1      40.971  35.310  35.969  1.00  0.00    -0.203 F 
ATOM     77  F   UNL A   1      37.725  33.512  39.967  1.00  0.00    -0.200 F 
ATOM     78  C   UNL A   1      39.176  35.167  39.111  1.00  0.00     0.200 A 
ATOM     79  F   UNL A   1      40.626  36.796  38.207  1.00  0.00    -0.200 F 
ATOM     80  F   UNL A   1      38.988  35.918  40.205  1.00  0.00    -0.200 F 
ENDBRANCH  46  70
BRANCH  58  81
ATOM     81  C   UNL A   1      44.095  28.585  35.110  1.00  0.00     0.064 A 
ATOM     82  C   UNL A   1      45.379  29.137  35.011  1.00  0.00     0.173 A 
ATOM     83  C   UNL A   1      43.918  27.476  35.950  1.00  0.00     0.173 A 
ATOM     84  F   UNL A   1      45.603  30.189  34.208  1.00  0.00    -0.203 F 
ATOM     85  C   UNL A   1      46.449  28.588  35.712  1.00  0.00     0.198 A 
ATOM     86  C   UNL A   1      44.984  26.947  36.672  1.00  0.00     0.198 A 
ATOM     87  F   UNL A   1      42.707  26.914  36.083  1.00  0.00    -0.203 F 
ATOM     88  F   UNL A   1      47.677  29.105  35.570  1.00  0.00    -0.200 F 
ATOM     89  C   UNL A   1      46.249  27.499  36.547  1.00  0.00     0.200 A 
ATOM     90  F   UNL A   1      44.786  25.903  37.489  1.00  0.00    -0.200 F 
ATOM     91  F   UNL A   1      47.278  26.978  37.229  1.00  0.00    -0.200 F 
ENDBRANCH  58  81
ENDBRANCH  32  33
ENDBRANCH  24  27
ENDBRANCH  22  23
ENDBRANCH   1  22
TORSDOF 13
ENDMDL
MODEL 2
REMARK VINA RESULT:     -11.4      1.699      2.844
REMARK SMILES Cc1cc(N(C)C(C)C)cc(C(=O)NCCCNC(=O)c2ccc(-c3c4nc(c(-c5c(F)c(F)c(F)c(F)c5F)c5ccc([nH]5)c(-c5c(F)c(F)c(F)c(F)c5F)c5nc(c(-c6c(F)c(F)c(F)c(F)c6F)c6ccc3[nH]6)C=C5)C=C4)cc2)c1N
REMARK SMILES IDX 16 1 15 2 14 3 12 4 13 5 11 7 1 8 2 9 3 10 84 11 4 12 10 13
REMARK SMILES IDX 85 14 5 17 6 18 7 19 8 20 9 21 17 22 18 23 19 24 20 26 21 27
REMARK SMILES IDX 22 28 83 29 23 30 82 31 24 32 25 33 26 34 76 35 27 36 81 37
REMARK SMILES IDX 75 38 77 39 28 40 80 41 74 42 73 43 29 45 61 46 41 47 60 48
REMARK SMILES IDX 42 49 45 50 59 51 78 52 43 53 44 54 58 56 79 57 46 58 30 59
REMARK SMILES IDX 31 60 39 61 32 62 33 63 37 64 40 65 34 66 35 67 38 68 36 69
REMARK SMILES IDX 62 70 63 71 71 72 64 73 65 74 69 75 72 76 66 77 67 78 70 79
REMARK SMILES IDX 68 80 47 81 48 82 56 83 49 84 50 85 54 86 57 87 51 88 52 89
REMARK SMILES IDX 55 90 53 91
REMARK H PARENT 14 6 85 15 85 16 18 25 77 44 45 55
REMARK Flexibility Score: inf
ROOT
ATOM      1  C   UNL A   1      31.479  31.862  26.826  1.00  0.00     0.042 C 
ENDROOT
BRANCH   1   2
ATOM      2  C   UNL A   1      31.774  30.365  26.943  1.00  0.00     0.118 C 
BRANCH   2   3
ATOM      3  N   UNL A   1      32.853  29.988  26.051  1.00  0.00    -0.352 N 
ATOM      4  C   UNL A   1      32.931  29.153  24.963  1.00  0.00     0.253 C 
ATOM      5  O   UNL A   1      34.049  29.048  24.450  1.00  0.00    -0.269 OA
ATOM      6  H   UNL A   1      33.710  30.420  26.271  1.00  0.00     0.163 HD
BRANCH   4   7
ATOM      7  C   UNL A   1      31.758  28.433  24.362  1.00  0.00     0.065 A 
ATOM      8  C   UNL A   1      30.801  24.914  23.233  1.00  0.00     0.046 C 
ATOM      9  C   UNL A   1      30.773  26.393  23.517  1.00  0.00    -0.025 A 
ATOM     10  C   UNL A   1      29.618  27.126  23.168  1.00  0.00     0.031 A 
ATOM     11  C   UNL A   1      31.865  27.047  24.110  1.00  0.00     0.047 A 
ATOM     12  C   UNL A   1      29.470  28.497  23.399  1.00  0.00     0.038 A 
ATOM     13  C   UNL A   1      30.542  29.088  24.090  1.00  0.00     0.042 A 
BRANCH  11  14
ATOM     14  N   UNL A   1      33.067  26.356  24.294  1.00  0.00    -0.398 N 
ATOM     15  H   UNL A   1      33.390  25.736  23.599  1.00  0.00     0.156 HD
ATOM     16  H   UNL A   1      33.590  26.488  25.116  1.00  0.00     0.156 HD
ENDBRANCH  11  14
BRANCH  12  17
ATOM     17  N   UNL A   1      28.373  29.234  22.966  1.00  0.00    -0.372 N 
ATOM     18  C   UNL A   1      27.011  28.701  23.100  1.00  0.00     0.144 C 
BRANCH  17  19
ATOM     19  C   UNL A   1      28.406  30.628  22.458  1.00  0.00     0.075 C 
ATOM     20  C   UNL A   1      28.062  30.721  20.972  1.00  0.00     0.030 C 
ATOM     21  C   UNL A   1      27.654  31.611  23.351  1.00  0.00     0.030 C 
ENDBRANCH  17  19
ENDBRANCH  12  17
ENDBRANCH   4   7
ENDBRANCH   2   3
ENDBRANCH   1   2
BRANCH   1  22
ATOM     22  C   UNL A   1      32.739  32.725  26.825  1.00  0.00     0.118 C 
BRANCH  22  23
ATOM     23  N   UNL A   1      32.509  34.021  27.446  1.00  0.00    -0.352 N 
ATOM     24  C   UNL A   1      33.071  34.572  28.570  1.00  0.00     0.251 C 
ATOM     25  H   UNL A   1      31.847  34.590  26.990  1.00  0.00     0.163 HD
ATOM     26  O   UNL A   1      32.578  35.581  29.063  1.00  0.00    -0.269 OA
BRANCH  24  27
ATOM     27  C   UNL A   1      34.260  33.955  29.199  1.00  0.00     0.039 A 
ATOM     28  C   UNL A   1      35.527  34.428  28.848  1.00  0.00     0.014 A 
ATOM     29  C   UNL A   1      34.135  32.885  30.090  1.00  0.00     0.014 A 
ATOM     30  C   UNL A   1      36.667  33.863  29.425  1.00  0.00     0.010 A 
ATOM     31  C   UNL A   1      35.267  32.367  30.715  1.00  0.00     0.010 A 
ATOM     32  C   UNL A   1      36.544  32.847  30.386  1.00  0.00    -0.014 A 
BRANCH  32  33
ATOM     33  C   UNL A   1      37.737  32.270  31.056  1.00  0.00     0.031 A 
ATOM     34  C   UNL A   1      38.536  31.192  30.379  1.00  0.00     0.074 A 
ATOM     35  C   UNL A   1      38.052  32.664  32.304  1.00  0.00     0.049 A 
ATOM     36  N   UNL A   1      39.543  30.494  30.839  1.00  0.00    -0.248 NA
ATOM     37  C   UNL A   1      38.132  30.833  29.011  1.00  0.00     0.031 C 
ATOM     38  C   UNL A   1      37.327  33.671  33.081  1.00  0.00     0.029 A 
ATOM     39  N   UNL A   1      39.054  32.252  33.147  1.00  0.00    -0.354 N 
ATOM     40  C   UNL A   1      39.878  29.602  29.828  1.00  0.00     0.074 A 
ATOM     41  C   UNL A   1      38.940  29.816  28.748  1.00  0.00     0.031 C 
ATOM     42  C   UNL A   1      37.914  33.807  34.281  1.00  0.00     0.029 A 
ATOM     43  C   UNL A   1      39.029  32.870  34.374  1.00  0.00     0.049 A 
ATOM     44  H   UNL A   1      39.725  31.578  32.897  1.00  0.00     0.167 HD
ATOM     45  C   UNL A   1      40.888  28.700  29.801  1.00  0.00     0.037 A 
ATOM     46  C   UNL A   1      39.810  32.690  35.456  1.00  0.00     0.037 A 
ATOM     47  C   UNL A   1      41.835  28.513  30.868  1.00  0.00     0.049 A 
ATOM     48  C   UNL A   1      40.925  31.684  35.398  1.00  0.00     0.074 A 
ATOM     49  C   UNL A   1      42.933  27.671  30.909  1.00  0.00     0.029 A 
ATOM     50  N   UNL A   1      41.795  29.178  32.084  1.00  0.00    -0.354 N 
ATOM     51  N   UNL A   1      41.273  30.890  34.414  1.00  0.00    -0.248 NA
ATOM     52  C   UNL A   1      41.761  31.549  36.599  1.00  0.00     0.031 C 
ATOM     53  C   UNL A   1      43.532  27.794  32.167  1.00  0.00     0.029 A 
ATOM     54  C   UNL A   1      42.836  28.750  32.892  1.00  0.00     0.049 A 
ATOM     55  H   UNL A   1      41.125  29.854  32.337  1.00  0.00     0.167 HD
ATOM     56  C   UNL A   1      42.380  30.184  34.864  1.00  0.00     0.074 A 
ATOM     57  C   UNL A   1      42.655  30.652  36.206  1.00  0.00     0.031 C 
ATOM     58  C   UNL A   1      43.102  29.234  34.223  1.00  0.00     0.037 A 
BRANCH  45  59
ATOM     59  C   UNL A   1      41.024  27.845  28.573  1.00  0.00     0.064 A 
ATOM     60  C   UNL A   1      40.332  26.631  28.440  1.00  0.00     0.173 A 
ATOM     61  C   UNL A   1      41.824  28.265  27.500  1.00  0.00     0.173 A 
ATOM     62  F   UNL A   1      39.561  26.180  29.441  1.00  0.00    -0.203 F 
ATOM     63  C   UNL A   1      40.458  25.857  27.289  1.00  0.00     0.198 A 
ATOM     64  C   UNL A   1      41.924  27.502  26.338  1.00  0.00     0.198 A 
ATOM     65  F   UNL A   1      42.501  29.420  27.571  1.00  0.00    -0.203 F 
ATOM     66  F   UNL A   1      39.825  24.679  27.205  1.00  0.00    -0.200 F 
ATOM     67  C   UNL A   1      41.248  26.296  26.238  1.00  0.00     0.200 A 
ATOM     68  F   UNL A   1      42.676  27.935  25.316  1.00  0.00    -0.200 F 
ATOM     69  F   UNL A   1      41.360  25.554  25.127  1.00  0.00    -0.200 F 
ENDBRANCH  45  59
BRANCH  46  70
ATOM     70  C   UNL A   1      39.573  33.497  36.681  1.00  0.00     0.064 A 
ATOM     71  C   UNL A   1      40.151  34.765  36.830  1.00  0.00     0.173 A 
ATOM     72  C   UNL A   1      38.763  33.023  37.723  1.00  0.00     0.173 A 
ATOM     73  F   UNL A   1      40.949  35.253  35.869  1.00  0.00    -0.203 F 
ATOM     74  C   UNL A   1      39.944  35.521  37.982  1.00  0.00     0.198 A 
ATOM     75  C   UNL A   1      38.534  33.791  38.863  1.00  0.00     0.198 A 
ATOM     76  F   UNL A   1      38.181  31.819  37.627  1.00  0.00    -0.203 F 
ATOM     77  F   UNL A   1      40.543  36.712  38.117  1.00  0.00    -0.200 F 
ATOM     78  C   UNL A   1      39.130  35.035  38.995  1.00  0.00     0.200 A 
ATOM     79  F   UNL A   1      37.734  33.326  39.833  1.00  0.00    -0.200 F 
ATOM     80  F   UNL A   1      38.926  35.765  40.100  1.00  0.00    -0.200 F 
ENDBRANCH  46  70
BRANCH  58  81
ATOM     81  C   UNL A   1      44.284  28.660  34.949  1.00  0.00     0.064 A 
ATOM     82  C   UNL A   1      45.549  29.259  34.882  1.00  0.00     0.173 A 
ATOM     83  C   UNL A   1      44.134  27.526  35.761  1.00  0.00     0.173 A 
ATOM     84  F   UNL A   1      45.747  30.336  34.107  1.00  0.00    -0.203 F 
ATOM     85  C   UNL A   1      46.628  28.730  35.586  1.00  0.00     0.198 A 
ATOM     86  C   UNL A   1      45.207  27.017  36.486  1.00  0.00     0.198 A 
ATOM     87  F   UNL A   1      42.941  26.920  35.863  1.00  0.00    -0.203 F 
ATOM     88  F   UNL A   1      47.839  29.293  35.474  1.00  0.00    -0.200 F 
ATOM     89  C   UNL A   1      46.454  27.616  36.393  1.00  0.00     0.200 A 
ATOM     90  F   UNL A   1      45.035  25.948  37.275  1.00  0.00    -0.200 F 
ATOM     91  F   UNL A   1      47.491  27.114  37.078  1.00  0.00    -0.200 F 
ENDBRANCH  58  81
ENDBRANCH  32  33
ENDBRANCH  24  27
ENDBRANCH  22  23
ENDBRANCH   1  22
TORSDOF 13
ENDMDL
MODEL 3
REMARK VINA RESULT:     -11.4      5.525     11.054
REMARK SMILES Cc1cc(N(C)C(C)C)cc(C(=O)NCCCNC(=O)c2ccc(-c3c4nc(c(-c5c(F)c(F)c(F)c(F)c5F)c5ccc([nH]5)c(-c5c(F)c(F)c(F)c(F)c5F)c5nc(c(-c6c(F)c(F)c(F)c(F)c6F)c6ccc3[nH]6)C=C5)C=C4)cc2)c1N
REMARK SMILES IDX 16 1 15 2 14 3 12 4 13 5 11 7 1 8 2 9 3 10 84 11 4 12 10 13
REMARK SMILES IDX 85 14 5 17 6 18 7 19 8 20 9 21 17 22 18 23 19 24 20 26 21 27
REMARK SMILES IDX 22 28 83 29 23 30 82 31 24 32 25 33 26 34 76 35 27 36 81 37
REMARK SMILES IDX 75 38 77 39 28 40 80 41 74 42 73 43 29 45 61 46 41 47 60 48
REMARK SMILES IDX 42 49 45 50 59 51 78 52 43 53 44 54 58 56 79 57 46 58 30 59
REMARK SMILES IDX 31 60 39 61 32 62 33 63 37 64 40 65 34 66 35 67 38 68 36 69
REMARK SMILES IDX 62 70 63 71 71 72 64 73 65 74 69 75 72 76 66 77 67 78 70 79
REMARK SMILES IDX 68 80 47 81 48 82 56 83 49 84 50 85 54 86 57 87 51 88 52 89
REMARK SMILES IDX 55 90 53 91
REMARK H PARENT 14 6 85 15 85 16 18 25 77 44 45 55
REMARK Flexibility Score: inf
ROOT
ATOM      1  C   UNL A   1      38.125  19.952  24.803  1.00  0.00     0.042 C 
ENDROOT
BRANCH   1   2
ATOM      2  C   UNL A   1      37.286  21.204  24.536  1.00  0.00     0.118 C 
BRANCH   2   3
ATOM      3  N   UNL A   1      37.759  22.314  25.340  1.00  0.00    -0.352 N 
ATOM      4  C   UNL A   1      37.160  23.453  25.822  1.00  0.00     0.253 C 
ATOM      5  O   UNL A   1      37.894  24.211  26.465  1.00  0.00    -0.269 OA
ATOM      6  H   UNL A   1      38.707  22.237  25.593  1.00  0.00     0.163 HD
BRANCH   4   7
ATOM      7  C   UNL A   1      35.704  23.781  25.655  1.00  0.00     0.065 A 
ATOM      8  C   UNL A   1      32.322  22.694  27.050  1.00  0.00     0.046 C 
ATOM      9  C   UNL A   1      33.394  23.379  26.244  1.00  0.00    -0.025 A 
ATOM     10  C   UNL A   1      33.008  24.330  25.275  1.00  0.00     0.031 A 
ATOM     11  C   UNL A   1      34.754  23.086  26.435  1.00  0.00     0.047 A 
ATOM     12  C   UNL A   1      33.914  25.040  24.481  1.00  0.00     0.038 A 
ATOM     13  C   UNL A   1      35.265  24.794  24.780  1.00  0.00     0.042 A 
BRANCH  11  14
ATOM     14  N   UNL A   1      35.121  22.024  27.268  1.00  0.00    -0.398 N 
ATOM     15  H   UNL A   1      34.444  21.373  27.564  1.00  0.00     0.156 HD
ATOM     16  H   UNL A   1      36.056  21.927  27.559  1.00  0.00     0.156 HD
ENDBRANCH  11  14
BRANCH  12  17
ATOM     17  N   UNL A   1      33.528  25.902  23.461  1.00  0.00    -0.372 N 
ATOM     18  C   UNL A   1      33.107  25.380  22.154  1.00  0.00     0.144 C 
BRANCH  17  19
ATOM     19  C   UNL A   1      33.371  27.374  23.578  1.00  0.00     0.075 C 
ATOM     20  C   UNL A   1      33.854  28.118  22.333  1.00  0.00     0.030 C 
ATOM     21  C   UNL A   1      31.990  27.793  24.077  1.00  0.00     0.030 C 
ENDBRANCH  17  19
ENDBRANCH  12  17
ENDBRANCH   4   7
ENDBRANCH   2   3
ENDBRANCH   1   2
BRANCH   1  22
ATOM     22  C   UNL A   1      39.028  20.083  26.028  1.00  0.00     0.118 C 
BRANCH  22  23
ATOM     23  N   UNL A   1      40.138  19.143  25.985  1.00  0.00    -0.352 N 
ATOM     24  C   UNL A   1      41.490  19.375  26.018  1.00  0.00     0.251 C 
ATOM     25  H   UNL A   1      39.880  18.195  25.922  1.00  0.00     0.163 HD
ATOM     26  O   UNL A   1      42.269  18.469  25.739  1.00  0.00    -0.269 OA
BRANCH  24  27
ATOM     27  C   UNL A   1      42.019  20.710  26.376  1.00  0.00     0.039 A 
ATOM     28  C   UNL A   1      42.281  21.625  25.353  1.00  0.00     0.014 A 
ATOM     29  C   UNL A   1      42.304  21.044  27.703  1.00  0.00     0.014 A 
ATOM     30  C   UNL A   1      42.781  22.892  25.663  1.00  0.00     0.010 A 
ATOM     31  C   UNL A   1      42.741  22.328  28.017  1.00  0.00     0.010 A 
ATOM     32  C   UNL A   1      42.988  23.264  27.001  1.00  0.00    -0.014 A 
BRANCH  32  33
ATOM     33  C   UNL A   1      43.466  24.623  27.359  1.00  0.00     0.031 A 
ATOM     34  C   UNL A   1      42.509  25.638  27.916  1.00  0.00     0.074 A 
ATOM     35  C   UNL A   1      44.745  24.963  27.110  1.00  0.00     0.049 A 
ATOM     36  N   UNL A   1      42.709  26.902  28.193  1.00  0.00    -0.248 NA
ATOM     37  C   UNL A   1      41.135  25.179  28.172  1.00  0.00     0.031 C 
ATOM     38  C   UNL A   1      45.758  24.078  26.533  1.00  0.00     0.029 A 
ATOM     39  N   UNL A   1      45.408  26.151  27.295  1.00  0.00    -0.354 N 
ATOM     40  C   UNL A   1      41.486  27.391  28.634  1.00  0.00     0.074 A 
ATOM     41  C   UNL A   1      40.538  26.302  28.546  1.00  0.00     0.031 C 
ATOM     42  C   UNL A   1      46.915  24.749  26.420  1.00  0.00     0.029 A 
ATOM     43  C   UNL A   1      46.717  26.120  26.879  1.00  0.00     0.049 A 
ATOM     44  H   UNL A   1      44.986  26.949  27.686  1.00  0.00     0.167 HD
ATOM     45  C   UNL A   1      41.188  28.633  29.086  1.00  0.00     0.037 A 
ATOM     46  C   UNL A   1      47.648  27.093  26.857  1.00  0.00     0.037 A 
ATOM     47  C   UNL A   1      42.142  29.704  29.198  1.00  0.00     0.049 A 
ATOM     48  C   UNL A   1      47.291  28.462  27.367  1.00  0.00     0.074 A 
ATOM     49  C   UNL A   1      41.954  30.978  29.706  1.00  0.00     0.029 A 
ATOM     50  N   UNL A   1      43.466  29.626  28.794  1.00  0.00    -0.354 N 
ATOM     51  N   UNL A   1      46.148  28.896  27.841  1.00  0.00    -0.248 NA
ATOM     52  C   UNL A   1      48.353  29.477  27.345  1.00  0.00     0.031 C 
ATOM     53  C   UNL A   1      43.152  31.686  29.568  1.00  0.00     0.029 A 
ATOM     54  C   UNL A   1      44.102  30.836  29.021  1.00  0.00     0.049 A 
ATOM     55  H   UNL A   1      43.892  28.829  28.403  1.00  0.00     0.167 HD
ATOM     56  C   UNL A   1      46.360  30.221  28.197  1.00  0.00     0.074 A 
ATOM     57  C   UNL A   1      47.745  30.516  27.897  1.00  0.00     0.031 C 
ATOM     58  C   UNL A   1      45.485  31.110  28.725  1.00  0.00     0.037 A 
BRANCH  45  59
ATOM     59  C   UNL A   1      39.768  28.901  29.499  1.00  0.00     0.064 A 
ATOM     60  C   UNL A   1      38.815  29.383  28.588  1.00  0.00     0.173 A 
ATOM     61  C   UNL A   1      39.347  28.634  30.810  1.00  0.00     0.173 A 
ATOM     62  F   UNL A   1      39.169  29.662  27.325  1.00  0.00    -0.203 F 
ATOM     63  C   UNL A   1      37.500  29.613  28.984  1.00  0.00     0.198 A 
ATOM     64  C   UNL A   1      38.023  28.837  31.193  1.00  0.00     0.198 A 
ATOM     65  F   UNL A   1      40.215  28.166  31.719  1.00  0.00    -0.203 F 
ATOM     66  F   UNL A   1      36.619  30.117  28.109  1.00  0.00    -0.200 F 
ATOM     67  C   UNL A   1      37.103  29.333  30.283  1.00  0.00     0.200 A 
ATOM     68  F   UNL A   1      37.638  28.553  32.446  1.00  0.00    -0.200 F 
ATOM     69  F   UNL A   1      35.835  29.547  30.658  1.00  0.00    -0.200 F 
ENDBRANCH  45  59
BRANCH  46  70
ATOM     70  C   UNL A   1      49.013  26.799  26.351  1.00  0.00     0.064 A 
ATOM     71  C   UNL A   1      49.351  27.041  25.012  1.00  0.00     0.173 A 
ATOM     72  C   UNL A   1      50.007  26.276  27.190  1.00  0.00     0.173 A 
ATOM     73  F   UNL A   1      48.430  27.523  24.166  1.00  0.00    -0.203 F 
ATOM     74  C   UNL A   1      50.626  26.755  24.528  1.00  0.00     0.198 A 
ATOM     75  C   UNL A   1      51.289  26.015  26.712  1.00  0.00     0.198 A 
ATOM     76  F   UNL A   1      49.736  26.032  28.481  1.00  0.00    -0.203 F 
ATOM     77  F   UNL A   1      50.911  26.957  23.235  1.00  0.00    -0.200 F 
ATOM     78  C   UNL A   1      51.596  26.248  25.380  1.00  0.00     0.200 A 
ATOM     79  F   UNL A   1      52.229  25.541  27.542  1.00  0.00    -0.200 F 
ATOM     80  F   UNL A   1      52.824  25.979  24.916  1.00  0.00    -0.200 F 
ENDBRANCH  46  70
BRANCH  58  81
ATOM     81  C   UNL A   1      46.007  32.481  29.047  1.00  0.00     0.064 A 
ATOM     82  C   UNL A   1      46.606  32.768  30.281  1.00  0.00     0.173 A 
ATOM     83  C   UNL A   1      45.950  33.504  28.088  1.00  0.00     0.173 A 
ATOM     84  F   UNL A   1      46.671  31.828  31.236  1.00  0.00    -0.203 F 
ATOM     85  C   UNL A   1      47.111  34.037  30.552  1.00  0.00     0.198 A 
ATOM     86  C   UNL A   1      46.482  34.762  28.352  1.00  0.00     0.198 A 
ATOM     87  F   UNL A   1      45.392  33.277  26.890  1.00  0.00    -0.203 F 
ATOM     88  F   UNL A   1      47.642  34.303  31.753  1.00  0.00    -0.200 F 
ATOM     89  C   UNL A   1      47.056  35.030  29.585  1.00  0.00     0.200 A 
ATOM     90  F   UNL A   1      46.440  35.717  27.411  1.00  0.00    -0.200 F 
ATOM     91  F   UNL A   1      47.553  36.247  29.843  1.00  0.00    -0.200 F 
ENDBRANCH  58  81
ENDBRANCH  32  33
ENDBRANCH  24  27
ENDBRANCH  22  23
ENDBRANCH   1  22
TORSDOF 13
ENDMDL
