MODEL 1
REMARK VINA RESULT:     -12.3      0.000      0.000
REMARK SMILES O=C(NCCCNC(=O)[C@H]1CC[C@@H](CNC(=O)c2ccc(CO)cc2)O1)c1ccc(-c2c3nc(c(-c4c(F)c(F)c(F)c(F)c4F)c4ccc([nH]4)c(-c4c(F)c(F)c(F)c(F)c4F)c4nc(c(-c5c(F)c(F)c(F)c(F)c5F)c5ccc2[nH]5)C=C4)C=C3)cc1
REMARK SMILES IDX 7 1 8 2 9 3 6 5 5 6 4 7 3 8 1 9 2 10 27 12 28 13 89 14 29 15
REMARK SMILES IDX 88 16 30 17 31 18 32 19 82 20 33 21 87 22 81 23 83 24 34 25
REMARK SMILES IDX 86 26 80 27 79 28 35 30 67 31 47 32 66 33 48 34 51 35 65 36
REMARK SMILES IDX 84 37 49 38 50 39 64 41 85 42 52 43 36 44 37 45 45 46 38 47
REMARK SMILES IDX 39 48 43 49 46 50 40 51 41 52 44 53 42 54 68 55 69 56 77 57
REMARK SMILES IDX 70 58 71 59 75 60 78 61 72 62 73 63 76 64 74 65 53 66 54 67
REMARK SMILES IDX 62 68 55 69 56 70 60 71 63 72 57 73 58 74 61 75 59 76 10 77
REMARK SMILES IDX 11 78 26 79 12 80 13 81 14 82 15 83 16 84 17 86 18 87 19 88
REMARK SMILES IDX 25 89 20 90 24 91 21 92 22 93 23 94
REMARK H PARENT 7 4 3 11 83 29 51 40 15 85 23 95
REMARK Flexibility Score: inf
ROOT
ATOM      1  N   UNL A   1      32.391  29.885  25.248  1.00  0.00    -0.354 N 
ATOM      2  C   UNL A   1      32.171  28.971  24.257  1.00  0.00     0.249 C 
ATOM      3  O   UNL A   1      33.069  28.796  23.432  1.00  0.00    -0.272 OA
ATOM      4  H   UNL A   1      33.257  30.352  25.210  1.00  0.00     0.163 HD
ENDROOT
BRANCH   1   5
ATOM      5  C   UNL A   1      31.525  30.263  26.348  1.00  0.00     0.117 C 
BRANCH   5   6
ATOM      6  C   UNL A   1      31.387  31.774  26.474  1.00  0.00     0.042 C 
BRANCH   6   7
ATOM      7  C   UNL A   1      32.651  32.479  26.952  1.00  0.00     0.118 C 
BRANCH   7   8
ATOM      8  N   UNL A   1      32.410  33.830  27.445  1.00  0.00    -0.352 N 
ATOM      9  O   UNL A   1      32.572  35.619  28.806  1.00  0.00    -0.269 OA
ATOM     10  C   UNL A   1      33.029  34.536  28.450  1.00  0.00     0.251 C 
ATOM     11  H   UNL A   1      31.687  34.315  26.984  1.00  0.00     0.163 HD
BRANCH  10  12
ATOM     12  C   UNL A   1      34.226  33.990  29.126  1.00  0.00     0.039 A 
ATOM     13  C   UNL A   1      35.499  34.477  28.828  1.00  0.00     0.014 A 
ATOM     14  C   UNL A   1      34.075  32.988  30.090  1.00  0.00     0.014 A 
ATOM     15  C   UNL A   1      36.620  33.845  29.350  1.00  0.00     0.010 A 
ATOM     16  C   UNL A   1      35.203  32.425  30.700  1.00  0.00     0.010 A 
ATOM     17  C   UNL A   1      36.488  32.822  30.305  1.00  0.00    -0.014 A 
BRANCH  17  18
ATOM     18  C   UNL A   1      37.722  32.246  30.903  1.00  0.00     0.031 A 
ATOM     19  C   UNL A   1      38.180  32.627  32.284  1.00  0.00     0.074 A 
ATOM     20  C   UNL A   1      38.390  31.307  30.205  1.00  0.00     0.049 A 
ATOM     21  N   UNL A   1      39.178  32.143  32.983  1.00  0.00    -0.248 NA
ATOM     22  C   UNL A   1      37.431  33.690  32.970  1.00  0.00     0.031 C 
ATOM     23  C   UNL A   1      38.058  30.878  28.845  1.00  0.00     0.029 A 
ATOM     24  N   UNL A   1      39.460  30.519  30.549  1.00  0.00    -0.354 N 
ATOM     25  C   UNL A   1      39.180  32.842  34.182  1.00  0.00     0.074 A 
ATOM     26  C   UNL A   1      38.107  33.810  34.106  1.00  0.00     0.031 C 
ATOM     27  C   UNL A   1      38.861  29.865  28.494  1.00  0.00     0.029 A 
ATOM     28  C   UNL A   1      39.805  29.614  29.577  1.00  0.00     0.049 A 
ATOM     29  H   UNL A   1      39.933  30.597  31.408  1.00  0.00     0.167 HD
ATOM     30  C   UNL A   1      39.995  32.679  35.253  1.00  0.00     0.037 A 
ATOM     31  C   UNL A   1      40.779  28.686  29.551  1.00  0.00     0.037 A 
ATOM     32  C   UNL A   1      41.060  31.710  35.327  1.00  0.00     0.049 A 
ATOM     33  C   UNL A   1      41.664  28.529  30.754  1.00  0.00     0.074 A 
ATOM     34  C   UNL A   1      41.936  31.465  36.371  1.00  0.00     0.029 A 
ATOM     35  N   UNL A   1      41.394  30.825  34.312  1.00  0.00    -0.354 N 
ATOM     36  N   UNL A   1      41.635  29.179  31.892  1.00  0.00    -0.248 NA
ATOM     37  C   UNL A   1      42.717  27.509  30.670  1.00  0.00     0.031 C 
ATOM     38  C   UNL A   1      42.823  30.457  35.975  1.00  0.00     0.029 A 
ATOM     39  C   UNL A   1      42.471  30.040  34.702  1.00  0.00     0.049 A 
ATOM     40  H   UNL A   1      40.935  30.761  33.444  1.00  0.00     0.167 HD
ATOM     41  C   UNL A   1      42.659  28.645  32.660  1.00  0.00     0.074 A 
ATOM     42  C   UNL A   1      43.265  27.592  31.872  1.00  0.00     0.031 C 
ATOM     43  C   UNL A   1      43.067  29.003  33.902  1.00  0.00     0.037 A 
BRANCH  30  44
ATOM     44  C   UNL A   1      39.772  33.569  36.443  1.00  0.00     0.064 A 
ATOM     45  C   UNL A   1      40.356  34.842  36.525  1.00  0.00     0.173 A 
ATOM     46  C   UNL A   1      38.916  33.173  37.482  1.00  0.00     0.173 A 
ATOM     47  F   UNL A   1      41.191  35.265  35.564  1.00  0.00    -0.203 F 
ATOM     48  C   UNL A   1      40.105  35.677  37.611  1.00  0.00     0.198 A 
ATOM     49  C   UNL A   1      38.647  34.021  38.554  1.00  0.00     0.198 A 
ATOM     50  F   UNL A   1      38.327  31.968  37.451  1.00  0.00    -0.203 F 
ATOM     51  F   UNL A   1      40.701  36.876  37.685  1.00  0.00    -0.200 F 
ATOM     52  C   UNL A   1      39.244  35.270  38.619  1.00  0.00     0.200 A 
ATOM     53  F   UNL A   1      37.804  33.631  39.521  1.00  0.00    -0.200 F 
ATOM     54  F   UNL A   1      38.994  36.081  39.657  1.00  0.00    -0.200 F 
ENDBRANCH  30  44
BRANCH  31  55
ATOM     55  C   UNL A   1      40.966  27.844  28.342  1.00  0.00     0.064 A 
ATOM     56  C   UNL A   1      41.780  28.263  27.281  1.00  0.00     0.173 A 
ATOM     57  C   UNL A   1      40.335  26.596  28.227  1.00  0.00     0.173 A 
ATOM     58  F   UNL A   1      42.390  29.456  27.336  1.00  0.00    -0.203 F 
ATOM     59  C   UNL A   1      41.939  27.475  26.143  1.00  0.00     0.198 A 
ATOM     60  C   UNL A   1      40.523  25.795  27.104  1.00  0.00     0.198 A 
ATOM     61  F   UNL A   1      39.551  26.146  29.218  1.00  0.00    -0.203 F 
ATOM     62  F   UNL A   1      42.683  27.921  25.122  1.00  0.00    -0.200 F 
ATOM     63  C   UNL A   1      41.316  26.239  26.059  1.00  0.00     0.200 A 
ATOM     64  F   UNL A   1      39.933  24.593  27.037  1.00  0.00    -0.200 F 
ATOM     65  F   UNL A   1      41.476  25.479  24.967  1.00  0.00    -0.200 F 
ENDBRANCH  31  55
BRANCH  43  66
ATOM     66  C   UNL A   1      44.220  28.235  34.481  1.00  0.00     0.064 A 
ATOM     67  C   UNL A   1      45.544  28.669  34.319  1.00  0.00     0.173 A 
ATOM     68  C   UNL A   1      43.997  27.055  35.206  1.00  0.00     0.173 A 
ATOM     69  F   UNL A   1      45.809  29.782  33.618  1.00  0.00    -0.203 F 
ATOM     70  C   UNL A   1      46.606  27.930  34.831  1.00  0.00     0.198 A 
ATOM     71  C   UNL A   1      45.060  26.335  35.743  1.00  0.00     0.198 A 
ATOM     72  F   UNL A   1      42.749  26.602  35.394  1.00  0.00    -0.203 F 
ATOM     73  F   UNL A   1      47.866  28.332  34.613  1.00  0.00    -0.200 F 
ATOM     74  C   UNL A   1      46.364  26.767  35.546  1.00  0.00     0.200 A 
ATOM     75  F   UNL A   1      44.824  25.217  36.443  1.00  0.00    -0.200 F 
ATOM     76  F   UNL A   1      47.388  26.054  36.036  1.00  0.00    -0.200 F 
ENDBRANCH  43  66
ENDBRANCH  17  18
ENDBRANCH  10  12
ENDBRANCH   7   8
ENDBRANCH   6   7
ENDBRANCH   5   6
ENDBRANCH   1   5
BRANCH   2  77
ATOM     77  C   UNL A   1      30.822  28.225  24.205  1.00  0.00     0.207 C 
ATOM     78  C   UNL A   1      30.438  27.816  22.793  1.00  0.00     0.045 C 
ATOM     79  O   UNL A   1      30.875  27.008  24.967  1.00  0.00    -0.363 OA
ATOM     80  C   UNL A   1      31.124  26.481  22.656  1.00  0.00     0.037 C 
ATOM     81  C   UNL A   1      30.962  25.891  24.049  1.00  0.00     0.138 C 
BRANCH  81  82
ATOM     82  C   UNL A   1      32.092  24.956  24.499  1.00  0.00     0.148 C 
BRANCH  82  83
ATOM     83  N   UNL A   1      33.226  24.904  23.588  1.00  0.00    -0.349 N 
ATOM     84  C   UNL A   1      34.065  23.847  23.327  1.00  0.00     0.251 C 
ATOM     85  H   UNL A   1      33.417  25.733  23.094  1.00  0.00     0.163 HD
ATOM     86  O   UNL A   1      35.108  24.025  22.704  1.00  0.00    -0.269 OA
BRANCH  84  87
ATOM     87  C   UNL A   1      33.722  22.491  23.812  1.00  0.00     0.039 A 
ATOM     88  C   UNL A   1      32.621  21.833  23.261  1.00  0.00     0.014 A 
ATOM     89  C   UNL A   1      34.461  21.889  24.836  1.00  0.00     0.014 A 
ATOM     90  C   UNL A   1      32.305  20.538  23.683  1.00  0.00     0.007 A 
ATOM     91  C   UNL A   1      34.149  20.592  25.249  1.00  0.00     0.007 A 
ATOM     92  C   UNL A   1      33.085  19.898  24.659  1.00  0.00    -0.023 A 
BRANCH  92  93
ATOM     93  C   UNL A   1      32.752  18.495  25.094  1.00  0.00     0.191 C 
BRANCH  93  94
ATOM     94  O   UNL A   1      32.618  18.417  26.505  1.00  0.00    -0.392 OA
ATOM     95  H   UNL A   1      32.189  17.580  26.742  1.00  0.00     0.211 HD
ENDBRANCH  93  94
ENDBRANCH  92  93
ENDBRANCH  84  87
ENDBRANCH  82  83
ENDBRANCH  81  82
ENDBRANCH   2  77
TORSDOF 15
ENDMDL
MODEL 2
REMARK VINA RESULT:     -12.3      1.161      1.792
REMARK SMILES O=C(NCCCNC(=O)[C@H]1CC[C@@H](CNC(=O)c2ccc(CO)cc2)O1)c1ccc(-c2c3nc(c(-c4c(F)c(F)c(F)c(F)c4F)c4ccc([nH]4)c(-c4c(F)c(F)c(F)c(F)c4F)c4nc(c(-c5c(F)c(F)c(F)c(F)c5F)c5ccc2[nH]5)C=C4)C=C3)cc1
REMARK SMILES IDX 7 1 8 2 9 3 6 5 5 6 4 7 3 8 1 9 2 10 27 12 28 13 89 14 29 15
REMARK SMILES IDX 88 16 30 17 31 18 32 19 82 20 33 21 87 22 81 23 83 24 34 25
REMARK SMILES IDX 86 26 80 27 79 28 35 30 67 31 47 32 66 33 48 34 51 35 65 36
REMARK SMILES IDX 84 37 49 38 50 39 64 41 85 42 52 43 36 44 37 45 45 46 38 47
REMARK SMILES IDX 39 48 43 49 46 50 40 51 41 52 44 53 42 54 68 55 69 56 77 57
REMARK SMILES IDX 70 58 71 59 75 60 78 61 72 62 73 63 76 64 74 65 53 66 54 67
REMARK SMILES IDX 62 68 55 69 56 70 60 71 63 72 57 73 58 74 61 75 59 76 10 77
REMARK SMILES IDX 11 78 26 79 12 80 13 81 14 82 15 83 16 84 17 86 18 87 19 88
REMARK SMILES IDX 25 89 20 90 24 91 21 92 22 93 23 94
REMARK H PARENT 7 4 3 11 83 29 51 40 15 85 23 95
REMARK Flexibility Score: inf
ROOT
ATOM      1  N   UNL A   1      32.397  29.291  27.554  1.00  0.00    -0.354 N 
ATOM      2  C   UNL A   1      31.682  28.478  26.721  1.00  0.00     0.249 C 
ATOM      3  O   UNL A   1      31.159  27.476  27.211  1.00  0.00    -0.272 OA
ATOM      4  H   UNL A   1      32.453  28.994  28.491  1.00  0.00     0.163 HD
ENDROOT
BRANCH   1   5
ATOM      5  C   UNL A   1      33.084  30.532  27.249  1.00  0.00     0.117 C 
BRANCH   5   6
ATOM      6  C   UNL A   1      32.144  31.729  27.280  1.00  0.00     0.042 C 
BRANCH   6   7
ATOM      7  C   UNL A   1      32.770  33.027  26.783  1.00  0.00     0.118 C 
BRANCH   7   8
ATOM      8  N   UNL A   1      32.453  34.180  27.619  1.00  0.00    -0.352 N 
ATOM      9  O   UNL A   1      32.516  35.544  29.412  1.00  0.00    -0.269 OA
ATOM     10  C   UNL A   1      33.034  34.624  28.784  1.00  0.00     0.251 C 
ATOM     11  H   UNL A   1      31.701  34.729  27.297  1.00  0.00     0.163 HD
BRANCH  10  12
ATOM     12  C   UNL A   1      34.265  33.986  29.301  1.00  0.00     0.039 A 
ATOM     13  C   UNL A   1      34.194  32.867  30.131  1.00  0.00     0.014 A 
ATOM     14  C   UNL A   1      35.513  34.501  28.935  1.00  0.00     0.014 A 
ATOM     15  C   UNL A   1      35.347  32.382  30.735  1.00  0.00     0.010 A 
ATOM     16  C   UNL A   1      36.684  33.941  29.459  1.00  0.00     0.010 A 
ATOM     17  C   UNL A   1      36.608  32.900  30.396  1.00  0.00    -0.014 A 
BRANCH  17  18
ATOM     18  C   UNL A   1      37.818  32.279  30.999  1.00  0.00     0.031 A 
ATOM     19  C   UNL A   1      38.266  32.620  32.393  1.00  0.00     0.074 A 
ATOM     20  C   UNL A   1      38.471  31.337  30.291  1.00  0.00     0.049 A 
ATOM     21  N   UNL A   1      39.241  32.095  33.095  1.00  0.00    -0.248 NA
ATOM     22  C   UNL A   1      37.536  33.689  33.091  1.00  0.00     0.031 C 
ATOM     23  C   UNL A   1      38.146  30.944  28.918  1.00  0.00     0.029 A 
ATOM     24  N   UNL A   1      39.514  30.514  30.633  1.00  0.00    -0.354 N 
ATOM     25  C   UNL A   1      39.246  32.770  34.308  1.00  0.00     0.074 A 
ATOM     26  C   UNL A   1      38.199  33.768  34.238  1.00  0.00     0.031 C 
ATOM     27  C   UNL A   1      38.927  29.917  28.557  1.00  0.00     0.029 A 
ATOM     28  C   UNL A   1      39.849  29.619  29.647  1.00  0.00     0.049 A 
ATOM     29  H   UNL A   1      39.977  30.561  31.500  1.00  0.00     0.167 HD
ATOM     30  C   UNL A   1      40.040  32.563  35.387  1.00  0.00     0.037 A 
ATOM     31  C   UNL A   1      40.798  28.666  29.616  1.00  0.00     0.037 A 
ATOM     32  C   UNL A   1      41.078  31.566  35.455  1.00  0.00     0.049 A 
ATOM     33  C   UNL A   1      41.662  28.462  30.826  1.00  0.00     0.074 A 
ATOM     34  C   UNL A   1      41.933  31.276  36.506  1.00  0.00     0.029 A 
ATOM     35  N   UNL A   1      41.403  30.692  34.427  1.00  0.00    -0.354 N 
ATOM     36  N   UNL A   1      41.634  29.089  31.977  1.00  0.00    -0.248 NA
ATOM     37  C   UNL A   1      42.688  27.416  30.736  1.00  0.00     0.031 C 
ATOM     38  C   UNL A   1      42.798  30.253  36.101  1.00  0.00     0.029 A 
ATOM     39  C   UNL A   1      42.453  29.871  34.815  1.00  0.00     0.049 A 
ATOM     40  H   UNL A   1      40.955  30.658  33.552  1.00  0.00     0.167 HD
ATOM     41  C   UNL A   1      42.632  28.513  32.748  1.00  0.00     0.074 A 
ATOM     42  C   UNL A   1      43.222  27.460  31.947  1.00  0.00     0.031 C 
ATOM     43  C   UNL A   1      43.033  28.834  34.003  1.00  0.00     0.037 A 
BRANCH  30  44
ATOM     44  C   UNL A   1      39.824  33.435  36.592  1.00  0.00     0.064 A 
ATOM     45  C   UNL A   1      40.526  34.638  36.761  1.00  0.00     0.173 A 
ATOM     46  C   UNL A   1      38.862  33.097  37.556  1.00  0.00     0.173 A 
ATOM     47  F   UNL A   1      41.465  35.003  35.874  1.00  0.00    -0.203 F 
ATOM     48  C   UNL A   1      40.284  35.462  37.858  1.00  0.00     0.198 A 
ATOM     49  C   UNL A   1      38.604  33.936  38.638  1.00  0.00     0.198 A 
ATOM     50  F   UNL A   1      38.159  31.961  37.440  1.00  0.00    -0.203 F 
ATOM     51  F   UNL A   1      40.991  36.590  38.016  1.00  0.00    -0.200 F 
ATOM     52  C   UNL A   1      39.317  35.115  38.789  1.00  0.00     0.200 A 
ATOM     53  F   UNL A   1      37.661  33.605  39.531  1.00  0.00    -0.200 F 
ATOM     54  F   UNL A   1      39.078  35.916  39.838  1.00  0.00    -0.200 F 
ENDBRANCH  30  44
BRANCH  31  55
ATOM     55  C   UNL A   1      40.979  27.844  28.392  1.00  0.00     0.064 A 
ATOM     56  C   UNL A   1      41.834  28.252  27.360  1.00  0.00     0.173 A 
ATOM     57  C   UNL A   1      40.302  26.626  28.235  1.00  0.00     0.173 A 
ATOM     58  F   UNL A   1      42.490  29.419  27.456  1.00  0.00    -0.203 F 
ATOM     59  C   UNL A   1      41.988  27.484  26.208  1.00  0.00     0.198 A 
ATOM     60  C   UNL A   1      40.483  25.842  27.098  1.00  0.00     0.198 A 
ATOM     61  F   UNL A   1      39.477  26.186  29.197  1.00  0.00    -0.203 F 
ATOM     62  F   UNL A   1      42.773  27.921  25.214  1.00  0.00    -0.200 F 
ATOM     63  C   UNL A   1      41.318  26.276  26.081  1.00  0.00     0.200 A 
ATOM     64  F   UNL A   1      39.848  24.667  26.991  1.00  0.00    -0.200 F 
ATOM     65  F   UNL A   1      41.473  25.535  24.976  1.00  0.00    -0.200 F 
ENDBRANCH  31  55
BRANCH  43  66
ATOM     66  C   UNL A   1      44.156  28.025  34.581  1.00  0.00     0.064 A 
ATOM     67  C   UNL A   1      45.494  28.425  34.444  1.00  0.00     0.173 A 
ATOM     68  C   UNL A   1      43.892  26.838  35.280  1.00  0.00     0.173 A 
ATOM     69  F   UNL A   1      45.798  29.544  33.768  1.00  0.00    -0.203 F 
ATOM     70  C   UNL A   1      46.529  27.648  34.956  1.00  0.00     0.198 A 
ATOM     71  C   UNL A   1      44.928  26.079  35.816  1.00  0.00     0.198 A 
ATOM     72  F   UNL A   1      42.629  26.415  35.443  1.00  0.00    -0.203 F 
ATOM     73  F   UNL A   1      47.802  28.019  34.761  1.00  0.00    -0.200 F 
ATOM     74  C   UNL A   1      46.246  26.478  35.645  1.00  0.00     0.200 A 
ATOM     75  F   UNL A   1      44.652  24.954  36.492  1.00  0.00    -0.200 F 
ATOM     76  F   UNL A   1      47.243  25.729  36.134  1.00  0.00    -0.200 F 
ENDBRANCH  43  66
ENDBRANCH  17  18
ENDBRANCH  10  12
ENDBRANCH   7   8
ENDBRANCH   6   7
ENDBRANCH   5   6
ENDBRANCH   1   5
BRANCH   2  77
ATOM     77  C   UNL A   1      31.579  28.836  25.223  1.00  0.00     0.207 C 
ATOM     78  C   UNL A   1      32.914  28.730  24.508  1.00  0.00     0.045 C 
ATOM     79  O   UNL A   1      30.691  27.938  24.537  1.00  0.00    -0.363 OA
ATOM     80  C   UNL A   1      32.941  27.277  24.107  1.00  0.00     0.037 C 
ATOM     81  C   UNL A   1      31.485  27.015  23.752  1.00  0.00     0.138 C 
BRANCH  81  82
ATOM     82  C   UNL A   1      30.995  25.584  24.012  1.00  0.00     0.148 C 
BRANCH  82  83
ATOM     83  N   UNL A   1      30.910  25.226  25.420  1.00  0.00    -0.349 N 
ATOM     84  C   UNL A   1      31.727  24.387  26.140  1.00  0.00     0.251 C 
ATOM     85  H   UNL A   1      30.172  25.639  25.923  1.00  0.00     0.163 HD
ATOM     86  O   UNL A   1      31.395  24.013  27.261  1.00  0.00    -0.269 OA
BRANCH  84  87
ATOM     87  C   UNL A   1      33.004  23.918  25.558  1.00  0.00     0.039 A 
ATOM     88  C   UNL A   1      33.028  22.706  24.864  1.00  0.00     0.014 A 
ATOM     89  C   UNL A   1      34.183  24.651  25.731  1.00  0.00     0.014 A 
ATOM     90  C   UNL A   1      34.218  22.266  24.278  1.00  0.00     0.007 A 
ATOM     91  C   UNL A   1      35.369  24.214  25.136  1.00  0.00     0.007 A 
ATOM     92  C   UNL A   1      35.390  23.031  24.385  1.00  0.00    -0.023 A 
BRANCH  92  93
ATOM     93  C   UNL A   1      36.664  22.563  23.734  1.00  0.00     0.191 C 
BRANCH  93  94
ATOM     94  O   UNL A   1      36.722  22.968  22.375  1.00  0.00    -0.392 OA
ATOM     95  H   UNL A   1      36.601  22.195  21.802  1.00  0.00     0.211 HD
ENDBRANCH  93  94
ENDBRANCH  92  93
ENDBRANCH  84  87
ENDBRANCH  82  83
ENDBRANCH  81  82
ENDBRANCH   2  77
TORSDOF 15
ENDMDL
MODEL 3
REMARK VINA RESULT:     -12.2      5.108     10.965
REMARK SMILES O=C(NCCCNC(=O)[C@H]1CC[C@@H](CNC(=O)c2ccc(CO)cc2)O1)c1ccc(-c2c3nc(c(-c4c(F)c(F)c(F)c(F)c4F)c4ccc([nH]4)c(-c4c(F)c(F)c(F)c(F)c4F)c4nc(c(-c5c(F)c(F)c(F)c(F)c5F)c5ccc2[nH]5)C=C4)C=C3)cc1
REMARK SMILES IDX 7 1 8 2 9 3 6 5 5 6 4 7 3 8 1 9 2 10 27 12 28 13 89 14 29 15
REMARK SMILES IDX 88 16 30 17 31 18 32 19 82 20 33 21 87 22 81 23 83 24 34 25
REMARK SMILES IDX 86 26 80 27 79 28 35 30 67 31 47 32 66 33 48 34 51 35 65 36
REMARK SMILES IDX 84 37 49 38 50 39 64 41 85 42 52 43 36 44 37 45 45 46 38 47
REMARK SMILES IDX 39 48 43 49 46 50 40 51 41 52 44 53 42 54 68 55 69 56 77 57
REMARK SMILES IDX 70 58 71 59 75 60 78 61 72 62 73 63 76 64 74 65 53 66 54 67
REMARK SMILES IDX 62 68 55 69 56 70 60 71 63 72 57 73 58 74 61 75 59 76 10 77
REMARK SMILES IDX 11 78 26 79 12 80 13 81 14 82 15 83 16 84 17 86 18 87 19 88
REMARK SMILES IDX 25 89 20 90 24 91 21 92 22 93 23 94
REMARK H PARENT 7 4 3 11 83 29 51 40 15 85 23 95
REMARK Flexibility Score: inf
ROOT
ATOM      1  N   UNL A   1      35.826  20.506  25.020  1.00  0.00    -0.354 N 
ATOM      2  C   UNL A   1      34.732  21.323  25.056  1.00  0.00     0.249 C 
ATOM      3  O   UNL A   1      33.635  20.802  25.260  1.00  0.00    -0.272 OA
ATOM      4  H   UNL A   1      35.642  19.546  25.143  1.00  0.00     0.163 HD
ENDROOT
BRANCH   1   5
ATOM      5  C   UNL A   1      37.221  20.855  24.826  1.00  0.00     0.117 C 
BRANCH   5   6
ATOM      6  C   UNL A   1      38.140  19.653  24.994  1.00  0.00     0.042 C 
BRANCH   6   7
ATOM      7  C   UNL A   1      39.153  19.796  26.124  1.00  0.00     0.118 C 
BRANCH   7   8
ATOM      8  N   UNL A   1      40.373  19.025  25.909  1.00  0.00    -0.352 N 
ATOM      9  O   UNL A   1      42.566  18.632  25.569  1.00  0.00    -0.269 OA
ATOM     10  C   UNL A   1      41.691  19.419  25.920  1.00  0.00     0.251 C 
ATOM     11  H   UNL A   1      40.230  18.067  25.727  1.00  0.00     0.163 HD
BRANCH  10  12
ATOM     12  C   UNL A   1      42.062  20.792  26.328  1.00  0.00     0.039 A 
ATOM     13  C   UNL A   1      42.146  21.818  25.387  1.00  0.00     0.014 A 
ATOM     14  C   UNL A   1      42.310  21.066  27.677  1.00  0.00     0.014 A 
ATOM     15  C   UNL A   1      42.649  23.058  25.760  1.00  0.00     0.010 A 
ATOM     16  C   UNL A   1      42.713  22.348  28.070  1.00  0.00     0.010 A 
ATOM     17  C   UNL A   1      42.925  23.345  27.107  1.00  0.00    -0.014 A 
BRANCH  17  18
ATOM     18  C   UNL A   1      43.370  24.719  27.464  1.00  0.00     0.031 A 
ATOM     19  C   UNL A   1      44.763  25.199  27.162  1.00  0.00     0.074 A 
ATOM     20  C   UNL A   1      42.468  25.561  28.004  1.00  0.00     0.049 A 
ATOM     21  N   UNL A   1      45.274  26.395  27.323  1.00  0.00    -0.248 NA
ATOM     22  C   UNL A   1      45.709  24.215  26.616  1.00  0.00     0.031 C 
ATOM     23  C   UNL A   1      41.097  25.199  28.370  1.00  0.00     0.029 A 
ATOM     24  N   UNL A   1      42.550  26.897  28.306  1.00  0.00    -0.354 N 
ATOM     25  C   UNL A   1      46.595  26.307  26.906  1.00  0.00     0.074 A 
ATOM     26  C   UNL A   1      46.821  24.931  26.516  1.00  0.00     0.031 C 
ATOM     27  C   UNL A   1      40.448  26.295  28.785  1.00  0.00     0.029 A 
ATOM     28  C   UNL A   1      41.372  27.423  28.775  1.00  0.00     0.049 A 
ATOM     29  H   UNL A   1      43.373  27.425  28.198  1.00  0.00     0.167 HD
ATOM     30  C   UNL A   1      47.527  27.289  26.840  1.00  0.00     0.037 A 
ATOM     31  C   UNL A   1      41.066  28.674  29.164  1.00  0.00     0.037 A 
ATOM     32  C   UNL A   1      47.297  28.659  27.225  1.00  0.00     0.049 A 
ATOM     33  C   UNL A   1      42.121  29.740  29.079  1.00  0.00     0.074 A 
ATOM     34  C   UNL A   1      48.177  29.727  27.189  1.00  0.00     0.029 A 
ATOM     35  N   UNL A   1      46.096  29.150  27.717  1.00  0.00    -0.354 N 
ATOM     36  N   UNL A   1      43.358  29.646  28.654  1.00  0.00    -0.248 NA
ATOM     37  C   UNL A   1      41.738  31.085  29.525  1.00  0.00     0.031 C 
ATOM     38  C   UNL A   1      47.521  30.856  27.694  1.00  0.00     0.029 A 
ATOM     39  C   UNL A   1      46.216  30.503  28.000  1.00  0.00     0.049 A 
ATOM     40  H   UNL A   1      45.279  28.617  27.846  1.00  0.00     0.167 HD
ATOM     41  C   UNL A   1      43.898  30.917  28.776  1.00  0.00     0.074 A 
ATOM     42  C   UNL A   1      42.842  31.772  29.279  1.00  0.00     0.031 C 
ATOM     43  C   UNL A   1      45.159  31.337  28.508  1.00  0.00     0.037 A 
BRANCH  30  44
ATOM     44  C   UNL A   1      48.893  26.923  26.332  1.00  0.00     0.064 A 
ATOM     45  C   UNL A   1      49.880  26.409  27.188  1.00  0.00     0.173 A 
ATOM     46  C   UNL A   1      49.200  27.026  24.967  1.00  0.00     0.173 A 
ATOM     47  F   UNL A   1      49.641  26.299  28.504  1.00  0.00    -0.203 F 
ATOM     48  C   UNL A   1      51.127  26.029  26.698  1.00  0.00     0.198 A 
ATOM     49  C   UNL A   1      50.440  26.621  24.476  1.00  0.00     0.198 A 
ATOM     50  F   UNL A   1      48.292  27.505  24.104  1.00  0.00    -0.203 F 
ATOM     51  F   UNL A   1      52.065  25.572  27.540  1.00  0.00    -0.200 F 
ATOM     52  C   UNL A   1      51.402  26.126  25.343  1.00  0.00     0.200 A 
ATOM     53  F   UNL A   1      50.700  26.704  23.164  1.00  0.00    -0.200 F 
ATOM     54  F   UNL A   1      52.599  25.748  24.872  1.00  0.00    -0.200 F 
ENDBRANCH  30  44
BRANCH  31  55
ATOM     55  C   UNL A   1      39.704  28.977  29.675  1.00  0.00     0.064 A 
ATOM     56  C   UNL A   1      38.702  29.469  28.829  1.00  0.00     0.173 A 
ATOM     57  C   UNL A   1      39.378  28.773  31.024  1.00  0.00     0.173 A 
ATOM     58  F   UNL A   1      38.971  29.697  27.535  1.00  0.00    -0.203 F 
ATOM     59  C   UNL A   1      37.431  29.765  29.317  1.00  0.00     0.198 A 
ATOM     60  C   UNL A   1      38.098  29.037  31.503  1.00  0.00     0.198 A 
ATOM     61  F   UNL A   1      40.300  28.297  31.874  1.00  0.00    -0.203 F 
ATOM     62  F   UNL A   1      36.505  30.281  28.497  1.00  0.00    -0.200 F 
ATOM     63  C   UNL A   1      37.128  29.542  30.652  1.00  0.00     0.200 A 
ATOM     64  F   UNL A   1      37.806  28.801  32.790  1.00  0.00    -0.200 F 
ATOM     65  F   UNL A   1      35.903  29.820  31.118  1.00  0.00    -0.200 F 
ENDBRANCH  31  55
BRANCH  43  66
ATOM     66  C   UNL A   1      45.452  32.789  28.746  1.00  0.00     0.064 A 
ATOM     67  C   UNL A   1      45.959  33.242  29.973  1.00  0.00     0.173 A 
ATOM     68  C   UNL A   1      45.226  33.736  27.736  1.00  0.00     0.173 A 
ATOM     69  F   UNL A   1      46.175  32.377  30.975  1.00  0.00    -0.203 F 
ATOM     70  C   UNL A   1      46.195  34.596  30.192  1.00  0.00     0.198 A 
ATOM     71  C   UNL A   1      45.492  35.085  27.949  1.00  0.00     0.198 A 
ATOM     72  F   UNL A   1      44.748  33.352  26.543  1.00  0.00    -0.203 F 
ATOM     73  F   UNL A   1      46.622  35.014  31.392  1.00  0.00    -0.200 F 
ATOM     74  C   UNL A   1      45.966  35.516  29.180  1.00  0.00     0.200 A 
ATOM     75  F   UNL A   1      45.280  35.972  26.966  1.00  0.00    -0.200 F 
ATOM     76  F   UNL A   1      46.190  36.820  29.394  1.00  0.00    -0.200 F 
ENDBRANCH  43  66
ENDBRANCH  17  18
ENDBRANCH  10  12
ENDBRANCH   7   8
ENDBRANCH   6   7
ENDBRANCH   5   6
ENDBRANCH   1   5
BRANCH   2  77
ATOM     77  C   UNL A   1      34.916  22.838  24.824  1.00  0.00     0.207 C 
ATOM     78  C   UNL A   1      35.295  23.163  23.389  1.00  0.00     0.045 C 
ATOM     79  O   UNL A   1      33.695  23.551  25.081  1.00  0.00    -0.363 OA
ATOM     80  C   UNL A   1      33.946  23.276  22.726  1.00  0.00     0.037 C 
ATOM     81  C   UNL A   1      33.107  23.932  23.812  1.00  0.00     0.138 C 
BRANCH  81  82
ATOM     82  C   UNL A   1      31.621  23.550  23.813  1.00  0.00     0.148 C 
BRANCH  82  83
ATOM     83  N   UNL A   1      30.965  23.694  25.104  1.00  0.00    -0.349 N 
ATOM     84  C   UNL A   1      30.482  24.838  25.695  1.00  0.00     0.251 C 
ATOM     85  H   UNL A   1      30.852  22.865  25.622  1.00  0.00     0.163 HD
ATOM     86  O   UNL A   1      30.158  24.832  26.879  1.00  0.00    -0.269 OA
BRANCH  84  87
ATOM     87  C   UNL A   1      30.368  26.086  24.908  1.00  0.00     0.039 A 
ATOM     88  C   UNL A   1      29.325  26.215  23.989  1.00  0.00     0.014 A 
ATOM     89  C   UNL A   1      31.310  27.110  25.049  1.00  0.00     0.014 A 
ATOM     90  C   UNL A   1      29.182  27.401  23.263  1.00  0.00     0.007 A 
ATOM     91  C   UNL A   1      31.160  28.299  24.331  1.00  0.00     0.007 A 
ATOM     92  C   UNL A   1      30.082  28.463  23.451  1.00  0.00    -0.023 A 
BRANCH  92  93
ATOM     93  C   UNL A   1      29.911  29.746  22.683  1.00  0.00     0.191 C 
BRANCH  93  94
ATOM     94  O   UNL A   1      30.855  29.840  21.628  1.00  0.00    -0.392 OA
ATOM     95  H   UNL A   1      30.545  30.485  20.973  1.00  0.00     0.211 HD
ENDBRANCH  93  94
ENDBRANCH  92  93
ENDBRANCH  84  87
ENDBRANCH  82  83
ENDBRANCH  81  82
ENDBRANCH   2  77
TORSDOF 15
ENDMDL
