MODEL 1
REMARK VINA RESULT:     -12.8      0.000      0.000
REMARK SMILES O=C(NCCCNC(=O)C1(NC(=O)c2ccncc2Cl)CCCCC1)c1ccc(-c2c3nc(c(-c4c(F)c(F)c(F)c(F)c4F)c4ccc([nH]4)c(-c4c(F)c(F)c(F)c(F)c4F)c4nc(c(-c5c(F)c(F)c(F)c(F)c5F)c5ccc2[nH]5)C=C4)C=C3)cc1
REMARK SMILES IDX 5 1 4 2 3 3 1 4 2 5 26 7 27 8 88 9 28 10 87 11 29 12 30 13
REMARK SMILES IDX 31 14 81 15 32 16 86 17 80 18 82 19 33 20 85 21 79 22 78 23
REMARK SMILES IDX 34 25 66 26 46 27 65 28 47 29 50 30 64 31 83 32 48 33 49 34
REMARK SMILES IDX 63 36 84 37 51 38 35 39 36 40 44 41 37 42 38 43 42 44 45 45
REMARK SMILES IDX 39 46 40 47 43 48 41 49 67 50 68 51 76 52 69 53 70 54 74 55
REMARK SMILES IDX 77 56 71 57 72 58 75 59 73 60 52 61 53 62 61 63 54 64 55 65
REMARK SMILES IDX 59 66 62 67 56 68 57 69 60 70 58 71 6 72 7 73 8 74 9 76
REMARK SMILES IDX 10 77 21 78 25 79 22 80 24 81 23 82 11 83 12 84 13 86 14 87
REMARK SMILES IDX 15 88 19 89 16 90 18 91 20 92 17 93
REMARK H PARENT 3 6 82 24 50 35 7 75 11 85
REMARK Flexibility Score: inf
ROOT
ATOM      1  C   UNL A   1      31.431  31.800  26.563  1.00  0.00     0.042 C 
ENDROOT
BRANCH   1   2
ATOM      2  C   UNL A   1      32.742  32.465  26.961  1.00  0.00     0.118 C 
BRANCH   2   3
ATOM      3  N   UNL A   1      32.518  33.831  27.424  1.00  0.00    -0.352 N 
ATOM      4  O   UNL A   1      32.525  35.492  28.946  1.00  0.00    -0.269 OA
ATOM      5  C   UNL A   1      33.057  34.481  28.506  1.00  0.00     0.251 C 
ATOM      6  H   UNL A   1      31.890  34.361  26.883  1.00  0.00     0.163 HD
BRANCH   5   7
ATOM      7  C   UNL A   1      34.288  33.953  29.129  1.00  0.00     0.039 A 
ATOM      8  C   UNL A   1      34.204  32.909  30.048  1.00  0.00     0.014 A 
ATOM      9  C   UNL A   1      35.534  34.474  28.769  1.00  0.00     0.014 A 
ATOM     10  C   UNL A   1      35.334  32.503  30.736  1.00  0.00     0.010 A 
ATOM     11  C   UNL A   1      36.693  33.967  29.367  1.00  0.00     0.010 A 
ATOM     12  C   UNL A   1      36.598  32.992  30.372  1.00  0.00    -0.014 A 
BRANCH  12  13
ATOM     13  C   UNL A   1      37.790  32.373  31.001  1.00  0.00     0.031 A 
ATOM     14  C   UNL A   1      38.230  32.746  32.385  1.00  0.00     0.074 A 
ATOM     15  C   UNL A   1      38.429  31.402  30.317  1.00  0.00     0.049 A 
ATOM     16  N   UNL A   1      39.209  32.247  33.098  1.00  0.00    -0.248 NA
ATOM     17  C   UNL A   1      37.488  33.821  33.059  1.00  0.00     0.031 C 
ATOM     18  C   UNL A   1      38.092  30.976  28.954  1.00  0.00     0.029 A 
ATOM     19  N   UNL A   1      39.460  30.575  30.674  1.00  0.00    -0.354 N 
ATOM     20  C   UNL A   1      39.204  32.945  34.297  1.00  0.00     0.074 A 
ATOM     21  C   UNL A   1      38.150  33.934  34.203  1.00  0.00     0.031 C 
ATOM     22  C   UNL A   1      38.853  29.926  28.619  1.00  0.00     0.029 A 
ATOM     23  C   UNL A   1      39.786  29.659  29.705  1.00  0.00     0.049 A 
ATOM     24  H   UNL A   1      39.923  30.631  31.541  1.00  0.00     0.167 HD
ATOM     25  C   UNL A   1      40.000  32.765  35.379  1.00  0.00     0.037 A 
ATOM     26  C   UNL A   1      40.746  28.718  29.680  1.00  0.00     0.037 A 
ATOM     27  C   UNL A   1      41.047  31.777  35.456  1.00  0.00     0.049 A 
ATOM     28  C   UNL A   1      41.629  28.565  30.883  1.00  0.00     0.074 A 
ATOM     29  C   UNL A   1      41.912  31.514  36.505  1.00  0.00     0.029 A 
ATOM     30  N   UNL A   1      41.373  30.887  34.441  1.00  0.00    -0.354 N 
ATOM     31  N   UNL A   1      41.600  29.220  32.019  1.00  0.00    -0.248 NA
ATOM     32  C   UNL A   1      42.679  27.542  30.803  1.00  0.00     0.031 C 
ATOM     33  C   UNL A   1      42.790  30.500  36.108  1.00  0.00     0.029 A 
ATOM     34  C   UNL A   1      42.435  30.087  34.833  1.00  0.00     0.049 A 
ATOM     35  H   UNL A   1      40.917  30.833  33.569  1.00  0.00     0.167 HD
ATOM     36  C   UNL A   1      42.616  28.682  32.794  1.00  0.00     0.074 A 
ATOM     37  C   UNL A   1      43.219  27.621  32.011  1.00  0.00     0.031 C 
ATOM     38  C   UNL A   1      43.022  29.039  34.036  1.00  0.00     0.037 A 
BRANCH  25  39
ATOM     39  C   UNL A   1      39.777  33.657  36.567  1.00  0.00     0.064 A 
ATOM     40  C   UNL A   1      40.376  34.924  36.658  1.00  0.00     0.173 A 
ATOM     41  C   UNL A   1      38.915  33.267  37.602  1.00  0.00     0.173 A 
ATOM     42  F   UNL A   1      41.220  35.342  35.702  1.00  0.00    -0.203 F 
ATOM     43  C   UNL A   1      40.135  35.756  37.748  1.00  0.00     0.198 A 
ATOM     44  C   UNL A   1      38.652  34.113  38.678  1.00  0.00     0.198 A 
ATOM     45  F   UNL A   1      38.312  32.069  37.565  1.00  0.00    -0.203 F 
ATOM     46  F   UNL A   1      40.749  36.944  37.833  1.00  0.00    -0.200 F 
ATOM     47  C   UNL A   1      39.266  35.354  38.752  1.00  0.00     0.200 A 
ATOM     48  F   UNL A   1      37.802  33.729  39.639  1.00  0.00    -0.200 F 
ATOM     49  F   UNL A   1      39.025  36.160  39.795  1.00  0.00    -0.200 F 
ENDBRANCH  25  39
BRANCH  26  50
ATOM     50  C   UNL A   1      40.935  27.879  28.467  1.00  0.00     0.064 A 
ATOM     51  C   UNL A   1      41.741  28.303  27.402  1.00  0.00     0.173 A 
ATOM     52  C   UNL A   1      40.301  26.632  28.346  1.00  0.00     0.173 A 
ATOM     53  F   UNL A   1      42.357  29.494  27.462  1.00  0.00    -0.203 F 
ATOM     54  C   UNL A   1      41.884  27.527  26.254  1.00  0.00     0.198 A 
ATOM     55  C   UNL A   1      40.475  25.839  27.216  1.00  0.00     0.198 A 
ATOM     56  F   UNL A   1      39.525  26.174  29.340  1.00  0.00    -0.203 F 
ATOM     57  F   UNL A   1      42.614  27.983  25.227  1.00  0.00    -0.200 F 
ATOM     58  C   UNL A   1      41.256  26.293  26.164  1.00  0.00     0.200 A 
ATOM     59  F   UNL A   1      39.886  24.639  27.145  1.00  0.00    -0.200 F 
ATOM     60  F   UNL A   1      41.397  25.547  25.061  1.00  0.00    -0.200 F 
ENDBRANCH  26  50
BRANCH  38  61
ATOM     61  C   UNL A   1      44.155  28.251  34.628  1.00  0.00     0.064 A 
ATOM     62  C   UNL A   1      43.930  27.074  35.361  1.00  0.00     0.173 A 
ATOM     63  C   UNL A   1      45.480  28.677  34.460  1.00  0.00     0.173 A 
ATOM     64  F   UNL A   1      42.679  26.635  35.565  1.00  0.00    -0.203 F 
ATOM     65  C   UNL A   1      44.988  26.379  35.938  1.00  0.00     0.198 A 
ATOM     66  C   UNL A   1      46.539  27.958  35.007  1.00  0.00     0.198 A 
ATOM     67  F   UNL A   1      45.750  29.791  33.763  1.00  0.00    -0.203 F 
ATOM     68  F   UNL A   1      44.745  25.297  36.690  1.00  0.00    -0.200 F 
ATOM     69  C   UNL A   1      46.291  26.817  35.756  1.00  0.00     0.200 A 
ATOM     70  F   UNL A   1      47.798  28.376  34.819  1.00  0.00    -0.200 F 
ATOM     71  F   UNL A   1      47.309  26.147  36.313  1.00  0.00    -0.200 F 
ENDBRANCH  38  61
ENDBRANCH  12  13
ENDBRANCH   5   7
ENDBRANCH   2   3
ENDBRANCH   1   2
BRANCH   1  72
ATOM     72  C   UNL A   1      31.607  30.303  26.341  1.00  0.00     0.117 C 
BRANCH  72  73
ATOM     73  N   UNL A   1      31.841  30.031  24.936  1.00  0.00    -0.354 N 
ATOM     74  C   UNL A   1      32.627  29.038  24.423  1.00  0.00     0.245 C 
ATOM     75  H   UNL A   1      31.389  30.619  24.288  1.00  0.00     0.163 HD
ATOM     76  O   UNL A   1      33.528  29.411  23.664  1.00  0.00    -0.272 OA
BRANCH  74  77
ATOM     77  C   UNL A   1      32.269  27.523  24.604  1.00  0.00     0.119 C 
ATOM     78  C   UNL A   1      33.552  26.807  25.116  1.00  0.00     0.038 C 
ATOM     79  C   UNL A   1      31.129  27.360  25.638  1.00  0.00     0.038 C 
ATOM     80  C   UNL A   1      33.327  25.425  25.731  1.00  0.00     0.003 C 
ATOM     81  C   UNL A   1      30.964  25.973  26.249  1.00  0.00     0.003 C 
ATOM     82  C   UNL A   1      32.272  25.469  26.823  1.00  0.00     0.000 C 
BRANCH  77  83
ATOM     83  N   UNL A   1      31.813  26.891  23.327  1.00  0.00    -0.338 N 
ATOM     84  C   UNL A   1      31.017  27.308  22.286  1.00  0.00     0.253 C 
ATOM     85  H   UNL A   1      32.159  25.977  23.204  1.00  0.00     0.164 HD
ATOM     86  O   UNL A   1      31.050  26.707  21.215  1.00  0.00    -0.269 OA
BRANCH  84  87
ATOM     87  C   UNL A   1      29.963  28.311  22.477  1.00  0.00     0.061 A 
ATOM     88  C   UNL A   1      30.243  29.612  22.037  1.00  0.00     0.035 A 
ATOM     89  C   UNL A   1      28.749  28.027  23.089  1.00  0.00     0.072 A 
ATOM     90  C   UNL A   1      29.243  30.561  22.130  1.00  0.00     0.112 A 
ATOM     91  C   UNL A   1      27.801  29.040  23.098  1.00  0.00     0.132 A 
ATOM     92  Cl  UNL A   1      28.380  26.511  23.807  1.00  0.00    -0.082 Cl
ATOM     93  N   UNL A   1      28.012  30.293  22.614  1.00  0.00    -0.263 NA
ENDBRANCH  84  87
ENDBRANCH  77  83
ENDBRANCH  74  77
ENDBRANCH  72  73
ENDBRANCH   1  72
TORSDOF 12
ENDMDL
MODEL 2
REMARK VINA RESULT:     -12.7      0.958      2.728
REMARK SMILES O=C(NCCCNC(=O)C1(NC(=O)c2ccncc2Cl)CCCCC1)c1ccc(-c2c3nc(c(-c4c(F)c(F)c(F)c(F)c4F)c4ccc([nH]4)c(-c4c(F)c(F)c(F)c(F)c4F)c4nc(c(-c5c(F)c(F)c(F)c(F)c5F)c5ccc2[nH]5)C=C4)C=C3)cc1
REMARK SMILES IDX 5 1 4 2 3 3 1 4 2 5 26 7 27 8 88 9 28 10 87 11 29 12 30 13
REMARK SMILES IDX 31 14 81 15 32 16 86 17 80 18 82 19 33 20 85 21 79 22 78 23
REMARK SMILES IDX 34 25 66 26 46 27 65 28 47 29 50 30 64 31 83 32 48 33 49 34
REMARK SMILES IDX 63 36 84 37 51 38 35 39 36 40 44 41 37 42 38 43 42 44 45 45
REMARK SMILES IDX 39 46 40 47 43 48 41 49 67 50 68 51 76 52 69 53 70 54 74 55
REMARK SMILES IDX 77 56 71 57 72 58 75 59 73 60 52 61 53 62 61 63 54 64 55 65
REMARK SMILES IDX 59 66 62 67 56 68 57 69 60 70 58 71 6 72 7 73 8 74 9 76
REMARK SMILES IDX 10 77 21 78 25 79 22 80 24 81 23 82 11 83 12 84 13 86 14 87
REMARK SMILES IDX 15 88 19 89 16 90 18 91 20 92 17 93
REMARK H PARENT 3 6 82 24 50 35 7 75 11 85
REMARK Flexibility Score: inf
ROOT
ATOM      1  C   UNL A   1      31.392  31.808  26.514  1.00  0.00     0.042 C 
ENDROOT
BRANCH   1   2
ATOM      2  C   UNL A   1      32.699  32.432  26.984  1.00  0.00     0.118 C 
BRANCH   2   3
ATOM      3  N   UNL A   1      32.495  33.807  27.427  1.00  0.00    -0.352 N 
ATOM      4  O   UNL A   1      32.533  35.493  28.922  1.00  0.00    -0.269 OA
ATOM      5  C   UNL A   1      33.050  34.468  28.495  1.00  0.00     0.251 C 
ATOM      6  H   UNL A   1      31.871  34.337  26.881  1.00  0.00     0.163 HD
BRANCH   5   7
ATOM      7  C   UNL A   1      34.278  33.935  29.118  1.00  0.00     0.039 A 
ATOM      8  C   UNL A   1      34.190  32.879  30.024  1.00  0.00     0.014 A 
ATOM      9  C   UNL A   1      35.526  34.463  28.773  1.00  0.00     0.014 A 
ATOM     10  C   UNL A   1      35.317  32.467  30.714  1.00  0.00     0.010 A 
ATOM     11  C   UNL A   1      36.682  33.950  29.372  1.00  0.00     0.010 A 
ATOM     12  C   UNL A   1      36.582  32.963  30.364  1.00  0.00    -0.014 A 
BRANCH  12  13
ATOM     13  C   UNL A   1      37.772  32.338  30.993  1.00  0.00     0.031 A 
ATOM     14  C   UNL A   1      38.204  32.696  32.383  1.00  0.00     0.074 A 
ATOM     15  C   UNL A   1      38.415  31.375  30.302  1.00  0.00     0.049 A 
ATOM     16  N   UNL A   1      39.180  32.191  33.095  1.00  0.00    -0.248 NA
ATOM     17  C   UNL A   1      37.457  33.763  33.065  1.00  0.00     0.031 C 
ATOM     18  C   UNL A   1      38.086  30.964  28.932  1.00  0.00     0.029 A 
ATOM     19  N   UNL A   1      39.445  30.545  30.655  1.00  0.00    -0.354 N 
ATOM     20  C   UNL A   1      39.167  32.876  34.302  1.00  0.00     0.074 A 
ATOM     21  C   UNL A   1      38.113  33.864  34.213  1.00  0.00     0.031 C 
ATOM     22  C   UNL A   1      38.849  29.918  28.589  1.00  0.00     0.029 A 
ATOM     23  C   UNL A   1      39.777  29.640  29.677  1.00  0.00     0.049 A 
ATOM     24  H   UNL A   1      39.903  30.593  31.525  1.00  0.00     0.167 HD
ATOM     25  C   UNL A   1      39.957  32.685  35.386  1.00  0.00     0.037 A 
ATOM     26  C   UNL A   1      40.739  28.701  29.647  1.00  0.00     0.037 A 
ATOM     27  C   UNL A   1      41.005  31.697  35.458  1.00  0.00     0.049 A 
ATOM     28  C   UNL A   1      41.615  28.535  30.853  1.00  0.00     0.074 A 
ATOM     29  C   UNL A   1      41.865  31.424  36.508  1.00  0.00     0.029 A 
ATOM     30  N   UNL A   1      41.338  30.819  34.435  1.00  0.00    -0.354 N 
ATOM     31  N   UNL A   1      41.579  29.178  31.996  1.00  0.00    -0.248 NA
ATOM     32  C   UNL A   1      42.667  27.515  30.768  1.00  0.00     0.031 C 
ATOM     33  C   UNL A   1      42.746  30.415  36.105  1.00  0.00     0.029 A 
ATOM     34  C   UNL A   1      42.399  30.015  34.824  1.00  0.00     0.049 A 
ATOM     35  H   UNL A   1      40.886  30.774  33.560  1.00  0.00     0.167 HD
ATOM     36  C   UNL A   1      42.592  28.633  32.770  1.00  0.00     0.074 A 
ATOM     37  C   UNL A   1      43.200  27.581  31.980  1.00  0.00     0.031 C 
ATOM     38  C   UNL A   1      42.991  28.977  34.019  1.00  0.00     0.037 A 
BRANCH  25  39
ATOM     39  C   UNL A   1      39.728  33.564  36.583  1.00  0.00     0.064 A 
ATOM     40  C   UNL A   1      40.341  34.821  36.700  1.00  0.00     0.173 A 
ATOM     41  C   UNL A   1      38.844  33.170  37.599  1.00  0.00     0.173 A 
ATOM     42  F   UNL A   1      41.204  35.241  35.763  1.00  0.00    -0.203 F 
ATOM     43  C   UNL A   1      40.093  35.642  37.798  1.00  0.00     0.198 A 
ATOM     44  C   UNL A   1      38.575  34.005  38.682  1.00  0.00     0.198 A 
ATOM     45  F   UNL A   1      38.228  31.981  37.536  1.00  0.00    -0.203 F 
ATOM     46  F   UNL A   1      40.721  36.820  37.908  1.00  0.00    -0.200 F 
ATOM     47  C   UNL A   1      39.204  35.237  38.782  1.00  0.00     0.200 A 
ATOM     48  F   UNL A   1      37.706  33.619  39.625  1.00  0.00    -0.200 F 
ATOM     49  F   UNL A   1      38.957  36.033  39.832  1.00  0.00    -0.200 F 
ENDBRANCH  25  39
BRANCH  26  50
ATOM     50  C   UNL A   1      40.934  27.875  28.426  1.00  0.00     0.064 A 
ATOM     51  C   UNL A   1      40.309  26.630  28.278  1.00  0.00     0.173 A 
ATOM     52  C   UNL A   1      41.761  28.317  27.381  1.00  0.00     0.173 A 
ATOM     53  F   UNL A   1      39.520  26.157  29.254  1.00  0.00    -0.203 F 
ATOM     54  C   UNL A   1      40.526  25.846  27.146  1.00  0.00     0.198 A 
ATOM     55  C   UNL A   1      41.947  27.551  26.234  1.00  0.00     0.198 A 
ATOM     56  F   UNL A   1      42.377  29.505  27.468  1.00  0.00    -0.203 F 
ATOM     57  F   UNL A   1      39.963  24.634  27.056  1.00  0.00    -0.200 F 
ATOM     58  C   UNL A   1      41.339  26.310  26.122  1.00  0.00     0.200 A 
ATOM     59  F   UNL A   1      42.714  28.015  25.239  1.00  0.00    -0.200 F 
ATOM     60  F   UNL A   1      41.544  25.557  25.034  1.00  0.00    -0.200 F 
ENDBRANCH  26  50
BRANCH  38  61
ATOM     61  C   UNL A   1      44.121  28.183  34.608  1.00  0.00     0.064 A 
ATOM     62  C   UNL A   1      45.458  28.591  34.473  1.00  0.00     0.173 A 
ATOM     63  C   UNL A   1      43.864  27.001  35.318  1.00  0.00     0.173 A 
ATOM     64  F   UNL A   1      45.756  29.705  33.787  1.00  0.00    -0.203 F 
ATOM     65  C   UNL A   1      46.496  27.823  34.989  1.00  0.00     0.198 A 
ATOM     66  C   UNL A   1      44.903  26.254  35.866  1.00  0.00     0.198 A 
ATOM     67  F   UNL A   1      42.605  26.570  35.482  1.00  0.00    -0.203 F 
ATOM     68  F   UNL A   1      47.767  28.196  34.788  1.00  0.00    -0.200 F 
ATOM     69  C   UNL A   1      46.218  26.659  35.690  1.00  0.00     0.200 A 
ATOM     70  F   UNL A   1      44.633  25.136  36.554  1.00  0.00    -0.200 F 
ATOM     71  F   UNL A   1      47.220  25.919  36.187  1.00  0.00    -0.200 F 
ENDBRANCH  38  61
ENDBRANCH  12  13
ENDBRANCH   5   7
ENDBRANCH   2   3
ENDBRANCH   1   2
BRANCH   1  72
ATOM     72  C   UNL A   1      31.543  30.313  26.263  1.00  0.00     0.117 C 
BRANCH  72  73
ATOM     73  N   UNL A   1      32.593  30.074  25.292  1.00  0.00    -0.354 N 
ATOM     74  C   UNL A   1      32.881  28.883  24.688  1.00  0.00     0.245 C 
ATOM     75  H   UNL A   1      33.153  30.844  25.045  1.00  0.00     0.163 HD
ATOM     76  O   UNL A   1      34.041  28.480  24.831  1.00  0.00    -0.272 OA
BRANCH  74  77
ATOM     77  C   UNL A   1      31.880  28.194  23.699  1.00  0.00     0.119 C 
ATOM     78  C   UNL A   1      30.913  27.326  24.555  1.00  0.00     0.038 C 
ATOM     79  C   UNL A   1      31.076  29.261  22.918  1.00  0.00     0.038 C 
ATOM     80  C   UNL A   1      29.629  26.889  23.848  1.00  0.00     0.003 C 
ATOM     81  C   UNL A   1      29.786  28.786  22.258  1.00  0.00     0.003 C 
ATOM     82  C   UNL A   1      28.892  28.077  23.254  1.00  0.00     0.000 C 
BRANCH  77  83
ATOM     83  N   UNL A   1      32.578  27.331  22.695  1.00  0.00    -0.338 N 
ATOM     84  C   UNL A   1      32.880  25.991  22.631  1.00  0.00     0.253 C 
ATOM     85  H   UNL A   1      32.889  27.833  21.906  1.00  0.00     0.164 HD
ATOM     86  O   UNL A   1      33.192  25.487  21.556  1.00  0.00    -0.269 OA
BRANCH  84  87
ATOM     87  C   UNL A   1      33.060  25.185  23.845  1.00  0.00     0.061 A 
ATOM     88  C   UNL A   1      34.220  25.423  24.595  1.00  0.00     0.035 A 
ATOM     89  C   UNL A   1      32.161  24.205  24.242  1.00  0.00     0.072 A 
ATOM     90  C   UNL A   1      34.380  24.738  25.784  1.00  0.00     0.112 A 
ATOM     91  C   UNL A   1      32.395  23.602  25.470  1.00  0.00     0.132 A 
ATOM     92  Cl  UNL A   1      30.802  23.727  23.307  1.00  0.00    -0.082 Cl
ATOM     93  N   UNL A   1      33.472  23.861  26.259  1.00  0.00    -0.263 NA
ENDBRANCH  84  87
ENDBRANCH  77  83
ENDBRANCH  74  77
ENDBRANCH  72  73
ENDBRANCH   1  72
TORSDOF 12
ENDMDL
MODEL 3
REMARK VINA RESULT:     -12.5      2.305      4.016
REMARK SMILES O=C(NCCCNC(=O)C1(NC(=O)c2ccncc2Cl)CCCCC1)c1ccc(-c2c3nc(c(-c4c(F)c(F)c(F)c(F)c4F)c4ccc([nH]4)c(-c4c(F)c(F)c(F)c(F)c4F)c4nc(c(-c5c(F)c(F)c(F)c(F)c5F)c5ccc2[nH]5)C=C4)C=C3)cc1
REMARK SMILES IDX 5 1 4 2 3 3 1 4 2 5 26 7 27 8 88 9 28 10 87 11 29 12 30 13
REMARK SMILES IDX 31 14 81 15 32 16 86 17 80 18 82 19 33 20 85 21 79 22 78 23
REMARK SMILES IDX 34 25 66 26 46 27 65 28 47 29 50 30 64 31 83 32 48 33 49 34
REMARK SMILES IDX 63 36 84 37 51 38 35 39 36 40 44 41 37 42 38 43 42 44 45 45
REMARK SMILES IDX 39 46 40 47 43 48 41 49 67 50 68 51 76 52 69 53 70 54 74 55
REMARK SMILES IDX 77 56 71 57 72 58 75 59 73 60 52 61 53 62 61 63 54 64 55 65
REMARK SMILES IDX 59 66 62 67 56 68 57 69 60 70 58 71 6 72 7 73 8 74 9 76
REMARK SMILES IDX 10 77 21 78 25 79 22 80 24 81 23 82 11 83 12 84 13 86 14 87
REMARK SMILES IDX 15 88 19 89 16 90 18 91 20 92 17 93
REMARK H PARENT 3 6 82 24 50 35 7 75 11 85
REMARK Flexibility Score: inf
ROOT
ATOM      1  C   UNL A   1      33.285  29.061  23.346  1.00  0.00     0.042 C 
ENDROOT
BRANCH   1   2
ATOM      2  C   UNL A   1      33.789  29.350  24.754  1.00  0.00     0.118 C 
BRANCH   2   3
ATOM      3  N   UNL A   1      32.958  30.352  25.413  1.00  0.00    -0.352 N 
ATOM      4  O   UNL A   1      32.083  31.422  27.192  1.00  0.00    -0.269 OA
ATOM      5  C   UNL A   1      33.039  30.844  26.692  1.00  0.00     0.251 C 
ATOM      6  H   UNL A   1      32.236  30.730  24.860  1.00  0.00     0.163 HD
BRANCH   5   7
ATOM      7  C   UNL A   1      34.293  30.675  27.454  1.00  0.00     0.039 A 
ATOM      8  C   UNL A   1      34.628  29.422  27.963  1.00  0.00     0.014 A 
ATOM      9  C   UNL A   1      35.156  31.760  27.633  1.00  0.00     0.014 A 
ATOM     10  C   UNL A   1      35.727  29.286  28.792  1.00  0.00     0.010 A 
ATOM     11  C   UNL A   1      36.339  31.589  28.359  1.00  0.00     0.010 A 
ATOM     12  C   UNL A   1      36.622  30.354  28.963  1.00  0.00    -0.014 A 
BRANCH  12  13
ATOM     13  C   UNL A   1      37.886  30.092  29.694  1.00  0.00     0.031 A 
ATOM     14  C   UNL A   1      38.117  30.621  31.077  1.00  0.00     0.074 A 
ATOM     15  C   UNL A   1      38.799  29.293  29.104  1.00  0.00     0.049 A 
ATOM     16  N   UNL A   1      39.139  30.423  31.872  1.00  0.00    -0.248 NA
ATOM     17  C   UNL A   1      37.079  31.493  31.645  1.00  0.00     0.031 C 
ATOM     18  C   UNL A   1      38.679  28.740  27.751  1.00  0.00     0.029 A 
ATOM     19  N   UNL A   1      39.980  28.777  29.567  1.00  0.00    -0.354 N 
ATOM     20  C   UNL A   1      38.871  31.144  33.027  1.00  0.00     0.074 A 
ATOM     21  C   UNL A   1      37.608  31.820  32.817  1.00  0.00     0.031 C 
ATOM     22  C   UNL A   1      39.705  27.910  27.520  1.00  0.00     0.029 A 
ATOM     23  C   UNL A   1      40.597  27.938  28.671  1.00  0.00     0.049 A 
ATOM     24  H   UNL A   1      40.351  28.986  30.454  1.00  0.00     0.167 HD
ATOM     25  C   UNL A   1      39.608  31.220  34.161  1.00  0.00     0.037 A 
ATOM     26  C   UNL A   1      41.766  27.280  28.755  1.00  0.00     0.037 A 
ATOM     27  C   UNL A   1      40.866  30.542  34.355  1.00  0.00     0.049 A 
ATOM     28  C   UNL A   1      42.572  27.409  30.014  1.00  0.00     0.074 A 
ATOM     29  C   UNL A   1      41.694  30.555  35.465  1.00  0.00     0.029 A 
ATOM     30  N   UNL A   1      41.480  29.727  33.412  1.00  0.00    -0.354 N 
ATOM     31  N   UNL A   1      42.296  28.079  31.107  1.00  0.00    -0.248 NA
ATOM     32  C   UNL A   1      43.852  26.692  30.053  1.00  0.00     0.031 C 
ATOM     33  C   UNL A   1      42.827  29.789  35.177  1.00  0.00     0.029 A 
ATOM     34  C   UNL A   1      42.681  29.247  33.910  1.00  0.00     0.049 A 
ATOM     35  H   UNL A   1      41.115  29.521  32.521  1.00  0.00     0.167 HD
ATOM     36  C   UNL A   1      43.359  27.856  31.968  1.00  0.00     0.074 A 
ATOM     37  C   UNL A   1      44.267  26.957  31.283  1.00  0.00     0.031 C 
ATOM     38  C   UNL A   1      43.571  28.355  33.209  1.00  0.00     0.037 A 
BRANCH  25  39
ATOM     39  C   UNL A   1      39.082  32.071  35.282  1.00  0.00     0.064 A 
ATOM     40  C   UNL A   1      38.316  31.524  36.324  1.00  0.00     0.173 A 
ATOM     41  C   UNL A   1      39.389  33.438  35.346  1.00  0.00     0.173 A 
ATOM     42  F   UNL A   1      37.982  30.224  36.306  1.00  0.00    -0.203 F 
ATOM     43  C   UNL A   1      37.863  32.317  37.375  1.00  0.00     0.198 A 
ATOM     44  C   UNL A   1      38.959  34.223  36.414  1.00  0.00     0.198 A 
ATOM     45  F   UNL A   1      40.121  34.013  34.380  1.00  0.00    -0.203 F 
ATOM     46  F   UNL A   1      37.099  31.780  38.337  1.00  0.00    -0.200 F 
ATOM     47  C   UNL A   1      38.192  33.663  37.425  1.00  0.00     0.200 A 
ATOM     48  F   UNL A   1      39.290  35.520  36.467  1.00  0.00    -0.200 F 
ATOM     49  F   UNL A   1      37.766  34.423  38.443  1.00  0.00    -0.200 F 
ENDBRANCH  25  39
BRANCH  26  50
ATOM     50  C   UNL A   1      42.247  26.470  27.605  1.00  0.00     0.064 A 
ATOM     51  C   UNL A   1      41.802  25.158  27.397  1.00  0.00     0.173 A 
ATOM     52  C   UNL A   1      43.174  26.995  26.690  1.00  0.00     0.173 A 
ATOM     53  F   UNL A   1      40.928  24.604  28.251  1.00  0.00    -0.203 F 
ATOM     54  C   UNL A   1      42.286  24.393  26.337  1.00  0.00     0.198 A 
ATOM     55  C   UNL A   1      43.627  26.245  25.609  1.00  0.00     0.198 A 
ATOM     56  F   UNL A   1      43.626  28.249  26.837  1.00  0.00    -0.203 F 
ATOM     57  F   UNL A   1      41.888  23.122  26.195  1.00  0.00    -0.200 F 
ATOM     58  C   UNL A   1      43.192  24.939  25.440  1.00  0.00     0.200 A 
ATOM     59  F   UNL A   1      44.484  26.786  24.733  1.00  0.00    -0.200 F 
ATOM     60  F   UNL A   1      43.654  24.204  24.420  1.00  0.00    -0.200 F 
ENDBRANCH  26  50
BRANCH  38  61
ATOM     61  C   UNL A   1      44.824  27.913  33.909  1.00  0.00     0.064 A 
ATOM     62  C   UNL A   1      44.854  26.757  34.706  1.00  0.00     0.173 A 
ATOM     63  C   UNL A   1      46.008  28.653  33.781  1.00  0.00     0.173 A 
ATOM     64  F   UNL A   1      43.742  26.025  34.876  1.00  0.00    -0.203 F 
ATOM     65  C   UNL A   1      46.012  26.384  35.381  1.00  0.00     0.198 A 
ATOM     66  C   UNL A   1      47.175  28.256  34.428  1.00  0.00     0.198 A 
ATOM     67  F   UNL A   1      46.035  29.762  33.026  1.00  0.00    -0.203 F 
ATOM     68  F   UNL A   1      45.999  25.316  36.191  1.00  0.00    -0.200 F 
ATOM     69  C   UNL A   1      47.173  27.130  35.237  1.00  0.00     0.200 A 
ATOM     70  F   UNL A   1      48.299  28.970  34.277  1.00  0.00    -0.200 F 
ATOM     71  F   UNL A   1      48.287  26.770  35.889  1.00  0.00    -0.200 F 
ENDBRANCH  38  61
ENDBRANCH  12  13
ENDBRANCH   5   7
ENDBRANCH   2   3
ENDBRANCH   1   2
BRANCH   1  72
ATOM     72  C   UNL A   1      34.159  28.032  22.638  1.00  0.00     0.117 C 
BRANCH  72  73
ATOM     73  N   UNL A   1      33.330  27.035  21.990  1.00  0.00    -0.354 N 
ATOM     74  C   UNL A   1      33.184  25.730  22.370  1.00  0.00     0.245 C 
ATOM     75  H   UNL A   1      32.822  27.326  21.198  1.00  0.00     0.163 HD
ATOM     76  O   UNL A   1      33.454  24.891  21.504  1.00  0.00    -0.272 OA
BRANCH  74  77
ATOM     77  C   UNL A   1      32.509  25.335  23.727  1.00  0.00     0.119 C 
ATOM     78  C   UNL A   1      33.434  25.850  24.867  1.00  0.00     0.038 C 
ATOM     79  C   UNL A   1      31.113  25.993  23.844  1.00  0.00     0.038 C 
ATOM     80  C   UNL A   1      32.785  25.926  26.250  1.00  0.00     0.003 C 
ATOM     81  C   UNL A   1      30.522  26.076  25.247  1.00  0.00     0.003 C 
ATOM     82  C   UNL A   1      31.493  26.723  26.213  1.00  0.00     0.000 C 
BRANCH  77  83
ATOM     83  N   UNL A   1      32.322  23.856  23.858  1.00  0.00    -0.338 N 
ATOM     84  C   UNL A   1      33.050  22.849  24.447  1.00  0.00     0.253 C 
ATOM     85  H   UNL A   1      31.497  23.532  23.427  1.00  0.00     0.164 HD
ATOM     86  O   UNL A   1      32.519  21.764  24.671  1.00  0.00    -0.269 OA
BRANCH  84  87
ATOM     87  C   UNL A   1      34.504  22.949  24.617  1.00  0.00     0.061 A 
ATOM     88  C   UNL A   1      35.279  22.936  23.448  1.00  0.00     0.035 A 
ATOM     89  C   UNL A   1      35.118  23.023  25.860  1.00  0.00     0.072 A 
ATOM     90  C   UNL A   1      36.644  23.108  23.569  1.00  0.00     0.112 A 
ATOM     91  C   UNL A   1      36.490  23.232  25.869  1.00  0.00     0.132 A 
ATOM     92  Cl  UNL A   1      34.270  22.880  27.347  1.00  0.00    -0.082 Cl
ATOM     93  N   UNL A   1      37.264  23.297  24.753  1.00  0.00    -0.263 NA
ENDBRANCH  84  87
ENDBRANCH  77  83
ENDBRANCH  74  77
ENDBRANCH  72  73
ENDBRANCH   1  72
TORSDOF 12
ENDMDL
