MODEL 1
REMARK VINA RESULT:     -12.1      0.000      0.000
REMARK SMILES COc1ccc(C(=O)c2ccccc2)cc1[C@@H](C)C(=O)NCCCNC(=O)c1ccc(-c2c3nc(c(-c4c(F)c(F)c(F)c(F)c4F)c4ccc([nH]4)c(-c4c(F)c(F)c(F)c(F)c4F)c4nc(c(-c5c(F)c(F)c(F)c(F)c5F)c5ccc2[nH]5)C=C4)C=C3)cc1
REMARK SMILES IDX 22 1 21 2 19 3 20 4 17 6 18 7 16 8 3 9 4 10 5 11 15 12 6 13
REMARK SMILES IDX 2 14 1 15 7 16 8 17 9 18 10 19 14 20 11 21 13 22 12 23 23 24
REMARK SMILES IDX 24 25 25 26 26 27 27 29 28 30 29 31 90 32 30 33 89 34 31 35
REMARK SMILES IDX 32 36 33 37 83 38 34 39 88 40 82 41 84 42 35 43 87 44 81 45
REMARK SMILES IDX 80 46 36 48 68 49 48 50 67 51 49 52 52 53 66 54 85 55 50 56
REMARK SMILES IDX 51 57 65 59 86 60 53 61 37 62 38 63 46 64 39 65 40 66 44 67
REMARK SMILES IDX 47 68 41 69 42 70 45 71 43 72 69 73 70 74 78 75 71 76 72 77
REMARK SMILES IDX 76 78 79 79 73 80 74 81 77 82 75 83 54 84 55 85 63 86 56 87
REMARK SMILES IDX 57 88 61 89 64 90 58 91 59 92 62 93 60 94
REMARK H PARENT 21 5 25 28 84 47 52 58
REMARK Flexibility Score: inf
ROOT
ATOM      1  C   UNL A   1      31.875  27.929  27.098  1.00  0.00     0.117 C 
ENDROOT
BRANCH   1   2
ATOM      2  N   UNL A   1      31.042  26.744  27.050  1.00  0.00    -0.356 N 
ATOM      3  C   UNL A   1      30.220  26.228  26.100  1.00  0.00     0.227 C 
ATOM      4  O   UNL A   1      29.578  25.227  26.448  1.00  0.00    -0.274 OA
ATOM      5  H   UNL A   1      31.079  26.205  27.873  1.00  0.00     0.163 HD
BRANCH   3   6
ATOM      6  C   UNL A   1      30.031  26.803  24.683  1.00  0.00     0.109 C 
ATOM      7  C   UNL A   1      28.759  26.377  23.950  1.00  0.00     0.023 C 
BRANCH   6   8
ATOM      8  C   UNL A   1      31.297  26.751  23.836  1.00  0.00     0.007 A 
ATOM      9  C   UNL A   1      31.825  27.901  23.228  1.00  0.00     0.122 A 
ATOM     10  C   UNL A   1      32.994  27.843  22.465  1.00  0.00     0.047 A 
ATOM     11  C   UNL A   1      33.671  26.633  22.307  1.00  0.00     0.016 A 
ATOM     12  C   UNL A   1      31.986  25.538  23.638  1.00  0.00     0.020 A 
ATOM     13  C   UNL A   1      33.167  25.463  22.882  1.00  0.00     0.023 A 
BRANCH   9  14
ATOM     14  O   UNL A   1      31.142  29.086  23.231  1.00  0.00    -0.496 OA
ATOM     15  C   UNL A   1      30.411  29.288  22.022  1.00  0.00     0.278 C 
ENDBRANCH   9  14
BRANCH  13  16
ATOM     16  C   UNL A   1      33.947  24.199  22.699  1.00  0.00     0.193 C 
ATOM     17  O   UNL A   1      33.767  23.503  21.702  1.00  0.00    -0.289 OA
BRANCH  16  18
ATOM     18  C   UNL A   1      35.015  23.782  23.635  1.00  0.00     0.022 A 
ATOM     19  C   UNL A   1      35.950  22.848  23.177  1.00  0.00     0.012 A 
ATOM     20  C   UNL A   1      35.098  24.273  24.943  1.00  0.00     0.012 A 
ATOM     21  C   UNL A   1      36.998  22.453  24.007  1.00  0.00     0.001 A 
ATOM     22  C   UNL A   1      36.163  23.888  25.762  1.00  0.00     0.001 A 
ATOM     23  C   UNL A   1      37.118  22.986  25.290  1.00  0.00     0.000 A 
ENDBRANCH  16  18
ENDBRANCH  13  16
ENDBRANCH   6   8
ENDBRANCH   3   6
ENDBRANCH   1   2
BRANCH   1  24
ATOM     24  C   UNL A   1      33.302  27.641  26.644  1.00  0.00     0.042 C 
BRANCH  24  25
ATOM     25  C   UNL A   1      34.011  28.801  25.960  1.00  0.00     0.118 C 
BRANCH  25  26
ATOM     26  N   UNL A   1      33.819  30.064  26.661  1.00  0.00    -0.352 N 
ATOM     27  C   UNL A   1      34.534  30.693  27.652  1.00  0.00     0.251 C 
ATOM     28  H   UNL A   1      33.023  30.564  26.368  1.00  0.00     0.163 HD
ATOM     29  O   UNL A   1      34.030  31.670  28.200  1.00  0.00    -0.269 OA
BRANCH  27  30
ATOM     30  C   UNL A   1      35.874  30.230  28.101  1.00  0.00     0.039 A 
ATOM     31  C   UNL A   1      35.990  29.677  29.388  1.00  0.00     0.014 A 
ATOM     32  C   UNL A   1      37.024  30.379  27.326  1.00  0.00     0.014 A 
ATOM     33  C   UNL A   1      37.225  29.213  29.856  1.00  0.00     0.010 A 
ATOM     34  C   UNL A   1      38.240  29.849  27.760  1.00  0.00     0.010 A 
ATOM     35  C   UNL A   1      38.356  29.273  29.033  1.00  0.00    -0.014 A 
BRANCH  35  36
ATOM     36  C   UNL A   1      39.690  28.820  29.504  1.00  0.00     0.031 A 
ATOM     37  C   UNL A   1      40.477  29.692  30.441  1.00  0.00     0.074 A 
ATOM     38  C   UNL A   1      40.230  27.679  29.035  1.00  0.00     0.049 A 
ATOM     39  N   UNL A   1      41.693  29.537  30.900  1.00  0.00    -0.248 NA
ATOM     40  C   UNL A   1      39.814  30.922  30.901  1.00  0.00     0.031 C 
ATOM     41  C   UNL A   1      39.589  26.766  28.093  1.00  0.00     0.029 A 
ATOM     42  N   UNL A   1      41.457  27.110  29.269  1.00  0.00    -0.354 N 
ATOM     43  C   UNL A   1      41.944  30.653  31.685  1.00  0.00     0.074 A 
ATOM     44  C   UNL A   1      40.777  31.504  31.597  1.00  0.00     0.031 C 
ATOM     45  C   UNL A   1      40.428  25.753  27.822  1.00  0.00     0.029 A 
ATOM     46  C   UNL A   1      41.674  25.958  28.556  1.00  0.00     0.049 A 
ATOM     47  H   UNL A   1      42.118  27.492  29.891  1.00  0.00     0.167 HD
ATOM     48  C   UNL A   1      43.039  30.935  32.430  1.00  0.00     0.037 A 
ATOM     49  C   UNL A   1      42.760  25.163  28.493  1.00  0.00     0.037 A 
ATOM     50  C   UNL A   1      44.191  30.080  32.531  1.00  0.00     0.049 A 
ATOM     51  C   UNL A   1      43.969  25.496  29.325  1.00  0.00     0.074 A 
ATOM     52  C   UNL A   1      45.322  30.241  33.312  1.00  0.00     0.029 A 
ATOM     53  N   UNL A   1      44.362  28.903  31.817  1.00  0.00    -0.354 N 
ATOM     54  N   UNL A   1      44.165  26.512  30.130  1.00  0.00    -0.248 NA
ATOM     55  C   UNL A   1      45.104  24.567  29.246  1.00  0.00     0.031 C 
ATOM     56  C   UNL A   1      46.197  29.185  33.037  1.00  0.00     0.029 A 
ATOM     57  C   UNL A   1      45.591  28.340  32.121  1.00  0.00     0.049 A 
ATOM     58  H   UNL A   1      43.707  28.523  31.188  1.00  0.00     0.167 HD
ATOM     59  C   UNL A   1      45.430  26.330  30.674  1.00  0.00     0.074 A 
ATOM     60  C   UNL A   1      45.952  25.101  30.116  1.00  0.00     0.031 C 
ATOM     61  C   UNL A   1      46.096  27.111  31.560  1.00  0.00     0.037 A 
BRANCH  48  62
ATOM     62  C   UNL A   1      43.036  32.230  33.189  1.00  0.00     0.064 A 
ATOM     63  C   UNL A   1      42.551  32.311  34.504  1.00  0.00     0.173 A 
ATOM     64  C   UNL A   1      43.515  33.406  32.593  1.00  0.00     0.173 A 
ATOM     65  F   UNL A   1      42.068  31.218  35.115  1.00  0.00    -0.203 F 
ATOM     66  C   UNL A   1      42.508  33.528  35.178  1.00  0.00     0.198 A 
ATOM     67  C   UNL A   1      43.499  34.616  33.282  1.00  0.00     0.198 A 
ATOM     68  F   UNL A   1      43.993  33.384  31.340  1.00  0.00    -0.203 F 
ATOM     69  F   UNL A   1      41.979  33.592  36.409  1.00  0.00    -0.200 F 
ATOM     70  C   UNL A   1      42.984  34.678  34.569  1.00  0.00     0.200 A 
ATOM     71  F   UNL A   1      43.969  35.726  32.696  1.00  0.00    -0.200 F 
ATOM     72  F   UNL A   1      42.937  35.851  35.217  1.00  0.00    -0.200 F 
ENDBRANCH  48  62
BRANCH  49  73
ATOM     73  C   UNL A   1      42.738  23.952  27.632  1.00  0.00     0.064 A 
ATOM     74  C   UNL A   1      42.364  22.707  28.154  1.00  0.00     0.173 A 
ATOM     75  C   UNL A   1      43.086  24.016  26.275  1.00  0.00     0.173 A 
ATOM     76  F   UNL A   1      42.046  22.594  29.452  1.00  0.00    -0.203 F 
ATOM     77  C   UNL A   1      42.349  21.567  27.354  1.00  0.00     0.198 A 
ATOM     78  C   UNL A   1      43.049  22.879  25.471  1.00  0.00     0.198 A 
ATOM     79  F   UNL A   1      43.453  25.184  25.730  1.00  0.00    -0.203 F 
ATOM     80  F   UNL A   1      42.024  20.381  27.887  1.00  0.00    -0.200 F 
ATOM     81  C   UNL A   1      42.686  21.653  26.012  1.00  0.00     0.200 A 
ATOM     82  F   UNL A   1      43.369  22.967  24.172  1.00  0.00    -0.200 F 
ATOM     83  F   UNL A   1      42.670  20.556  25.242  1.00  0.00    -0.200 F 
ENDBRANCH  49  73
BRANCH  61  84
ATOM     84  C   UNL A   1      47.450  26.646  32.009  1.00  0.00     0.064 A 
ATOM     85  C   UNL A   1      48.626  27.096  31.392  1.00  0.00     0.173 A 
ATOM     86  C   UNL A   1      47.573  25.781  33.108  1.00  0.00     0.173 A 
ATOM     87  F   UNL A   1      48.559  27.912  30.329  1.00  0.00    -0.203 F 
ATOM     88  C   UNL A   1      49.875  26.681  31.845  1.00  0.00     0.198 A 
ATOM     89  C   UNL A   1      48.825  25.391  33.575  1.00  0.00     0.198 A 
ATOM     90  F   UNL A   1      46.480  25.326  33.738  1.00  0.00    -0.203 F 
ATOM     91  F   UNL A   1      50.984  27.092  31.215  1.00  0.00    -0.200 F 
ATOM     92  C   UNL A   1      49.974  25.836  32.940  1.00  0.00     0.200 A 
ATOM     93  F   UNL A   1      48.919  24.586  34.643  1.00  0.00    -0.200 F 
ATOM     94  F   UNL A   1      51.179  25.448  33.382  1.00  0.00    -0.200 F 
ENDBRANCH  61  84
ENDBRANCH  35  36
ENDBRANCH  27  30
ENDBRANCH  25  26
ENDBRANCH  24  25
ENDBRANCH   1  24
TORSDOF 14
ENDMDL
MODEL 2
REMARK VINA RESULT:     -12.1      3.433      9.126
REMARK SMILES COc1ccc(C(=O)c2ccccc2)cc1[C@@H](C)C(=O)NCCCNC(=O)c1ccc(-c2c3nc(c(-c4c(F)c(F)c(F)c(F)c4F)c4ccc([nH]4)c(-c4c(F)c(F)c(F)c(F)c4F)c4nc(c(-c5c(F)c(F)c(F)c(F)c5F)c5ccc2[nH]5)C=C4)C=C3)cc1
REMARK SMILES IDX 22 1 21 2 19 3 20 4 17 6 18 7 16 8 3 9 4 10 5 11 15 12 6 13
REMARK SMILES IDX 2 14 1 15 7 16 8 17 9 18 10 19 14 20 11 21 13 22 12 23 23 24
REMARK SMILES IDX 24 25 25 26 26 27 27 29 28 30 29 31 90 32 30 33 89 34 31 35
REMARK SMILES IDX 32 36 33 37 83 38 34 39 88 40 82 41 84 42 35 43 87 44 81 45
REMARK SMILES IDX 80 46 36 48 68 49 48 50 67 51 49 52 52 53 66 54 85 55 50 56
REMARK SMILES IDX 51 57 65 59 86 60 53 61 37 62 38 63 46 64 39 65 40 66 44 67
REMARK SMILES IDX 47 68 41 69 42 70 45 71 43 72 69 73 70 74 78 75 71 76 72 77
REMARK SMILES IDX 76 78 79 79 73 80 74 81 77 82 75 83 54 84 55 85 63 86 56 87
REMARK SMILES IDX 57 88 61 89 64 90 58 91 59 92 62 93 60 94
REMARK H PARENT 21 5 25 28 84 47 52 58
REMARK Flexibility Score: inf
ROOT
ATOM      1  C   UNL A   1      31.394  30.760  25.614  1.00  0.00     0.117 C 
ENDROOT
BRANCH   1   2
ATOM      2  N   UNL A   1      32.437  29.900  26.136  1.00  0.00    -0.356 N 
ATOM      3  C   UNL A   1      33.045  28.784  25.655  1.00  0.00     0.227 C 
ATOM      4  O   UNL A   1      33.845  28.245  26.432  1.00  0.00    -0.274 OA
ATOM      5  H   UNL A   1      32.772  30.180  27.018  1.00  0.00     0.163 HD
BRANCH   3   6
ATOM      6  C   UNL A   1      32.792  28.166  24.267  1.00  0.00     0.109 C 
ATOM      7  C   UNL A   1      33.273  28.986  23.069  1.00  0.00     0.023 C 
BRANCH   6   8
ATOM      8  C   UNL A   1      31.393  27.582  24.112  1.00  0.00     0.007 A 
ATOM      9  C   UNL A   1      31.119  26.237  24.409  1.00  0.00     0.122 A 
ATOM     10  C   UNL A   1      29.829  25.717  24.276  1.00  0.00     0.047 A 
ATOM     11  C   UNL A   1      28.779  26.535  23.858  1.00  0.00     0.016 A 
ATOM     12  C   UNL A   1      30.320  28.379  23.666  1.00  0.00     0.020 A 
ATOM     13  C   UNL A   1      29.016  27.875  23.536  1.00  0.00     0.023 A 
BRANCH   9  14
ATOM     14  O   UNL A   1      32.121  25.351  24.692  1.00  0.00    -0.496 OA
ATOM     15  C   UNL A   1      32.123  24.963  26.067  1.00  0.00     0.278 C 
ENDBRANCH   9  14
BRANCH  13  16
ATOM     16  C   UNL A   1      27.849  28.712  23.116  1.00  0.00     0.193 C 
ATOM     17  O   UNL A   1      26.704  28.287  23.258  1.00  0.00    -0.289 OA
BRANCH  16  18
ATOM     18  C   UNL A   1      28.003  30.094  22.611  1.00  0.00     0.022 A 
ATOM     19  C   UNL A   1      28.101  31.122  23.554  1.00  0.00     0.012 A 
ATOM     20  C   UNL A   1      28.033  30.392  21.244  1.00  0.00     0.012 A 
ATOM     21  C   UNL A   1      28.288  32.436  23.129  1.00  0.00     0.001 A 
ATOM     22  C   UNL A   1      28.240  31.709  20.826  1.00  0.00     0.001 A 
ATOM     23  C   UNL A   1      28.378  32.729  21.769  1.00  0.00     0.000 A 
ENDBRANCH  16  18
ENDBRANCH  13  16
ENDBRANCH   6   8
ENDBRANCH   3   6
ENDBRANCH   1   2
BRANCH   1  24
ATOM     24  C   UNL A   1      31.257  32.044  26.425  1.00  0.00     0.042 C 
BRANCH  24  25
ATOM     25  C   UNL A   1      32.494  32.446  27.216  1.00  0.00     0.118 C 
BRANCH  25  26
ATOM     26  N   UNL A   1      32.482  33.852  27.595  1.00  0.00    -0.352 N 
ATOM     27  C   UNL A   1      33.186  34.565  28.537  1.00  0.00     0.251 C 
ATOM     28  H   UNL A   1      31.848  34.398  27.076  1.00  0.00     0.163 HD
ATOM     29  O   UNL A   1      32.831  35.717  28.777  1.00  0.00    -0.269 OA
BRANCH  27  30
ATOM     30  C   UNL A   1      34.337  33.997  29.287  1.00  0.00     0.039 A 
ATOM     31  C   UNL A   1      35.636  34.336  28.869  1.00  0.00     0.014 A 
ATOM     32  C   UNL A   1      34.184  33.097  30.341  1.00  0.00     0.014 A 
ATOM     33  C   UNL A   1      36.756  33.840  29.547  1.00  0.00     0.010 A 
ATOM     34  C   UNL A   1      35.294  32.662  31.065  1.00  0.00     0.010 A 
ATOM     35  C   UNL A   1      36.592  33.018  30.668  1.00  0.00    -0.014 A 
BRANCH  35  36
ATOM     36  C   UNL A   1      37.753  32.447  31.395  1.00  0.00     0.031 A 
ATOM     37  C   UNL A   1      38.499  31.286  30.800  1.00  0.00     0.074 A 
ATOM     38  C   UNL A   1      38.090  32.905  32.615  1.00  0.00     0.049 A 
ATOM     39  N   UNL A   1      39.477  30.576  31.304  1.00  0.00    -0.248 NA
ATOM     40  C   UNL A   1      38.063  30.845  29.465  1.00  0.00     0.031 C 
ATOM     41  C   UNL A   1      37.424  33.997  33.321  1.00  0.00     0.029 A 
ATOM     42  N   UNL A   1      39.063  32.489  33.489  1.00  0.00    -0.354 N 
ATOM     43  C   UNL A   1      39.759  29.600  30.359  1.00  0.00     0.074 A 
ATOM     44  C   UNL A   1      38.815  29.772  29.276  1.00  0.00     0.031 C 
ATOM     45  C   UNL A   1      38.001  34.162  34.522  1.00  0.00     0.029 A 
ATOM     46  C   UNL A   1      39.065  33.173  34.679  1.00  0.00     0.049 A 
ATOM     47  H   UNL A   1      39.701  31.768  33.281  1.00  0.00     0.167 HD
ATOM     48  C   UNL A   1      40.732  28.658  30.380  1.00  0.00     0.037 A 
ATOM     49  C   UNL A   1      39.830  33.014  35.776  1.00  0.00     0.037 A 
ATOM     50  C   UNL A   1      41.681  28.500  31.448  1.00  0.00     0.049 A 
ATOM     51  C   UNL A   1      40.902  31.957  35.781  1.00  0.00     0.074 A 
ATOM     52  C   UNL A   1      42.747  27.622  31.534  1.00  0.00     0.029 A 
ATOM     53  N   UNL A   1      41.671  29.234  32.625  1.00  0.00    -0.354 N 
ATOM     54  N   UNL A   1      41.216  31.092  34.848  1.00  0.00    -0.248 NA
ATOM     55  C   UNL A   1      41.732  31.862  36.990  1.00  0.00     0.031 C 
ATOM     56  C   UNL A   1      43.356  27.794  32.782  1.00  0.00     0.029 A 
ATOM     57  C   UNL A   1      42.699  28.812  33.454  1.00  0.00     0.049 A 
ATOM     58  H   UNL A   1      41.030  29.949  32.840  1.00  0.00     0.167 HD
ATOM     59  C   UNL A   1      42.295  30.371  35.342  1.00  0.00     0.074 A 
ATOM     60  C   UNL A   1      42.588  30.906  36.655  1.00  0.00     0.031 C 
ATOM     61  C   UNL A   1      42.982  29.359  34.758  1.00  0.00     0.037 A 
BRANCH  48  62
ATOM     62  C   UNL A   1      40.805  27.724  29.207  1.00  0.00     0.064 A 
ATOM     63  C   UNL A   1      41.753  27.898  28.186  1.00  0.00     0.173 A 
ATOM     64  C   UNL A   1      39.914  26.647  29.097  1.00  0.00     0.173 A 
ATOM     65  F   UNL A   1      42.620  28.922  28.236  1.00  0.00    -0.203 F 
ATOM     66  C   UNL A   1      41.779  27.054  27.080  1.00  0.00     0.198 A 
ATOM     67  C   UNL A   1      39.963  25.786  28.004  1.00  0.00     0.198 A 
ATOM     68  F   UNL A   1      38.991  26.433  30.047  1.00  0.00    -0.203 F 
ATOM     69  F   UNL A   1      42.650  27.280  26.086  1.00  0.00    -0.200 F 
ATOM     70  C   UNL A   1      40.886  25.997  26.990  1.00  0.00     0.200 A 
ATOM     71  F   UNL A   1      39.105  24.759  27.923  1.00  0.00    -0.200 F 
ATOM     72  F   UNL A   1      40.906  25.188  25.922  1.00  0.00    -0.200 F 
ENDBRANCH  48  62
BRANCH  49  73
ATOM     73  C   UNL A   1      39.629  33.901  36.950  1.00  0.00     0.064 A 
ATOM     74  C   UNL A   1      40.241  35.161  37.010  1.00  0.00     0.173 A 
ATOM     75  C   UNL A   1      38.823  33.512  38.029  1.00  0.00     0.173 A 
ATOM     76  F   UNL A   1      41.039  35.565  36.012  1.00  0.00    -0.203 F 
ATOM     77  C   UNL A   1      40.063  35.995  38.112  1.00  0.00     0.198 A 
ATOM     78  C   UNL A   1      38.628  34.357  39.121  1.00  0.00     0.198 A 
ATOM     79  F   UNL A   1      38.219  32.316  38.019  1.00  0.00    -0.203 F 
ATOM     80  F   UNL A   1      40.689  37.178  38.162  1.00  0.00    -0.200 F 
ATOM     81  C   UNL A   1      39.253  35.595  39.164  1.00  0.00     0.200 A 
ATOM     82  F   UNL A   1      37.840  33.970  40.133  1.00  0.00    -0.200 F 
ATOM     83  F   UNL A   1      39.081  36.399  40.223  1.00  0.00    -0.200 F 
ENDBRANCH  49  73
BRANCH  61  84
ATOM     84  C   UNL A   1      44.141  28.782  35.517  1.00  0.00     0.064 A 
ATOM     85  C   UNL A   1      45.447  29.264  35.348  1.00  0.00     0.173 A 
ATOM     86  C   UNL A   1      43.932  27.768  36.465  1.00  0.00     0.173 A 
ATOM     87  F   UNL A   1      45.700  30.221  34.443  1.00  0.00    -0.203 F 
ATOM     88  C   UNL A   1      46.504  28.739  36.086  1.00  0.00     0.198 A 
ATOM     89  C   UNL A   1      44.987  27.266  37.222  1.00  0.00     0.198 A 
ATOM     90  F   UNL A   1      42.701  27.276  36.670  1.00  0.00    -0.203 F 
ATOM     91  F   UNL A   1      47.750  29.188  35.880  1.00  0.00    -0.200 F 
ATOM     92  C   UNL A   1      46.273  27.748  37.028  1.00  0.00     0.200 A 
ATOM     93  F   UNL A   1      44.759  26.318  38.142  1.00  0.00    -0.200 F 
ATOM     94  F   UNL A   1      47.290  27.253  37.746  1.00  0.00    -0.200 F 
ENDBRANCH  61  84
ENDBRANCH  35  36
ENDBRANCH  27  30
ENDBRANCH  25  26
ENDBRANCH  24  25
ENDBRANCH   1  24
TORSDOF 14
ENDMDL
MODEL 3
REMARK VINA RESULT:     -11.9      1.060      2.321
REMARK SMILES COc1ccc(C(=O)c2ccccc2)cc1[C@@H](C)C(=O)NCCCNC(=O)c1ccc(-c2c3nc(c(-c4c(F)c(F)c(F)c(F)c4F)c4ccc([nH]4)c(-c4c(F)c(F)c(F)c(F)c4F)c4nc(c(-c5c(F)c(F)c(F)c(F)c5F)c5ccc2[nH]5)C=C4)C=C3)cc1
REMARK SMILES IDX 22 1 21 2 19 3 20 4 17 6 18 7 16 8 3 9 4 10 5 11 15 12 6 13
REMARK SMILES IDX 2 14 1 15 7 16 8 17 9 18 10 19 14 20 11 21 13 22 12 23 23 24
REMARK SMILES IDX 24 25 25 26 26 27 27 29 28 30 29 31 90 32 30 33 89 34 31 35
REMARK SMILES IDX 32 36 33 37 83 38 34 39 88 40 82 41 84 42 35 43 87 44 81 45
REMARK SMILES IDX 80 46 36 48 68 49 48 50 67 51 49 52 52 53 66 54 85 55 50 56
REMARK SMILES IDX 51 57 65 59 86 60 53 61 37 62 38 63 46 64 39 65 40 66 44 67
REMARK SMILES IDX 47 68 41 69 42 70 45 71 43 72 69 73 70 74 78 75 71 76 72 77
REMARK SMILES IDX 76 78 79 79 73 80 74 81 77 82 75 83 54 84 55 85 63 86 56 87
REMARK SMILES IDX 57 88 61 89 64 90 58 91 59 92 62 93 60 94
REMARK H PARENT 21 5 25 28 84 47 52 58
REMARK Flexibility Score: inf
ROOT
ATOM      1  C   UNL A   1      31.899  28.052  27.133  1.00  0.00     0.117 C 
ENDROOT
BRANCH   1   2
ATOM      2  N   UNL A   1      31.096  26.848  27.084  1.00  0.00    -0.356 N 
ATOM      3  C   UNL A   1      30.293  26.306  26.131  1.00  0.00     0.227 C 
ATOM      4  O   UNL A   1      29.674  25.292  26.480  1.00  0.00    -0.274 OA
ATOM      5  H   UNL A   1      31.139  26.314  27.911  1.00  0.00     0.163 HD
BRANCH   3   6
ATOM      6  C   UNL A   1      30.101  26.869  24.711  1.00  0.00     0.109 C 
ATOM      7  C   UNL A   1      28.822  26.447  23.989  1.00  0.00     0.023 C 
BRANCH   6   8
ATOM      8  C   UNL A   1      31.362  26.798  23.857  1.00  0.00     0.007 A 
ATOM      9  C   UNL A   1      31.900  27.939  23.241  1.00  0.00     0.122 A 
ATOM     10  C   UNL A   1      33.065  27.864  22.472  1.00  0.00     0.047 A 
ATOM     11  C   UNL A   1      33.727  26.646  22.315  1.00  0.00     0.016 A 
ATOM     12  C   UNL A   1      32.036  25.576  23.660  1.00  0.00     0.020 A 
ATOM     13  C   UNL A   1      33.211  25.485  22.898  1.00  0.00     0.023 A 
BRANCH   9  14
ATOM     14  O   UNL A   1      31.232  29.133  23.243  1.00  0.00    -0.496 OA
ATOM     15  C   UNL A   1      30.462  29.319  22.055  1.00  0.00     0.278 C 
ENDBRANCH   9  14
BRANCH  13  16
ATOM     16  C   UNL A   1      33.975  24.211  22.716  1.00  0.00     0.193 C 
ATOM     17  O   UNL A   1      33.778  23.510  21.725  1.00  0.00    -0.289 OA
BRANCH  16  18
ATOM     18  C   UNL A   1      35.047  23.786  23.645  1.00  0.00     0.022 A 
ATOM     19  C   UNL A   1      35.939  22.806  23.200  1.00  0.00     0.012 A 
ATOM     20  C   UNL A   1      35.173  24.317  24.933  1.00  0.00     0.012 A 
ATOM     21  C   UNL A   1      36.990  22.402  24.022  1.00  0.00     0.001 A 
ATOM     22  C   UNL A   1      36.241  23.921  25.744  1.00  0.00     0.001 A 
ATOM     23  C   UNL A   1      37.154  22.972  25.284  1.00  0.00     0.000 A 
ENDBRANCH  16  18
ENDBRANCH  13  16
ENDBRANCH   6   8
ENDBRANCH   3   6
ENDBRANCH   1   2
BRANCH   1  24
ATOM     24  C   UNL A   1      33.353  27.783  26.758  1.00  0.00     0.042 C 
BRANCH  24  25
ATOM     25  C   UNL A   1      34.031  28.888  25.961  1.00  0.00     0.118 C 
BRANCH  25  26
ATOM     26  N   UNL A   1      33.825  30.206  26.546  1.00  0.00    -0.352 N 
ATOM     27  C   UNL A   1      34.452  30.875  27.570  1.00  0.00     0.251 C 
ATOM     28  H   UNL A   1      33.096  30.717  26.126  1.00  0.00     0.163 HD
ATOM     29  O   UNL A   1      33.939  31.911  27.986  1.00  0.00    -0.269 OA
BRANCH  27  30
ATOM     30  C   UNL A   1      35.705  30.389  28.206  1.00  0.00     0.039 A 
ATOM     31  C   UNL A   1      36.932  30.809  27.664  1.00  0.00     0.014 A 
ATOM     32  C   UNL A   1      35.713  29.488  29.270  1.00  0.00     0.014 A 
ATOM     33  C   UNL A   1      38.143  30.392  28.231  1.00  0.00     0.010 A 
ATOM     34  C   UNL A   1      36.915  29.131  29.884  1.00  0.00     0.010 A 
ATOM     35  C   UNL A   1      38.142  29.569  29.363  1.00  0.00    -0.014 A 
BRANCH  35  36
ATOM     36  C   UNL A   1      39.403  29.080  29.975  1.00  0.00     0.031 A 
ATOM     37  C   UNL A   1      39.980  29.807  31.158  1.00  0.00     0.074 A 
ATOM     38  C   UNL A   1      40.072  28.047  29.431  1.00  0.00     0.049 A 
ATOM     39  N   UNL A   1      41.112  29.611  31.785  1.00  0.00    -0.248 NA
ATOM     40  C   UNL A   1      39.187  30.927  31.686  1.00  0.00     0.031 C 
ATOM     41  C   UNL A   1      39.642  27.284  28.262  1.00  0.00     0.029 A 
ATOM     42  N   UNL A   1      41.273  27.479  29.776  1.00  0.00    -0.354 N 
ATOM     43  C   UNL A   1      41.173  30.589  32.767  1.00  0.00     0.074 A 
ATOM     44  C   UNL A   1      39.992  31.412  32.618  1.00  0.00     0.031 C 
ATOM     45  C   UNL A   1      40.567  26.351  27.981  1.00  0.00     0.029 A 
ATOM     46  C   UNL A   1      41.664  26.465  28.938  1.00  0.00     0.049 A 
ATOM     47  H   UNL A   1      41.803  27.770  30.554  1.00  0.00     0.167 HD
ATOM     48  C   UNL A   1      42.115  30.774  33.721  1.00  0.00     0.037 A 
ATOM     49  C   UNL A   1      42.786  25.719  28.935  1.00  0.00     0.037 A 
ATOM     50  C   UNL A   1      43.279  29.944  33.879  1.00  0.00     0.049 A 
ATOM     51  C   UNL A   1      43.825  25.944  30.001  1.00  0.00     0.074 A 
ATOM     52  C   UNL A   1      44.258  30.004  34.856  1.00  0.00     0.029 A 
ATOM     53  N   UNL A   1      43.626  28.905  33.029  1.00  0.00    -0.354 N 
ATOM     54  N   UNL A   1      43.833  26.818  30.977  1.00  0.00    -0.248 NA
ATOM     55  C   UNL A   1      45.006  25.069  29.970  1.00  0.00     0.031 C 
ATOM     56  C   UNL A   1      45.221  29.031  34.570  1.00  0.00     0.029 A 
ATOM     57  C   UNL A   1      44.818  28.331  33.444  1.00  0.00     0.049 A 
ATOM     58  H   UNL A   1      43.103  28.616  32.246  1.00  0.00     0.167 HD
ATOM     59  C   UNL A   1      45.000  26.583  31.692  1.00  0.00     0.074 A 
ATOM     60  C   UNL A   1      45.671  25.476  31.043  1.00  0.00     0.031 C 
ATOM     61  C   UNL A   1      45.471  27.224  32.790  1.00  0.00     0.037 A 
BRANCH  48  62
ATOM     62  C   UNL A   1      41.920  31.926  34.663  1.00  0.00     0.064 A 
ATOM     63  C   UNL A   1      42.505  33.180  34.423  1.00  0.00     0.173 A 
ATOM     64  C   UNL A   1      41.144  31.775  35.822  1.00  0.00     0.173 A 
ATOM     65  F   UNL A   1      43.267  33.373  33.336  1.00  0.00    -0.203 F 
ATOM     66  C   UNL A   1      42.355  34.225  35.330  1.00  0.00     0.198 A 
ATOM     67  C   UNL A   1      40.971  32.833  36.711  1.00  0.00     0.198 A 
ATOM     68  F   UNL A   1      40.560  30.599  36.097  1.00  0.00    -0.203 F 
ATOM     69  F   UNL A   1      42.978  35.392  35.112  1.00  0.00    -0.200 F 
ATOM     70  C   UNL A   1      41.587  34.053  36.470  1.00  0.00     0.200 A 
ATOM     71  F   UNL A   1      40.221  32.668  37.809  1.00  0.00    -0.200 F 
ATOM     72  F   UNL A   1      41.448  35.058  37.346  1.00  0.00    -0.200 F 
ENDBRANCH  48  62
BRANCH  49  73
ATOM     73  C   UNL A   1      42.969  24.667  27.903  1.00  0.00     0.064 A 
ATOM     74  C   UNL A   1      43.525  24.975  26.654  1.00  0.00     0.173 A 
ATOM     75  C   UNL A   1      42.599  23.336  28.144  1.00  0.00     0.173 A 
ATOM     76  F   UNL A   1      43.873  26.239  26.370  1.00  0.00    -0.203 F 
ATOM     77  C   UNL A   1      43.693  23.994  25.679  1.00  0.00     0.198 A 
ATOM     78  C   UNL A   1      42.787  22.351  27.177  1.00  0.00     0.198 A 
ATOM     79  F   UNL A   1      42.061  22.993  29.323  1.00  0.00    -0.203 F 
ATOM     80  F   UNL A   1      44.191  24.323  24.479  1.00  0.00    -0.200 F 
ATOM     81  C   UNL A   1      43.329  22.682  25.942  1.00  0.00     0.200 A 
ATOM     82  F   UNL A   1      42.440  21.083  27.436  1.00  0.00    -0.200 F 
ATOM     83  F   UNL A   1      43.492  21.738  25.005  1.00  0.00    -0.200 F 
ENDBRANCH  49  73
BRANCH  61  84
ATOM     84  C   UNL A   1      46.757  26.728  33.383  1.00  0.00     0.064 A 
ATOM     85  C   UNL A   1      46.785  25.674  34.306  1.00  0.00     0.173 A 
ATOM     86  C   UNL A   1      47.983  27.281  32.979  1.00  0.00     0.173 A 
ATOM     87  F   UNL A   1      45.639  25.122  34.735  1.00  0.00    -0.203 F 
ATOM     88  C   UNL A   1      47.991  25.203  34.819  1.00  0.00     0.198 A 
ATOM     89  C   UNL A   1      49.188  26.789  33.472  1.00  0.00     0.198 A 
ATOM     90  F   UNL A   1      48.012  28.287  32.093  1.00  0.00    -0.203 F 
ATOM     91  F   UNL A   1      47.991  24.221  35.731  1.00  0.00    -0.200 F 
ATOM     92  C   UNL A   1      49.190  25.755  34.396  1.00  0.00     0.200 A 
ATOM     93  F   UNL A   1      50.347  27.314  33.051  1.00  0.00    -0.200 F 
ATOM     94  F   UNL A   1      50.351  25.292  34.882  1.00  0.00    -0.200 F 
ENDBRANCH  61  84
ENDBRANCH  35  36
ENDBRANCH  27  30
ENDBRANCH  25  26
ENDBRANCH  24  25
ENDBRANCH   1  24
TORSDOF 14
ENDMDL
