MODEL 1
REMARK VINA RESULT:     -12.0      0.000      0.000
REMARK SMILES COCCC(=O)N[C@@H](Cc1c[nH]c2ccccc12)C(=O)NCCCNC(=O)c1ccc(-c2c3nc(c(-c4c(F)c(F)c(F)c(F)c4F)c4ccc([nH]4)c(-c4c(F)c(F)c(F)c(F)c4F)c4nc(c(-c5c(F)c(F)c(F)c(F)c5F)c5ccc2[nH]5)C=C4)C=C3)cc1
REMARK SMILES IDX 22 1 21 2 19 3 20 4 8 6 7 7 5 8 6 9 4 11 3 12 2 13 1 14 9 15
REMARK SMILES IDX 10 16 11 17 18 18 12 19 13 20 17 21 14 23 16 24 15 25 23 26
REMARK SMILES IDX 24 27 25 28 26 29 27 31 28 32 29 33 90 34 30 35 89 36 31 37
REMARK SMILES IDX 32 38 33 39 83 40 34 41 88 42 82 43 84 44 35 45 87 46 81 47
REMARK SMILES IDX 80 48 36 50 68 51 48 52 67 53 49 54 52 55 66 56 85 57 50 58
REMARK SMILES IDX 51 59 65 61 86 62 53 63 37 64 38 65 46 66 39 67 40 68 44 69
REMARK SMILES IDX 47 70 41 71 42 72 45 73 43 74 69 75 70 76 78 77 71 78 72 79
REMARK SMILES IDX 76 80 79 81 73 82 74 83 77 84 75 85 54 86 55 87 63 88 56 89
REMARK SMILES IDX 57 90 61 91 64 92 58 93 59 94 62 95 60 96
REMARK H PARENT 21 5 7 10 12 22 25 30 84 49 52 60
REMARK Flexibility Score: inf
ROOT
ATOM      1  C   UNL A   1      32.140  27.390  26.382  1.00  0.00     0.117 C 
ENDROOT
BRANCH   1   2
ATOM      2  N   UNL A   1      31.165  26.438  26.838  1.00  0.00    -0.354 N 
ATOM      3  C   UNL A   1      30.582  25.452  26.089  1.00  0.00     0.242 C 
ATOM      4  O   UNL A   1      29.994  24.553  26.696  1.00  0.00    -0.273 OA
ATOM      5  H   UNL A   1      30.889  26.501  27.781  1.00  0.00     0.163 HD
BRANCH   3   6
ATOM      6  C   UNL A   1      30.652  25.447  24.535  1.00  0.00     0.175 C 
BRANCH   6   7
ATOM      7  N   UNL A   1      30.801  24.069  24.039  1.00  0.00    -0.344 N 
ATOM      8  C   UNL A   1      31.721  23.560  23.175  1.00  0.00     0.222 C 
ATOM      9  O   UNL A   1      31.768  22.338  23.024  1.00  0.00    -0.275 OA
ATOM     10  H   UNL A   1      30.141  23.423  24.382  1.00  0.00     0.164 HD
BRANCH   8  11
ATOM     11  C   UNL A   1      32.596  24.482  22.364  1.00  0.00     0.128 C 
BRANCH  11  12
ATOM     12  C   UNL A   1      33.781  24.959  23.195  1.00  0.00     0.169 C 
BRANCH  12  13
ATOM     13  O   UNL A   1      33.956  24.151  24.360  1.00  0.00    -0.384 OA
ATOM     14  C   UNL A   1      34.718  24.797  25.379  1.00  0.00     0.194 C 
ENDBRANCH  12  13
ENDBRANCH  11  12
ENDBRANCH   8  11
ENDBRANCH   6   7
BRANCH   6  15
ATOM     15  C   UNL A   1      29.616  26.344  23.808  1.00  0.00     0.072 C 
BRANCH  15  16
ATOM     16  C   UNL A   1      30.043  27.647  23.176  1.00  0.00    -0.020 A 
ATOM     17  C   UNL A   1      31.305  28.032  22.751  1.00  0.00     0.087 A 
ATOM     18  C   UNL A   1      29.187  28.774  22.925  1.00  0.00     0.003 A 
ATOM     19  N   UNL A   1      31.183  29.200  22.041  1.00  0.00    -0.361 N 
ATOM     20  C   UNL A   1      29.899  29.676  22.133  1.00  0.00     0.046 A 
ATOM     21  C   UNL A   1      27.856  29.093  23.265  1.00  0.00     0.010 A 
ATOM     22  H   UNL A   1      31.911  29.634  21.539  1.00  0.00     0.166 HD
ATOM     23  C   UNL A   1      29.321  30.828  21.586  1.00  0.00     0.026 A 
ATOM     24  C   UNL A   1      27.284  30.276  22.785  1.00  0.00     0.001 A 
ATOM     25  C   UNL A   1      27.998  31.114  21.934  1.00  0.00     0.002 A 
ENDBRANCH  15  16
ENDBRANCH   6  15
ENDBRANCH   3   6
ENDBRANCH   1   2
BRANCH   1  26
ATOM     26  C   UNL A   1      31.736  28.840  26.456  1.00  0.00     0.042 C 
BRANCH  26  27
ATOM     27  C   UNL A   1      32.809  29.784  25.968  1.00  0.00     0.118 C 
BRANCH  27  28
ATOM     28  N   UNL A   1      32.626  31.162  26.423  1.00  0.00    -0.352 N 
ATOM     29  C   UNL A   1      33.363  31.937  27.289  1.00  0.00     0.251 C 
ATOM     30  H   UNL A   1      31.838  31.613  26.045  1.00  0.00     0.163 HD
ATOM     31  O   UNL A   1      32.952  33.039  27.617  1.00  0.00    -0.269 OA
BRANCH  29  32
ATOM     32  C   UNL A   1      34.626  31.421  27.863  1.00  0.00     0.039 A 
ATOM     33  C   UNL A   1      35.683  32.311  28.075  1.00  0.00     0.014 A 
ATOM     34  C   UNL A   1      34.769  30.081  28.217  1.00  0.00     0.014 A 
ATOM     35  C   UNL A   1      36.840  31.868  28.717  1.00  0.00     0.010 A 
ATOM     36  C   UNL A   1      35.847  29.682  28.990  1.00  0.00     0.010 A 
ATOM     37  C   UNL A   1      36.909  30.562  29.226  1.00  0.00    -0.014 A 
BRANCH  37  38
ATOM     38  C   UNL A   1      38.097  30.077  29.969  1.00  0.00     0.031 A 
ATOM     39  C   UNL A   1      38.325  30.526  31.388  1.00  0.00     0.074 A 
ATOM     40  C   UNL A   1      39.000  29.293  29.347  1.00  0.00     0.049 A 
ATOM     41  N   UNL A   1      39.330  30.270  32.187  1.00  0.00    -0.248 NA
ATOM     42  C   UNL A   1      37.312  31.420  31.974  1.00  0.00     0.031 C 
ATOM     43  C   UNL A   1      38.929  28.860  27.950  1.00  0.00     0.029 A 
ATOM     44  N   UNL A   1      40.158  28.724  29.811  1.00  0.00    -0.354 N 
ATOM     45  C   UNL A   1      39.080  30.991  33.347  1.00  0.00     0.074 A 
ATOM     46  C   UNL A   1      37.875  31.756  33.123  1.00  0.00     0.031 C 
ATOM     47  C   UNL A   1      39.971  28.057  27.684  1.00  0.00     0.029 A 
ATOM     48  C   UNL A   1      40.802  27.949  28.878  1.00  0.00     0.049 A 
ATOM     49  H   UNL A   1      40.495  28.859  30.726  1.00  0.00     0.167 HD
ATOM     50  C   UNL A   1      39.769  30.987  34.511  1.00  0.00     0.037 A 
ATOM     51  C   UNL A   1      41.934  27.228  28.983  1.00  0.00     0.037 A 
ATOM     52  C   UNL A   1      40.938  30.183  34.744  1.00  0.00     0.049 A 
ATOM     53  C   UNL A   1      42.660  27.205  30.300  1.00  0.00     0.074 A 
ATOM     54  C   UNL A   1      41.672  30.040  35.907  1.00  0.00     0.029 A 
ATOM     55  N   UNL A   1      41.539  29.377  33.788  1.00  0.00    -0.354 N 
ATOM     56  N   UNL A   1      42.369  27.827  31.418  1.00  0.00    -0.248 NA
ATOM     57  C   UNL A   1      43.865  26.369  30.374  1.00  0.00     0.031 C 
ATOM     58  C   UNL A   1      42.742  29.179  35.644  1.00  0.00     0.029 A 
ATOM     59  C   UNL A   1      42.646  28.745  34.331  1.00  0.00     0.049 A 
ATOM     60  H   UNL A   1      41.225  29.269  32.861  1.00  0.00     0.167 HD
ATOM     61  C   UNL A   1      43.338  27.440  32.332  1.00  0.00     0.074 A 
ATOM     62  C   UNL A   1      44.211  26.511  31.646  1.00  0.00     0.031 C 
ATOM     63  C   UNL A   1      43.497  27.821  33.624  1.00  0.00     0.037 A 
BRANCH  50  64
ATOM     64  C   UNL A   1      39.263  31.862  35.621  1.00  0.00     0.064 A 
ATOM     65  C   UNL A   1      38.387  31.372  36.605  1.00  0.00     0.173 A 
ATOM     66  C   UNL A   1      39.665  33.203  35.714  1.00  0.00     0.173 A 
ATOM     67  F   UNL A   1      37.957  30.103  36.554  1.00  0.00    -0.203 F 
ATOM     68  C   UNL A   1      37.905  32.202  37.614  1.00  0.00     0.198 A 
ATOM     69  C   UNL A   1      39.209  34.019  36.745  1.00  0.00     0.198 A 
ATOM     70  F   UNL A   1      40.501  33.722  34.803  1.00  0.00    -0.203 F 
ATOM     71  F   UNL A   1      37.023  31.727  38.504  1.00  0.00    -0.200 F 
ATOM     72  C   UNL A   1      38.322  33.522  37.689  1.00  0.00     0.200 A 
ATOM     73  F   UNL A   1      39.620  35.292  36.822  1.00  0.00    -0.200 F 
ATOM     74  F   UNL A   1      37.862  34.317  38.664  1.00  0.00    -0.200 F 
ENDBRANCH  50  64
BRANCH  51  75
ATOM     75  C   UNL A   1      42.421  26.433  27.825  1.00  0.00     0.064 A 
ATOM     76  C   UNL A   1      43.383  26.956  26.949  1.00  0.00     0.173 A 
ATOM     77  C   UNL A   1      41.938  25.142  27.567  1.00  0.00     0.173 A 
ATOM     78  F   UNL A   1      43.864  28.193  27.145  1.00  0.00    -0.203 F 
ATOM     79  C   UNL A   1      43.826  26.229  25.847  1.00  0.00     0.198 A 
ATOM     80  C   UNL A   1      42.402  24.404  26.480  1.00  0.00     0.198 A 
ATOM     81  F   UNL A   1      41.024  24.591  28.379  1.00  0.00    -0.203 F 
ATOM     82  F   UNL A   1      44.711  26.772  25.000  1.00  0.00    -0.200 F 
ATOM     83  C   UNL A   1      43.339  24.951  25.615  1.00  0.00     0.200 A 
ATOM     84  F   UNL A   1      41.942  23.163  26.269  1.00  0.00    -0.200 F 
ATOM     85  F   UNL A   1      43.767  24.251  24.556  1.00  0.00    -0.200 F 
ENDBRANCH  51  75
BRANCH  63  86
ATOM     86  C   UNL A   1      44.639  27.209  34.380  1.00  0.00     0.064 A 
ATOM     87  C   UNL A   1      44.500  25.988  35.057  1.00  0.00     0.173 A 
ATOM     88  C   UNL A   1      45.891  27.840  34.408  1.00  0.00     0.173 A 
ATOM     89  F   UNL A   1      43.319  25.354  35.072  1.00  0.00    -0.203 F 
ATOM     90  C   UNL A   1      45.567  25.438  35.762  1.00  0.00     0.198 A 
ATOM     91  C   UNL A   1      46.963  27.271  35.087  1.00  0.00     0.198 A 
ATOM     92  F   UNL A   1      46.076  29.005  33.769  1.00  0.00    -0.203 F 
ATOM     93  F   UNL A   1      45.397  24.300  36.450  1.00  0.00    -0.200 F 
ATOM     94  C   UNL A   1      46.798  26.076  35.772  1.00  0.00     0.200 A 
ATOM     95  F   UNL A   1      48.157  27.881  35.082  1.00  0.00    -0.200 F 
ATOM     96  F   UNL A   1      47.825  25.544  36.449  1.00  0.00    -0.200 F 
ENDBRANCH  63  86
ENDBRANCH  37  38
ENDBRANCH  29  32
ENDBRANCH  27  28
ENDBRANCH  26  27
ENDBRANCH   1  26
TORSDOF 16
ENDMDL
MODEL 2
REMARK VINA RESULT:     -12.0      2.224      8.283
REMARK SMILES COCCC(=O)N[C@@H](Cc1c[nH]c2ccccc12)C(=O)NCCCNC(=O)c1ccc(-c2c3nc(c(-c4c(F)c(F)c(F)c(F)c4F)c4ccc([nH]4)c(-c4c(F)c(F)c(F)c(F)c4F)c4nc(c(-c5c(F)c(F)c(F)c(F)c5F)c5ccc2[nH]5)C=C4)C=C3)cc1
REMARK SMILES IDX 22 1 21 2 19 3 20 4 8 6 7 7 5 8 6 9 4 11 3 12 2 13 1 14 9 15
REMARK SMILES IDX 10 16 11 17 18 18 12 19 13 20 17 21 14 23 16 24 15 25 23 26
REMARK SMILES IDX 24 27 25 28 26 29 27 31 28 32 29 33 90 34 30 35 89 36 31 37
REMARK SMILES IDX 32 38 33 39 83 40 34 41 88 42 82 43 84 44 35 45 87 46 81 47
REMARK SMILES IDX 80 48 36 50 68 51 48 52 67 53 49 54 52 55 66 56 85 57 50 58
REMARK SMILES IDX 51 59 65 61 86 62 53 63 37 64 38 65 46 66 39 67 40 68 44 69
REMARK SMILES IDX 47 70 41 71 42 72 45 73 43 74 69 75 70 76 78 77 71 78 72 79
REMARK SMILES IDX 76 80 79 81 73 82 74 83 77 84 75 85 54 86 55 87 63 88 56 89
REMARK SMILES IDX 57 90 61 91 64 92 58 93 59 94 62 95 60 96
REMARK H PARENT 21 5 7 10 12 22 25 30 84 49 52 60
REMARK Flexibility Score: inf
ROOT
ATOM      1  C   UNL A   1      31.572  30.645  26.505  1.00  0.00     0.117 C 
ENDROOT
BRANCH   1   2
ATOM      2  N   UNL A   1      32.594  30.092  25.660  1.00  0.00    -0.354 N 
ATOM      3  C   UNL A   1      32.397  29.287  24.571  1.00  0.00     0.242 C 
ATOM      4  O   UNL A   1      33.348  29.140  23.797  1.00  0.00    -0.273 OA
ATOM      5  H   UNL A   1      33.527  30.312  25.888  1.00  0.00     0.163 HD
BRANCH   3   6
ATOM      6  C   UNL A   1      31.037  28.584  24.299  1.00  0.00     0.175 C 
BRANCH   6   7
ATOM      7  N   UNL A   1      30.614  28.817  22.909  1.00  0.00    -0.344 N 
ATOM      8  C   UNL A   1      29.714  29.715  22.423  1.00  0.00     0.222 C 
ATOM      9  O   UNL A   1      29.632  29.859  21.202  1.00  0.00    -0.275 OA
ATOM     10  H   UNL A   1      31.044  28.243  22.235  1.00  0.00     0.164 HD
BRANCH   8  11
ATOM     11  C   UNL A   1      28.785  30.446  23.359  1.00  0.00     0.128 C 
BRANCH  11  12
ATOM     12  C   UNL A   1      27.819  31.324  22.573  1.00  0.00     0.169 C 
BRANCH  12  13
ATOM     13  O   UNL A   1      27.747  32.640  23.126  1.00  0.00    -0.384 OA
ATOM     14  C   UNL A   1      28.983  33.347  23.045  1.00  0.00     0.194 C 
ENDBRANCH  12  13
ENDBRANCH  11  12
ENDBRANCH   8  11
ENDBRANCH   6   7
BRANCH   6  15
ATOM     15  C   UNL A   1      30.907  27.134  24.836  1.00  0.00     0.072 C 
BRANCH  15  16
ATOM     16  C   UNL A   1      31.508  25.980  24.072  1.00  0.00    -0.020 A 
ATOM     17  C   UNL A   1      30.986  25.292  22.986  1.00  0.00     0.087 A 
ATOM     18  C   UNL A   1      32.763  25.343  24.368  1.00  0.00     0.003 A 
ATOM     19  N   UNL A   1      31.968  24.476  22.481  1.00  0.00    -0.361 N 
ATOM     20  C   UNL A   1      33.063  24.488  23.307  1.00  0.00     0.046 A 
ATOM     21  C   UNL A   1      33.692  25.447  25.424  1.00  0.00     0.010 A 
ATOM     22  H   UNL A   1      31.895  23.957  21.647  1.00  0.00     0.166 HD
ATOM     23  C   UNL A   1      34.282  23.807  23.202  1.00  0.00     0.026 A 
ATOM     24  C   UNL A   1      34.886  24.719  25.369  1.00  0.00     0.001 A 
ATOM     25  C   UNL A   1      35.187  23.935  24.260  1.00  0.00     0.002 A 
ENDBRANCH  15  16
ENDBRANCH   6  15
ENDBRANCH   3   6
ENDBRANCH   1   2
BRANCH   1  26
ATOM     26  C   UNL A   1      31.493  32.149  26.552  1.00  0.00     0.042 C 
BRANCH  26  27
ATOM     27  C   UNL A   1      32.652  32.786  27.281  1.00  0.00     0.118 C 
BRANCH  27  28
ATOM     28  N   UNL A   1      32.416  34.181  27.648  1.00  0.00    -0.352 N 
ATOM     29  C   UNL A   1      33.009  34.984  28.595  1.00  0.00     0.251 C 
ATOM     30  H   UNL A   1      31.709  34.625  27.126  1.00  0.00     0.163 HD
ATOM     31  O   UNL A   1      32.565  36.101  28.809  1.00  0.00    -0.269 OA
BRANCH  29  32
ATOM     32  C   UNL A   1      34.150  34.480  29.393  1.00  0.00     0.039 A 
ATOM     33  C   UNL A   1      33.890  33.782  30.575  1.00  0.00     0.014 A 
ATOM     34  C   UNL A   1      35.467  34.667  28.976  1.00  0.00     0.014 A 
ATOM     35  C   UNL A   1      34.945  33.203  31.282  1.00  0.00     0.010 A 
ATOM     36  C   UNL A   1      36.491  33.964  29.588  1.00  0.00     0.010 A 
ATOM     37  C   UNL A   1      36.249  33.247  30.764  1.00  0.00    -0.014 A 
BRANCH  37  38
ATOM     38  C   UNL A   1      37.384  32.589  31.456  1.00  0.00     0.031 A 
ATOM     39  C   UNL A   1      38.110  31.452  30.786  1.00  0.00     0.074 A 
ATOM     40  C   UNL A   1      37.714  32.968  32.706  1.00  0.00     0.049 A 
ATOM     41  N   UNL A   1      39.081  30.704  31.245  1.00  0.00    -0.248 NA
ATOM     42  C   UNL A   1      37.652  31.072  29.438  1.00  0.00     0.031 C 
ATOM     43  C   UNL A   1      37.032  34.000  33.489  1.00  0.00     0.029 A 
ATOM     44  N   UNL A   1      38.707  32.523  33.541  1.00  0.00    -0.354 N 
ATOM     45  C   UNL A   1      39.324  29.759  30.257  1.00  0.00     0.074 A 
ATOM     46  C   UNL A   1      38.351  29.973  29.211  1.00  0.00     0.031 C 
ATOM     47  C   UNL A   1      37.654  34.142  34.670  1.00  0.00     0.029 A 
ATOM     48  C   UNL A   1      38.753  33.186  34.743  1.00  0.00     0.049 A 
ATOM     49  H   UNL A   1      39.327  31.797  33.301  1.00  0.00     0.167 HD
ATOM     50  C   UNL A   1      40.298  28.820  30.206  1.00  0.00     0.037 A 
ATOM     51  C   UNL A   1      39.597  33.039  35.781  1.00  0.00     0.037 A 
ATOM     52  C   UNL A   1      41.295  28.647  31.227  1.00  0.00     0.049 A 
ATOM     53  C   UNL A   1      40.697  32.018  35.684  1.00  0.00     0.074 A 
ATOM     54  C   UNL A   1      42.373  27.782  31.246  1.00  0.00     0.029 A 
ATOM     55  N   UNL A   1      41.336  29.366  32.413  1.00  0.00    -0.354 N 
ATOM     56  N   UNL A   1      40.969  31.184  34.709  1.00  0.00    -0.248 NA
ATOM     57  C   UNL A   1      41.616  31.927  36.826  1.00  0.00     0.031 C 
ATOM     58  C   UNL A   1      43.044  27.948  32.461  1.00  0.00     0.029 A 
ATOM     59  C   UNL A   1      42.413  28.952  33.179  1.00  0.00     0.049 A 
ATOM     60  H   UNL A   1      40.695  30.067  32.672  1.00  0.00     0.167 HD
ATOM     61  C   UNL A   1      42.101  30.487  35.108  1.00  0.00     0.074 A 
ATOM     62  C   UNL A   1      42.479  31.014  36.403  1.00  0.00     0.031 C 
ATOM     63  C   UNL A   1      42.768  29.497  34.465  1.00  0.00     0.037 A 
BRANCH  50  64
ATOM     64  C   UNL A   1      40.339  27.927  28.999  1.00  0.00     0.064 A 
ATOM     65  C   UNL A   1      39.640  26.709  28.960  1.00  0.00     0.173 A 
ATOM     66  C   UNL A   1      41.073  28.296  27.862  1.00  0.00     0.173 A 
ATOM     67  F   UNL A   1      38.937  26.299  30.027  1.00  0.00    -0.203 F 
ATOM     68  C   UNL A   1      39.707  25.879  27.845  1.00  0.00     0.198 A 
ATOM     69  C   UNL A   1      41.108  27.480  26.735  1.00  0.00     0.198 A 
ATOM     70  F   UNL A   1      41.757  29.449  27.844  1.00  0.00    -0.203 F 
ATOM     71  F   UNL A   1      39.083  24.693  27.856  1.00  0.00    -0.200 F 
ATOM     72  C   UNL A   1      40.433  26.267  26.730  1.00  0.00     0.200 A 
ATOM     73  F   UNL A   1      41.802  27.862  25.654  1.00  0.00    -0.200 F 
ATOM     74  F   UNL A   1      40.492  25.470  25.655  1.00  0.00    -0.200 F 
ENDBRANCH  50  64
BRANCH  51  75
ATOM     75  C   UNL A   1      39.464  33.910  36.978  1.00  0.00     0.064 A 
ATOM     76  C   UNL A   1      40.044  35.187  37.005  1.00  0.00     0.173 A 
ATOM     77  C   UNL A   1      38.760  33.491  38.116  1.00  0.00     0.173 A 
ATOM     78  F   UNL A   1      40.740  35.627  35.947  1.00  0.00    -0.203 F 
ATOM     79  C   UNL A   1      39.946  36.000  38.132  1.00  0.00     0.198 A 
ATOM     80  C   UNL A   1      38.639  34.316  39.232  1.00  0.00     0.198 A 
ATOM     81  F   UNL A   1      38.177  32.282  38.139  1.00  0.00    -0.203 F 
ATOM     82  F   UNL A   1      40.551  37.196  38.148  1.00  0.00    -0.200 F 
ATOM     83  C   UNL A   1      39.239  35.566  39.243  1.00  0.00     0.200 A 
ATOM     84  F   UNL A   1      37.940  33.900  40.298  1.00  0.00    -0.200 F 
ATOM     85  F   UNL A   1      39.144  36.350  40.326  1.00  0.00    -0.200 F 
ENDBRANCH  51  75
BRANCH  63  86
ATOM     86  C   UNL A   1      43.987  28.945  35.142  1.00  0.00     0.064 A 
ATOM     87  C   UNL A   1      45.260  29.495  34.926  1.00  0.00     0.173 A 
ATOM     88  C   UNL A   1      43.877  27.869  36.036  1.00  0.00     0.173 A 
ATOM     89  F   UNL A   1      45.418  30.515  34.071  1.00  0.00    -0.203 F 
ATOM     90  C   UNL A   1      46.383  28.965  35.555  1.00  0.00     0.198 A 
ATOM     91  C   UNL A   1      44.998  27.363  36.686  1.00  0.00     0.198 A 
ATOM     92  F   UNL A   1      42.681  27.314  36.282  1.00  0.00    -0.203 F 
ATOM     93  F   UNL A   1      47.597  29.468  35.290  1.00  0.00    -0.200 F 
ATOM     94  C   UNL A   1      46.250  27.904  36.438  1.00  0.00     0.200 A 
ATOM     95  F   UNL A   1      44.866  26.348  37.551  1.00  0.00    -0.200 F 
ATOM     96  F   UNL A   1      47.332  27.396  37.045  1.00  0.00    -0.200 F 
ENDBRANCH  63  86
ENDBRANCH  37  38
ENDBRANCH  29  32
ENDBRANCH  27  28
ENDBRANCH  26  27
ENDBRANCH   1  26
TORSDOF 16
ENDMDL
MODEL 3
REMARK VINA RESULT:     -11.9      4.622     10.158
REMARK SMILES COCCC(=O)N[C@@H](Cc1c[nH]c2ccccc12)C(=O)NCCCNC(=O)c1ccc(-c2c3nc(c(-c4c(F)c(F)c(F)c(F)c4F)c4ccc([nH]4)c(-c4c(F)c(F)c(F)c(F)c4F)c4nc(c(-c5c(F)c(F)c(F)c(F)c5F)c5ccc2[nH]5)C=C4)C=C3)cc1
REMARK SMILES IDX 22 1 21 2 19 3 20 4 8 6 7 7 5 8 6 9 4 11 3 12 2 13 1 14 9 15
REMARK SMILES IDX 10 16 11 17 18 18 12 19 13 20 17 21 14 23 16 24 15 25 23 26
REMARK SMILES IDX 24 27 25 28 26 29 27 31 28 32 29 33 90 34 30 35 89 36 31 37
REMARK SMILES IDX 32 38 33 39 83 40 34 41 88 42 82 43 84 44 35 45 87 46 81 47
REMARK SMILES IDX 80 48 36 50 68 51 48 52 67 53 49 54 52 55 66 56 85 57 50 58
REMARK SMILES IDX 51 59 65 61 86 62 53 63 37 64 38 65 46 66 39 67 40 68 44 69
REMARK SMILES IDX 47 70 41 71 42 72 45 73 43 74 69 75 70 76 78 77 71 78 72 79
REMARK SMILES IDX 76 80 79 81 73 82 74 83 77 84 75 85 54 86 55 87 63 88 56 89
REMARK SMILES IDX 57 90 61 91 64 92 58 93 59 94 62 95 60 96
REMARK H PARENT 21 5 7 10 12 22 25 30 84 49 52 60
REMARK Flexibility Score: inf
ROOT
ATOM      1  C   UNL A   1      35.224  23.144  24.195  1.00  0.00     0.117 C 
ENDROOT
BRANCH   1   2
ATOM      2  N   UNL A   1      34.824  23.356  22.831  1.00  0.00    -0.354 N 
ATOM      3  C   UNL A   1      33.545  23.317  22.346  1.00  0.00     0.242 C 
ATOM      4  O   UNL A   1      33.350  23.801  21.227  1.00  0.00    -0.273 OA
ATOM      5  H   UNL A   1      35.540  23.548  22.183  1.00  0.00     0.163 HD
BRANCH   3   6
ATOM      6  C   UNL A   1      32.373  22.698  23.159  1.00  0.00     0.175 C 
BRANCH   6   7
ATOM      7  N   UNL A   1      31.157  23.512  22.995  1.00  0.00    -0.344 N 
ATOM      8  C   UNL A   1      30.630  24.449  23.830  1.00  0.00     0.222 C 
ATOM      9  O   UNL A   1      29.692  25.136  23.421  1.00  0.00    -0.275 OA
ATOM     10  H   UNL A   1      30.654  23.357  22.163  1.00  0.00     0.164 HD
BRANCH   8  11
ATOM     11  C   UNL A   1      31.132  24.576  25.246  1.00  0.00     0.128 C 
BRANCH  11  12
ATOM     12  C   UNL A   1      32.190  25.670  25.341  1.00  0.00     0.169 C 
BRANCH  12  13
ATOM     13  O   UNL A   1      32.369  26.327  24.085  1.00  0.00    -0.384 OA
ATOM     14  C   UNL A   1      33.729  26.671  23.824  1.00  0.00     0.194 C 
ENDBRANCH  12  13
ENDBRANCH  11  12
ENDBRANCH   8  11
ENDBRANCH   6   7
BRANCH   6  15
ATOM     15  C   UNL A   1      32.206  21.160  23.041  1.00  0.00     0.072 C 
BRANCH  15  16
ATOM     16  C   UNL A   1      32.586  20.260  24.191  1.00  0.00    -0.020 A 
ATOM     17  C   UNL A   1      32.702  20.574  25.537  1.00  0.00     0.087 A 
ATOM     18  C   UNL A   1      32.941  18.871  24.084  1.00  0.00     0.003 A 
ATOM     19  N   UNL A   1      32.849  19.405  26.241  1.00  0.00    -0.361 N 
ATOM     20  C   UNL A   1      32.998  18.350  25.378  1.00  0.00     0.046 A 
ATOM     21  C   UNL A   1      33.179  17.998  23.003  1.00  0.00     0.010 A 
ATOM     22  H   UNL A   1      32.847  19.335  27.224  1.00  0.00     0.166 HD
ATOM     23  C   UNL A   1      33.186  16.987  25.640  1.00  0.00     0.026 A 
ATOM     24  C   UNL A   1      33.438  16.645  23.250  1.00  0.00     0.001 A 
ATOM     25  C   UNL A   1      33.412  16.144  24.548  1.00  0.00     0.002 A 
ENDBRANCH  15  16
ENDBRANCH   6  15
ENDBRANCH   3   6
ENDBRANCH   1   2
BRANCH   1  26
ATOM     26  C   UNL A   1      36.117  21.956  24.447  1.00  0.00     0.042 C 
BRANCH  26  27
ATOM     27  C   UNL A   1      36.826  22.015  25.779  1.00  0.00     0.118 C 
BRANCH  27  28
ATOM     28  N   UNL A   1      37.932  21.065  25.895  1.00  0.00    -0.352 N 
ATOM     29  C   UNL A   1      39.244  21.240  26.271  1.00  0.00     0.251 C 
ATOM     30  H   UNL A   1      37.697  20.138  25.662  1.00  0.00     0.163 HD
ATOM     31  O   UNL A   1      40.030  20.310  26.182  1.00  0.00    -0.269 OA
BRANCH  29  32
ATOM     32  C   UNL A   1      39.717  22.564  26.736  1.00  0.00     0.039 A 
ATOM     33  C   UNL A   1      40.723  22.617  27.705  1.00  0.00     0.014 A 
ATOM     34  C   UNL A   1      39.199  23.746  26.211  1.00  0.00     0.014 A 
ATOM     35  C   UNL A   1      41.260  23.851  28.075  1.00  0.00     0.010 A 
ATOM     36  C   UNL A   1      39.838  24.950  26.461  1.00  0.00     0.010 A 
ATOM     37  C   UNL A   1      40.856  25.023  27.417  1.00  0.00    -0.014 A 
BRANCH  37  38
ATOM     38  C   UNL A   1      41.451  26.342  27.739  1.00  0.00     0.031 A 
ATOM     39  C   UNL A   1      42.843  26.669  27.267  1.00  0.00     0.074 A 
ATOM     40  C   UNL A   1      40.769  27.212  28.509  1.00  0.00     0.049 A 
ATOM     41  N   UNL A   1      43.567  27.736  27.497  1.00  0.00    -0.248 NA
ATOM     42  C   UNL A   1      43.535  25.641  26.471  1.00  0.00     0.031 C 
ATOM     43  C   UNL A   1      39.447  26.974  29.093  1.00  0.00     0.029 A 
ATOM     44  N   UNL A   1      41.097  28.473  28.937  1.00  0.00    -0.354 N 
ATOM     45  C   UNL A   1      44.796  27.490  26.899  1.00  0.00     0.074 A 
ATOM     46  C   UNL A   1      44.752  26.148  26.367  1.00  0.00     0.031 C 
ATOM     47  C   UNL A   1      39.057  28.070  29.763  1.00  0.00     0.029 A 
ATOM     48  C   UNL A   1      40.115  29.071  29.688  1.00  0.00     0.049 A 
ATOM     49  H   UNL A   1      41.954  28.907  28.725  1.00  0.00     0.167 HD
ATOM     50  C   UNL A   1      45.855  28.323  26.769  1.00  0.00     0.037 A 
ATOM     51  C   UNL A   1      40.076  30.296  30.246  1.00  0.00     0.037 A 
ATOM     52  C   UNL A   1      45.871  29.676  27.256  1.00  0.00     0.049 A 
ATOM     53  C   UNL A   1      41.247  31.219  30.052  1.00  0.00     0.074 A 
ATOM     54  C   UNL A   1      46.857  30.634  27.113  1.00  0.00     0.029 A 
ATOM     55  N   UNL A   1      44.841  30.263  27.976  1.00  0.00    -0.354 N 
ATOM     56  N   UNL A   1      42.373  31.006  29.413  1.00  0.00    -0.248 NA
ATOM     57  C   UNL A   1      41.137  32.558  30.644  1.00  0.00     0.031 C 
ATOM     58  C   UNL A   1      46.442  31.790  27.783  1.00  0.00     0.029 A 
ATOM     59  C   UNL A   1      45.175  31.567  28.300  1.00  0.00     0.049 A 
ATOM     60  H   UNL A   1      43.997  29.818  28.221  1.00  0.00     0.167 HD
ATOM     61  C   UNL A   1      43.094  32.188  29.507  1.00  0.00     0.074 A 
ATOM     62  C   UNL A   1      42.267  33.123  30.242  1.00  0.00     0.031 C 
ATOM     63  C   UNL A   1      44.331  32.478  29.031  1.00  0.00     0.037 A 
BRANCH  50  64
ATOM     64  C   UNL A   1      47.068  27.798  26.056  1.00  0.00     0.064 A 
ATOM     65  C   UNL A   1      47.152  27.789  24.654  1.00  0.00     0.173 A 
ATOM     66  C   UNL A   1      48.165  27.308  26.780  1.00  0.00     0.173 A 
ATOM     67  F   UNL A   1      46.125  28.230  23.913  1.00  0.00    -0.203 F 
ATOM     68  C   UNL A   1      48.273  27.276  24.006  1.00  0.00     0.198 A 
ATOM     69  C   UNL A   1      49.298  26.829  26.129  1.00  0.00     0.198 A 
ATOM     70  F   UNL A   1      48.138  27.295  28.121  1.00  0.00    -0.203 F 
ATOM     71  F   UNL A   1      48.304  27.221  22.667  1.00  0.00    -0.200 F 
ATOM     72  C   UNL A   1      49.348  26.804  24.742  1.00  0.00     0.200 A 
ATOM     73  F   UNL A   1      50.341  26.382  26.842  1.00  0.00    -0.200 F 
ATOM     74  F   UNL A   1      50.428  26.315  24.118  1.00  0.00    -0.200 F 
ENDBRANCH  50  64
BRANCH  51  75
ATOM     75  C   UNL A   1      38.871  30.734  30.997  1.00  0.00     0.064 A 
ATOM     76  C   UNL A   1      37.779  31.309  30.331  1.00  0.00     0.173 A 
ATOM     77  C   UNL A   1      38.782  30.592  32.389  1.00  0.00     0.173 A 
ATOM     78  F   UNL A   1      37.822  31.480  29.001  1.00  0.00    -0.203 F 
ATOM     79  C   UNL A   1      36.656  31.746  31.029  1.00  0.00     0.198 A 
ATOM     80  C   UNL A   1      37.647  31.004  33.084  1.00  0.00     0.198 A 
ATOM     81  F   UNL A   1      39.794  30.039  33.074  1.00  0.00    -0.203 F 
ATOM     82  F   UNL A   1      35.648  32.335  30.372  1.00  0.00    -0.200 F 
ATOM     83  C   UNL A   1      36.588  31.589  32.405  1.00  0.00     0.200 A 
ATOM     84  F   UNL A   1      37.578  30.834  34.412  1.00  0.00    -0.200 F 
ATOM     85  F   UNL A   1      35.507  32.007  33.076  1.00  0.00    -0.200 F 
ENDBRANCH  51  75
BRANCH  63  86
ATOM     86  C   UNL A   1      44.845  33.866  29.269  1.00  0.00     0.064 A 
ATOM     87  C   UNL A   1      45.637  34.175  30.386  1.00  0.00     0.173 A 
ATOM     88  C   UNL A   1      44.563  34.894  28.357  1.00  0.00     0.173 A 
ATOM     89  F   UNL A   1      45.922  33.229  31.293  1.00  0.00    -0.203 F 
ATOM     90  C   UNL A   1      46.098  35.471  30.598  1.00  0.00     0.198 A 
ATOM     91  C   UNL A   1      45.052  36.181  28.556  1.00  0.00     0.198 A 
ATOM     92  F   UNL A   1      43.817  34.648  27.269  1.00  0.00    -0.203 F 
ATOM     93  F   UNL A   1      46.804  35.756  31.701  1.00  0.00    -0.200 F 
ATOM     94  C   UNL A   1      45.811  36.470  29.680  1.00  0.00     0.200 A 
ATOM     95  F   UNL A   1      44.787  37.142  27.661  1.00  0.00    -0.200 F 
ATOM     96  F   UNL A   1      46.258  37.717  29.885  1.00  0.00    -0.200 F 
ENDBRANCH  63  86
ENDBRANCH  37  38
ENDBRANCH  29  32
ENDBRANCH  27  28
ENDBRANCH  26  27
ENDBRANCH   1  26
TORSDOF 16
ENDMDL
