MODEL 1
REMARK VINA RESULT:     -12.5      0.000      0.000
REMARK SMILES O=C(Cc1cccn1-c1ccccc1F)NCCCNC(=O)c1ccc(-c2c3nc(c(-c4c(F)c(F)c(F)c(F)c4F)c4ccc([nH]4)c(-c4c(F)c(F)c(F)c(F)c4F)c4nc(c(-c5c(F)c(F)c(F)c(F)c5F)c5ccc2[nH]5)C=C4)C=C3)cc1
REMARK SMILES IDX 18 1 17 2 16 3 1 4 2 5 3 7 4 8 5 9 8 10 6 11 7 12 9 13 10 14
REMARK SMILES IDX 14 15 11 16 13 17 15 18 12 19 19 20 20 21 21 22 22 24 23 25
REMARK SMILES IDX 24 26 85 27 25 28 84 29 26 30 27 31 28 32 78 33 29 34 83 35
REMARK SMILES IDX 77 36 79 37 30 38 82 39 76 40 75 41 31 43 63 44 43 45 62 46
REMARK SMILES IDX 44 47 47 48 61 49 80 50 45 51 46 52 60 54 81 55 48 56 32 57
REMARK SMILES IDX 33 58 41 59 34 60 35 61 39 62 42 63 36 64 37 65 40 66 38 67
REMARK SMILES IDX 64 68 65 69 73 70 66 71 67 72 71 73 74 74 68 75 69 76 72 77
REMARK SMILES IDX 70 78 49 79 50 80 58 81 51 82 52 83 56 84 59 85 53 86 54 87
REMARK SMILES IDX 57 88 55 89
REMARK H PARENT 16 6 20 23 79 42 47 53
REMARK Flexibility Score: inf
ROOT
ATOM      1  C   UNL A   1      33.287  28.826  27.028  1.00  0.00     0.042 C 
ENDROOT
BRANCH   1   2
ATOM      2  C   UNL A   1      32.489  28.912  25.730  1.00  0.00     0.117 C 
BRANCH   2   3
ATOM      3  N   UNL A   1      32.703  27.798  24.823  1.00  0.00    -0.356 N 
ATOM      4  O   UNL A   1      33.432  29.101  23.078  1.00  0.00    -0.275 OA
ATOM      5  C   UNL A   1      33.220  27.990  23.557  1.00  0.00     0.225 C 
ATOM      6  H   UNL A   1      32.474  26.886  25.119  1.00  0.00     0.163 HD
BRANCH   5   7
ATOM      7  C   UNL A   1      33.453  26.720  22.763  1.00  0.00     0.154 C 
BRANCH   7   8
ATOM      8  C   UNL A   1      32.666  25.497  23.161  1.00  0.00     0.032 A 
ATOM      9  C   UNL A   1      31.297  25.330  22.978  1.00  0.00     0.024 A 
ATOM     10  N   UNL A   1      33.154  24.286  23.638  1.00  0.00    -0.318 N 
ATOM     11  C   UNL A   1      30.956  24.002  23.306  1.00  0.00     0.020 A 
ATOM     12  C   UNL A   1      32.117  23.378  23.689  1.00  0.00     0.091 A 
BRANCH  10  13
ATOM     13  C   UNL A   1      34.461  23.952  24.017  1.00  0.00     0.081 A 
ATOM     14  C   UNL A   1      35.243  23.153  23.181  1.00  0.00     0.030 A 
ATOM     15  C   UNL A   1      34.934  24.357  25.262  1.00  0.00     0.147 A 
ATOM     16  C   UNL A   1      36.541  22.828  23.579  1.00  0.00     0.002 A 
ATOM     17  C   UNL A   1      36.226  24.029  25.658  1.00  0.00     0.041 A 
ATOM     18  F   UNL A   1      34.166  25.088  26.085  1.00  0.00    -0.205 F 
ATOM     19  C   UNL A   1      37.037  23.276  24.808  1.00  0.00     0.003 A 
ENDBRANCH  10  13
ENDBRANCH   7   8
ENDBRANCH   5   7
ENDBRANCH   2   3
ENDBRANCH   1   2
BRANCH   1  20
ATOM     20  C   UNL A   1      34.790  29.044  26.858  1.00  0.00     0.118 C 
BRANCH  20  21
ATOM     21  N   UNL A   1      35.221  30.380  27.237  1.00  0.00    -0.352 N 
ATOM     22  C   UNL A   1      36.349  30.754  27.935  1.00  0.00     0.251 C 
ATOM     23  H   UNL A   1      34.628  31.115  26.959  1.00  0.00     0.163 HD
ATOM     24  O   UNL A   1      36.430  31.874  28.415  1.00  0.00    -0.269 OA
BRANCH  22  25
ATOM     25  C   UNL A   1      37.450  29.787  28.142  1.00  0.00     0.039 A 
ATOM     26  C   UNL A   1      38.458  29.709  27.173  1.00  0.00     0.014 A 
ATOM     27  C   UNL A   1      37.474  28.940  29.255  1.00  0.00     0.014 A 
ATOM     28  C   UNL A   1      39.541  28.857  27.371  1.00  0.00     0.010 A 
ATOM     29  C   UNL A   1      38.565  28.101  29.469  1.00  0.00     0.010 A 
ATOM     30  C   UNL A   1      39.618  28.090  28.544  1.00  0.00    -0.014 A 
BRANCH  30  31
ATOM     31  C   UNL A   1      40.918  27.465  28.896  1.00  0.00     0.031 A 
ATOM     32  C   UNL A   1      41.030  26.030  28.336  1.00  0.00     0.074 A 
ATOM     33  C   UNL A   1      41.793  28.205  29.642  1.00  0.00     0.049 A 
ATOM     34  N   UNL A   1      41.775  25.037  28.714  1.00  0.00    -0.248 NA
ATOM     35  C   UNL A   1      40.141  25.624  27.209  1.00  0.00     0.031 C 
ATOM     36  C   UNL A   1      41.557  29.603  30.052  1.00  0.00     0.029 A 
ATOM     37  N   UNL A   1      43.033  27.959  30.210  1.00  0.00    -0.354 N 
ATOM     38  C   UNL A   1      41.591  23.982  27.788  1.00  0.00     0.074 A 
ATOM     39  C   UNL A   1      40.497  24.363  26.952  1.00  0.00     0.031 C 
ATOM     40  C   UNL A   1      42.549  30.047  30.849  1.00  0.00     0.029 A 
ATOM     41  C   UNL A   1      43.536  29.001  31.038  1.00  0.00     0.049 A 
ATOM     42  H   UNL A   1      43.530  27.124  30.051  1.00  0.00     0.167 HD
ATOM     43  C   UNL A   1      42.439  22.915  27.690  1.00  0.00     0.037 A 
ATOM     44  C   UNL A   1      44.641  29.010  31.851  1.00  0.00     0.037 A 
ATOM     45  C   UNL A   1      43.442  23.002  28.694  1.00  0.00     0.049 A 
ATOM     46  C   UNL A   1      45.366  27.771  31.539  1.00  0.00     0.074 A 
ATOM     47  C   UNL A   1      43.403  22.803  30.047  1.00  0.00     0.029 A 
ATOM     48  N   UNL A   1      44.595  23.667  28.365  1.00  0.00    -0.354 N 
ATOM     49  N   UNL A   1      46.043  27.573  30.448  1.00  0.00    -0.248 NA
ATOM     50  C   UNL A   1      45.284  26.641  32.475  1.00  0.00     0.031 C 
ATOM     51  C   UNL A   1      44.305  23.763  30.543  1.00  0.00     0.029 A 
ATOM     52  C   UNL A   1      45.000  24.353  29.480  1.00  0.00     0.049 A 
ATOM     53  H   UNL A   1      45.046  23.657  27.490  1.00  0.00     0.167 HD
ATOM     54  C   UNL A   1      46.158  26.205  30.427  1.00  0.00     0.074 A 
ATOM     55  C   UNL A   1      45.992  25.749  31.788  1.00  0.00     0.031 C 
ATOM     56  C   UNL A   1      45.805  25.536  29.300  1.00  0.00     0.037 A 
BRANCH  43  57
ATOM     57  C   UNL A   1      42.632  21.855  26.639  1.00  0.00     0.064 A 
ATOM     58  C   UNL A   1      43.555  21.965  25.593  1.00  0.00     0.173 A 
ATOM     59  C   UNL A   1      42.147  20.547  26.907  1.00  0.00     0.173 A 
ATOM     60  F   UNL A   1      44.091  23.148  25.265  1.00  0.00    -0.203 F 
ATOM     61  C   UNL A   1      44.034  20.833  24.923  1.00  0.00     0.198 A 
ATOM     62  C   UNL A   1      42.661  19.420  26.271  1.00  0.00     0.198 A 
ATOM     63  F   UNL A   1      41.220  20.339  27.856  1.00  0.00    -0.203 F 
ATOM     64  F   UNL A   1      44.961  20.974  23.964  1.00  0.00    -0.200 F 
ATOM     65  C   UNL A   1      43.621  19.562  25.291  1.00  0.00     0.200 A 
ATOM     66  F   UNL A   1      42.277  18.196  26.662  1.00  0.00    -0.200 F 
ATOM     67  F   UNL A   1      44.174  18.480  24.726  1.00  0.00    -0.200 F 
ENDBRANCH  43  57
BRANCH  44  68
ATOM     68  C   UNL A   1      45.228  29.862  32.963  1.00  0.00     0.064 A 
ATOM     69  C   UNL A   1      46.519  30.452  32.804  1.00  0.00     0.173 A 
ATOM     70  C   UNL A   1      44.672  30.067  34.231  1.00  0.00     0.173 A 
ATOM     71  F   UNL A   1      47.126  30.511  31.611  1.00  0.00    -0.203 F 
ATOM     72  C   UNL A   1      47.257  31.003  33.852  1.00  0.00     0.198 A 
ATOM     73  C   UNL A   1      45.394  30.674  35.279  1.00  0.00     0.198 A 
ATOM     74  F   UNL A   1      43.414  29.711  34.504  1.00  0.00    -0.203 F 
ATOM     75  F   UNL A   1      48.513  31.417  33.634  1.00  0.00    -0.200 F 
ATOM     76  C   UNL A   1      46.700  31.095  35.102  1.00  0.00     0.200 A 
ATOM     77  F   UNL A   1      44.817  30.830  36.479  1.00  0.00    -0.200 F 
ATOM     78  F   UNL A   1      47.410  31.596  36.122  1.00  0.00    -0.200 F 
ENDBRANCH  44  68
BRANCH  56  79
ATOM     79  C   UNL A   1      45.940  26.361  28.034  1.00  0.00     0.064 A 
ATOM     80  C   UNL A   1      44.852  26.880  27.312  1.00  0.00     0.173 A 
ATOM     81  C   UNL A   1      47.214  26.760  27.599  1.00  0.00     0.173 A 
ATOM     82  F   UNL A   1      43.604  26.550  27.632  1.00  0.00    -0.203 F 
ATOM     83  C   UNL A   1      45.019  27.753  26.234  1.00  0.00     0.198 A 
ATOM     84  C   UNL A   1      47.383  27.640  26.527  1.00  0.00     0.198 A 
ATOM     85  F   UNL A   1      48.309  26.296  28.223  1.00  0.00    -0.203 F 
ATOM     86  F   UNL A   1      43.945  28.214  25.572  1.00  0.00    -0.200 F 
ATOM     87  C   UNL A   1      46.286  28.139  25.846  1.00  0.00     0.200 A 
ATOM     88  F   UNL A   1      48.618  28.002  26.149  1.00  0.00    -0.200 F 
ATOM     89  F   UNL A   1      46.450  28.974  24.810  1.00  0.00    -0.200 F 
ENDBRANCH  56  79
ENDBRANCH  30  31
ENDBRANCH  22  25
ENDBRANCH  20  21
ENDBRANCH   1  20
TORSDOF 12
ENDMDL
MODEL 2
REMARK VINA RESULT:     -12.5      0.483      1.243
REMARK SMILES O=C(Cc1cccn1-c1ccccc1F)NCCCNC(=O)c1ccc(-c2c3nc(c(-c4c(F)c(F)c(F)c(F)c4F)c4ccc([nH]4)c(-c4c(F)c(F)c(F)c(F)c4F)c4nc(c(-c5c(F)c(F)c(F)c(F)c5F)c5ccc2[nH]5)C=C4)C=C3)cc1
REMARK SMILES IDX 18 1 17 2 16 3 1 4 2 5 3 7 4 8 5 9 8 10 6 11 7 12 9 13 10 14
REMARK SMILES IDX 14 15 11 16 13 17 15 18 12 19 19 20 20 21 21 22 22 24 23 25
REMARK SMILES IDX 24 26 85 27 25 28 84 29 26 30 27 31 28 32 78 33 29 34 83 35
REMARK SMILES IDX 77 36 79 37 30 38 82 39 76 40 75 41 31 43 63 44 43 45 62 46
REMARK SMILES IDX 44 47 47 48 61 49 80 50 45 51 46 52 60 54 81 55 48 56 32 57
REMARK SMILES IDX 33 58 41 59 34 60 35 61 39 62 42 63 36 64 37 65 40 66 38 67
REMARK SMILES IDX 64 68 65 69 73 70 66 71 67 72 71 73 74 74 68 75 69 76 72 77
REMARK SMILES IDX 70 78 49 79 50 80 58 81 51 82 52 83 56 84 59 85 53 86 54 87
REMARK SMILES IDX 57 88 55 89
REMARK H PARENT 16 6 20 23 79 42 47 53
REMARK Flexibility Score: inf
ROOT
ATOM      1  C   UNL A   1      33.365  28.881  26.386  1.00  0.00     0.042 C 
ENDROOT
BRANCH   1   2
ATOM      2  C   UNL A   1      33.140  29.094  24.891  1.00  0.00     0.117 C 
BRANCH   2   3
ATOM      3  N   UNL A   1      33.039  27.866  24.122  1.00  0.00    -0.356 N 
ATOM      4  O   UNL A   1      34.043  28.728  22.245  1.00  0.00    -0.275 OA
ATOM      5  C   UNL A   1      33.561  27.772  22.847  1.00  0.00     0.225 C 
ATOM      6  H   UNL A   1      32.588  27.085  24.519  1.00  0.00     0.163 HD
BRANCH   5   7
ATOM      7  C   UNL A   1      33.441  26.403  22.208  1.00  0.00     0.154 C 
BRANCH   7   8
ATOM      8  C   UNL A   1      32.623  25.365  22.934  1.00  0.00     0.032 A 
ATOM      9  C   UNL A   1      31.237  25.260  22.886  1.00  0.00     0.024 A 
ATOM     10  N   UNL A   1      33.081  24.266  23.651  1.00  0.00    -0.318 N 
ATOM     11  C   UNL A   1      30.850  24.072  23.540  1.00  0.00     0.020 A 
ATOM     12  C   UNL A   1      32.003  23.471  23.983  1.00  0.00     0.091 A 
BRANCH  10  13
ATOM     13  C   UNL A   1      34.394  23.934  24.012  1.00  0.00     0.081 A 
ATOM     14  C   UNL A   1      35.142  23.082  23.199  1.00  0.00     0.030 A 
ATOM     15  C   UNL A   1      34.906  24.400  25.220  1.00  0.00     0.147 A 
ATOM     16  C   UNL A   1      36.447  22.761  23.579  1.00  0.00     0.002 A 
ATOM     17  C   UNL A   1      36.204  24.076  25.598  1.00  0.00     0.041 A 
ATOM     18  F   UNL A   1      34.169  25.184  26.023  1.00  0.00    -0.205 F 
ATOM     19  C   UNL A   1      36.982  23.268  24.769  1.00  0.00     0.003 A 
ENDBRANCH  10  13
ENDBRANCH   7   8
ENDBRANCH   5   7
ENDBRANCH   2   3
ENDBRANCH   1   2
BRANCH   1  20
ATOM     20  C   UNL A   1      34.829  28.957  26.818  1.00  0.00     0.118 C 
BRANCH  20  21
ATOM     21  N   UNL A   1      35.249  30.303  27.177  1.00  0.00    -0.352 N 
ATOM     22  C   UNL A   1      36.391  30.698  27.839  1.00  0.00     0.251 C 
ATOM     23  H   UNL A   1      34.637  31.026  26.913  1.00  0.00     0.163 HD
ATOM     24  O   UNL A   1      36.468  31.822  28.311  1.00  0.00    -0.269 OA
BRANCH  22  25
ATOM     25  C   UNL A   1      37.512  29.750  28.020  1.00  0.00     0.039 A 
ATOM     26  C   UNL A   1      38.507  29.701  27.034  1.00  0.00     0.014 A 
ATOM     27  C   UNL A   1      37.570  28.893  29.124  1.00  0.00     0.014 A 
ATOM     28  C   UNL A   1      39.608  28.867  27.207  1.00  0.00     0.010 A 
ATOM     29  C   UNL A   1      38.679  28.073  29.312  1.00  0.00     0.010 A 
ATOM     30  C   UNL A   1      39.718  28.090  28.371  1.00  0.00    -0.014 A 
BRANCH  30  31
ATOM     31  C   UNL A   1      41.035  27.486  28.696  1.00  0.00     0.031 A 
ATOM     32  C   UNL A   1      41.137  26.033  28.181  1.00  0.00     0.074 A 
ATOM     33  C   UNL A   1      41.930  28.257  29.384  1.00  0.00     0.049 A 
ATOM     34  N   UNL A   1      41.903  25.058  28.566  1.00  0.00    -0.248 NA
ATOM     35  C   UNL A   1      40.211  25.582  27.103  1.00  0.00     0.031 C 
ATOM     36  C   UNL A   1      41.699  29.667  29.753  1.00  0.00     0.029 A 
ATOM     37  N   UNL A   1      43.192  28.038  29.913  1.00  0.00    -0.354 N 
ATOM     38  C   UNL A   1      41.694  23.970  27.684  1.00  0.00     0.074 A 
ATOM     39  C   UNL A   1      40.567  24.316  26.876  1.00  0.00     0.031 C 
ATOM     40  C   UNL A   1      42.716  30.144  30.498  1.00  0.00     0.029 A 
ATOM     41  C   UNL A   1      43.718  29.112  30.686  1.00  0.00     0.049 A 
ATOM     42  H   UNL A   1      43.689  27.202  29.765  1.00  0.00     0.167 HD
ATOM     43  C   UNL A   1      42.546  22.906  27.592  1.00  0.00     0.037 A 
ATOM     44  C   UNL A   1      44.851  29.156  31.457  1.00  0.00     0.037 A 
ATOM     45  C   UNL A   1      43.583  23.034  28.555  1.00  0.00     0.049 A 
ATOM     46  C   UNL A   1      45.574  27.912  31.161  1.00  0.00     0.074 A 
ATOM     47  C   UNL A   1      43.595  22.883  29.914  1.00  0.00     0.029 A 
ATOM     48  N   UNL A   1      44.719  23.696  28.161  1.00  0.00    -0.354 N 
ATOM     49  N   UNL A   1      46.212  27.681  30.054  1.00  0.00    -0.248 NA
ATOM     50  C   UNL A   1      45.534  26.815  32.138  1.00  0.00     0.031 C 
ATOM     51  C   UNL A   1      44.508  23.865  30.343  1.00  0.00     0.029 A 
ATOM     52  C   UNL A   1      45.159  24.422  29.236  1.00  0.00     0.049 A 
ATOM     53  H   UNL A   1      45.138  23.658  27.271  1.00  0.00     0.167 HD
ATOM     54  C   UNL A   1      46.336  26.313  30.075  1.00  0.00     0.074 A 
ATOM     55  C   UNL A   1      46.224  25.904  31.457  1.00  0.00     0.031 C 
ATOM     56  C   UNL A   1      45.948  25.603  28.986  1.00  0.00     0.037 A 
BRANCH  43  57
ATOM     57  C   UNL A   1      42.708  21.812  26.571  1.00  0.00     0.064 A 
ATOM     58  C   UNL A   1      43.619  21.875  25.511  1.00  0.00     0.173 A 
ATOM     59  C   UNL A   1      42.206  20.521  26.885  1.00  0.00     0.173 A 
ATOM     60  F   UNL A   1      44.168  23.040  25.140  1.00  0.00    -0.203 F 
ATOM     61  C   UNL A   1      44.071  20.716  24.870  1.00  0.00     0.198 A 
ATOM     62  C   UNL A   1      42.695  19.367  26.279  1.00  0.00     0.198 A 
ATOM     63  F   UNL A   1      41.289  20.356  27.853  1.00  0.00    -0.203 F 
ATOM     64  F   UNL A   1      44.987  20.813  23.896  1.00  0.00    -0.200 F 
ATOM     65  C   UNL A   1      43.644  19.464  25.282  1.00  0.00     0.200 A 
ATOM     66  F   UNL A   1      42.296  18.161  26.712  1.00  0.00    -0.200 F 
ATOM     67  F   UNL A   1      44.172  18.356  24.744  1.00  0.00    -0.200 F 
ENDBRANCH  43  57
BRANCH  44  68
ATOM     68  C   UNL A   1      45.472  30.050  32.517  1.00  0.00     0.064 A 
ATOM     69  C   UNL A   1      46.664  30.780  32.225  1.00  0.00     0.173 A 
ATOM     70  C   UNL A   1      45.052  30.174  33.846  1.00  0.00     0.173 A 
ATOM     71  F   UNL A   1      47.115  30.923  30.971  1.00  0.00    -0.203 F 
ATOM     72  C   UNL A   1      47.458  31.392  33.196  1.00  0.00     0.198 A 
ATOM     73  C   UNL A   1      45.824  30.839  34.820  1.00  0.00     0.198 A 
ATOM     74  F   UNL A   1      43.881  29.678  34.253  1.00  0.00    -0.203 F 
ATOM     75  F   UNL A   1      48.629  31.944  32.845  1.00  0.00    -0.200 F 
ATOM     76  C   UNL A   1      47.048  31.403  34.504  1.00  0.00     0.200 A 
ATOM     77  F   UNL A   1      45.380  30.913  36.082  1.00  0.00    -0.200 F 
ATOM     78  F   UNL A   1      47.816  31.963  35.448  1.00  0.00    -0.200 F 
ENDBRANCH  44  68
BRANCH  56  79
ATOM     79  C   UNL A   1      46.030  26.385  27.688  1.00  0.00     0.064 A 
ATOM     80  C   UNL A   1      47.234  26.737  27.055  1.00  0.00     0.173 A 
ATOM     81  C   UNL A   1      44.853  26.680  26.981  1.00  0.00     0.173 A 
ATOM     82  F   UNL A   1      48.404  26.516  27.647  1.00  0.00    -0.203 F 
ATOM     83  C   UNL A   1      47.267  27.331  25.791  1.00  0.00     0.198 A 
ATOM     84  C   UNL A   1      44.884  27.266  25.713  1.00  0.00     0.198 A 
ATOM     85  F   UNL A   1      43.659  26.393  27.523  1.00  0.00    -0.203 F 
ATOM     86  F   UNL A   1      48.445  27.656  25.233  1.00  0.00    -0.200 F 
ATOM     87  C   UNL A   1      46.091  27.589  25.116  1.00  0.00     0.200 A 
ATOM     88  F   UNL A   1      43.736  27.524  25.069  1.00  0.00    -0.200 F 
ATOM     89  F   UNL A   1      46.119  28.162  23.904  1.00  0.00    -0.200 F 
ENDBRANCH  56  79
ENDBRANCH  30  31
ENDBRANCH  22  25
ENDBRANCH  20  21
ENDBRANCH   1  20
TORSDOF 12
ENDMDL
MODEL 3
REMARK VINA RESULT:     -12.4      1.171      1.767
REMARK SMILES O=C(Cc1cccn1-c1ccccc1F)NCCCNC(=O)c1ccc(-c2c3nc(c(-c4c(F)c(F)c(F)c(F)c4F)c4ccc([nH]4)c(-c4c(F)c(F)c(F)c(F)c4F)c4nc(c(-c5c(F)c(F)c(F)c(F)c5F)c5ccc2[nH]5)C=C4)C=C3)cc1
REMARK SMILES IDX 18 1 17 2 16 3 1 4 2 5 3 7 4 8 5 9 8 10 6 11 7 12 9 13 10 14
REMARK SMILES IDX 14 15 11 16 13 17 15 18 12 19 19 20 20 21 21 22 22 24 23 25
REMARK SMILES IDX 24 26 85 27 25 28 84 29 26 30 27 31 28 32 78 33 29 34 83 35
REMARK SMILES IDX 77 36 79 37 30 38 82 39 76 40 75 41 31 43 63 44 43 45 62 46
REMARK SMILES IDX 44 47 47 48 61 49 80 50 45 51 46 52 60 54 81 55 48 56 32 57
REMARK SMILES IDX 33 58 41 59 34 60 35 61 39 62 42 63 36 64 37 65 40 66 38 67
REMARK SMILES IDX 64 68 65 69 73 70 66 71 67 72 71 73 74 74 68 75 69 76 72 77
REMARK SMILES IDX 70 78 49 79 50 80 58 81 51 82 52 83 56 84 59 85 53 86 54 87
REMARK SMILES IDX 57 88 55 89
REMARK H PARENT 16 6 20 23 79 42 47 53
REMARK Flexibility Score: inf
ROOT
ATOM      1  C   UNL A   1      33.485  28.662  27.240  1.00  0.00     0.042 C 
ENDROOT
BRANCH   1   2
ATOM      2  C   UNL A   1      32.712  27.834  26.217  1.00  0.00     0.117 C 
BRANCH   2   3
ATOM      3  N   UNL A   1      33.050  26.421  26.215  1.00  0.00    -0.356 N 
ATOM      4  O   UNL A   1      30.937  25.714  26.773  1.00  0.00    -0.275 OA
ATOM      5  C   UNL A   1      32.093  25.453  26.449  1.00  0.00     0.225 C 
ATOM      6  H   UNL A   1      33.981  26.149  26.043  1.00  0.00     0.163 HD
BRANCH   5   7
ATOM      7  C   UNL A   1      32.589  24.026  26.340  1.00  0.00     0.154 C 
BRANCH   7   8
ATOM      8  C   UNL A   1      32.602  23.397  24.969  1.00  0.00     0.032 A 
ATOM      9  C   UNL A   1      31.509  23.320  24.112  1.00  0.00     0.024 A 
ATOM     10  N   UNL A   1      33.697  22.917  24.260  1.00  0.00    -0.318 N 
ATOM     11  C   UNL A   1      31.945  22.830  22.865  1.00  0.00     0.020 A 
ATOM     12  C   UNL A   1      33.296  22.609  22.977  1.00  0.00     0.091 A 
BRANCH  10  13
ATOM     13  C   UNL A   1      35.020  22.750  24.691  1.00  0.00     0.081 A 
ATOM     14  C   UNL A   1      35.852  23.863  24.824  1.00  0.00     0.030 A 
ATOM     15  C   UNL A   1      35.509  21.464  24.906  1.00  0.00     0.147 A 
ATOM     16  C   UNL A   1      37.168  23.674  25.250  1.00  0.00     0.002 A 
ATOM     17  C   UNL A   1      36.821  21.279  25.327  1.00  0.00     0.041 A 
ATOM     18  F   UNL A   1      34.721  20.391  24.734  1.00  0.00    -0.205 F 
ATOM     19  C   UNL A   1      37.648  22.386  25.514  1.00  0.00     0.003 A 
ENDBRANCH  10  13
ENDBRANCH   7   8
ENDBRANCH   5   7
ENDBRANCH   2   3
ENDBRANCH   1   2
BRANCH   1  20
ATOM     20  C   UNL A   1      34.880  29.084  26.782  1.00  0.00     0.118 C 
BRANCH  20  21
ATOM     21  N   UNL A   1      35.269  30.397  27.273  1.00  0.00    -0.352 N 
ATOM     22  C   UNL A   1      36.356  30.737  28.049  1.00  0.00     0.251 C 
ATOM     23  H   UNL A   1      34.679  31.141  27.016  1.00  0.00     0.163 HD
ATOM     24  O   UNL A   1      36.395  31.822  28.608  1.00  0.00    -0.269 OA
BRANCH  22  25
ATOM     25  C   UNL A   1      37.461  29.772  28.245  1.00  0.00     0.039 A 
ATOM     26  C   UNL A   1      38.466  29.706  27.271  1.00  0.00     0.014 A 
ATOM     27  C   UNL A   1      37.492  28.917  29.351  1.00  0.00     0.014 A 
ATOM     28  C   UNL A   1      39.552  28.856  27.459  1.00  0.00     0.010 A 
ATOM     29  C   UNL A   1      38.587  28.081  29.554  1.00  0.00     0.010 A 
ATOM     30  C   UNL A   1      39.636  28.080  28.626  1.00  0.00    -0.014 A 
BRANCH  30  31
ATOM     31  C   UNL A   1      40.940  27.458  28.968  1.00  0.00     0.031 A 
ATOM     32  C   UNL A   1      41.058  26.030  28.389  1.00  0.00     0.074 A 
ATOM     33  C   UNL A   1      41.813  28.192  29.722  1.00  0.00     0.049 A 
ATOM     34  N   UNL A   1      41.809  25.036  28.754  1.00  0.00    -0.248 NA
ATOM     35  C   UNL A   1      40.170  25.633  27.258  1.00  0.00     0.031 C 
ATOM     36  C   UNL A   1      41.571  29.583  30.149  1.00  0.00     0.029 A 
ATOM     37  N   UNL A   1      43.055  27.945  30.284  1.00  0.00    -0.354 N 
ATOM     38  C   UNL A   1      41.629  23.991  27.815  1.00  0.00     0.074 A 
ATOM     39  C   UNL A   1      40.532  24.378  26.985  1.00  0.00     0.031 C 
ATOM     40  C   UNL A   1      42.562  30.022  30.951  1.00  0.00     0.029 A 
ATOM     41  C   UNL A   1      43.555  28.979  31.125  1.00  0.00     0.049 A 
ATOM     42  H   UNL A   1      43.556  27.115  30.114  1.00  0.00     0.167 HD
ATOM     43  C   UNL A   1      42.483  22.930  27.702  1.00  0.00     0.037 A 
ATOM     44  C   UNL A   1      44.660  28.983  31.937  1.00  0.00     0.037 A 
ATOM     45  C   UNL A   1      43.486  23.009  28.706  1.00  0.00     0.049 A 
ATOM     46  C   UNL A   1      45.391  27.752  31.608  1.00  0.00     0.074 A 
ATOM     47  C   UNL A   1      43.450  22.794  30.056  1.00  0.00     0.029 A 
ATOM     48  N   UNL A   1      44.635  23.685  28.383  1.00  0.00    -0.354 N 
ATOM     49  N   UNL A   1      46.067  27.571  30.513  1.00  0.00    -0.248 NA
ATOM     50  C   UNL A   1      45.316  26.610  32.529  1.00  0.00     0.031 C 
ATOM     51  C   UNL A   1      44.349  23.752  30.563  1.00  0.00     0.029 A 
ATOM     52  C   UNL A   1      45.039  24.358  29.507  1.00  0.00     0.049 A 
ATOM     53  H   UNL A   1      45.085  23.687  27.508  1.00  0.00     0.167 HD
ATOM     54  C   UNL A   1      46.189  26.204  30.475  1.00  0.00     0.074 A 
ATOM     55  C   UNL A   1      46.027  25.730  31.830  1.00  0.00     0.031 C 
ATOM     56  C   UNL A   1      45.838  25.548  29.340  1.00  0.00     0.037 A 
BRANCH  43  57
ATOM     57  C   UNL A   1      42.679  21.885  26.637  1.00  0.00     0.064 A 
ATOM     58  C   UNL A   1      43.630  21.992  25.617  1.00  0.00     0.173 A 
ATOM     59  C   UNL A   1      42.159  20.583  26.869  1.00  0.00     0.173 A 
ATOM     60  F   UNL A   1      44.199  23.169  25.323  1.00  0.00    -0.203 F 
ATOM     61  C   UNL A   1      44.101  20.862  24.939  1.00  0.00     0.198 A 
ATOM     62  C   UNL A   1      42.664  19.456  26.227  1.00  0.00     0.198 A 
ATOM     63  F   UNL A   1      41.204  20.379  27.792  1.00  0.00    -0.203 F 
ATOM     64  F   UNL A   1      45.055  20.999  24.007  1.00  0.00    -0.200 F 
ATOM     65  C   UNL A   1      43.652  19.594  25.273  1.00  0.00     0.200 A 
ATOM     66  F   UNL A   1      42.244  18.234  26.586  1.00  0.00    -0.200 F 
ATOM     67  F   UNL A   1      44.195  18.510  24.703  1.00  0.00    -0.200 F 
ENDBRANCH  43  57
BRANCH  44  68
ATOM     68  C   UNL A   1      45.245  29.824  33.059  1.00  0.00     0.064 A 
ATOM     69  C   UNL A   1      44.500  30.028  34.260  1.00  0.00     0.173 A 
ATOM     70  C   UNL A   1      46.446  30.541  33.017  1.00  0.00     0.173 A 
ATOM     71  F   UNL A   1      43.418  29.294  34.553  1.00  0.00    -0.203 F 
ATOM     72  C   UNL A   1      44.814  30.996  35.214  1.00  0.00     0.198 A 
ATOM     73  C   UNL A   1      46.795  31.480  34.008  1.00  0.00     0.198 A 
ATOM     74  F   UNL A   1      47.333  30.354  32.037  1.00  0.00    -0.203 F 
ATOM     75  F   UNL A   1      43.984  31.206  36.246  1.00  0.00    -0.200 F 
ATOM     76  C   UNL A   1      45.957  31.742  35.077  1.00  0.00     0.200 A 
ATOM     77  F   UNL A   1      47.951  32.151  33.909  1.00  0.00    -0.200 F 
ATOM     78  F   UNL A   1      46.254  32.693  35.973  1.00  0.00    -0.200 F 
ENDBRANCH  44  68
BRANCH  56  79
ATOM     79  C   UNL A   1      45.966  26.389  28.085  1.00  0.00     0.064 A 
ATOM     80  C   UNL A   1      44.876  26.921  27.376  1.00  0.00     0.173 A 
ATOM     81  C   UNL A   1      47.239  26.791  27.647  1.00  0.00     0.173 A 
ATOM     82  F   UNL A   1      43.628  26.590  27.700  1.00  0.00    -0.203 F 
ATOM     83  C   UNL A   1      45.037  27.808  26.309  1.00  0.00     0.198 A 
ATOM     84  C   UNL A   1      47.403  27.685  26.586  1.00  0.00     0.198 A 
ATOM     85  F   UNL A   1      48.336  26.316  28.257  1.00  0.00    -0.203 F 
ATOM     86  F   UNL A   1      43.961  28.280  25.660  1.00  0.00    -0.200 F 
ATOM     87  C   UNL A   1      46.303  28.196  25.918  1.00  0.00     0.200 A 
ATOM     88  F   UNL A   1      48.637  28.049  26.204  1.00  0.00    -0.200 F 
ATOM     89  F   UNL A   1      46.462  29.044  24.893  1.00  0.00    -0.200 F 
ENDBRANCH  56  79
ENDBRANCH  30  31
ENDBRANCH  22  25
ENDBRANCH  20  21
ENDBRANCH   1  20
TORSDOF 12
ENDMDL
