MODEL 1
REMARK VINA RESULT:     -13.7      0.000      0.000
REMARK SMILES O=C(NCCCNC(=O)[C@@H]1CC=CC[C@H]1C(=O)N1CC[NH+](Cc2ccc3c(c2)OCO3)CC1)c1ccc(-c2c3nc(c(-c4c(F)c(F)c(F)c(F)c4F)c4ccc([nH]4)c(-c4c(F)c(F)c(F)c(F)c4F)c4nc(c(-c5c(F)c(F)c(F)c(F)c5F)c5ccc2[nH]5)C=C4)C=C3)cc1
REMARK SMILES IDX 5 1 4 2 3 3 1 4 2 5 34 7 35 8 96 9 36 10 95 11 37 12 38 13
REMARK SMILES IDX 39 14 89 15 40 16 94 17 88 18 90 19 41 20 93 21 87 22 86 23
REMARK SMILES IDX 42 25 74 26 54 27 73 28 55 29 58 30 72 31 91 32 56 33 57 34
REMARK SMILES IDX 71 36 92 37 59 38 43 39 44 40 52 41 45 42 46 43 50 44 53 45
REMARK SMILES IDX 47 46 48 47 51 48 49 49 75 50 76 51 84 52 77 53 78 54 82 55
REMARK SMILES IDX 85 56 79 57 80 58 83 59 81 60 60 61 61 62 69 63 62 64 63 65
REMARK SMILES IDX 67 66 70 67 64 68 65 69 68 70 66 71 6 72 7 73 8 74 9 76
REMARK SMILES IDX 10 77 11 78 15 79 12 80 14 81 13 82 16 83 17 84 18 85 19 86
REMARK SMILES IDX 33 87 20 88 32 89 21 90 22 92 23 93 24 94 28 95 25 96 27 97
REMARK SMILES IDX 26 98 29 99 31 100 30 101
REMARK H PARENT 3 6 90 24 58 35 7 75 21 91
REMARK Flexibility Score: inf
ROOT
ATOM      1  C   UNL A   1      34.030  27.857  25.899  1.00  0.00     0.042 C 
ENDROOT
BRANCH   1   2
ATOM      2  C   UNL A   1      33.524  28.263  27.273  1.00  0.00     0.118 C 
BRANCH   2   3
ATOM      3  N   UNL A   1      33.507  29.709  27.480  1.00  0.00    -0.352 N 
ATOM      4  O   UNL A   1      34.146  31.742  28.207  1.00  0.00    -0.269 OA
ATOM      5  C   UNL A   1      34.451  30.571  27.986  1.00  0.00     0.251 C 
ATOM      6  H   UNL A   1      32.667  30.145  27.207  1.00  0.00     0.163 HD
BRANCH   5   7
ATOM      7  C   UNL A   1      35.815  30.103  28.317  1.00  0.00     0.039 A 
ATOM      8  C   UNL A   1      36.121  29.605  29.579  1.00  0.00     0.014 A 
ATOM      9  C   UNL A   1      36.810  30.144  27.334  1.00  0.00     0.014 A 
ATOM     10  C   UNL A   1      37.441  29.378  29.935  1.00  0.00     0.010 A 
ATOM     11  C   UNL A   1      38.120  29.767  27.651  1.00  0.00     0.010 A 
ATOM     12  C   UNL A   1      38.455  29.427  28.969  1.00  0.00    -0.014 A 
BRANCH  12  13
ATOM     13  C   UNL A   1      39.840  29.057  29.356  1.00  0.00     0.031 A 
ATOM     14  C   UNL A   1      40.647  29.934  30.272  1.00  0.00     0.074 A 
ATOM     15  C   UNL A   1      40.356  27.903  28.892  1.00  0.00     0.049 A 
ATOM     16  N   UNL A   1      41.885  29.788  30.675  1.00  0.00    -0.248 NA
ATOM     17  C   UNL A   1      39.986  31.138  30.796  1.00  0.00     0.031 C 
ATOM     18  C   UNL A   1      39.664  26.969  28.000  1.00  0.00     0.029 A 
ATOM     19  N   UNL A   1      41.570  27.305  29.115  1.00  0.00    -0.354 N 
ATOM     20  C   UNL A   1      42.161  30.894  31.467  1.00  0.00     0.074 A 
ATOM     21  C   UNL A   1      40.968  31.714  31.475  1.00  0.00     0.031 C 
ATOM     22  C   UNL A   1      40.438  25.897  27.793  1.00  0.00     0.029 A 
ATOM     23  C   UNL A   1      41.716  26.107  28.461  1.00  0.00     0.049 A 
ATOM     24  H   UNL A   1      42.268  27.697  29.687  1.00  0.00     0.167 HD
ATOM     25  C   UNL A   1      43.306  31.193  32.128  1.00  0.00     0.037 A 
ATOM     26  C   UNL A   1      42.774  25.280  28.374  1.00  0.00     0.037 A 
ATOM     27  C   UNL A   1      44.478  30.354  32.129  1.00  0.00     0.049 A 
ATOM     28  C   UNL A   1      44.038  25.649  29.092  1.00  0.00     0.074 A 
ATOM     29  C   UNL A   1      45.678  30.549  32.789  1.00  0.00     0.029 A 
ATOM     30  N   UNL A   1      44.595  29.159  31.433  1.00  0.00    -0.354 N 
ATOM     31  N   UNL A   1      44.284  26.694  29.842  1.00  0.00    -0.248 NA
ATOM     32  C   UNL A   1      45.173  24.729  28.944  1.00  0.00     0.031 C 
ATOM     33  C   UNL A   1      46.540  29.499  32.452  1.00  0.00     0.029 A 
ATOM     34  C   UNL A   1      45.857  28.618  31.628  1.00  0.00     0.049 A 
ATOM     35  H   UNL A   1      43.888  28.755  30.880  1.00  0.00     0.167 HD
ATOM     36  C   UNL A   1      45.595  26.552  30.273  1.00  0.00     0.074 A 
ATOM     37  C   UNL A   1      46.085  25.309  29.710  1.00  0.00     0.031 C 
ATOM     38  C   UNL A   1      46.324  27.376  31.064  1.00  0.00     0.037 A 
BRANCH  25  39
ATOM     39  C   UNL A   1      43.360  32.495  32.876  1.00  0.00     0.064 A 
ATOM     40  C   UNL A   1      43.788  33.685  32.269  1.00  0.00     0.173 A 
ATOM     41  C   UNL A   1      42.954  32.556  34.218  1.00  0.00     0.173 A 
ATOM     42  F   UNL A   1      44.200  33.681  30.992  1.00  0.00    -0.203 F 
ATOM     43  C   UNL A   1      43.837  34.879  32.985  1.00  0.00     0.198 A 
ATOM     44  C   UNL A   1      42.975  33.757  34.923  1.00  0.00     0.198 A 
ATOM     45  F   UNL A   1      42.530  31.449  34.848  1.00  0.00    -0.203 F 
ATOM     46  F   UNL A   1      44.301  35.991  32.399  1.00  0.00    -0.200 F 
ATOM     47  C   UNL A   1      43.426  34.915  34.309  1.00  0.00     0.200 A 
ATOM     48  F   UNL A   1      42.565  33.792  36.198  1.00  0.00    -0.200 F 
ATOM     49  F   UNL A   1      43.471  36.065  34.996  1.00  0.00    -0.200 F 
ENDBRANCH  25  39
BRANCH  26  50
ATOM     50  C   UNL A   1      42.670  24.044  27.558  1.00  0.00     0.064 A 
ATOM     51  C   UNL A   1      43.021  24.042  26.203  1.00  0.00     0.173 A 
ATOM     52  C   UNL A   1      42.265  22.828  28.132  1.00  0.00     0.173 A 
ATOM     53  F   UNL A   1      43.401  25.182  25.607  1.00  0.00    -0.203 F 
ATOM     54  C   UNL A   1      42.967  22.871  25.449  1.00  0.00     0.198 A 
ATOM     55  C   UNL A   1      42.241  21.653  27.385  1.00  0.00     0.198 A 
ATOM     56  F   UNL A   1      41.929  22.777  29.429  1.00  0.00    -0.203 F 
ATOM     57  F   UNL A   1      43.280  22.901  24.147  1.00  0.00    -0.200 F 
ATOM     58  C   UNL A   1      42.586  21.676  26.043  1.00  0.00     0.200 A 
ATOM     59  F   UNL A   1      41.896  20.498  27.970  1.00  0.00    -0.200 F 
ATOM     60  F   UNL A   1      42.552  20.548  25.323  1.00  0.00    -0.200 F 
ENDBRANCH  26  50
BRANCH  38  61
ATOM     61  C   UNL A   1      47.720  26.939  31.400  1.00  0.00     0.064 A 
ATOM     62  C   UNL A   1      47.981  26.055  32.456  1.00  0.00     0.173 A 
ATOM     63  C   UNL A   1      48.804  27.387  30.630  1.00  0.00     0.173 A 
ATOM     64  F   UNL A   1      46.979  25.614  33.232  1.00  0.00    -0.203 F 
ATOM     65  C   UNL A   1      49.282  25.650  32.742  1.00  0.00     0.198 A 
ATOM     66  C   UNL A   1      50.099  26.958  30.900  1.00  0.00     0.198 A 
ATOM     67  F   UNL A   1      48.603  28.233  29.608  1.00  0.00    -0.203 F 
ATOM     68  F   UNL A   1      49.516  24.840  33.783  1.00  0.00    -0.200 F 
ATOM     69  C   UNL A   1      50.337  26.095  31.959  1.00  0.00     0.200 A 
ATOM     70  F   UNL A   1      51.115  27.379  30.137  1.00  0.00    -0.200 F 
ATOM     71  F   UNL A   1      51.588  25.698  32.231  1.00  0.00    -0.200 F 
ENDBRANCH  38  61
ENDBRANCH  12  13
ENDBRANCH   5   7
ENDBRANCH   2   3
ENDBRANCH   1   2
BRANCH   1  72
ATOM     72  C   UNL A   1      34.034  26.358  25.696  1.00  0.00     0.117 C 
BRANCH  72  73
ATOM     73  N   UNL A   1      34.113  25.941  24.302  1.00  0.00    -0.356 N 
ATOM     74  C   UNL A   1      33.800  24.743  23.720  1.00  0.00     0.224 C 
ATOM     75  H   UNL A   1      34.445  26.630  23.682  1.00  0.00     0.163 HD
ATOM     76  O   UNL A   1      33.699  24.716  22.493  1.00  0.00    -0.275 OA
BRANCH  74  77
ATOM     77  C   UNL A   1      33.687  23.482  24.568  1.00  0.00     0.095 C 
ATOM     78  C   UNL A   1      34.689  22.485  23.954  1.00  0.00     0.041 C 
ATOM     79  C   UNL A   1      32.261  22.895  24.587  1.00  0.00     0.095 C 
ATOM     80  C   UNL A   1      34.561  21.106  24.520  1.00  0.00    -0.030 C 
ATOM     81  C   UNL A   1      32.247  21.549  25.350  1.00  0.00     0.041 C 
ATOM     82  C   UNL A   1      33.461  20.691  25.159  1.00  0.00    -0.030 C 
BRANCH  79  83
ATOM     83  C   UNL A   1      31.095  23.701  25.206  1.00  0.00     0.227 C 
ATOM     84  O   UNL A   1      30.607  23.349  26.281  1.00  0.00    -0.275 OA
ATOM     85  N   UNL A   1      30.832  24.960  24.685  1.00  0.00    -0.331 N 
ATOM     86  C   UNL A   1      30.447  26.056  25.570  1.00  0.00     0.181 C 
ATOM     87  C   UNL A   1      30.229  25.093  23.386  1.00  0.00     0.181 C 
ATOM     88  C   UNL A   1      30.643  27.446  24.898  1.00  0.00     0.284 C 
ATOM     89  C   UNL A   1      30.647  26.397  22.700  1.00  0.00     0.284 C 
ATOM     90  N   UNL A   1      30.290  27.595  23.469  1.00  0.00    -0.328 N 
ATOM     91  H   UNL A   1      30.882  28.355  23.135  1.00  0.00     0.348 HD
BRANCH  90  92
ATOM     92  C   UNL A   1      28.956  28.143  23.171  1.00  0.00     0.299 C 
BRANCH  92  93
ATOM     93  C   UNL A   1      28.911  29.594  22.742  1.00  0.00     0.010 A 
ATOM     94  C   UNL A   1      29.165  30.615  23.685  1.00  0.00     0.013 A 
ATOM     95  C   UNL A   1      28.472  29.939  21.448  1.00  0.00     0.060 A 
ATOM     96  C   UNL A   1      28.888  31.952  23.388  1.00  0.00     0.051 A 
ATOM     97  C   UNL A   1      28.183  31.263  21.194  1.00  0.00     0.166 A 
ATOM     98  C   UNL A   1      28.374  32.240  22.142  1.00  0.00     0.165 A 
ATOM     99  O   UNL A   1      27.610  31.748  20.058  1.00  0.00    -0.454 OA
ATOM    100  O   UNL A   1      27.962  33.463  21.718  1.00  0.00    -0.454 OA
ATOM    101  C   UNL A   1      27.457  33.141  20.406  1.00  0.00     0.468 C 
ENDBRANCH  92  93
ENDBRANCH  90  92
ENDBRANCH  79  83
ENDBRANCH  74  77
ENDBRANCH  72  73
ENDBRANCH   1  72
TORSDOF 13
ENDMDL
MODEL 2
REMARK VINA RESULT:     -13.5      3.390      9.617
REMARK SMILES O=C(NCCCNC(=O)[C@@H]1CC=CC[C@H]1C(=O)N1CC[NH+](Cc2ccc3c(c2)OCO3)CC1)c1ccc(-c2c3nc(c(-c4c(F)c(F)c(F)c(F)c4F)c4ccc([nH]4)c(-c4c(F)c(F)c(F)c(F)c4F)c4nc(c(-c5c(F)c(F)c(F)c(F)c5F)c5ccc2[nH]5)C=C4)C=C3)cc1
REMARK SMILES IDX 5 1 4 2 3 3 1 4 2 5 34 7 35 8 96 9 36 10 95 11 37 12 38 13
REMARK SMILES IDX 39 14 89 15 40 16 94 17 88 18 90 19 41 20 93 21 87 22 86 23
REMARK SMILES IDX 42 25 74 26 54 27 73 28 55 29 58 30 72 31 91 32 56 33 57 34
REMARK SMILES IDX 71 36 92 37 59 38 43 39 44 40 52 41 45 42 46 43 50 44 53 45
REMARK SMILES IDX 47 46 48 47 51 48 49 49 75 50 76 51 84 52 77 53 78 54 82 55
REMARK SMILES IDX 85 56 79 57 80 58 83 59 81 60 60 61 61 62 69 63 62 64 63 65
REMARK SMILES IDX 67 66 70 67 64 68 65 69 68 70 66 71 6 72 7 73 8 74 9 76
REMARK SMILES IDX 10 77 11 78 15 79 12 80 14 81 13 82 16 83 17 84 18 85 19 86
REMARK SMILES IDX 33 87 20 88 32 89 21 90 22 92 23 93 24 94 28 95 25 96 27 97
REMARK SMILES IDX 26 98 29 99 31 100 30 101
REMARK H PARENT 3 6 90 24 58 35 7 75 21 91
REMARK Flexibility Score: inf
ROOT
ATOM      1  C   UNL A   1      35.919  24.048  25.981  1.00  0.00     0.042 C 
ENDROOT
BRANCH   1   2
ATOM      2  C   UNL A   1      36.983  23.702  24.952  1.00  0.00     0.118 C 
BRANCH   2   3
ATOM      3  N   UNL A   1      37.969  22.742  25.439  1.00  0.00    -0.352 N 
ATOM      4  O   UNL A   1      39.861  21.951  26.369  1.00  0.00    -0.269 OA
ATOM      5  C   UNL A   1      39.093  22.899  26.215  1.00  0.00     0.251 C 
ATOM      6  H   UNL A   1      37.797  21.813  25.161  1.00  0.00     0.163 HD
BRANCH   5   7
ATOM      7  C   UNL A   1      39.422  24.204  26.828  1.00  0.00     0.039 A 
ATOM      8  C   UNL A   1      40.089  25.191  26.111  1.00  0.00     0.014 A 
ATOM      9  C   UNL A   1      39.037  24.457  28.150  1.00  0.00     0.014 A 
ATOM     10  C   UNL A   1      40.577  26.314  26.761  1.00  0.00     0.010 A 
ATOM     11  C   UNL A   1      39.399  25.660  28.764  1.00  0.00     0.010 A 
ATOM     12  C   UNL A   1      40.215  26.579  28.088  1.00  0.00    -0.014 A 
BRANCH  12  13
ATOM     13  C   UNL A   1      40.653  27.851  28.717  1.00  0.00     0.031 A 
ATOM     14  C   UNL A   1      42.090  28.070  29.098  1.00  0.00     0.074 A 
ATOM     15  C   UNL A   1      39.741  28.822  28.918  1.00  0.00     0.049 A 
ATOM     16  N   UNL A   1      42.637  29.098  29.697  1.00  0.00    -0.248 NA
ATOM     17  C   UNL A   1      43.037  26.992  28.777  1.00  0.00     0.031 C 
ATOM     18  C   UNL A   1      38.318  28.723  28.584  1.00  0.00     0.029 A 
ATOM     19  N   UNL A   1      39.871  30.086  29.432  1.00  0.00    -0.354 N 
ATOM     20  C   UNL A   1      43.978  28.778  29.855  1.00  0.00     0.074 A 
ATOM     21  C   UNL A   1      44.162  27.451  29.307  1.00  0.00     0.031 C 
ATOM     22  C   UNL A   1      37.718  29.890  28.852  1.00  0.00     0.029 A 
ATOM     23  C   UNL A   1      38.691  30.787  29.461  1.00  0.00     0.049 A 
ATOM     24  H   UNL A   1      40.726  30.455  29.750  1.00  0.00     0.167 HD
ATOM     25  C   UNL A   1      44.964  29.527  30.407  1.00  0.00     0.037 A 
ATOM     26  C   UNL A   1      38.408  32.005  29.956  1.00  0.00     0.037 A 
ATOM     27  C   UNL A   1      44.770  30.856  30.929  1.00  0.00     0.049 A 
ATOM     28  C   UNL A   1      39.511  32.801  30.587  1.00  0.00     0.074 A 
ATOM     29  C   UNL A   1      45.707  31.712  31.481  1.00  0.00     0.029 A 
ATOM     30  N   UNL A   1      43.553  31.522  30.963  1.00  0.00    -0.354 N 
ATOM     31  N   UNL A   1      40.776  32.490  30.726  1.00  0.00    -0.248 NA
ATOM     32  C   UNL A   1      39.147  34.113  31.137  1.00  0.00     0.031 C 
ATOM     33  C   UNL A   1      45.048  32.875  31.896  1.00  0.00     0.029 A 
ATOM     34  C   UNL A   1      43.710  32.769  31.549  1.00  0.00     0.049 A 
ATOM     35  H   UNL A   1      42.703  31.162  30.622  1.00  0.00     0.167 HD
ATOM     36  C   UNL A   1      41.367  33.572  31.362  1.00  0.00     0.074 A 
ATOM     37  C   UNL A   1      40.320  34.554  31.567  1.00  0.00     0.031 C 
ATOM     38  C   UNL A   1      42.658  33.735  31.740  1.00  0.00     0.037 A 
BRANCH  25  39
ATOM     39  C   UNL A   1      46.333  28.914  30.507  1.00  0.00     0.064 A 
ATOM     40  C   UNL A   1      46.737  28.175  31.629  1.00  0.00     0.173 A 
ATOM     41  C   UNL A   1      47.247  29.050  29.450  1.00  0.00     0.173 A 
ATOM     42  F   UNL A   1      45.909  28.025  32.674  1.00  0.00    -0.203 F 
ATOM     43  C   UNL A   1      48.015  27.623  31.702  1.00  0.00     0.198 A 
ATOM     44  C   UNL A   1      48.512  28.471  29.514  1.00  0.00     0.198 A 
ATOM     45  F   UNL A   1      46.911  29.742  28.350  1.00  0.00    -0.203 F 
ATOM     46  F   UNL A   1      48.397  26.967  32.807  1.00  0.00    -0.200 F 
ATOM     47  C   UNL A   1      48.898  27.767  30.643  1.00  0.00     0.200 A 
ATOM     48  F   UNL A   1      49.359  28.600  28.483  1.00  0.00    -0.200 F 
ATOM     49  F   UNL A   1      50.125  27.232  30.714  1.00  0.00    -0.200 F 
ENDBRANCH  25  39
BRANCH  26  50
ATOM     50  C   UNL A   1      37.016  32.518  29.886  1.00  0.00     0.064 A 
ATOM     51  C   UNL A   1      36.136  32.369  30.965  1.00  0.00     0.173 A 
ATOM     52  C   UNL A   1      36.555  33.211  28.755  1.00  0.00     0.173 A 
ATOM     53  F   UNL A   1      36.527  31.703  32.061  1.00  0.00    -0.203 F 
ATOM     54  C   UNL A   1      34.845  32.891  30.914  1.00  0.00     0.198 A 
ATOM     55  C   UNL A   1      35.275  33.758  28.719  1.00  0.00     0.198 A 
ATOM     56  F   UNL A   1      37.364  33.389  27.701  1.00  0.00    -0.203 F 
ATOM     57  F   UNL A   1      34.012  32.710  31.948  1.00  0.00    -0.200 F 
ATOM     58  C   UNL A   1      34.419  33.593  29.796  1.00  0.00     0.200 A 
ATOM     59  F   UNL A   1      34.878  34.456  27.646  1.00  0.00    -0.200 F 
ATOM     60  F   UNL A   1      33.184  34.109  29.756  1.00  0.00    -0.200 F 
ENDBRANCH  26  50
BRANCH  38  61
ATOM     61  C   UNL A   1      43.020  35.043  32.380  1.00  0.00     0.064 A 
ATOM     62  C   UNL A   1      43.519  36.117  31.631  1.00  0.00     0.173 A 
ATOM     63  C   UNL A   1      42.830  35.231  33.757  1.00  0.00     0.173 A 
ATOM     64  F   UNL A   1      43.736  35.980  30.314  1.00  0.00    -0.203 F 
ATOM     65  C   UNL A   1      43.835  37.327  32.242  1.00  0.00     0.198 A 
ATOM     66  C   UNL A   1      43.119  36.451  34.360  1.00  0.00     0.198 A 
ATOM     67  F   UNL A   1      42.352  34.232  34.516  1.00  0.00    -0.203 F 
ATOM     68  F   UNL A   1      44.353  38.327  31.515  1.00  0.00    -0.200 F 
ATOM     69  C   UNL A   1      43.627  37.495  33.603  1.00  0.00     0.200 A 
ATOM     70  F   UNL A   1      42.907  36.615  35.672  1.00  0.00    -0.200 F 
ATOM     71  F   UNL A   1      43.924  38.664  34.188  1.00  0.00    -0.200 F 
ENDBRANCH  38  61
ENDBRANCH  12  13
ENDBRANCH   5   7
ENDBRANCH   2   3
ENDBRANCH   1   2
BRANCH   1  72
ATOM     72  C   UNL A   1      34.896  25.031  25.457  1.00  0.00     0.117 C 
BRANCH  72  73
ATOM     73  N   UNL A   1      33.610  24.981  26.142  1.00  0.00    -0.356 N 
ATOM     74  C   UNL A   1      32.401  25.515  25.788  1.00  0.00     0.224 C 
ATOM     75  H   UNL A   1      33.613  24.486  26.992  1.00  0.00     0.163 HD
ATOM     76  O   UNL A   1      31.405  25.115  26.392  1.00  0.00    -0.275 OA
BRANCH  74  77
ATOM     77  C   UNL A   1      32.326  26.634  24.757  1.00  0.00     0.095 C 
ATOM     78  C   UNL A   1      31.502  27.753  25.426  1.00  0.00     0.041 C 
ATOM     79  C   UNL A   1      31.680  26.188  23.430  1.00  0.00     0.095 C 
ATOM     80  C   UNL A   1      31.133  28.851  24.480  1.00  0.00    -0.030 C 
ATOM     81  C   UNL A   1      31.512  27.400  22.483  1.00  0.00     0.041 C 
ATOM     82  C   UNL A   1      31.149  28.692  23.152  1.00  0.00    -0.030 C 
BRANCH  79  83
ATOM     83  C   UNL A   1      32.361  25.108  22.557  1.00  0.00     0.227 C 
ATOM     84  O   UNL A   1      32.971  25.437  21.537  1.00  0.00    -0.275 OA
ATOM     85  N   UNL A   1      32.520  23.842  23.102  1.00  0.00    -0.331 N 
ATOM     86  C   UNL A   1      33.736  23.077  22.844  1.00  0.00     0.181 C 
ATOM     87  C   UNL A   1      31.380  22.981  23.271  1.00  0.00     0.181 C 
ATOM     88  C   UNL A   1      33.934  21.928  23.874  1.00  0.00     0.284 C 
ATOM     89  C   UNL A   1      31.568  22.019  24.448  1.00  0.00     0.284 C 
ATOM     90  N   UNL A   1      32.747  21.157  24.307  1.00  0.00    -0.328 N 
ATOM     91  H   UNL A   1      32.986  20.817  25.238  1.00  0.00     0.348 HD
BRANCH  90  92
ATOM     92  C   UNL A   1      32.498  19.882  23.612  1.00  0.00     0.299 C 
BRANCH  92  93
ATOM     93  C   UNL A   1      33.036  18.638  24.286  1.00  0.00     0.010 A 
ATOM     94  C   UNL A   1      34.414  18.337  24.213  1.00  0.00     0.013 A 
ATOM     95  C   UNL A   1      32.152  17.701  24.859  1.00  0.00     0.060 A 
ATOM     96  C   UNL A   1      34.898  17.085  24.602  1.00  0.00     0.051 A 
ATOM     97  C   UNL A   1      32.655  16.466  25.210  1.00  0.00     0.166 A 
ATOM     98  C   UNL A   1      33.989  16.164  25.073  1.00  0.00     0.165 A 
ATOM     99  O   UNL A   1      31.922  15.400  25.631  1.00  0.00    -0.454 OA
ATOM    100  O   UNL A   1      34.266  14.876  25.406  1.00  0.00    -0.454 OA
ATOM    101  C   UNL A   1      32.949  14.391  25.736  1.00  0.00     0.468 C 
ENDBRANCH  92  93
ENDBRANCH  90  92
ENDBRANCH  79  83
ENDBRANCH  74  77
ENDBRANCH  72  73
ENDBRANCH   1  72
TORSDOF 13
ENDMDL
MODEL 3
REMARK VINA RESULT:     -13.3      3.182      6.684
REMARK SMILES O=C(NCCCNC(=O)[C@@H]1CC=CC[C@H]1C(=O)N1CC[NH+](Cc2ccc3c(c2)OCO3)CC1)c1ccc(-c2c3nc(c(-c4c(F)c(F)c(F)c(F)c4F)c4ccc([nH]4)c(-c4c(F)c(F)c(F)c(F)c4F)c4nc(c(-c5c(F)c(F)c(F)c(F)c5F)c5ccc2[nH]5)C=C4)C=C3)cc1
REMARK SMILES IDX 5 1 4 2 3 3 1 4 2 5 34 7 35 8 96 9 36 10 95 11 37 12 38 13
REMARK SMILES IDX 39 14 89 15 40 16 94 17 88 18 90 19 41 20 93 21 87 22 86 23
REMARK SMILES IDX 42 25 74 26 54 27 73 28 55 29 58 30 72 31 91 32 56 33 57 34
REMARK SMILES IDX 71 36 92 37 59 38 43 39 44 40 52 41 45 42 46 43 50 44 53 45
REMARK SMILES IDX 47 46 48 47 51 48 49 49 75 50 76 51 84 52 77 53 78 54 82 55
REMARK SMILES IDX 85 56 79 57 80 58 83 59 81 60 60 61 61 62 69 63 62 64 63 65
REMARK SMILES IDX 67 66 70 67 64 68 65 69 68 70 66 71 6 72 7 73 8 74 9 76
REMARK SMILES IDX 10 77 11 78 15 79 12 80 14 81 13 82 16 83 17 84 18 85 19 86
REMARK SMILES IDX 33 87 20 88 32 89 21 90 22 92 23 93 24 94 28 95 25 96 27 97
REMARK SMILES IDX 26 98 29 99 31 100 30 101
REMARK H PARENT 3 6 90 24 58 35 7 75 21 91
REMARK Flexibility Score: inf
ROOT
ATOM      1  C   UNL A   1      31.640  29.580  27.064  1.00  0.00     0.042 C 
ENDROOT
BRANCH   1   2
ATOM      2  C   UNL A   1      32.755  30.370  26.399  1.00  0.00     0.118 C 
BRANCH   2   3
ATOM      3  N   UNL A   1      32.724  31.796  26.716  1.00  0.00    -0.352 N 
ATOM      4  O   UNL A   1      33.203  33.735  27.754  1.00  0.00    -0.269 OA
ATOM      5  C   UNL A   1      33.524  32.571  27.522  1.00  0.00     0.251 C 
ATOM      6  H   UNL A   1      31.998  32.291  26.272  1.00  0.00     0.163 HD
BRANCH   5   7
ATOM      7  C   UNL A   1      34.739  32.014  28.155  1.00  0.00     0.039 A 
ATOM      8  C   UNL A   1      34.785  30.696  28.595  1.00  0.00     0.014 A 
ATOM      9  C   UNL A   1      35.872  32.825  28.296  1.00  0.00     0.014 A 
ATOM     10  C   UNL A   1      35.843  30.259  29.375  1.00  0.00     0.010 A 
ATOM     11  C   UNL A   1      37.005  32.333  28.952  1.00  0.00     0.010 A 
ATOM     12  C   UNL A   1      36.982  31.060  29.540  1.00  0.00    -0.014 A 
BRANCH  12  13
ATOM     13  C   UNL A   1      38.149  30.515  30.277  1.00  0.00     0.031 A 
ATOM     14  C   UNL A   1      38.390  30.872  31.717  1.00  0.00     0.074 A 
ATOM     15  C   UNL A   1      38.980  29.667  29.640  1.00  0.00     0.049 A 
ATOM     16  N   UNL A   1      39.382  30.525  32.499  1.00  0.00    -0.248 NA
ATOM     17  C   UNL A   1      37.396  31.742  32.363  1.00  0.00     0.031 C 
ATOM     18  C   UNL A   1      38.843  29.244  28.244  1.00  0.00     0.029 A 
ATOM     19  N   UNL A   1      40.091  28.995  30.080  1.00  0.00    -0.354 N 
ATOM     20  C   UNL A   1      39.151  31.160  33.712  1.00  0.00     0.074 A 
ATOM     21  C   UNL A   1      37.935  31.930  33.560  1.00  0.00     0.031 C 
ATOM     22  C   UNL A   1      39.796  28.349  27.957  1.00  0.00     0.029 A 
ATOM     23  C   UNL A   1      40.666  28.203  29.117  1.00  0.00     0.049 A 
ATOM     24  H   UNL A   1      40.442  29.072  30.996  1.00  0.00     0.167 HD
ATOM     25  C   UNL A   1      39.889  31.101  34.847  1.00  0.00     0.037 A 
ATOM     26  C   UNL A   1      41.791  27.467  29.146  1.00  0.00     0.037 A 
ATOM     27  C   UNL A   1      41.086  30.312  34.990  1.00  0.00     0.049 A 
ATOM     28  C   UNL A   1      42.604  27.442  30.406  1.00  0.00     0.074 A 
ATOM     29  C   UNL A   1      41.891  30.158  36.105  1.00  0.00     0.029 A 
ATOM     30  N   UNL A   1      41.651  29.542  33.982  1.00  0.00    -0.354 N 
ATOM     31  N   UNL A   1      42.373  28.041  31.547  1.00  0.00    -0.248 NA
ATOM     32  C   UNL A   1      43.838  26.646  30.379  1.00  0.00     0.031 C 
ATOM     33  C   UNL A   1      42.970  29.338  35.758  1.00  0.00     0.029 A 
ATOM     34  C   UNL A   1      42.807  28.931  34.443  1.00  0.00     0.049 A 
ATOM     35  H   UNL A   1      41.285  29.446  33.074  1.00  0.00     0.167 HD
ATOM     36  C   UNL A   1      43.420  27.683  32.384  1.00  0.00     0.074 A 
ATOM     37  C   UNL A   1      44.278  26.800  31.619  1.00  0.00     0.031 C 
ATOM     38  C   UNL A   1      43.646  28.051  33.668  1.00  0.00     0.037 A 
BRANCH  25  39
ATOM     39  C   UNL A   1      39.443  31.938  36.013  1.00  0.00     0.064 A 
ATOM     40  C   UNL A   1      40.012  33.191  36.290  1.00  0.00     0.173 A 
ATOM     41  C   UNL A   1      38.414  31.487  36.854  1.00  0.00     0.173 A 
ATOM     42  F   UNL A   1      41.009  33.664  35.527  1.00  0.00    -0.203 F 
ATOM     43  C   UNL A   1      39.586  33.946  37.382  1.00  0.00     0.198 A 
ATOM     44  C   UNL A   1      37.971  32.258  37.926  1.00  0.00     0.198 A 
ATOM     45  F   UNL A   1      37.831  30.299  36.632  1.00  0.00    -0.203 F 
ATOM     46  F   UNL A   1      40.181  35.115  37.657  1.00  0.00    -0.200 F 
ATOM     47  C   UNL A   1      38.564  33.481  38.195  1.00  0.00     0.200 A 
ATOM     48  F   UNL A   1      36.973  31.813  38.702  1.00  0.00    -0.200 F 
ATOM     49  F   UNL A   1      38.155  34.210  39.243  1.00  0.00    -0.200 F 
ENDBRANCH  25  39
BRANCH  26  50
ATOM     50  C   UNL A   1      42.208  26.720  27.932  1.00  0.00     0.064 A 
ATOM     51  C   UNL A   1      43.078  27.292  26.996  1.00  0.00     0.173 A 
ATOM     52  C   UNL A   1      41.782  25.401  27.710  1.00  0.00     0.173 A 
ATOM     53  F   UNL A   1      43.501  28.554  27.158  1.00  0.00    -0.203 F 
ATOM     54  C   UNL A   1      43.504  26.574  25.880  1.00  0.00     0.198 A 
ATOM     55  C   UNL A   1      42.233  24.674  26.611  1.00  0.00     0.198 A 
ATOM     56  F   UNL A   1      40.957  24.806  28.583  1.00  0.00    -0.203 F 
ATOM     57  F   UNL A   1      44.314  27.153  24.984  1.00  0.00    -0.200 F 
ATOM     58  C   UNL A   1      43.089  25.263  25.694  1.00  0.00     0.200 A 
ATOM     59  F   UNL A   1      41.848  23.401  26.449  1.00  0.00    -0.200 F 
ATOM     60  F   UNL A   1      43.514  24.568  24.631  1.00  0.00    -0.200 F 
ENDBRANCH  26  50
BRANCH  38  61
ATOM     61  C   UNL A   1      44.853  27.468  34.341  1.00  0.00     0.064 A 
ATOM     62  C   UNL A   1      46.079  28.147  34.376  1.00  0.00     0.173 A 
ATOM     63  C   UNL A   1      44.769  26.227  34.990  1.00  0.00     0.173 A 
ATOM     64  F   UNL A   1      46.215  29.328  33.753  1.00  0.00    -0.203 F 
ATOM     65  C   UNL A   1      47.183  27.595  35.019  1.00  0.00     0.198 A 
ATOM     66  C   UNL A   1      45.866  25.691  35.657  1.00  0.00     0.198 A 
ATOM     67  F   UNL A   1      43.616  25.540  34.986  1.00  0.00    -0.203 F 
ATOM     68  F   UNL A   1      48.358  28.240  35.002  1.00  0.00    -0.200 F 
ATOM     69  C   UNL A   1      47.073  26.372  35.665  1.00  0.00     0.200 A 
ATOM     70  F   UNL A   1      45.754  24.516  36.290  1.00  0.00    -0.200 F 
ATOM     71  F   UNL A   1      48.135  25.846  36.291  1.00  0.00    -0.200 F 
ENDBRANCH  38  61
ENDBRANCH  12  13
ENDBRANCH   5   7
ENDBRANCH   2   3
ENDBRANCH   1   2
BRANCH   1  72
ATOM     72  C   UNL A   1      32.089  28.212  27.527  1.00  0.00     0.117 C 
BRANCH  72  73
ATOM     73  N   UNL A   1      31.101  27.158  27.331  1.00  0.00    -0.356 N 
ATOM     74  C   UNL A   1      30.786  26.441  26.209  1.00  0.00     0.224 C 
ATOM     75  H   UNL A   1      30.578  26.927  28.132  1.00  0.00     0.163 HD
ATOM     76  O   UNL A   1      30.106  25.426  26.356  1.00  0.00    -0.275 OA
BRANCH  74  77
ATOM     77  C   UNL A   1      31.187  26.954  24.831  1.00  0.00     0.095 C 
ATOM     78  C   UNL A   1      29.888  27.503  24.206  1.00  0.00     0.041 C 
ATOM     79  C   UNL A   1      31.811  25.861  23.940  1.00  0.00     0.095 C 
ATOM     80  C   UNL A   1      30.040  27.852  22.759  1.00  0.00    -0.030 C 
ATOM     81  C   UNL A   1      32.067  26.413  22.517  1.00  0.00     0.041 C 
ATOM     82  C   UNL A   1      31.030  27.366  22.003  1.00  0.00    -0.030 C 
BRANCH  79  83
ATOM     83  C   UNL A   1      33.150  25.199  24.343  1.00  0.00     0.227 C 
ATOM     84  O   UNL A   1      34.077  25.893  24.764  1.00  0.00    -0.275 OA
ATOM     85  N   UNL A   1      33.167  23.820  24.500  1.00  0.00    -0.331 N 
ATOM     86  C   UNL A   1      33.947  23.212  25.574  1.00  0.00     0.181 C 
ATOM     87  C   UNL A   1      33.092  22.961  23.350  1.00  0.00     0.181 C 
ATOM     88  C   UNL A   1      33.490  21.755  25.876  1.00  0.00     0.284 C 
ATOM     89  C   UNL A   1      32.431  21.621  23.687  1.00  0.00     0.284 C 
ATOM     90  N   UNL A   1      33.135  20.878  24.738  1.00  0.00    -0.328 N 
ATOM     91  H   UNL A   1      32.473  20.206  25.128  1.00  0.00     0.348 HD
BRANCH  90  92
ATOM     92  C   UNL A   1      34.185  19.968  24.251  1.00  0.00     0.299 C 
BRANCH  92  93
ATOM     93  C   UNL A   1      34.129  18.546  24.768  1.00  0.00     0.010 A 
ATOM     94  C   UNL A   1      35.250  17.699  24.624  1.00  0.00     0.013 A 
ATOM     95  C   UNL A   1      32.918  18.015  25.258  1.00  0.00     0.060 A 
ATOM     96  C   UNL A   1      35.149  16.325  24.859  1.00  0.00     0.051 A 
ATOM     97  C   UNL A   1      32.842  16.653  25.456  1.00  0.00     0.166 A 
ATOM     98  C   UNL A   1      33.924  15.830  25.250  1.00  0.00     0.165 A 
ATOM     99  O   UNL A   1      31.716  15.958  25.777  1.00  0.00    -0.454 OA
ATOM    100  O   UNL A   1      33.620  14.518  25.431  1.00  0.00    -0.454 OA
ATOM    101  C   UNL A   1      32.215  14.604  25.742  1.00  0.00     0.468 C 
ENDBRANCH  92  93
ENDBRANCH  90  92
ENDBRANCH  79  83
ENDBRANCH  74  77
ENDBRANCH  72  73
ENDBRANCH   1  72
TORSDOF 13
ENDMDL
