MODEL 1
REMARK VINA RESULT:     -12.7      0.000      0.000
REMARK SMILES C[C@@H](C(=O)NCc1ccc(F)cc1)n1cc(C(=O)NCCCNC(=O)c2ccc(-c3c4nc(c(-c5c(F)c(F)c(F)c(F)c5F)c5ccc([nH]5)c(-c5c(F)c(F)c(F)c(F)c5F)c5nc(c(-c6c(F)c(F)c(F)c(F)c6F)c6ccc3[nH]6)C=C5)C=C4)cc2)cn1
REMARK SMILES IDX 20 1 19 2 17 3 18 4 16 6 14 7 15 8 90 9 89 10 2 11 1 12 3 13
REMARK SMILES IDX 4 14 5 15 6 17 7 18 8 19 13 20 9 21 12 22 10 23 11 24 21 25
REMARK SMILES IDX 22 26 23 27 24 28 25 30 26 31 27 32 88 33 28 34 87 35 29 36
REMARK SMILES IDX 30 37 31 38 81 39 32 40 86 41 80 42 82 43 33 44 85 45 79 46
REMARK SMILES IDX 78 47 34 49 66 50 46 51 65 52 47 53 50 54 64 55 83 56 48 57
REMARK SMILES IDX 49 58 63 60 84 61 51 62 35 63 36 64 44 65 37 66 38 67 42 68
REMARK SMILES IDX 45 69 39 70 40 71 43 72 41 73 67 74 68 75 76 76 69 77 70 78
REMARK SMILES IDX 74 79 77 80 71 81 72 82 75 83 73 84 52 85 53 86 61 87 54 88
REMARK SMILES IDX 55 89 59 90 62 91 56 92 57 93 60 94 58 95
REMARK H PARENT 19 5 5 16 23 29 82 48 50 59
REMARK Flexibility Score: inf
ROOT
ATOM      1  C   UNL A   1      33.501  30.421  26.910  1.00  0.00     0.118 C 
ENDROOT
BRANCH   1   2
ATOM      2  N   UNL A   1      32.545  29.595  27.627  1.00  0.00    -0.352 N 
ATOM      3  C   UNL A   1      32.036  28.351  27.346  1.00  0.00     0.254 C 
ATOM      4  O   UNL A   1      31.326  27.827  28.206  1.00  0.00    -0.269 OA
ATOM      5  H   UNL A   1      32.203  29.997  28.458  1.00  0.00     0.163 HD
BRANCH   3   6
ATOM      6  C   UNL A   1      32.319  27.671  26.095  1.00  0.00     0.077 A 
ATOM      7  N   UNL A   1      32.264  26.580  24.163  1.00  0.00    -0.260 N 
ATOM      8  C   UNL A   1      31.497  27.274  25.061  1.00  0.00     0.123 A 
ATOM      9  N   UNL A   1      33.574  26.610  24.487  1.00  0.00    -0.180 NA
ATOM     10  C   UNL A   1      33.594  27.217  25.677  1.00  0.00     0.149 A 
BRANCH   7  11
ATOM     11  C   UNL A   1      31.814  25.958  22.906  1.00  0.00     0.193 C 
ATOM     12  C   UNL A   1      31.025  26.951  22.058  1.00  0.00     0.044 C 
BRANCH  11  13
ATOM     13  C   UNL A   1      32.984  25.367  22.104  1.00  0.00     0.244 C 
ATOM     14  O   UNL A   1      33.417  25.873  21.064  1.00  0.00    -0.273 OA
ATOM     15  N   UNL A   1      33.649  24.254  22.533  1.00  0.00    -0.350 N 
ATOM     16  H   UNL A   1      34.476  24.065  22.033  1.00  0.00     0.163 HD
BRANCH  15  17
ATOM     17  C   UNL A   1      33.364  23.300  23.590  1.00  0.00     0.151 C 
BRANCH  17  18
ATOM     18  C   UNL A   1      34.604  22.488  23.894  1.00  0.00    -0.029 A 
ATOM     19  C   UNL A   1      35.877  22.936  23.508  1.00  0.00     0.008 A 
ATOM     20  C   UNL A   1      34.507  21.292  24.628  1.00  0.00     0.008 A 
ATOM     21  C   UNL A   1      37.027  22.258  23.914  1.00  0.00     0.039 A 
ATOM     22  C   UNL A   1      35.659  20.597  25.009  1.00  0.00     0.039 A 
ATOM     23  C   UNL A   1      36.908  21.098  24.666  1.00  0.00     0.123 A 
ATOM     24  F   UNL A   1      38.012  20.453  25.061  1.00  0.00    -0.207 F 
ENDBRANCH  17  18
ENDBRANCH  15  17
ENDBRANCH  11  13
ENDBRANCH   7  11
ENDBRANCH   3   6
ENDBRANCH   1   2
BRANCH   1  25
ATOM     25  C   UNL A   1      34.919  30.340  27.491  1.00  0.00     0.042 C 
BRANCH  25  26
ATOM     26  C   UNL A   1      35.549  31.716  27.633  1.00  0.00     0.118 C 
BRANCH  26  27
ATOM     27  N   UNL A   1      35.227  32.347  28.927  1.00  0.00    -0.352 N 
ATOM     28  C   UNL A   1      35.594  31.988  30.217  1.00  0.00     0.251 C 
ATOM     29  H   UNL A   1      34.663  33.152  28.866  1.00  0.00     0.163 HD
ATOM     30  O   UNL A   1      35.000  32.420  31.186  1.00  0.00    -0.269 OA
BRANCH  28  31
ATOM     31  C   UNL A   1      36.737  31.075  30.385  1.00  0.00     0.039 A 
ATOM     32  C   UNL A   1      36.601  29.697  30.584  1.00  0.00     0.014 A 
ATOM     33  C   UNL A   1      37.987  31.653  30.264  1.00  0.00     0.014 A 
ATOM     34  C   UNL A   1      37.757  28.918  30.600  1.00  0.00     0.010 A 
ATOM     35  C   UNL A   1      39.039  30.864  29.927  1.00  0.00     0.010 A 
ATOM     36  C   UNL A   1      38.973  29.525  30.265  1.00  0.00    -0.014 A 
BRANCH  36  37
ATOM     37  C   UNL A   1      40.241  28.825  30.187  1.00  0.00     0.031 A 
ATOM     38  C   UNL A   1      40.891  28.613  31.501  1.00  0.00     0.074 A 
ATOM     39  C   UNL A   1      40.593  28.155  29.063  1.00  0.00     0.049 A 
ATOM     40  N   UNL A   1      41.985  29.143  31.933  1.00  0.00    -0.248 NA
ATOM     41  C   UNL A   1      40.149  27.859  32.525  1.00  0.00     0.031 C 
ATOM     42  C   UNL A   1      39.833  27.983  27.814  1.00  0.00     0.029 A 
ATOM     43  N   UNL A   1      41.684  27.377  28.843  1.00  0.00    -0.354 N 
ATOM     44  C   UNL A   1      42.181  28.618  33.208  1.00  0.00     0.074 A 
ATOM     45  C   UNL A   1      40.925  28.036  33.596  1.00  0.00     0.031 C 
ATOM     46  C   UNL A   1      40.373  26.984  27.080  1.00  0.00     0.029 A 
ATOM     47  C   UNL A   1      41.607  26.566  27.713  1.00  0.00     0.049 A 
ATOM     48  H   UNL A   1      42.470  27.386  29.437  1.00  0.00     0.167 HD
ATOM     49  C   UNL A   1      43.437  28.471  33.715  1.00  0.00     0.037 A 
ATOM     50  C   UNL A   1      42.492  25.593  27.375  1.00  0.00     0.037 A 
ATOM     51  C   UNL A   1      44.387  29.216  32.925  1.00  0.00     0.049 A 
ATOM     52  C   UNL A   1      43.738  25.873  28.141  1.00  0.00     0.074 A 
ATOM     53  C   UNL A   1      44.553  30.552  32.616  1.00  0.00     0.029 A 
ATOM     54  N   UNL A   1      45.111  28.521  31.985  1.00  0.00    -0.354 N 
ATOM     55  N   UNL A   1      44.477  26.934  27.955  1.00  0.00    -0.248 NA
ATOM     56  C   UNL A   1      43.871  25.235  29.442  1.00  0.00     0.031 C 
ATOM     57  C   UNL A   1      44.945  30.564  31.246  1.00  0.00     0.029 A 
ATOM     58  C   UNL A   1      45.084  29.241  30.821  1.00  0.00     0.049 A 
ATOM     59  H   UNL A   1      45.565  27.659  32.124  1.00  0.00     0.167 HD
ATOM     60  C   UNL A   1      44.847  27.336  29.231  1.00  0.00     0.074 A 
ATOM     61  C   UNL A   1      44.489  26.218  30.103  1.00  0.00     0.031 C 
ATOM     62  C   UNL A   1      45.122  28.645  29.505  1.00  0.00     0.037 A 
BRANCH  49  63
ATOM     63  C   UNL A   1      43.879  27.372  34.655  1.00  0.00     0.064 A 
ATOM     64  C   UNL A   1      44.031  26.016  34.297  1.00  0.00     0.173 A 
ATOM     65  C   UNL A   1      44.463  27.737  35.887  1.00  0.00     0.173 A 
ATOM     66  F   UNL A   1      43.597  25.523  33.133  1.00  0.00    -0.203 F 
ATOM     67  C   UNL A   1      44.745  25.110  35.081  1.00  0.00     0.198 A 
ATOM     68  C   UNL A   1      45.224  26.841  36.642  1.00  0.00     0.198 A 
ATOM     69  F   UNL A   1      44.385  28.999  36.336  1.00  0.00    -0.203 F 
ATOM     70  F   UNL A   1      44.886  23.845  34.660  1.00  0.00    -0.200 F 
ATOM     71  C   UNL A   1      45.373  25.530  36.233  1.00  0.00     0.200 A 
ATOM     72  F   UNL A   1      45.872  27.275  37.731  1.00  0.00    -0.200 F 
ATOM     73  F   UNL A   1      46.153  24.687  36.918  1.00  0.00    -0.200 F 
ENDBRANCH  49  63
BRANCH  50  74
ATOM     74  C   UNL A   1      42.218  24.264  26.770  1.00  0.00     0.064 A 
ATOM     75  C   UNL A   1      41.295  23.370  27.350  1.00  0.00     0.173 A 
ATOM     76  C   UNL A   1      43.071  23.725  25.792  1.00  0.00     0.173 A 
ATOM     77  F   UNL A   1      40.485  23.768  28.341  1.00  0.00    -0.203 F 
ATOM     78  C   UNL A   1      41.255  22.017  27.000  1.00  0.00     0.198 A 
ATOM     79  C   UNL A   1      43.032  22.369  25.444  1.00  0.00     0.198 A 
ATOM     80  F   UNL A   1      44.007  24.496  25.218  1.00  0.00    -0.203 F 
ATOM     81  F   UNL A   1      40.407  21.193  27.631  1.00  0.00    -0.200 F 
ATOM     82  C   UNL A   1      42.133  21.514  26.060  1.00  0.00     0.200 A 
ATOM     83  F   UNL A   1      43.909  21.879  24.557  1.00  0.00    -0.200 F 
ATOM     84  F   UNL A   1      42.142  20.202  25.780  1.00  0.00    -0.200 F 
ENDBRANCH  50  74
BRANCH  62  85
ATOM     85  C   UNL A   1      45.250  29.609  28.358  1.00  0.00     0.064 A 
ATOM     86  C   UNL A   1      46.540  29.908  27.903  1.00  0.00     0.173 A 
ATOM     87  C   UNL A   1      44.194  30.403  27.877  1.00  0.00     0.173 A 
ATOM     88  F   UNL A   1      47.590  29.213  28.367  1.00  0.00    -0.203 F 
ATOM     89  C   UNL A   1      46.773  30.975  27.040  1.00  0.00     0.198 A 
ATOM     90  C   UNL A   1      44.426  31.450  26.985  1.00  0.00     0.198 A 
ATOM     91  F   UNL A   1      42.945  30.233  28.321  1.00  0.00    -0.203 F 
ATOM     92  F   UNL A   1      48.029  31.286  26.693  1.00  0.00    -0.200 F 
ATOM     93  C   UNL A   1      45.717  31.746  26.582  1.00  0.00     0.200 A 
ATOM     94  F   UNL A   1      43.405  32.210  26.558  1.00  0.00    -0.200 F 
ATOM     95  F   UNL A   1      45.950  32.795  25.780  1.00  0.00    -0.200 F 
ENDBRANCH  62  85
ENDBRANCH  36  37
ENDBRANCH  28  31
ENDBRANCH  26  27
ENDBRANCH  25  26
ENDBRANCH   1  25
TORSDOF 14
ENDMDL
MODEL 2
REMARK VINA RESULT:     -12.7      3.534      8.935
REMARK SMILES C[C@@H](C(=O)NCc1ccc(F)cc1)n1cc(C(=O)NCCCNC(=O)c2ccc(-c3c4nc(c(-c5c(F)c(F)c(F)c(F)c5F)c5ccc([nH]5)c(-c5c(F)c(F)c(F)c(F)c5F)c5nc(c(-c6c(F)c(F)c(F)c(F)c6F)c6ccc3[nH]6)C=C5)C=C4)cc2)cn1
REMARK SMILES IDX 20 1 19 2 17 3 18 4 16 6 14 7 15 8 90 9 89 10 2 11 1 12 3 13
REMARK SMILES IDX 4 14 5 15 6 17 7 18 8 19 13 20 9 21 12 22 10 23 11 24 21 25
REMARK SMILES IDX 22 26 23 27 24 28 25 30 26 31 27 32 88 33 28 34 87 35 29 36
REMARK SMILES IDX 30 37 31 38 81 39 32 40 86 41 80 42 82 43 33 44 85 45 79 46
REMARK SMILES IDX 78 47 34 49 66 50 46 51 65 52 47 53 50 54 64 55 83 56 48 57
REMARK SMILES IDX 49 58 63 60 84 61 51 62 35 63 36 64 44 65 37 66 38 67 42 68
REMARK SMILES IDX 45 69 39 70 40 71 43 72 41 73 67 74 68 75 76 76 69 77 70 78
REMARK SMILES IDX 74 79 77 80 71 81 72 82 75 83 73 84 52 85 53 86 61 87 54 88
REMARK SMILES IDX 55 89 59 90 62 91 56 92 57 93 60 94 58 95
REMARK H PARENT 19 5 5 16 23 29 82 48 50 59
REMARK Flexibility Score: inf
ROOT
ATOM      1  C   UNL A   1      37.962  22.164  25.760  1.00  0.00     0.118 C 
ENDROOT
BRANCH   1   2
ATOM      2  N   UNL A   1      37.701  22.341  24.342  1.00  0.00    -0.352 N 
ATOM      3  C   UNL A   1      36.613  22.855  23.680  1.00  0.00     0.254 C 
ATOM      4  O   UNL A   1      36.715  23.003  22.462  1.00  0.00    -0.269 OA
ATOM      5  H   UNL A   1      38.430  22.040  23.754  1.00  0.00     0.163 HD
BRANCH   3   6
ATOM      6  C   UNL A   1      35.391  23.215  24.377  1.00  0.00     0.077 A 
ATOM      7  N   UNL A   1      33.307  23.523  25.076  1.00  0.00    -0.260 N 
ATOM      8  C   UNL A   1      34.090  22.784  24.230  1.00  0.00     0.123 A 
ATOM      9  N   UNL A   1      34.043  24.332  25.868  1.00  0.00    -0.180 NA
ATOM     10  C   UNL A   1      35.287  24.184  25.406  1.00  0.00     0.149 A 
BRANCH   7  11
ATOM     11  C   UNL A   1      31.849  23.420  25.253  1.00  0.00     0.193 C 
ATOM     12  C   UNL A   1      31.402  21.962  25.257  1.00  0.00     0.044 C 
BRANCH  11  13
ATOM     13  C   UNL A   1      31.370  24.139  26.524  1.00  0.00     0.244 C 
ATOM     14  O   UNL A   1      31.155  23.557  27.592  1.00  0.00    -0.273 OA
ATOM     15  N   UNL A   1      31.199  25.493  26.553  1.00  0.00    -0.350 N 
ATOM     16  H   UNL A   1      31.052  25.859  27.456  1.00  0.00     0.163 HD
BRANCH  15  17
ATOM     17  C   UNL A   1      31.195  26.494  25.501  1.00  0.00     0.151 C 
BRANCH  17  18
ATOM     18  C   UNL A   1      31.921  27.735  25.973  1.00  0.00    -0.029 A 
ATOM     19  C   UNL A   1      32.979  27.652  26.891  1.00  0.00     0.008 A 
ATOM     20  C   UNL A   1      31.586  28.996  25.447  1.00  0.00     0.008 A 
ATOM     21  C   UNL A   1      33.736  28.778  27.213  1.00  0.00     0.039 A 
ATOM     22  C   UNL A   1      32.328  30.130  25.793  1.00  0.00     0.039 A 
ATOM     23  C   UNL A   1      33.408  30.006  26.657  1.00  0.00     0.123 A 
ATOM     24  F   UNL A   1      34.140  31.084  26.960  1.00  0.00    -0.207 F 
ENDBRANCH  17  18
ENDBRANCH  15  17
ENDBRANCH  11  13
ENDBRANCH   7  11
ENDBRANCH   3   6
ENDBRANCH   1   2
BRANCH   1  25
ATOM     25  C   UNL A   1      38.762  23.322  26.372  1.00  0.00     0.042 C 
BRANCH  25  26
ATOM     26  C   UNL A   1      39.856  22.821  27.301  1.00  0.00     0.118 C 
BRANCH  26  27
ATOM     27  N   UNL A   1      41.139  22.628  26.599  1.00  0.00    -0.352 N 
ATOM     28  C   UNL A   1      42.034  23.559  26.088  1.00  0.00     0.251 C 
ATOM     29  H   UNL A   1      41.404  21.687  26.472  1.00  0.00     0.163 HD
ATOM     30  O   UNL A   1      42.879  23.242  25.273  1.00  0.00    -0.269 OA
BRANCH  28  31
ATOM     31  C   UNL A   1      41.943  24.947  26.573  1.00  0.00     0.039 A 
ATOM     32  C   UNL A   1      41.208  25.943  25.923  1.00  0.00     0.014 A 
ATOM     33  C   UNL A   1      42.580  25.205  27.772  1.00  0.00     0.014 A 
ATOM     34  C   UNL A   1      41.090  27.185  26.545  1.00  0.00     0.010 A 
ATOM     35  C   UNL A   1      42.167  26.263  28.514  1.00  0.00     0.010 A 
ATOM     36  C   UNL A   1      41.579  27.324  27.850  1.00  0.00    -0.014 A 
BRANCH  36  37
ATOM     37  C   UNL A   1      41.474  28.538  28.637  1.00  0.00     0.031 A 
ATOM     38  C   UNL A   1      42.514  29.546  28.325  1.00  0.00     0.074 A 
ATOM     39  C   UNL A   1      40.341  28.822  29.323  1.00  0.00     0.049 A 
ATOM     40  N   UNL A   1      43.476  29.946  29.085  1.00  0.00    -0.248 NA
ATOM     41  C   UNL A   1      42.601  30.044  26.942  1.00  0.00     0.031 C 
ATOM     42  C   UNL A   1      39.086  28.056  29.391  1.00  0.00     0.029 A 
ATOM     43  N   UNL A   1      40.032  29.940  30.029  1.00  0.00    -0.354 N 
ATOM     44  C   UNL A   1      44.165  30.907  28.350  1.00  0.00     0.074 A 
ATOM     45  C   UNL A   1      43.732  30.751  26.988  1.00  0.00     0.031 C 
ATOM     46  C   UNL A   1      38.099  28.831  29.895  1.00  0.00     0.029 A 
ATOM     47  C   UNL A   1      38.682  30.078  30.346  1.00  0.00     0.049 A 
ATOM     48  H   UNL A   1      40.710  30.603  30.297  1.00  0.00     0.167 HD
ATOM     49  C   UNL A   1      44.824  31.922  28.975  1.00  0.00     0.037 A 
ATOM     50  C   UNL A   1      38.107  31.177  30.900  1.00  0.00     0.037 A 
ATOM     51  C   UNL A   1      44.966  31.637  30.383  1.00  0.00     0.049 A 
ATOM     52  C   UNL A   1      39.213  31.968  31.508  1.00  0.00     0.074 A 
ATOM     53  C   UNL A   1      45.589  30.642  31.110  1.00  0.00     0.029 A 
ATOM     54  N   UNL A   1      44.064  32.220  31.240  1.00  0.00    -0.354 N 
ATOM     55  N   UNL A   1      39.931  31.550  32.516  1.00  0.00    -0.248 NA
ATOM     56  C   UNL A   1      39.834  32.986  30.673  1.00  0.00     0.031 C 
ATOM     57  C   UNL A   1      44.695  30.360  32.184  1.00  0.00     0.029 A 
ATOM     58  C   UNL A   1      43.625  31.254  32.105  1.00  0.00     0.049 A 
ATOM     59  H   UNL A   1      43.783  33.164  31.232  1.00  0.00     0.167 HD
ATOM     60  C   UNL A   1      41.228  31.933  32.209  1.00  0.00     0.074 A 
ATOM     61  C   UNL A   1      41.098  32.863  31.088  1.00  0.00     0.031 C 
ATOM     62  C   UNL A   1      42.300  31.233  32.684  1.00  0.00     0.037 A 
BRANCH  49  63
ATOM     63  C   UNL A   1      44.991  33.323  28.432  1.00  0.00     0.064 A 
ATOM     64  C   UNL A   1      43.963  34.287  28.353  1.00  0.00     0.173 A 
ATOM     65  C   UNL A   1      46.299  33.825  28.259  1.00  0.00     0.173 A 
ATOM     66  F   UNL A   1      42.677  33.990  28.562  1.00  0.00    -0.203 F 
ATOM     67  C   UNL A   1      44.223  35.644  28.164  1.00  0.00     0.198 A 
ATOM     68  C   UNL A   1      46.559  35.191  28.125  1.00  0.00     0.198 A 
ATOM     69  F   UNL A   1      47.360  33.005  28.312  1.00  0.00    -0.203 F 
ATOM     70  F   UNL A   1      43.202  36.512  28.141  1.00  0.00    -0.200 F 
ATOM     71  C   UNL A   1      45.521  36.101  28.087  1.00  0.00     0.200 A 
ATOM     72  F   UNL A   1      47.826  35.626  28.104  1.00  0.00    -0.200 F 
ATOM     73  F   UNL A   1      45.767  37.415  28.024  1.00  0.00    -0.200 F 
ENDBRANCH  49  63
BRANCH  50  74
ATOM     74  C   UNL A   1      36.778  31.772  30.606  1.00  0.00     0.064 A 
ATOM     75  C   UNL A   1      36.475  32.299  29.334  1.00  0.00     0.173 A 
ATOM     76  C   UNL A   1      35.891  32.109  31.643  1.00  0.00     0.173 A 
ATOM     77  F   UNL A   1      37.295  32.095  28.294  1.00  0.00    -0.203 F 
ATOM     78  C   UNL A   1      35.378  33.138  29.123  1.00  0.00     0.198 A 
ATOM     79  C   UNL A   1      34.793  32.952  31.430  1.00  0.00     0.198 A 
ATOM     80  F   UNL A   1      36.127  31.683  32.893  1.00  0.00    -0.203 F 
ATOM     81  F   UNL A   1      35.172  33.670  27.910  1.00  0.00    -0.200 F 
ATOM     82  C   UNL A   1      34.547  33.477  30.173  1.00  0.00     0.200 A 
ATOM     83  F   UNL A   1      34.010  33.305  32.460  1.00  0.00    -0.200 F 
ATOM     84  F   UNL A   1      33.538  34.341  29.983  1.00  0.00    -0.200 F 
ENDBRANCH  50  74
BRANCH  62  85
ATOM     85  C   UNL A   1      42.067  30.184  33.735  1.00  0.00     0.064 A 
ATOM     86  C   UNL A   1      42.341  30.526  35.065  1.00  0.00     0.173 A 
ATOM     87  C   UNL A   1      41.826  28.827  33.453  1.00  0.00     0.173 A 
ATOM     88  F   UNL A   1      42.625  31.798  35.383  1.00  0.00    -0.203 F 
ATOM     89  C   UNL A   1      42.411  29.556  36.061  1.00  0.00     0.198 A 
ATOM     90  C   UNL A   1      41.864  27.862  34.459  1.00  0.00     0.198 A 
ATOM     91  F   UNL A   1      41.634  28.408  32.198  1.00  0.00    -0.203 F 
ATOM     92  F   UNL A   1      42.760  29.907  37.306  1.00  0.00    -0.200 F 
ATOM     93  C   UNL A   1      42.174  28.226  35.758  1.00  0.00     0.200 A 
ATOM     94  F   UNL A   1      41.654  26.570  34.161  1.00  0.00    -0.200 F 
ATOM     95  F   UNL A   1      42.279  27.290  36.713  1.00  0.00    -0.200 F 
ENDBRANCH  62  85
ENDBRANCH  36  37
ENDBRANCH  28  31
ENDBRANCH  26  27
ENDBRANCH  25  26
ENDBRANCH   1  25
TORSDOF 14
ENDMDL
MODEL 3
REMARK VINA RESULT:     -12.6      1.319      1.763
REMARK SMILES C[C@@H](C(=O)NCc1ccc(F)cc1)n1cc(C(=O)NCCCNC(=O)c2ccc(-c3c4nc(c(-c5c(F)c(F)c(F)c(F)c5F)c5ccc([nH]5)c(-c5c(F)c(F)c(F)c(F)c5F)c5nc(c(-c6c(F)c(F)c(F)c(F)c6F)c6ccc3[nH]6)C=C5)C=C4)cc2)cn1
REMARK SMILES IDX 20 1 19 2 17 3 18 4 16 6 14 7 15 8 90 9 89 10 2 11 1 12 3 13
REMARK SMILES IDX 4 14 5 15 6 17 7 18 8 19 13 20 9 21 12 22 10 23 11 24 21 25
REMARK SMILES IDX 22 26 23 27 24 28 25 30 26 31 27 32 88 33 28 34 87 35 29 36
REMARK SMILES IDX 30 37 31 38 81 39 32 40 86 41 80 42 82 43 33 44 85 45 79 46
REMARK SMILES IDX 78 47 34 49 66 50 46 51 65 52 47 53 50 54 64 55 83 56 48 57
REMARK SMILES IDX 49 58 63 60 84 61 51 62 35 63 36 64 44 65 37 66 38 67 42 68
REMARK SMILES IDX 45 69 39 70 40 71 43 72 41 73 67 74 68 75 76 76 69 77 70 78
REMARK SMILES IDX 74 79 77 80 71 81 72 82 75 83 73 84 52 85 53 86 61 87 54 88
REMARK SMILES IDX 55 89 59 90 62 91 56 92 57 93 60 94 58 95
REMARK H PARENT 19 5 5 16 23 29 82 48 50 59
REMARK Flexibility Score: inf
ROOT
ATOM      1  C   UNL A   1      32.930  29.697  25.453  1.00  0.00     0.118 C 
ENDROOT
BRANCH   1   2
ATOM      2  N   UNL A   1      31.720  30.032  24.723  1.00  0.00    -0.352 N 
ATOM      3  C   UNL A   1      30.775  29.236  24.124  1.00  0.00     0.254 C 
ATOM      4  O   UNL A   1      29.771  29.792  23.678  1.00  0.00    -0.269 OA
ATOM      5  H   UNL A   1      31.547  30.998  24.644  1.00  0.00     0.163 HD
BRANCH   3   6
ATOM      6  C   UNL A   1      30.941  27.797  24.019  1.00  0.00     0.077 A 
ATOM      7  N   UNL A   1      31.144  25.611  24.347  1.00  0.00    -0.260 N 
ATOM      8  C   UNL A   1      30.738  26.782  24.930  1.00  0.00     0.123 A 
ATOM      9  N   UNL A   1      31.484  25.783  23.051  1.00  0.00    -0.180 NA
ATOM     10  C   UNL A   1      31.414  27.105  22.877  1.00  0.00     0.149 A 
BRANCH   7  11
ATOM     11  C   UNL A   1      31.123  24.267  24.947  1.00  0.00     0.193 C 
ATOM     12  C   UNL A   1      31.552  23.211  23.933  1.00  0.00     0.044 C 
BRANCH  11  13
ATOM     13  C   UNL A   1      31.987  24.186  26.215  1.00  0.00     0.244 C 
ATOM     14  O   UNL A   1      31.526  23.946  27.335  1.00  0.00    -0.273 OA
ATOM     15  N   UNL A   1      33.343  24.332  26.161  1.00  0.00    -0.350 N 
ATOM     16  H   UNL A   1      33.805  24.099  26.999  1.00  0.00     0.163 HD
BRANCH  15  17
ATOM     17  C   UNL A   1      34.232  24.766  25.098  1.00  0.00     0.151 C 
BRANCH  17  18
ATOM     18  C   UNL A   1      35.453  23.874  25.055  1.00  0.00    -0.029 A 
ATOM     19  C   UNL A   1      36.587  24.158  25.833  1.00  0.00     0.008 A 
ATOM     20  C   UNL A   1      35.450  22.702  24.277  1.00  0.00     0.008 A 
ATOM     21  C   UNL A   1      37.651  23.259  25.899  1.00  0.00     0.039 A 
ATOM     22  C   UNL A   1      36.529  21.815  24.322  1.00  0.00     0.039 A 
ATOM     23  C   UNL A   1      37.611  22.093  25.149  1.00  0.00     0.123 A 
ATOM     24  F   UNL A   1      38.630  21.228  25.219  1.00  0.00    -0.207 F 
ENDBRANCH  17  18
ENDBRANCH  15  17
ENDBRANCH  11  13
ENDBRANCH   7  11
ENDBRANCH   3   6
ENDBRANCH   1   2
BRANCH   1  25
ATOM     25  C   UNL A   1      32.885  30.135  26.923  1.00  0.00     0.042 C 
BRANCH  25  26
ATOM     26  C   UNL A   1      34.255  30.559  27.426  1.00  0.00     0.118 C 
BRANCH  26  27
ATOM     27  N   UNL A   1      34.168  31.519  28.544  1.00  0.00    -0.352 N 
ATOM     28  C   UNL A   1      35.038  31.749  29.601  1.00  0.00     0.251 C 
ATOM     29  H   UNL A   1      33.363  32.087  28.538  1.00  0.00     0.163 HD
ATOM     30  O   UNL A   1      34.678  32.347  30.596  1.00  0.00    -0.269 OA
BRANCH  28  31
ATOM     31  C   UNL A   1      36.422  31.260  29.480  1.00  0.00     0.039 A 
ATOM     32  C   UNL A   1      37.542  32.094  29.537  1.00  0.00     0.014 A 
ATOM     33  C   UNL A   1      36.565  29.889  29.373  1.00  0.00     0.014 A 
ATOM     34  C   UNL A   1      38.805  31.502  29.541  1.00  0.00     0.010 A 
ATOM     35  C   UNL A   1      37.746  29.327  29.733  1.00  0.00     0.010 A 
ATOM     36  C   UNL A   1      38.884  30.107  29.641  1.00  0.00    -0.014 A 
BRANCH  36  37
ATOM     37  C   UNL A   1      40.127  29.363  29.712  1.00  0.00     0.031 A 
ATOM     38  C   UNL A   1      40.624  29.156  31.091  1.00  0.00     0.074 A 
ATOM     39  C   UNL A   1      40.573  28.659  28.644  1.00  0.00     0.049 A 
ATOM     40  N   UNL A   1      41.684  29.657  31.631  1.00  0.00    -0.248 NA
ATOM     41  C   UNL A   1      39.751  28.448  32.042  1.00  0.00     0.031 C 
ATOM     42  C   UNL A   1      39.946  28.487  27.323  1.00  0.00     0.029 A 
ATOM     43  N   UNL A   1      41.652  27.840  28.556  1.00  0.00    -0.354 N 
ATOM     44  C   UNL A   1      41.723  29.152  32.927  1.00  0.00     0.074 A 
ATOM     45  C   UNL A   1      40.413  28.620  33.187  1.00  0.00     0.031 C 
ATOM     46  C   UNL A   1      40.524  27.456  26.669  1.00  0.00     0.029 A 
ATOM     47  C   UNL A   1      41.668  27.009  27.437  1.00  0.00     0.049 A 
ATOM     48  H   UNL A   1      42.370  27.834  29.230  1.00  0.00     0.167 HD
ATOM     49  C   UNL A   1      42.911  28.973  33.569  1.00  0.00     0.037 A 
ATOM     50  C   UNL A   1      42.548  26.000  27.213  1.00  0.00     0.037 A 
ATOM     51  C   UNL A   1      43.968  29.669  32.874  1.00  0.00     0.049 A 
ATOM     52  C   UNL A   1      43.714  26.253  28.104  1.00  0.00     0.074 A 
ATOM     53  C   UNL A   1      44.213  30.991  32.563  1.00  0.00     0.029 A 
ATOM     54  N   UNL A   1      44.762  28.930  32.029  1.00  0.00    -0.354 N 
ATOM     55  N   UNL A   1      44.507  27.284  27.981  1.00  0.00    -0.248 NA
ATOM     56  C   UNL A   1      43.684  25.637  29.422  1.00  0.00     0.031 C 
ATOM     57  C   UNL A   1      44.750  30.963  31.243  1.00  0.00     0.029 A 
ATOM     58  C   UNL A   1      44.886  29.627  30.858  1.00  0.00     0.049 A 
ATOM     59  H   UNL A   1      45.168  28.056  32.231  1.00  0.00     0.167 HD
ATOM     60  C   UNL A   1      44.752  27.699  29.282  1.00  0.00     0.074 A 
ATOM     61  C   UNL A   1      44.263  26.612  30.129  1.00  0.00     0.031 C 
ATOM     62  C   UNL A   1      45.043  29.003  29.563  1.00  0.00     0.037 A 
BRANCH  49  63
ATOM     63  C   UNL A   1      43.211  27.879  34.569  1.00  0.00     0.064 A 
ATOM     64  C   UNL A   1      43.501  26.538  34.237  1.00  0.00     0.173 A 
ATOM     65  C   UNL A   1      43.515  28.247  35.897  1.00  0.00     0.173 A 
ATOM     66  F   UNL A   1      43.337  26.047  33.005  1.00  0.00    -0.203 F 
ATOM     67  C   UNL A   1      44.088  25.653  35.142  1.00  0.00     0.198 A 
ATOM     68  C   UNL A   1      44.153  27.376  36.782  1.00  0.00     0.198 A 
ATOM     69  F   UNL A   1      43.284  29.495  36.332  1.00  0.00    -0.203 F 
ATOM     70  F   UNL A   1      44.376  24.405  34.747  1.00  0.00    -0.200 F 
ATOM     71  C   UNL A   1      44.448  26.081  36.401  1.00  0.00     0.200 A 
ATOM     72  F   UNL A   1      44.544  27.819  37.985  1.00  0.00    -0.200 F 
ATOM     73  F   UNL A   1      45.116  25.263  37.222  1.00  0.00    -0.200 F 
ENDBRANCH  49  63
BRANCH  50  74
ATOM     74  C   UNL A   1      42.293  24.669  26.604  1.00  0.00     0.064 A 
ATOM     75  C   UNL A   1      41.413  23.745  27.203  1.00  0.00     0.173 A 
ATOM     76  C   UNL A   1      43.131  24.162  25.595  1.00  0.00     0.173 A 
ATOM     77  F   UNL A   1      40.623  24.111  28.222  1.00  0.00    -0.203 F 
ATOM     78  C   UNL A   1      41.400  22.395  26.842  1.00  0.00     0.198 A 
ATOM     79  C   UNL A   1      43.118  22.808  25.237  1.00  0.00     0.198 A 
ATOM     80  F   UNL A   1      44.027  24.964  25.001  1.00  0.00    -0.203 F 
ATOM     81  F   UNL A   1      40.594  21.542  27.490  1.00  0.00    -0.200 F 
ATOM     82  C   UNL A   1      42.262  21.924  25.871  1.00  0.00     0.200 A 
ATOM     83  F   UNL A   1      43.981  22.351  24.319  1.00  0.00    -0.200 F 
ATOM     84  F   UNL A   1      42.299  20.615  25.579  1.00  0.00    -0.200 F 
ENDBRANCH  50  74
BRANCH  62  85
ATOM     85  C   UNL A   1      45.328  29.939  28.421  1.00  0.00     0.064 A 
ATOM     86  C   UNL A   1      46.670  30.191  28.108  1.00  0.00     0.173 A 
ATOM     87  C   UNL A   1      44.358  30.754  27.810  1.00  0.00     0.173 A 
ATOM     88  F   UNL A   1      47.639  29.475  28.698  1.00  0.00    -0.203 F 
ATOM     89  C   UNL A   1      47.030  31.232  27.257  1.00  0.00     0.198 A 
ATOM     90  C   UNL A   1      44.720  31.774  26.932  1.00  0.00     0.198 A 
ATOM     91  F   UNL A   1      43.062  30.629  28.116  1.00  0.00    -0.203 F 
ATOM     92  F   UNL A   1      48.326  31.500  27.047  1.00  0.00    -0.200 F 
ATOM     93  C   UNL A   1      46.056  32.024  26.671  1.00  0.00     0.200 A 
ATOM     94  F   UNL A   1      43.777  32.554  26.380  1.00  0.00    -0.200 F 
ATOM     95  F   UNL A   1      46.409  33.048  25.881  1.00  0.00    -0.200 F 
ENDBRANCH  62  85
ENDBRANCH  36  37
ENDBRANCH  28  31
ENDBRANCH  26  27
ENDBRANCH  25  26
ENDBRANCH   1  25
TORSDOF 14
ENDMDL
