MODEL 1
REMARK VINA RESULT:     -13.4      0.000      0.000
REMARK SMILES Cc1cc(C(=O)NCCCNC(=O)c2ccc(-c3c4nc(c(-c5c(F)c(F)c(F)c(F)c5F)c5ccc([nH]5)c(-c5c(F)c(F)c(F)c(F)c5F)c5nc(c(-c6c(F)c(F)c(F)c(F)c6F)c6ccc3[nH]6)C=C5)C=C4)cc2)c([N+](=O)[O-])cc1[N+](=O)[O-]
REMARK SMILES IDX 9 1 8 2 7 3 5 4 6 5 4 7 1 8 2 9 3 10 82 11 81 12 77 13 83 14
REMARK SMILES IDX 84 15 85 16 78 17 79 18 80 19 10 20 11 21 12 22 13 24 14 25
REMARK SMILES IDX 15 26 76 27 16 28 75 29 17 30 18 31 19 32 69 33 20 34 74 35
REMARK SMILES IDX 68 36 70 37 21 38 73 39 67 40 66 41 22 43 54 44 34 45 53 46
REMARK SMILES IDX 35 47 38 48 52 49 71 50 36 51 37 52 51 54 72 55 39 56 23 57
REMARK SMILES IDX 24 58 32 59 25 60 26 61 30 62 33 63 27 64 28 65 31 66 29 67
REMARK SMILES IDX 55 68 56 69 64 70 57 71 58 72 62 73 65 74 59 75 60 76 63 77
REMARK SMILES IDX 61 78 40 79 41 80 49 81 42 82 43 83 47 84 50 85 44 86 45 87
REMARK SMILES IDX 48 88 46 89
REMARK H PARENT 7 6 11 23 70 42 38 53
REMARK Flexibility Score: inf
ROOT
ATOM      1  C   UNL A   1      39.100  21.452  25.756  1.00  0.00     0.042 C 
ENDROOT
BRANCH   1   2
ATOM      2  C   UNL A   1      37.637  21.209  25.381  1.00  0.00     0.118 C 
BRANCH   2   3
ATOM      3  N   UNL A   1      37.263  22.024  24.232  1.00  0.00    -0.352 N 
ATOM      4  C   UNL A   1      36.180  22.765  23.846  1.00  0.00     0.258 C 
ATOM      5  O   UNL A   1      36.280  23.272  22.723  1.00  0.00    -0.269 OA
ATOM      6  H   UNL A   1      37.977  22.047  23.555  1.00  0.00     0.163 HD
BRANCH   4   7
ATOM      7  C   UNL A   1      34.948  23.093  24.631  1.00  0.00     0.118 A 
ATOM      8  C   UNL A   1      33.655  26.518  25.750  1.00  0.00     0.052 C 
ATOM      9  C   UNL A   1      33.693  25.018  25.627  1.00  0.00     0.028 A 
ATOM     10  C   UNL A   1      34.830  24.462  24.984  1.00  0.00     0.031 A 
ATOM     11  C   UNL A   1      32.681  24.144  26.044  1.00  0.00     0.279 A 
ATOM     12  C   UNL A   1      32.762  22.788  25.723  1.00  0.00     0.172 A 
ATOM     13  C   UNL A   1      33.857  22.303  24.979  1.00  0.00     0.289 A 
BRANCH  11  14
ATOM     14  N   UNL A   1      31.477  24.584  26.762  1.00  0.00     0.063 N 
ATOM     15  O   UNL A   1      30.760  23.699  27.251  1.00  0.00    -0.258 OA
ATOM     16  O   UNL A   1      31.277  25.798  26.877  1.00  0.00    -0.258 OA
ENDBRANCH  11  14
BRANCH  13  17
ATOM     17  N   UNL A   1      33.611  21.018  24.403  1.00  0.00     0.063 N 
ATOM     18  O   UNL A   1      34.295  20.081  24.829  1.00  0.00    -0.258 OA
ATOM     19  O   UNL A   1      32.824  20.979  23.449  1.00  0.00    -0.258 OA
ENDBRANCH  13  17
ENDBRANCH   4   7
ENDBRANCH   2   3
ENDBRANCH   1   2
BRANCH   1  20
ATOM     20  C   UNL A   1      39.399  22.741  26.499  1.00  0.00     0.118 C 
BRANCH  20  21
ATOM     21  N   UNL A   1      40.815  23.117  26.447  1.00  0.00    -0.352 N 
ATOM     22  C   UNL A   1      41.364  24.384  26.535  1.00  0.00     0.251 C 
ATOM     23  H   UNL A   1      41.455  22.377  26.334  1.00  0.00     0.163 HD
ATOM     24  O   UNL A   1      42.574  24.571  26.524  1.00  0.00    -0.269 OA
BRANCH  22  25
ATOM     25  C   UNL A   1      40.428  25.501  26.771  1.00  0.00     0.039 A 
ATOM     26  C   UNL A   1      40.778  26.736  26.224  1.00  0.00     0.014 A 
ATOM     27  C   UNL A   1      39.530  25.401  27.830  1.00  0.00     0.014 A 
ATOM     28  C   UNL A   1      40.449  27.890  26.923  1.00  0.00     0.010 A 
ATOM     29  C   UNL A   1      39.289  26.538  28.576  1.00  0.00     0.010 A 
ATOM     30  C   UNL A   1      39.819  27.769  28.163  1.00  0.00    -0.014 A 
BRANCH  30  31
ATOM     31  C   UNL A   1      39.757  28.870  29.118  1.00  0.00     0.031 A 
ATOM     32  C   UNL A   1      38.732  29.918  28.956  1.00  0.00     0.074 A 
ATOM     33  C   UNL A   1      40.627  28.957  30.150  1.00  0.00     0.049 A 
ATOM     34  N   UNL A   1      38.875  31.135  29.360  1.00  0.00    -0.248 NA
ATOM     35  C   UNL A   1      37.469  29.677  28.276  1.00  0.00     0.031 C 
ATOM     36  C   UNL A   1      40.567  29.893  31.273  1.00  0.00     0.029 A 
ATOM     37  N   UNL A   1      41.884  28.342  30.282  1.00  0.00    -0.354 N 
ATOM     38  C   UNL A   1      37.662  31.766  29.230  1.00  0.00     0.074 A 
ATOM     39  C   UNL A   1      36.834  30.830  28.500  1.00  0.00     0.031 C 
ATOM     40  C   UNL A   1      41.801  30.046  31.775  1.00  0.00     0.029 A 
ATOM     41  C   UNL A   1      42.710  29.295  30.933  1.00  0.00     0.049 A 
ATOM     42  H   UNL A   1      42.137  27.439  29.985  1.00  0.00     0.167 HD
ATOM     43  C   UNL A   1      37.458  32.962  29.852  1.00  0.00     0.037 A 
ATOM     44  C   UNL A   1      43.834  29.784  30.333  1.00  0.00     0.037 A 
ATOM     45  C   UNL A   1      38.662  33.433  30.538  1.00  0.00     0.049 A 
ATOM     46  C   UNL A   1      43.809  31.273  30.071  1.00  0.00     0.074 A 
ATOM     47  C   UNL A   1      39.097  33.418  31.853  1.00  0.00     0.029 A 
ATOM     48  N   UNL A   1      39.770  33.773  29.781  1.00  0.00    -0.354 N 
ATOM     49  N   UNL A   1      42.830  32.069  30.400  1.00  0.00    -0.248 NA
ATOM     50  C   UNL A   1      44.846  31.956  29.295  1.00  0.00     0.031 C 
ATOM     51  C   UNL A   1      40.476  33.776  31.875  1.00  0.00     0.029 A 
ATOM     52  C   UNL A   1      40.879  34.005  30.574  1.00  0.00     0.049 A 
ATOM     53  H   UNL A   1      39.769  33.841  28.799  1.00  0.00     0.167 HD
ATOM     54  C   UNL A   1      43.045  33.303  29.843  1.00  0.00     0.074 A 
ATOM     55  C   UNL A   1      44.317  33.182  29.158  1.00  0.00     0.031 C 
ATOM     56  C   UNL A   1      42.143  34.325  29.933  1.00  0.00     0.037 A 
BRANCH  43  57
ATOM     57  C   UNL A   1      36.091  33.580  30.040  1.00  0.00     0.064 A 
ATOM     58  C   UNL A   1      35.358  34.066  28.938  1.00  0.00     0.173 A 
ATOM     59  C   UNL A   1      35.470  33.771  31.289  1.00  0.00     0.173 A 
ATOM     60  F   UNL A   1      35.753  33.841  27.679  1.00  0.00    -0.203 F 
ATOM     61  C   UNL A   1      34.184  34.810  29.087  1.00  0.00     0.198 A 
ATOM     62  C   UNL A   1      34.334  34.572  31.447  1.00  0.00     0.198 A 
ATOM     63  F   UNL A   1      35.907  33.140  32.387  1.00  0.00    -0.203 F 
ATOM     64  F   UNL A   1      33.535  35.252  28.002  1.00  0.00    -0.200 F 
ATOM     65  C   UNL A   1      33.699  35.106  30.345  1.00  0.00     0.200 A 
ATOM     66  F   UNL A   1      33.861  34.821  32.677  1.00  0.00    -0.200 F 
ATOM     67  F   UNL A   1      32.610  35.870  30.492  1.00  0.00    -0.200 F 
ENDBRANCH  43  57
BRANCH  44  68
ATOM     68  C   UNL A   1      44.490  28.767  29.471  1.00  0.00     0.064 A 
ATOM     69  C   UNL A   1      44.258  28.841  28.083  1.00  0.00     0.173 A 
ATOM     70  C   UNL A   1      45.618  28.066  29.906  1.00  0.00     0.173 A 
ATOM     71  F   UNL A   1      43.178  29.490  27.616  1.00  0.00    -0.203 F 
ATOM     72  C   UNL A   1      45.210  28.395  27.172  1.00  0.00     0.198 A 
ATOM     73  C   UNL A   1      46.551  27.585  28.988  1.00  0.00     0.198 A 
ATOM     74  F   UNL A   1      45.894  27.964  31.215  1.00  0.00    -0.203 F 
ATOM     75  F   UNL A   1      45.046  28.637  25.864  1.00  0.00    -0.200 F 
ATOM     76  C   UNL A   1      46.373  27.800  27.629  1.00  0.00     0.200 A 
ATOM     77  F   UNL A   1      47.676  27.007  29.430  1.00  0.00    -0.200 F 
ATOM     78  F   UNL A   1      47.345  27.482  26.763  1.00  0.00    -0.200 F 
ENDBRANCH  44  68
BRANCH  56  79
ATOM     79  C   UNL A   1      42.391  35.704  29.382  1.00  0.00     0.064 A 
ATOM     80  C   UNL A   1      41.868  36.128  28.148  1.00  0.00     0.173 A 
ATOM     81  C   UNL A   1      43.249  36.620  30.029  1.00  0.00     0.173 A 
ATOM     82  F   UNL A   1      41.131  35.302  27.392  1.00  0.00    -0.203 F 
ATOM     83  C   UNL A   1      42.108  37.410  27.645  1.00  0.00     0.198 A 
ATOM     84  C   UNL A   1      43.533  37.877  29.498  1.00  0.00     0.198 A 
ATOM     85  F   UNL A   1      43.823  36.334  31.206  1.00  0.00    -0.203 F 
ATOM     86  F   UNL A   1      41.526  37.794  26.502  1.00  0.00    -0.200 F 
ATOM     87  C   UNL A   1      42.943  38.282  28.318  1.00  0.00     0.200 A 
ATOM     88  F   UNL A   1      44.374  38.697  30.144  1.00  0.00    -0.200 F 
ATOM     89  F   UNL A   1      43.183  39.506  27.829  1.00  0.00    -0.200 F 
ENDBRANCH  56  79
ENDBRANCH  30  31
ENDBRANCH  22  25
ENDBRANCH  20  21
ENDBRANCH   1  20
TORSDOF 12
ENDMDL
MODEL 2
REMARK VINA RESULT:     -13.4      4.065     10.255
REMARK SMILES Cc1cc(C(=O)NCCCNC(=O)c2ccc(-c3c4nc(c(-c5c(F)c(F)c(F)c(F)c5F)c5ccc([nH]5)c(-c5c(F)c(F)c(F)c(F)c5F)c5nc(c(-c6c(F)c(F)c(F)c(F)c6F)c6ccc3[nH]6)C=C5)C=C4)cc2)c([N+](=O)[O-])cc1[N+](=O)[O-]
REMARK SMILES IDX 9 1 8 2 7 3 5 4 6 5 4 7 1 8 2 9 3 10 82 11 81 12 77 13 83 14
REMARK SMILES IDX 84 15 85 16 78 17 79 18 80 19 10 20 11 21 12 22 13 24 14 25
REMARK SMILES IDX 15 26 76 27 16 28 75 29 17 30 18 31 19 32 69 33 20 34 74 35
REMARK SMILES IDX 68 36 70 37 21 38 73 39 67 40 66 41 22 43 54 44 34 45 53 46
REMARK SMILES IDX 35 47 38 48 52 49 71 50 36 51 37 52 51 54 72 55 39 56 23 57
REMARK SMILES IDX 24 58 32 59 25 60 26 61 30 62 33 63 27 64 28 65 31 66 29 67
REMARK SMILES IDX 55 68 56 69 64 70 57 71 58 72 62 73 65 74 59 75 60 76 63 77
REMARK SMILES IDX 61 78 40 79 41 80 49 81 42 82 43 83 47 84 50 85 44 86 45 87
REMARK SMILES IDX 48 88 46 89
REMARK H PARENT 7 6 11 23 70 42 38 53
REMARK Flexibility Score: inf
ROOT
ATOM      1  C   UNL A   1      33.028  31.193  27.246  1.00  0.00     0.042 C 
ENDROOT
BRANCH   1   2
ATOM      2  C   UNL A   1      32.230  30.377  26.227  1.00  0.00     0.118 C 
BRANCH   2   3
ATOM      3  N   UNL A   1      31.739  29.145  26.831  1.00  0.00    -0.352 N 
ATOM      4  C   UNL A   1      31.507  27.860  26.424  1.00  0.00     0.258 C 
ATOM      5  O   UNL A   1      31.024  27.126  27.295  1.00  0.00    -0.269 OA
ATOM      6  H   UNL A   1      31.516  29.270  27.781  1.00  0.00     0.163 HD
BRANCH   4   7
ATOM      7  C   UNL A   1      31.831  27.227  25.106  1.00  0.00     0.118 A 
ATOM      8  C   UNL A   1      34.615  24.740  24.256  1.00  0.00     0.052 C 
ATOM      9  C   UNL A   1      33.448  25.661  24.010  1.00  0.00     0.028 A 
ATOM     10  C   UNL A   1      33.012  26.442  25.112  1.00  0.00     0.031 A 
ATOM     11  C   UNL A   1      32.736  25.763  22.809  1.00  0.00     0.279 A 
ATOM     12  C   UNL A   1      31.571  26.531  22.759  1.00  0.00     0.172 A 
ATOM     13  C   UNL A   1      31.113  27.195  23.915  1.00  0.00     0.289 A 
BRANCH  11  14
ATOM     14  N   UNL A   1      33.110  25.047  21.582  1.00  0.00     0.063 N 
ATOM     15  O   UNL A   1      33.258  23.819  21.672  1.00  0.00    -0.258 OA
ATOM     16  O   UNL A   1      33.208  25.695  20.534  1.00  0.00    -0.258 OA
ENDBRANCH  11  14
BRANCH  13  17
ATOM     17  N   UNL A   1      29.745  27.597  23.820  1.00  0.00     0.063 N 
ATOM     18  O   UNL A   1      28.896  26.721  24.018  1.00  0.00    -0.258 OA
ATOM     19  O   UNL A   1      29.532  28.753  23.433  1.00  0.00    -0.258 OA
ENDBRANCH  13  17
ENDBRANCH   4   7
ENDBRANCH   2   3
ENDBRANCH   1   2
BRANCH   1  20
ATOM     20  C   UNL A   1      34.152  30.464  27.958  1.00  0.00     0.118 C 
BRANCH  20  21
ATOM     21  N   UNL A   1      34.896  31.324  28.885  1.00  0.00    -0.352 N 
ATOM     22  C   UNL A   1      36.063  31.032  29.567  1.00  0.00     0.251 C 
ATOM     23  H   UNL A   1      34.517  32.220  29.040  1.00  0.00     0.163 HD
ATOM     24  O   UNL A   1      36.620  31.854  30.283  1.00  0.00    -0.269 OA
BRANCH  22  25
ATOM     25  C   UNL A   1      36.684  29.721  29.296  1.00  0.00     0.039 A 
ATOM     26  C   UNL A   1      37.198  29.033  30.396  1.00  0.00     0.014 A 
ATOM     27  C   UNL A   1      37.107  29.443  27.999  1.00  0.00     0.014 A 
ATOM     28  C   UNL A   1      38.345  28.268  30.224  1.00  0.00     0.010 A 
ATOM     29  C   UNL A   1      38.301  28.765  27.846  1.00  0.00     0.010 A 
ATOM     30  C   UNL A   1      38.960  28.248  28.971  1.00  0.00    -0.014 A 
BRANCH  30  31
ATOM     31  C   UNL A   1      40.328  27.782  28.780  1.00  0.00     0.031 A 
ATOM     32  C   UNL A   1      40.575  26.369  28.435  1.00  0.00     0.074 A 
ATOM     33  C   UNL A   1      41.383  28.617  28.920  1.00  0.00     0.049 A 
ATOM     34  N   UNL A   1      41.654  25.731  28.741  1.00  0.00    -0.248 NA
ATOM     35  C   UNL A   1      39.589  25.548  27.750  1.00  0.00     0.031 C 
ATOM     36  C   UNL A   1      42.778  28.333  28.584  1.00  0.00     0.029 A 
ATOM     37  N   UNL A   1      41.436  29.842  29.606  1.00  0.00    -0.354 N 
ATOM     38  C   UNL A   1      41.623  24.520  28.092  1.00  0.00     0.074 A 
ATOM     39  C   UNL A   1      40.291  24.434  27.532  1.00  0.00     0.031 C 
ATOM     40  C   UNL A   1      43.570  29.133  29.313  1.00  0.00     0.029 A 
ATOM     41  C   UNL A   1      42.719  29.886  30.213  1.00  0.00     0.049 A 
ATOM     42  H   UNL A   1      40.731  30.527  29.655  1.00  0.00     0.167 HD
ATOM     43  C   UNL A   1      42.763  23.776  28.005  1.00  0.00     0.037 A 
ATOM     44  C   UNL A   1      42.859  29.963  31.568  1.00  0.00     0.037 A 
ATOM     45  C   UNL A   1      43.877  24.400  28.719  1.00  0.00     0.049 A 
ATOM     46  C   UNL A   1      43.558  28.779  32.197  1.00  0.00     0.074 A 
ATOM     47  C   UNL A   1      44.970  25.162  28.337  1.00  0.00     0.029 A 
ATOM     48  N   UNL A   1      43.804  24.516  30.097  1.00  0.00    -0.354 N 
ATOM     49  N   UNL A   1      44.033  27.760  31.536  1.00  0.00    -0.248 NA
ATOM     50  C   UNL A   1      43.660  28.600  33.647  1.00  0.00     0.031 C 
ATOM     51  C   UNL A   1      45.563  25.717  29.507  1.00  0.00     0.029 A 
ATOM     52  C   UNL A   1      44.829  25.296  30.600  1.00  0.00     0.049 A 
ATOM     53  H   UNL A   1      43.107  24.095  30.651  1.00  0.00     0.167 HD
ATOM     54  C   UNL A   1      44.420  26.788  32.422  1.00  0.00     0.074 A 
ATOM     55  C   UNL A   1      44.163  27.359  33.730  1.00  0.00     0.031 C 
ATOM     56  C   UNL A   1      44.872  25.561  32.028  1.00  0.00     0.037 A 
BRANCH  43  57
ATOM     57  C   UNL A   1      42.923  22.606  27.062  1.00  0.00     0.064 A 
ATOM     58  C   UNL A   1      42.215  21.404  27.272  1.00  0.00     0.173 A 
ATOM     59  C   UNL A   1      43.799  22.586  25.960  1.00  0.00     0.173 A 
ATOM     60  F   UNL A   1      41.250  21.311  28.195  1.00  0.00    -0.203 F 
ATOM     61  C   UNL A   1      42.475  20.243  26.539  1.00  0.00     0.198 A 
ATOM     62  C   UNL A   1      44.111  21.409  25.271  1.00  0.00     0.198 A 
ATOM     63  F   UNL A   1      44.335  23.715  25.477  1.00  0.00    -0.203 F 
ATOM     64  F   UNL A   1      41.776  19.128  26.791  1.00  0.00    -0.200 F 
ATOM     65  C   UNL A   1      43.459  20.232  25.572  1.00  0.00     0.200 A 
ATOM     66  F   UNL A   1      45.048  21.429  24.313  1.00  0.00    -0.200 F 
ATOM     67  F   UNL A   1      43.753  19.105  24.912  1.00  0.00    -0.200 F 
ENDBRANCH  43  57
BRANCH  44  68
ATOM     68  C   UNL A   1      41.765  30.751  32.195  1.00  0.00     0.064 A 
ATOM     69  C   UNL A   1      41.795  32.150  32.034  1.00  0.00     0.173 A 
ATOM     70  C   UNL A   1      40.543  30.159  32.527  1.00  0.00     0.173 A 
ATOM     71  F   UNL A   1      42.948  32.768  31.731  1.00  0.00    -0.203 F 
ATOM     72  C   UNL A   1      40.620  32.896  32.023  1.00  0.00     0.198 A 
ATOM     73  C   UNL A   1      39.373  30.917  32.554  1.00  0.00     0.198 A 
ATOM     74  F   UNL A   1      40.452  28.830  32.690  1.00  0.00    -0.203 F 
ATOM     75  F   UNL A   1      40.657  34.194  31.692  1.00  0.00    -0.200 F 
ATOM     76  C   UNL A   1      39.406  32.270  32.247  1.00  0.00     0.200 A 
ATOM     77  F   UNL A   1      38.198  30.311  32.773  1.00  0.00    -0.200 F 
ATOM     78  F   UNL A   1      38.265  32.959  32.115  1.00  0.00    -0.200 F 
ENDBRANCH  44  68
BRANCH  56  79
ATOM     79  C   UNL A   1      45.359  24.507  32.985  1.00  0.00     0.064 A 
ATOM     80  C   UNL A   1      44.560  23.420  33.380  1.00  0.00     0.173 A 
ATOM     81  C   UNL A   1      46.617  24.603  33.619  1.00  0.00     0.173 A 
ATOM     82  F   UNL A   1      43.305  23.288  32.929  1.00  0.00    -0.203 F 
ATOM     83  C   UNL A   1      45.022  22.449  34.273  1.00  0.00     0.198 A 
ATOM     84  C   UNL A   1      47.054  23.664  34.552  1.00  0.00     0.198 A 
ATOM     85  F   UNL A   1      47.470  25.598  33.340  1.00  0.00    -0.203 F 
ATOM     86  F   UNL A   1      44.251  21.392  34.561  1.00  0.00    -0.200 F 
ATOM     87  C   UNL A   1      46.267  22.573  34.861  1.00  0.00     0.200 A 
ATOM     88  F   UNL A   1      48.248  23.819  35.141  1.00  0.00    -0.200 F 
ATOM     89  F   UNL A   1      46.704  21.649  35.726  1.00  0.00    -0.200 F 
ENDBRANCH  56  79
ENDBRANCH  30  31
ENDBRANCH  22  25
ENDBRANCH  20  21
ENDBRANCH   1  20
TORSDOF 12
ENDMDL
MODEL 3
REMARK VINA RESULT:     -13.3      4.001     10.119
REMARK SMILES Cc1cc(C(=O)NCCCNC(=O)c2ccc(-c3c4nc(c(-c5c(F)c(F)c(F)c(F)c5F)c5ccc([nH]5)c(-c5c(F)c(F)c(F)c(F)c5F)c5nc(c(-c6c(F)c(F)c(F)c(F)c6F)c6ccc3[nH]6)C=C5)C=C4)cc2)c([N+](=O)[O-])cc1[N+](=O)[O-]
REMARK SMILES IDX 9 1 8 2 7 3 5 4 6 5 4 7 1 8 2 9 3 10 82 11 81 12 77 13 83 14
REMARK SMILES IDX 84 15 85 16 78 17 79 18 80 19 10 20 11 21 12 22 13 24 14 25
REMARK SMILES IDX 15 26 76 27 16 28 75 29 17 30 18 31 19 32 69 33 20 34 74 35
REMARK SMILES IDX 68 36 70 37 21 38 73 39 67 40 66 41 22 43 54 44 34 45 53 46
REMARK SMILES IDX 35 47 38 48 52 49 71 50 36 51 37 52 51 54 72 55 39 56 23 57
REMARK SMILES IDX 24 58 32 59 25 60 26 61 30 62 33 63 27 64 28 65 31 66 29 67
REMARK SMILES IDX 55 68 56 69 64 70 57 71 58 72 62 73 65 74 59 75 60 76 63 77
REMARK SMILES IDX 61 78 40 79 41 80 49 81 42 82 43 83 47 84 50 85 44 86 45 87
REMARK SMILES IDX 48 88 46 89
REMARK H PARENT 7 6 11 23 70 42 38 53
REMARK Flexibility Score: inf
ROOT
ATOM      1  C   UNL A   1      33.792  30.736  27.621  1.00  0.00     0.042 C 
ENDROOT
BRANCH   1   2
ATOM      2  C   UNL A   1      33.873  29.246  27.283  1.00  0.00     0.118 C 
BRANCH   2   3
ATOM      3  N   UNL A   1      33.710  29.038  25.850  1.00  0.00    -0.352 N 
ATOM      4  C   UNL A   1      33.546  27.971  25.010  1.00  0.00     0.258 C 
ATOM      5  O   UNL A   1      33.494  28.267  23.810  1.00  0.00    -0.269 OA
ATOM      6  H   UNL A   1      33.722  29.889  25.356  1.00  0.00     0.163 HD
BRANCH   4   7
ATOM      7  C   UNL A   1      33.349  26.529  25.363  1.00  0.00     0.118 A 
ATOM      8  C   UNL A   1      35.980  23.791  25.846  1.00  0.00     0.052 C 
ATOM      9  C   UNL A   1      34.606  24.399  25.750  1.00  0.00     0.028 A 
ATOM     10  C   UNL A   1      34.537  25.756  25.341  1.00  0.00     0.031 A 
ATOM     11  C   UNL A   1      33.408  23.751  26.081  1.00  0.00     0.279 A 
ATOM     12  C   UNL A   1      32.215  24.475  26.108  1.00  0.00     0.172 A 
ATOM     13  C   UNL A   1      32.218  25.851  25.807  1.00  0.00     0.289 A 
BRANCH  11  14
ATOM     14  N   UNL A   1      33.335  22.337  26.473  1.00  0.00     0.063 N 
ATOM     15  O   UNL A   1      33.386  21.498  25.561  1.00  0.00    -0.258 OA
ATOM     16  O   UNL A   1      33.274  22.067  27.677  1.00  0.00    -0.258 OA
ENDBRANCH  11  14
BRANCH  13  17
ATOM     17  N   UNL A   1      31.034  26.520  26.251  1.00  0.00     0.063 N 
ATOM     18  O   UNL A   1      31.106  27.108  27.336  1.00  0.00    -0.258 OA
ATOM     19  O   UNL A   1      30.014  26.352  25.572  1.00  0.00    -0.258 OA
ENDBRANCH  13  17
ENDBRANCH   4   7
ENDBRANCH   2   3
ENDBRANCH   1   2
BRANCH   1  20
ATOM     20  C   UNL A   1      35.103  31.500  27.612  1.00  0.00     0.118 C 
BRANCH  20  21
ATOM     21  N   UNL A   1      35.542  31.901  28.952  1.00  0.00    -0.352 N 
ATOM     22  C   UNL A   1      36.368  31.211  29.820  1.00  0.00     0.251 C 
ATOM     23  H   UNL A   1      35.206  32.769  29.274  1.00  0.00     0.163 HD
ATOM     24  O   UNL A   1      36.703  31.673  30.904  1.00  0.00    -0.269 OA
BRANCH  22  25
ATOM     25  C   UNL A   1      36.937  29.940  29.331  1.00  0.00     0.039 A 
ATOM     26  C   UNL A   1      37.303  29.005  30.300  1.00  0.00     0.014 A 
ATOM     27  C   UNL A   1      37.466  29.902  28.044  1.00  0.00     0.014 A 
ATOM     28  C   UNL A   1      38.415  28.206  30.066  1.00  0.00     0.010 A 
ATOM     29  C   UNL A   1      38.628  29.181  27.850  1.00  0.00     0.010 A 
ATOM     30  C   UNL A   1      39.145  28.396  28.891  1.00  0.00    -0.014 A 
BRANCH  30  31
ATOM     31  C   UNL A   1      40.497  27.877  28.720  1.00  0.00     0.031 A 
ATOM     32  C   UNL A   1      40.694  26.452  28.392  1.00  0.00     0.074 A 
ATOM     33  C   UNL A   1      41.582  28.674  28.862  1.00  0.00     0.049 A 
ATOM     34  N   UNL A   1      41.745  25.777  28.715  1.00  0.00    -0.248 NA
ATOM     35  C   UNL A   1      39.684  25.662  27.705  1.00  0.00     0.031 C 
ATOM     36  C   UNL A   1      42.968  28.333  28.543  1.00  0.00     0.029 A 
ATOM     37  N   UNL A   1      41.674  29.903  29.536  1.00  0.00    -0.354 N 
ATOM     38  C   UNL A   1      41.674  24.561  28.079  1.00  0.00     0.074 A 
ATOM     39  C   UNL A   1      40.346  24.520  27.506  1.00  0.00     0.031 C 
ATOM     40  C   UNL A   1      43.782  29.111  29.272  1.00  0.00     0.029 A 
ATOM     41  C   UNL A   1      42.951  29.905  30.155  1.00  0.00     0.049 A 
ATOM     42  H   UNL A   1      40.995  30.614  29.570  1.00  0.00     0.167 HD
ATOM     43  C   UNL A   1      42.786  23.774  28.012  1.00  0.00     0.037 A 
ATOM     44  C   UNL A   1      43.081  29.991  31.511  1.00  0.00     0.037 A 
ATOM     45  C   UNL A   1      43.916  24.363  28.731  1.00  0.00     0.049 A 
ATOM     46  C   UNL A   1      43.728  28.788  32.159  1.00  0.00     0.074 A 
ATOM     47  C   UNL A   1      45.040  25.079  28.352  1.00  0.00     0.029 A 
ATOM     48  N   UNL A   1      43.834  24.497  30.106  1.00  0.00    -0.354 N 
ATOM     49  N   UNL A   1      44.171  27.745  31.514  1.00  0.00    -0.248 NA
ATOM     50  C   UNL A   1      43.809  28.621  33.611  1.00  0.00     0.031 C 
ATOM     51  C   UNL A   1      45.642  25.624  29.522  1.00  0.00     0.029 A 
ATOM     52  C   UNL A   1      44.883  25.243  30.611  1.00  0.00     0.049 A 
ATOM     53  H   UNL A   1      43.116  24.108  30.657  1.00  0.00     0.167 HD
ATOM     54  C   UNL A   1      44.512  26.769  32.414  1.00  0.00     0.074 A 
ATOM     55  C   UNL A   1      44.264  27.363  33.713  1.00  0.00     0.031 C 
ATOM     56  C   UNL A   1      44.921  25.522  32.037  1.00  0.00     0.037 A 
BRANCH  43  57
ATOM     57  C   UNL A   1      42.910  22.589  27.082  1.00  0.00     0.064 A 
ATOM     58  C   UNL A   1      42.165  21.412  27.303  1.00  0.00     0.173 A 
ATOM     59  C   UNL A   1      43.789  22.528  25.983  1.00  0.00     0.173 A 
ATOM     60  F   UNL A   1      41.195  21.361  28.225  1.00  0.00    -0.203 F 
ATOM     61  C   UNL A   1      42.389  20.235  26.585  1.00  0.00     0.198 A 
ATOM     62  C   UNL A   1      44.065  21.334  25.309  1.00  0.00     0.198 A 
ATOM     63  F   UNL A   1      44.362  23.633  25.489  1.00  0.00    -0.203 F 
ATOM     64  F   UNL A   1      41.653  19.147  26.847  1.00  0.00    -0.200 F 
ATOM     65  C   UNL A   1      43.375  20.182  25.621  1.00  0.00     0.200 A 
ATOM     66  F   UNL A   1      45.005  21.312  24.353  1.00  0.00    -0.200 F 
ATOM     67  F   UNL A   1      43.634  19.038  24.975  1.00  0.00    -0.200 F 
ENDBRANCH  43  57
BRANCH  44  68
ATOM     68  C   UNL A   1      42.012  30.826  32.118  1.00  0.00     0.064 A 
ATOM     69  C   UNL A   1      40.916  30.160  32.702  1.00  0.00     0.173 A 
ATOM     70  C   UNL A   1      42.256  32.145  32.509  1.00  0.00     0.173 A 
ATOM     71  F   UNL A   1      40.630  28.897  32.346  1.00  0.00    -0.203 F 
ATOM     72  C   UNL A   1      40.216  30.725  33.763  1.00  0.00     0.198 A 
ATOM     73  C   UNL A   1      41.526  32.723  33.547  1.00  0.00     0.198 A 
ATOM     74  F   UNL A   1      43.286  32.830  31.990  1.00  0.00    -0.203 F 
ATOM     75  F   UNL A   1      39.297  30.002  34.417  1.00  0.00    -0.200 F 
ATOM     76  C   UNL A   1      40.548  31.994  34.208  1.00  0.00     0.200 A 
ATOM     77  F   UNL A   1      41.845  33.952  33.976  1.00  0.00    -0.200 F 
ATOM     78  F   UNL A   1      39.961  32.491  35.305  1.00  0.00    -0.200 F 
ENDBRANCH  44  68
BRANCH  56  79
ATOM     79  C   UNL A   1      45.358  24.460  33.010  1.00  0.00     0.064 A 
ATOM     80  C   UNL A   1      44.520  23.399  33.396  1.00  0.00     0.173 A 
ATOM     81  C   UNL A   1      46.605  24.524  33.669  1.00  0.00     0.173 A 
ATOM     82  F   UNL A   1      43.271  23.300  32.920  1.00  0.00    -0.203 F 
ATOM     83  C   UNL A   1      44.936  22.421  34.303  1.00  0.00     0.198 A 
ATOM     84  C   UNL A   1      46.997  23.578  34.616  1.00  0.00     0.198 A 
ATOM     85  F   UNL A   1      47.492  25.492  33.401  1.00  0.00    -0.203 F 
ATOM     86  F   UNL A   1      44.130  21.389  34.582  1.00  0.00    -0.200 F 
ATOM     87  C   UNL A   1      46.172  22.513  34.915  1.00  0.00     0.200 A 
ATOM     88  F   UNL A   1      48.182  23.703  35.228  1.00  0.00    -0.200 F 
ATOM     89  F   UNL A   1      46.565  21.582  35.795  1.00  0.00    -0.200 F 
ENDBRANCH  56  79
ENDBRANCH  30  31
ENDBRANCH  22  25
ENDBRANCH  20  21
ENDBRANCH   1  20
TORSDOF 12
ENDMDL
