MODEL 1
REMARK VINA RESULT:     -12.6      0.000      0.000
REMARK SMILES CCc1n[nH]c(C(=O)N[C@@]2(C(=O)NCCCNC(=O)c3ccc(-c4c5nc(c(-c6c(F)c(F)c(F)c(F)c6F)c6ccc([nH]6)c(-c6c(F)c(F)c(F)c(F)c6F)c6nc(c(-c7c(F)c(F)c(F)c(F)c7F)c7ccc4[nH]7)C=C6)C=C5)cc3)CCCC[C@H]2C)n1
REMARK SMILES IDX 14 1 13 2 11 3 12 4 10 6 83 7 87 8 84 9 86 10 88 11 85 12
REMARK SMILES IDX 9 13 7 14 8 15 6 17 3 18 4 19 89 20 5 21 2 23 1 24 15 25
REMARK SMILES IDX 16 26 17 27 18 28 19 30 20 31 21 32 82 33 22 34 81 35 23 36
REMARK SMILES IDX 24 37 25 38 75 39 26 40 80 41 74 42 76 43 27 44 79 45 73 46
REMARK SMILES IDX 72 47 28 49 60 50 40 51 59 52 41 53 44 54 58 55 77 56 42 57
REMARK SMILES IDX 43 58 57 60 78 61 45 62 29 63 30 64 38 65 31 66 32 67 36 68
REMARK SMILES IDX 39 69 33 70 34 71 37 72 35 73 61 74 62 75 70 76 63 77 64 78
REMARK SMILES IDX 68 79 71 80 65 81 66 82 69 83 67 84 46 85 47 86 55 87 48 88
REMARK SMILES IDX 49 89 53 90 56 91 50 92 51 93 54 94 52 95
REMARK H PARENT 13 5 9 16 5 22 17 29 76 48 44 59
REMARK Flexibility Score: inf
ROOT
ATOM      1  C   UNL A   1      36.603  21.319  24.643  1.00  0.00     0.117 C 
ENDROOT
BRANCH   1   2
ATOM      2  N   UNL A   1      36.005  21.912  25.821  1.00  0.00    -0.354 N 
ATOM      3  C   UNL A   1      34.915  22.705  26.002  1.00  0.00     0.246 C 
ATOM      4  O   UNL A   1      34.720  23.057  27.174  1.00  0.00    -0.272 OA
ATOM      5  H   UNL A   1      36.481  21.698  26.656  1.00  0.00     0.163 HD
BRANCH   3   6
ATOM      6  C   UNL A   1      34.036  23.271  24.833  1.00  0.00     0.122 C 
ATOM      7  C   UNL A   1      34.477  22.810  23.435  1.00  0.00     0.039 C 
ATOM      8  C   UNL A   1      34.132  24.841  24.811  1.00  0.00     0.021 C 
ATOM      9  C   UNL A   1      33.572  23.304  22.321  1.00  0.00     0.003 C 
ATOM     10  C   UNL A   1      33.336  25.447  23.628  1.00  0.00     0.006 C 
ATOM     11  C   UNL A   1      33.721  25.538  26.113  1.00  0.00     0.011 C 
ATOM     12  C   UNL A   1      33.678  24.822  22.275  1.00  0.00     0.000 C 
BRANCH   6  13
ATOM     13  N   UNL A   1      32.635  22.858  25.192  1.00  0.00    -0.335 N 
ATOM     14  C   UNL A   1      31.986  21.670  25.452  1.00  0.00     0.289 C 
ATOM     15  O   UNL A   1      30.803  21.756  25.791  1.00  0.00    -0.266 OA
ATOM     16  H   UNL A   1      32.029  23.632  25.259  1.00  0.00     0.165 HD
BRANCH  14  17
ATOM     17  C   UNL A   1      32.587  20.388  25.186  1.00  0.00     0.214 A 
ATOM     18  C   UNL A   1      33.028  18.510  24.326  1.00  0.00     0.151 A 
ATOM     19  N   UNL A   1      33.029  18.241  25.639  1.00  0.00    -0.158 NA
ATOM     20  N   UNL A   1      32.896  19.843  24.028  1.00  0.00    -0.207 NA
ATOM     21  N   UNL A   1      32.836  19.466  26.164  1.00  0.00    -0.255 N 
ATOM     22  H   UNL A   1      32.871  19.671  27.126  1.00  0.00     0.192 HD
BRANCH  18  23
ATOM     23  C   UNL A   1      32.905  17.431  23.302  1.00  0.00     0.076 C 
ATOM     24  C   UNL A   1      34.138  16.554  23.125  1.00  0.00     0.012 C 
ENDBRANCH  18  23
ENDBRANCH  14  17
ENDBRANCH   6  13
ENDBRANCH   3   6
ENDBRANCH   1   2
BRANCH   1  25
ATOM     25  C   UNL A   1      37.546  20.178  24.964  1.00  0.00     0.042 C 
BRANCH  25  26
ATOM     26  C   UNL A   1      38.771  20.607  25.743  1.00  0.00     0.118 C 
BRANCH  26  27
ATOM     27  N   UNL A   1      39.771  19.550  25.831  1.00  0.00    -0.352 N 
ATOM     28  C   UNL A   1      41.127  19.613  26.053  1.00  0.00     0.251 C 
ATOM     29  H   UNL A   1      39.418  18.639  25.711  1.00  0.00     0.163 HD
ATOM     30  O   UNL A   1      41.822  18.625  25.860  1.00  0.00    -0.269 OA
BRANCH  28  31
ATOM     31  C   UNL A   1      41.750  20.879  26.497  1.00  0.00     0.039 A 
ATOM     32  C   UNL A   1      42.243  21.769  25.539  1.00  0.00     0.014 A 
ATOM     33  C   UNL A   1      41.856  21.190  27.852  1.00  0.00     0.014 A 
ATOM     34  C   UNL A   1      42.763  23.000  25.942  1.00  0.00     0.010 A 
ATOM     35  C   UNL A   1      42.252  22.462  28.244  1.00  0.00     0.010 A 
ATOM     36  C   UNL A   1      42.724  23.378  27.294  1.00  0.00    -0.014 A 
BRANCH  36  37
ATOM     37  C   UNL A   1      43.182  24.716  27.744  1.00  0.00     0.031 A 
ATOM     38  C   UNL A   1      42.175  25.785  28.075  1.00  0.00     0.074 A 
ATOM     39  C   UNL A   1      44.499  24.992  27.779  1.00  0.00     0.049 A 
ATOM     40  N   UNL A   1      42.373  27.036  28.404  1.00  0.00    -0.248 NA
ATOM     41  C   UNL A   1      40.753  25.408  27.990  1.00  0.00     0.031 C 
ATOM     42  C   UNL A   1      45.570  24.058  27.423  1.00  0.00     0.029 A 
ATOM     43  N   UNL A   1      45.165  26.142  28.122  1.00  0.00    -0.354 N 
ATOM     44  C   UNL A   1      41.109  27.593  28.546  1.00  0.00     0.074 A 
ATOM     45  C   UNL A   1      40.150  26.567  28.205  1.00  0.00     0.031 C 
ATOM     46  C   UNL A   1      46.757  24.662  27.594  1.00  0.00     0.029 A 
ATOM     47  C   UNL A   1      46.531  26.037  28.024  1.00  0.00     0.049 A 
ATOM     48  H   UNL A   1      44.707  26.964  28.409  1.00  0.00     0.167 HD
ATOM     49  C   UNL A   1      40.776  28.841  28.953  1.00  0.00     0.037 A 
ATOM     50  C   UNL A   1      47.494  26.953  28.246  1.00  0.00     0.037 A 
ATOM     51  C   UNL A   1      41.736  29.849  29.320  1.00  0.00     0.049 A 
ATOM     52  C   UNL A   1      47.097  28.335  28.693  1.00  0.00     0.074 A 
ATOM     53  C   UNL A   1      41.504  31.120  29.813  1.00  0.00     0.029 A 
ATOM     54  N   UNL A   1      43.112  29.699  29.229  1.00  0.00    -0.354 N 
ATOM     55  N   UNL A   1      45.900  28.826  28.902  1.00  0.00    -0.248 NA
ATOM     56  C   UNL A   1      48.188  29.287  28.941  1.00  0.00     0.031 C 
ATOM     57  C   UNL A   1      42.737  31.762  29.962  1.00  0.00     0.029 A 
ATOM     58  C   UNL A   1      43.741  30.868  29.627  1.00  0.00     0.049 A 
ATOM     59  H   UNL A   1      43.573  28.884  28.926  1.00  0.00     0.167 HD
ATOM     60  C   UNL A   1      46.092  30.131  29.335  1.00  0.00     0.074 A 
ATOM     61  C   UNL A   1      47.523  30.349  29.376  1.00  0.00     0.031 C 
ATOM     62  C   UNL A   1      45.167  31.065  29.668  1.00  0.00     0.037 A 
BRANCH  49  63
ATOM     63  C   UNL A   1      39.317  29.187  29.026  1.00  0.00     0.064 A 
ATOM     64  C   UNL A   1      38.575  29.509  27.878  1.00  0.00     0.173 A 
ATOM     65  C   UNL A   1      38.639  29.156  30.254  1.00  0.00     0.173 A 
ATOM     66  F   UNL A   1      39.175  29.566  26.679  1.00  0.00    -0.203 F 
ATOM     67  C   UNL A   1      37.219  29.816  27.963  1.00  0.00     0.198 A 
ATOM     68  C   UNL A   1      37.276  29.429  30.330  1.00  0.00     0.198 A 
ATOM     69  F   UNL A   1      39.298  28.851  31.383  1.00  0.00    -0.203 F 
ATOM     70  F   UNL A   1      36.545  30.172  26.860  1.00  0.00    -0.200 F 
ATOM     71  C   UNL A   1      36.569  29.765  29.186  1.00  0.00     0.200 A 
ATOM     72  F   UNL A   1      36.646  29.366  31.511  1.00  0.00    -0.200 F 
ATOM     73  F   UNL A   1      35.262  30.050  29.264  1.00  0.00    -0.200 F 
ENDBRANCH  49  63
BRANCH  50  74
ATOM     74  C   UNL A   1      48.925  26.590  28.064  1.00  0.00     0.064 A 
ATOM     75  C   UNL A   1      49.728  26.249  29.162  1.00  0.00     0.173 A 
ATOM     76  C   UNL A   1      49.522  26.585  26.795  1.00  0.00     0.173 A 
ATOM     77  F   UNL A   1      49.209  26.255  30.399  1.00  0.00    -0.203 F 
ATOM     78  C   UNL A   1      51.078  25.945  29.001  1.00  0.00     0.198 A 
ATOM     79  C   UNL A   1      50.863  26.247  26.631  1.00  0.00     0.198 A 
ATOM     80  F   UNL A   1      48.797  26.895  25.710  1.00  0.00    -0.203 F 
ATOM     81  F   UNL A   1      51.834  25.675  30.074  1.00  0.00    -0.200 F 
ATOM     82  C   UNL A   1      51.644  25.939  27.735  1.00  0.00     0.200 A 
ATOM     83  F   UNL A   1      51.401  26.224  25.403  1.00  0.00    -0.200 F 
ATOM     84  F   UNL A   1      52.941  25.642  27.579  1.00  0.00    -0.200 F 
ENDBRANCH  50  74
BRANCH  62  85
ATOM     85  C   UNL A   1      45.675  32.397  30.143  1.00  0.00     0.064 A 
ATOM     86  C   UNL A   1      45.877  33.469  29.262  1.00  0.00     0.173 A 
ATOM     87  C   UNL A   1      45.921  32.613  31.508  1.00  0.00     0.173 A 
ATOM     88  F   UNL A   1      45.670  33.310  27.946  1.00  0.00    -0.203 F 
ATOM     89  C   UNL A   1      46.338  34.699  29.726  1.00  0.00     0.198 A 
ATOM     90  C   UNL A   1      46.345  33.855  31.973  1.00  0.00     0.198 A 
ATOM     91  F   UNL A   1      45.734  31.624  32.396  1.00  0.00    -0.203 F 
ATOM     92  F   UNL A   1      46.577  35.692  28.858  1.00  0.00    -0.200 F 
ATOM     93  C   UNL A   1      46.563  34.894  31.080  1.00  0.00     0.200 A 
ATOM     94  F   UNL A   1      46.544  34.045  33.284  1.00  0.00    -0.200 F 
ATOM     95  F   UNL A   1      46.996  36.081  31.525  1.00  0.00    -0.200 F 
ENDBRANCH  62  85
ENDBRANCH  36  37
ENDBRANCH  28  31
ENDBRANCH  26  27
ENDBRANCH  25  26
ENDBRANCH   1  25
TORSDOF 13
ENDMDL
MODEL 2
REMARK VINA RESULT:     -12.5      5.569     10.519
REMARK SMILES CCc1n[nH]c(C(=O)N[C@@]2(C(=O)NCCCNC(=O)c3ccc(-c4c5nc(c(-c6c(F)c(F)c(F)c(F)c6F)c6ccc([nH]6)c(-c6c(F)c(F)c(F)c(F)c6F)c6nc(c(-c7c(F)c(F)c(F)c(F)c7F)c7ccc4[nH]7)C=C6)C=C5)cc3)CCCC[C@H]2C)n1
REMARK SMILES IDX 14 1 13 2 11 3 12 4 10 6 83 7 87 8 84 9 86 10 88 11 85 12
REMARK SMILES IDX 9 13 7 14 8 15 6 17 3 18 4 19 89 20 5 21 2 23 1 24 15 25
REMARK SMILES IDX 16 26 17 27 18 28 19 30 20 31 21 32 82 33 22 34 81 35 23 36
REMARK SMILES IDX 24 37 25 38 75 39 26 40 80 41 74 42 76 43 27 44 79 45 73 46
REMARK SMILES IDX 72 47 28 49 60 50 40 51 59 52 41 53 44 54 58 55 77 56 42 57
REMARK SMILES IDX 43 58 57 60 78 61 45 62 29 63 30 64 38 65 31 66 32 67 36 68
REMARK SMILES IDX 39 69 33 70 34 71 37 72 35 73 61 74 62 75 70 76 63 77 64 78
REMARK SMILES IDX 68 79 71 80 65 81 66 82 69 83 67 84 46 85 47 86 55 87 48 88
REMARK SMILES IDX 49 89 53 90 56 91 50 92 51 93 54 94 52 95
REMARK H PARENT 13 5 9 16 5 22 17 29 76 48 44 59
REMARK Flexibility Score: inf
ROOT
ATOM      1  C   UNL A   1      31.787  29.823  26.416  1.00  0.00     0.117 C 
ENDROOT
BRANCH   1   2
ATOM      2  N   UNL A   1      32.839  29.466  25.487  1.00  0.00    -0.354 N 
ATOM      3  C   UNL A   1      33.101  28.334  24.780  1.00  0.00     0.246 C 
ATOM      4  O   UNL A   1      34.133  28.378  24.096  1.00  0.00    -0.272 OA
ATOM      5  H   UNL A   1      33.495  30.185  25.338  1.00  0.00     0.163 HD
BRANCH   3   6
ATOM      6  C   UNL A   1      32.271  27.009  24.905  1.00  0.00     0.122 C 
ATOM      7  C   UNL A   1      31.029  27.127  25.802  1.00  0.00     0.039 C 
ATOM      8  C   UNL A   1      33.160  25.887  25.558  1.00  0.00     0.021 C 
ATOM      9  C   UNL A   1      30.195  25.859  25.852  1.00  0.00     0.003 C 
ATOM     10  C   UNL A   1      32.364  24.575  25.769  1.00  0.00     0.006 C 
ATOM     11  C   UNL A   1      34.467  25.578  24.819  1.00  0.00     0.011 C 
ATOM     12  C   UNL A   1      31.039  24.775  26.507  1.00  0.00     0.000 C 
BRANCH   6  13
ATOM     13  N   UNL A   1      31.956  26.635  23.482  1.00  0.00    -0.335 N 
ATOM     14  C   UNL A   1      31.350  27.247  22.406  1.00  0.00     0.289 C 
ATOM     15  O   UNL A   1      31.347  26.614  21.347  1.00  0.00    -0.266 OA
ATOM     16  H   UNL A   1      32.261  25.724  23.265  1.00  0.00     0.165 HD
BRANCH  14  17
ATOM     17  C   UNL A   1      30.612  28.479  22.533  1.00  0.00     0.214 A 
ATOM     18  C   UNL A   1      29.035  29.871  22.724  1.00  0.00     0.151 A 
ATOM     19  N   UNL A   1      29.811  30.430  21.785  1.00  0.00    -0.158 NA
ATOM     20  N   UNL A   1      29.572  28.746  23.296  1.00  0.00    -0.207 NA
ATOM     21  N   UNL A   1      30.849  29.572  21.749  1.00  0.00    -0.255 N 
ATOM     22  H   UNL A   1      31.671  29.714  21.226  1.00  0.00     0.192 HD
BRANCH  18  23
ATOM     23  C   UNL A   1      27.614  30.284  22.918  1.00  0.00     0.076 C 
ATOM     24  C   UNL A   1      27.410  31.571  23.707  1.00  0.00     0.012 C 
ENDBRANCH  18  23
ENDBRANCH  14  17
ENDBRANCH   6  13
ENDBRANCH   3   6
ENDBRANCH   1   2
BRANCH   1  25
ATOM     25  C   UNL A   1      31.580  31.318  26.535  1.00  0.00     0.042 C 
BRANCH  25  26
ATOM     26  C   UNL A   1      32.835  32.074  26.918  1.00  0.00     0.118 C 
BRANCH  26  27
ATOM     27  N   UNL A   1      32.559  33.457  27.290  1.00  0.00    -0.352 N 
ATOM     28  C   UNL A   1      33.068  34.232  28.305  1.00  0.00     0.251 C 
ATOM     29  H   UNL A   1      31.898  33.911  26.719  1.00  0.00     0.163 HD
ATOM     30  O   UNL A   1      32.533  35.296  28.585  1.00  0.00    -0.269 OA
BRANCH  28  31
ATOM     31  C   UNL A   1      34.241  33.769  29.078  1.00  0.00     0.039 A 
ATOM     32  C   UNL A   1      34.057  32.840  30.106  1.00  0.00     0.014 A 
ATOM     33  C   UNL A   1      35.519  34.250  28.798  1.00  0.00     0.014 A 
ATOM     34  C   UNL A   1      35.166  32.339  30.790  1.00  0.00     0.010 A 
ATOM     35  C   UNL A   1      36.629  33.659  29.387  1.00  0.00     0.010 A 
ATOM     36  C   UNL A   1      36.464  32.705  30.401  1.00  0.00    -0.014 A 
BRANCH  36  37
ATOM     37  C   UNL A   1      37.666  32.119  31.046  1.00  0.00     0.031 A 
ATOM     38  C   UNL A   1      38.473  31.073  30.324  1.00  0.00     0.074 A 
ATOM     39  C   UNL A   1      37.985  32.471  32.306  1.00  0.00     0.049 A 
ATOM     40  N   UNL A   1      39.502  30.384  30.747  1.00  0.00    -0.248 NA
ATOM     41  C   UNL A   1      38.045  30.729  28.957  1.00  0.00     0.031 C 
ATOM     42  C   UNL A   1      37.245  33.429  33.130  1.00  0.00     0.029 A 
ATOM     43  N   UNL A   1      39.009  32.056  33.120  1.00  0.00    -0.354 N 
ATOM     44  C   UNL A   1      39.829  29.519  29.710  1.00  0.00     0.074 A 
ATOM     45  C   UNL A   1      38.852  29.721  28.664  1.00  0.00     0.031 C 
ATOM     46  C   UNL A   1      37.855  33.550  34.320  1.00  0.00     0.029 A 
ATOM     47  C   UNL A   1      38.998  32.646  34.361  1.00  0.00     0.049 A 
ATOM     48  H   UNL A   1      39.685  31.398  32.842  1.00  0.00     0.167 HD
ATOM     49  C   UNL A   1      40.867  28.654  29.626  1.00  0.00     0.037 A 
ATOM     50  C   UNL A   1      39.814  32.467  35.418  1.00  0.00     0.037 A 
ATOM     51  C   UNL A   1      41.853  28.480  30.659  1.00  0.00     0.049 A 
ATOM     52  C   UNL A   1      40.958  31.495  35.301  1.00  0.00     0.074 A 
ATOM     53  C   UNL A   1      42.984  27.684  30.646  1.00  0.00     0.029 A 
ATOM     54  N   UNL A   1      41.822  29.111  31.895  1.00  0.00    -0.354 N 
ATOM     55  N   UNL A   1      41.304  30.743  34.285  1.00  0.00    -0.248 NA
ATOM     56  C   UNL A   1      41.829  31.355  36.475  1.00  0.00     0.031 C 
ATOM     57  C   UNL A   1      43.604  27.784  31.895  1.00  0.00     0.029 A 
ATOM     58  C   UNL A   1      42.898  28.695  32.663  1.00  0.00     0.049 A 
ATOM     59  H   UNL A   1      41.137  29.757  32.183  1.00  0.00     0.167 HD
ATOM     60  C   UNL A   1      42.448  30.064  34.683  1.00  0.00     0.074 A 
ATOM     61  C   UNL A   1      42.747  30.508  36.029  1.00  0.00     0.031 C 
ATOM     62  C   UNL A   1      43.184  29.154  33.999  1.00  0.00     0.037 A 
BRANCH  49  63
ATOM     63  C   UNL A   1      40.993  27.833  28.375  1.00  0.00     0.064 A 
ATOM     64  C   UNL A   1      41.766  28.260  27.284  1.00  0.00     0.173 A 
ATOM     65  C   UNL A   1      40.367  26.580  28.282  1.00  0.00     0.173 A 
ATOM     66  F   UNL A   1      42.376  29.455  27.314  1.00  0.00    -0.203 F 
ATOM     67  C   UNL A   1      41.881  27.479  26.136  1.00  0.00     0.198 A 
ATOM     68  C   UNL A   1      40.513  25.787  27.147  1.00  0.00     0.198 A 
ATOM     69  F   UNL A   1      39.620  26.120  29.297  1.00  0.00    -0.203 F 
ATOM     70  F   UNL A   1      42.581  27.934  25.087  1.00  0.00    -0.200 F 
ATOM     71  C   UNL A   1      41.264  26.240  26.073  1.00  0.00     0.200 A 
ATOM     72  F   UNL A   1      39.928  24.583  27.094  1.00  0.00    -0.200 F 
ATOM     73  F   UNL A   1      41.385  25.485  24.973  1.00  0.00    -0.200 F 
ENDBRANCH  49  63
BRANCH  50  74
ATOM     74  C   UNL A   1      39.588  33.233  36.673  1.00  0.00     0.064 A 
ATOM     75  C   UNL A   1      38.703  32.765  37.655  1.00  0.00     0.173 A 
ATOM     76  C   UNL A   1      40.242  34.450  36.914  1.00  0.00     0.173 A 
ATOM     77  F   UNL A   1      38.039  31.614  37.464  1.00  0.00    -0.203 F 
ATOM     78  C   UNL A   1      38.460  33.498  38.814  1.00  0.00     0.198 A 
ATOM     79  C   UNL A   1      40.024  35.165  38.090  1.00  0.00     0.198 A 
ATOM     80  F   UNL A   1      41.106  34.938  36.011  1.00  0.00    -0.203 F 
ATOM     81  F   UNL A   1      37.568  33.053  39.710  1.00  0.00    -0.200 F 
ATOM     82  C   UNL A   1      39.124  34.695  39.034  1.00  0.00     0.200 A 
ATOM     83  F   UNL A   1      40.684  36.311  38.305  1.00  0.00    -0.200 F 
ATOM     84  F   UNL A   1      38.894  35.397  40.151  1.00  0.00    -0.200 F 
ENDBRANCH  50  74
BRANCH  62  85
ATOM     85  C   UNL A   1      44.407  28.606  34.678  1.00  0.00     0.064 A 
ATOM     86  C   UNL A   1      44.367  27.427  35.436  1.00  0.00     0.173 A 
ATOM     87  C   UNL A   1      45.645  29.251  34.532  1.00  0.00     0.173 A 
ATOM     88  F   UNL A   1      43.205  26.781  35.618  1.00  0.00    -0.203 F 
ATOM     89  C   UNL A   1      45.515  26.930  36.048  1.00  0.00     0.198 A 
ATOM     90  C   UNL A   1      46.797  28.731  35.113  1.00  0.00     0.198 A 
ATOM     91  F   UNL A   1      45.741  30.377  33.808  1.00  0.00    -0.203 F 
ATOM     92  F   UNL A   1      45.442  25.833  36.813  1.00  0.00    -0.200 F 
ATOM     93  C   UNL A   1      46.730  27.578  35.879  1.00  0.00     0.200 A 
ATOM     94  F   UNL A   1      47.973  29.349  34.933  1.00  0.00    -0.200 F 
ATOM     95  F   UNL A   1      47.836  27.093  36.461  1.00  0.00    -0.200 F 
ENDBRANCH  62  85
ENDBRANCH  36  37
ENDBRANCH  28  31
ENDBRANCH  26  27
ENDBRANCH  25  26
ENDBRANCH   1  25
TORSDOF 13
ENDMDL
MODEL 3
REMARK VINA RESULT:     -12.5      1.800      7.412
REMARK SMILES CCc1n[nH]c(C(=O)N[C@@]2(C(=O)NCCCNC(=O)c3ccc(-c4c5nc(c(-c6c(F)c(F)c(F)c(F)c6F)c6ccc([nH]6)c(-c6c(F)c(F)c(F)c(F)c6F)c6nc(c(-c7c(F)c(F)c(F)c(F)c7F)c7ccc4[nH]7)C=C6)C=C5)cc3)CCCC[C@H]2C)n1
REMARK SMILES IDX 14 1 13 2 11 3 12 4 10 6 83 7 87 8 84 9 86 10 88 11 85 12
REMARK SMILES IDX 9 13 7 14 8 15 6 17 3 18 4 19 89 20 5 21 2 23 1 24 15 25
REMARK SMILES IDX 16 26 17 27 18 28 19 30 20 31 21 32 82 33 22 34 81 35 23 36
REMARK SMILES IDX 24 37 25 38 75 39 26 40 80 41 74 42 76 43 27 44 79 45 73 46
REMARK SMILES IDX 72 47 28 49 60 50 40 51 59 52 41 53 44 54 58 55 77 56 42 57
REMARK SMILES IDX 43 58 57 60 78 61 45 62 29 63 30 64 38 65 31 66 32 67 36 68
REMARK SMILES IDX 39 69 33 70 34 71 37 72 35 73 61 74 62 75 70 76 63 77 64 78
REMARK SMILES IDX 68 79 71 80 65 81 66 82 69 83 67 84 46 85 47 86 55 87 48 88
REMARK SMILES IDX 49 89 53 90 56 91 50 92 51 93 54 94 52 95
REMARK H PARENT 13 5 9 16 5 22 17 29 76 48 44 59
REMARK Flexibility Score: inf
ROOT
ATOM      1  C   UNL A   1      36.975  22.564  25.500  1.00  0.00     0.117 C 
ENDROOT
BRANCH   1   2
ATOM      2  N   UNL A   1      35.949  22.712  26.510  1.00  0.00    -0.354 N 
ATOM      3  C   UNL A   1      34.630  23.035  26.445  1.00  0.00     0.246 C 
ATOM      4  O   UNL A   1      34.058  23.102  27.542  1.00  0.00    -0.272 OA
ATOM      5  H   UNL A   1      36.269  22.545  27.426  1.00  0.00     0.163 HD
BRANCH   3   6
ATOM      6  C   UNL A   1      33.888  23.441  25.123  1.00  0.00     0.122 C 
ATOM      7  C   UNL A   1      34.536  22.885  23.844  1.00  0.00     0.039 C 
ATOM      8  C   UNL A   1      33.910  25.006  24.962  1.00  0.00     0.021 C 
ATOM      9  C   UNL A   1      33.765  23.222  22.580  1.00  0.00     0.003 C 
ATOM     10  C   UNL A   1      33.252  25.455  23.635  1.00  0.00     0.006 C 
ATOM     11  C   UNL A   1      33.294  25.789  26.128  1.00  0.00     0.011 C 
ATOM     12  C   UNL A   1      33.803  24.734  22.403  1.00  0.00     0.000 C 
BRANCH   6  13
ATOM     13  N   UNL A   1      32.474  22.977  25.336  1.00  0.00    -0.335 N 
ATOM     14  C   UNL A   1      31.836  21.761  25.461  1.00  0.00     0.289 C 
ATOM     15  O   UNL A   1      30.627  21.801  25.706  1.00  0.00    -0.266 OA
ATOM     16  H   UNL A   1      31.845  23.732  25.403  1.00  0.00     0.165 HD
BRANCH  14  17
ATOM     17  C   UNL A   1      32.489  20.512  25.161  1.00  0.00     0.214 A 
ATOM     18  C   UNL A   1      32.983  18.659  24.276  1.00  0.00     0.151 A 
ATOM     19  N   UNL A   1      33.068  18.392  25.587  1.00  0.00    -0.158 NA
ATOM     20  N   UNL A   1      32.765  19.983  23.988  1.00  0.00    -0.207 NA
ATOM     21  N   UNL A   1      32.839  19.606  26.123  1.00  0.00    -0.255 N 
ATOM     22  H   UNL A   1      32.914  19.814  27.082  1.00  0.00     0.192 HD
BRANCH  18  23
ATOM     23  C   UNL A   1      32.862  17.574  23.258  1.00  0.00     0.076 C 
ATOM     24  C   UNL A   1      34.023  16.588  23.213  1.00  0.00     0.012 C 
ENDBRANCH  18  23
ENDBRANCH  14  17
ENDBRANCH   6  13
ENDBRANCH   3   6
ENDBRANCH   1   2
BRANCH   1  25
ATOM     25  C   UNL A   1      37.487  21.144  25.373  1.00  0.00     0.042 C 
BRANCH  25  26
ATOM     26  C   UNL A   1      38.983  21.057  25.158  1.00  0.00     0.118 C 
BRANCH  26  27
ATOM     27  N   UNL A   1      39.644  20.245  26.172  1.00  0.00    -0.352 N 
ATOM     28  C   UNL A   1      40.591  20.579  27.112  1.00  0.00     0.251 C 
ATOM     29  H   UNL A   1      39.366  19.302  26.188  1.00  0.00     0.163 HD
ATOM     30  O   UNL A   1      41.184  19.696  27.718  1.00  0.00    -0.269 OA
BRANCH  28  31
ATOM     31  C   UNL A   1      40.915  21.999  27.370  1.00  0.00     0.039 A 
ATOM     32  C   UNL A   1      41.781  22.320  28.419  1.00  0.00     0.014 A 
ATOM     33  C   UNL A   1      40.366  23.014  26.589  1.00  0.00     0.014 A 
ATOM     34  C   UNL A   1      42.155  23.649  28.624  1.00  0.00     0.010 A 
ATOM     35  C   UNL A   1      40.836  24.315  26.709  1.00  0.00     0.010 A 
ATOM     36  C   UNL A   1      41.726  24.650  27.739  1.00  0.00    -0.014 A 
BRANCH  36  37
ATOM     37  C   UNL A   1      42.180  26.057  27.873  1.00  0.00     0.031 A 
ATOM     38  C   UNL A   1      43.514  26.475  27.315  1.00  0.00     0.074 A 
ATOM     39  C   UNL A   1      41.428  26.937  28.562  1.00  0.00     0.049 A 
ATOM     40  N   UNL A   1      44.123  27.630  27.402  1.00  0.00    -0.248 NA
ATOM     41  C   UNL A   1      44.284  25.447  26.594  1.00  0.00     0.031 C 
ATOM     42  C   UNL A   1      40.145  26.636  29.201  1.00  0.00     0.029 A 
ATOM     43  N   UNL A   1      41.638  28.262  28.851  1.00  0.00    -0.354 N 
ATOM     44  C   UNL A   1      45.346  27.460  26.766  1.00  0.00     0.074 A 
ATOM     45  C   UNL A   1      45.424  26.076  26.355  1.00  0.00     0.031 C 
ATOM     46  C   UNL A   1      39.669  27.750  29.780  1.00  0.00     0.029 A 
ATOM     47  C   UNL A   1      40.633  28.829  29.596  1.00  0.00     0.049 A 
ATOM     48  H   UNL A   1      42.434  28.758  28.553  1.00  0.00     0.167 HD
ATOM     49  C   UNL A   1      46.307  28.383  26.521  1.00  0.00     0.037 A 
ATOM     50  C   UNL A   1      40.509  30.078  30.086  1.00  0.00     0.037 A 
ATOM     51  C   UNL A   1      46.210  29.766  26.907  1.00  0.00     0.049 A 
ATOM     52  C   UNL A   1      41.593  31.083  29.803  1.00  0.00     0.074 A 
ATOM     53  C   UNL A   1      47.092  30.798  26.645  1.00  0.00     0.029 A 
ATOM     54  N   UNL A   1      45.165  30.309  27.642  1.00  0.00    -0.354 N 
ATOM     55  N   UNL A   1      42.708  30.932  29.131  1.00  0.00    -0.248 NA
ATOM     56  C   UNL A   1      41.397  32.435  30.342  1.00  0.00     0.031 C 
ATOM     57  C   UNL A   1      46.614  31.951  27.273  1.00  0.00     0.029 A 
ATOM     58  C   UNL A   1      45.400  31.655  27.869  1.00  0.00     0.049 A 
ATOM     59  H   UNL A   1      44.376  29.811  27.955  1.00  0.00     0.167 HD
ATOM     60  C   UNL A   1      43.332  32.172  29.139  1.00  0.00     0.074 A 
ATOM     61  C   UNL A   1      42.460  33.071  29.868  1.00  0.00     0.031 C 
ATOM     62  C   UNL A   1      44.518  32.536  28.592  1.00  0.00     0.037 A 
BRANCH  49  63
ATOM     63  C   UNL A   1      47.544  27.930  25.801  1.00  0.00     0.064 A 
ATOM     64  C   UNL A   1      48.716  27.580  26.491  1.00  0.00     0.173 A 
ATOM     65  C   UNL A   1      47.547  27.801  24.403  1.00  0.00     0.173 A 
ATOM     66  F   UNL A   1      48.773  27.696  27.826  1.00  0.00    -0.203 F 
ATOM     67  C   UNL A   1      49.851  27.151  25.808  1.00  0.00     0.198 A 
ATOM     68  C   UNL A   1      48.671  27.338  23.726  1.00  0.00     0.198 A 
ATOM     69  F   UNL A   1      46.453  28.116  23.693  1.00  0.00    -0.203 F 
ATOM     70  F   UNL A   1      50.974  26.875  26.485  1.00  0.00    -0.200 F 
ATOM     71  C   UNL A   1      49.824  27.020  24.428  1.00  0.00     0.200 A 
ATOM     72  F   UNL A   1      48.639  27.197  22.394  1.00  0.00    -0.200 F 
ATOM     73  F   UNL A   1      50.913  26.595  23.773  1.00  0.00    -0.200 F 
ENDBRANCH  49  63
BRANCH  50  74
ATOM     74  C   UNL A   1      39.308  30.452  30.880  1.00  0.00     0.064 A 
ATOM     75  C   UNL A   1      39.272  30.258  32.268  1.00  0.00     0.173 A 
ATOM     76  C   UNL A   1      38.171  31.001  30.270  1.00  0.00     0.173 A 
ATOM     77  F   UNL A   1      40.329  29.720  32.897  1.00  0.00    -0.203 F 
ATOM     78  C   UNL A   1      38.136  30.572  33.010  1.00  0.00     0.198 A 
ATOM     79  C   UNL A   1      37.048  31.346  31.019  1.00  0.00     0.198 A 
ATOM     80  F   UNL A   1      38.156  31.215  28.946  1.00  0.00    -0.203 F 
ATOM     81  F   UNL A   1      38.110  30.326  34.328  1.00  0.00    -0.200 F 
ATOM     82  C   UNL A   1      37.026  31.121  32.386  1.00  0.00     0.200 A 
ATOM     83  F   UNL A   1      35.985  31.894  30.413  1.00  0.00    -0.200 F 
ATOM     84  F   UNL A   1      35.935  31.427  33.101  1.00  0.00    -0.200 F 
ENDBRANCH  50  74
BRANCH  62  85
ATOM     85  C   UNL A   1      44.926  33.975  28.728  1.00  0.00     0.064 A 
ATOM     86  C   UNL A   1      45.769  34.411  29.761  1.00  0.00     0.173 A 
ATOM     87  C   UNL A   1      44.500  34.923  27.785  1.00  0.00     0.173 A 
ATOM     88  F   UNL A   1      46.193  33.547  30.696  1.00  0.00    -0.203 F 
ATOM     89  C   UNL A   1      46.145  35.748  29.862  1.00  0.00     0.198 A 
ATOM     90  C   UNL A   1      44.908  36.251  27.868  1.00  0.00     0.198 A 
ATOM     91  F   UNL A   1      43.701  34.558  26.771  1.00  0.00    -0.203 F 
ATOM     92  F   UNL A   1      46.905  36.152  30.889  1.00  0.00    -0.200 F 
ATOM     93  C   UNL A   1      45.721  36.665  28.912  1.00  0.00     0.200 A 
ATOM     94  F   UNL A   1      44.512  37.131  26.937  1.00  0.00    -0.200 F 
ATOM     95  F   UNL A   1      46.092  37.949  29.006  1.00  0.00    -0.200 F 
ENDBRANCH  62  85
ENDBRANCH  36  37
ENDBRANCH  28  31
ENDBRANCH  26  27
ENDBRANCH  25  26
ENDBRANCH   1  25
TORSDOF 13
ENDMDL
