MODEL 1
REMARK VINA RESULT:     -12.5      0.000      0.000
REMARK SMILES CC[C@@](C)(NC(=O)c1cccc2ccccc12)C(=O)NCCCNC(=O)c1ccc(-c2c3nc(c(-c4c(F)c(F)c(F)c(F)c4F)c4ccc([nH]4)c(-c4c(F)c(F)c(F)c(F)c4F)c4nc(c(-c5c(F)c(F)c(F)c(F)c5F)c5ccc2[nH]5)C=C4)C=C3)cc1
REMARK SMILES IDX 22 1 21 2 20 3 18 4 19 5 3 7 4 8 2 9 1 10 5 11 6 12 7 14
REMARK SMILES IDX 8 15 9 16 17 17 10 18 12 19 16 20 11 21 13 22 15 23 14 24
REMARK SMILES IDX 23 25 24 26 25 27 26 29 27 30 28 31 89 32 29 33 88 34 30 35
REMARK SMILES IDX 31 36 32 37 82 38 33 39 87 40 81 41 83 42 34 43 86 44 80 45
REMARK SMILES IDX 79 46 35 48 67 49 47 50 66 51 48 52 51 53 65 54 84 55 49 56
REMARK SMILES IDX 50 57 64 59 85 60 52 61 36 62 37 63 45 64 38 65 39 66 43 67
REMARK SMILES IDX 46 68 40 69 41 70 44 71 42 72 68 73 69 74 77 75 70 76 71 77
REMARK SMILES IDX 75 78 78 79 72 80 73 81 76 82 74 83 53 84 54 85 62 86 55 87
REMARK SMILES IDX 56 88 60 89 63 90 57 91 58 92 61 93 59 94
REMARK H PARENT 20 6 5 13 24 28 83 47 51 58
REMARK Flexibility Score: inf
ROOT
ATOM      1  C   UNL A   1      31.404  32.164  26.511  1.00  0.00     0.042 C 
ENDROOT
BRANCH   1   2
ATOM      2  C   UNL A   1      31.594  30.768  25.914  1.00  0.00     0.117 C 
BRANCH   2   3
ATOM      3  N   UNL A   1      31.308  29.607  26.742  1.00  0.00    -0.354 N 
ATOM      4  C   UNL A   1      31.936  28.409  26.967  1.00  0.00     0.245 C 
ATOM      5  O   UNL A   1      31.506  27.775  27.937  1.00  0.00    -0.272 OA
ATOM      6  H   UNL A   1      30.474  29.701  27.256  1.00  0.00     0.163 HD
BRANCH   4   7
ATOM      7  C   UNL A   1      33.142  27.887  26.119  1.00  0.00     0.116 C 
ATOM      8  C   UNL A   1      34.386  28.522  26.799  1.00  0.00     0.045 C 
BRANCH   7   9
ATOM      9  C   UNL A   1      33.336  26.338  26.151  1.00  0.00     0.035 C 
ATOM     10  C   UNL A   1      34.374  25.722  25.217  1.00  0.00     0.007 C 
ENDBRANCH   7   9
BRANCH   7  11
ATOM     11  N   UNL A   1      33.142  28.290  24.675  1.00  0.00    -0.338 N 
ATOM     12  C   UNL A   1      32.387  27.999  23.546  1.00  0.00     0.252 C 
ATOM     13  H   UNL A   1      33.866  28.928  24.475  1.00  0.00     0.164 HD
ATOM     14  O   UNL A   1      32.988  28.195  22.486  1.00  0.00    -0.269 OA
BRANCH  12  15
ATOM     15  C   UNL A   1      30.926  27.597  23.508  1.00  0.00     0.047 A 
ATOM     16  C   UNL A   1      30.555  26.362  24.035  1.00  0.00     0.014 A 
ATOM     17  C   UNL A   1      29.861  28.492  23.153  1.00  0.00    -0.006 A 
ATOM     18  C   UNL A   1      29.244  25.934  24.186  1.00  0.00     0.001 A 
ATOM     19  C   UNL A   1      28.510  28.053  23.344  1.00  0.00    -0.018 A 
ATOM     20  C   UNL A   1      30.007  29.810  22.647  1.00  0.00     0.009 A 
ATOM     21  C   UNL A   1      28.221  26.782  23.836  1.00  0.00     0.009 A 
ATOM     22  C   UNL A   1      27.422  28.892  23.076  1.00  0.00     0.009 A 
ATOM     23  C   UNL A   1      28.908  30.642  22.392  1.00  0.00     0.001 A 
ATOM     24  C   UNL A   1      27.617  30.186  22.614  1.00  0.00     0.001 A 
ENDBRANCH  12  15
ENDBRANCH   7  11
ENDBRANCH   4   7
ENDBRANCH   2   3
ENDBRANCH   1   2
BRANCH   1  25
ATOM     25  C   UNL A   1      32.636  32.991  26.874  1.00  0.00     0.118 C 
BRANCH  25  26
ATOM     26  N   UNL A   1      32.358  34.199  27.622  1.00  0.00    -0.352 N 
ATOM     27  C   UNL A   1      33.032  34.770  28.674  1.00  0.00     0.251 C 
ATOM     28  H   UNL A   1      31.557  34.691  27.330  1.00  0.00     0.163 HD
ATOM     29  O   UNL A   1      32.594  35.804  29.172  1.00  0.00    -0.269 OA
BRANCH  27  30
ATOM     30  C   UNL A   1      34.250  34.151  29.253  1.00  0.00     0.039 A 
ATOM     31  C   UNL A   1      34.075  33.207  30.271  1.00  0.00     0.014 A 
ATOM     32  C   UNL A   1      35.544  34.522  28.872  1.00  0.00     0.014 A 
ATOM     33  C   UNL A   1      35.184  32.604  30.871  1.00  0.00     0.010 A 
ATOM     34  C   UNL A   1      36.654  33.881  29.441  1.00  0.00     0.010 A 
ATOM     35  C   UNL A   1      36.486  32.914  30.447  1.00  0.00    -0.014 A 
BRANCH  35  36
ATOM     36  C   UNL A   1      37.658  32.217  31.049  1.00  0.00     0.031 A 
ATOM     37  C   UNL A   1      38.149  32.575  32.425  1.00  0.00     0.074 A 
ATOM     38  C   UNL A   1      38.293  31.257  30.348  1.00  0.00     0.049 A 
ATOM     39  N   UNL A   1      39.146  32.066  33.108  1.00  0.00    -0.248 NA
ATOM     40  C   UNL A   1      37.437  33.656  33.122  1.00  0.00     0.031 C 
ATOM     41  C   UNL A   1      37.940  30.832  28.993  1.00  0.00     0.029 A 
ATOM     42  N   UNL A   1      39.367  30.466  30.674  1.00  0.00    -0.354 N 
ATOM     43  C   UNL A   1      39.181  32.763  34.309  1.00  0.00     0.074 A 
ATOM     44  C   UNL A   1      38.137  33.764  34.242  1.00  0.00     0.031 C 
ATOM     45  C   UNL A   1      38.765  29.845  28.612  1.00  0.00     0.029 A 
ATOM     46  C   UNL A   1      39.730  29.591  29.679  1.00  0.00     0.049 A 
ATOM     47  H   UNL A   1      39.833  30.521  31.540  1.00  0.00     0.167 HD
ATOM     48  C   UNL A   1      39.995  32.575  35.378  1.00  0.00     0.037 A 
ATOM     49  C   UNL A   1      40.730  28.689  29.626  1.00  0.00     0.037 A 
ATOM     50  C   UNL A   1      41.032  31.575  35.449  1.00  0.00     0.049 A 
ATOM     51  C   UNL A   1      41.640  28.521  30.814  1.00  0.00     0.074 A 
ATOM     52  C   UNL A   1      41.875  31.278  36.507  1.00  0.00     0.029 A 
ATOM     53  N   UNL A   1      41.375  30.713  34.416  1.00  0.00    -0.354 N 
ATOM     54  N   UNL A   1      41.617  29.138  31.970  1.00  0.00    -0.248 NA
ATOM     55  C   UNL A   1      42.710  27.521  30.691  1.00  0.00     0.031 C 
ATOM     56  C   UNL A   1      42.763  30.278  36.096  1.00  0.00     0.029 A 
ATOM     57  C   UNL A   1      42.434  29.906  34.803  1.00  0.00     0.049 A 
ATOM     58  H   UNL A   1      40.931  30.679  33.539  1.00  0.00     0.167 HD
ATOM     59  C   UNL A   1      42.645  28.583  32.721  1.00  0.00     0.074 A 
ATOM     60  C   UNL A   1      43.262  27.565  31.896  1.00  0.00     0.031 C 
ATOM     61  C   UNL A   1      43.040  28.889  33.980  1.00  0.00     0.037 A 
BRANCH  48  62
ATOM     62  C   UNL A   1      39.807  33.476  36.565  1.00  0.00     0.064 A 
ATOM     63  C   UNL A   1      40.479  34.704  36.672  1.00  0.00     0.173 A 
ATOM     64  C   UNL A   1      38.908  33.132  37.587  1.00  0.00     0.173 A 
ATOM     65  F   UNL A   1      41.353  35.079  35.727  1.00  0.00    -0.203 F 
ATOM     66  C   UNL A   1      40.280  35.538  37.770  1.00  0.00     0.198 A 
ATOM     67  C   UNL A   1      38.687  33.983  38.667  1.00  0.00     0.198 A 
ATOM     68  F   UNL A   1      38.230  31.975  37.531  1.00  0.00    -0.203 F 
ATOM     69  F   UNL A   1      40.970  36.682  37.873  1.00  0.00    -0.200 F 
ATOM     70  C   UNL A   1      39.381  35.181  38.762  1.00  0.00     0.200 A 
ATOM     71  F   UNL A   1      37.805  33.644  39.617  1.00  0.00    -0.200 F 
ATOM     72  F   UNL A   1      39.185  35.987  39.815  1.00  0.00    -0.200 F 
ENDBRANCH  48  62
BRANCH  49  73
ATOM     73  C   UNL A   1      40.919  27.861  28.405  1.00  0.00     0.064 A 
ATOM     74  C   UNL A   1      41.711  28.314  27.339  1.00  0.00     0.173 A 
ATOM     75  C   UNL A   1      40.301  26.609  28.270  1.00  0.00     0.173 A 
ATOM     76  F   UNL A   1      42.303  29.515  27.408  1.00  0.00    -0.203 F 
ATOM     77  C   UNL A   1      41.858  27.557  26.179  1.00  0.00     0.198 A 
ATOM     78  C   UNL A   1      40.476  25.838  27.123  1.00  0.00     0.198 A 
ATOM     79  F   UNL A   1      39.534  26.129  29.261  1.00  0.00    -0.203 F 
ATOM     80  F   UNL A   1      42.577  28.037  25.155  1.00  0.00    -0.200 F 
ATOM     81  C   UNL A   1      41.246  26.317  26.073  1.00  0.00     0.200 A 
ATOM     82  F   UNL A   1      39.894  24.635  27.031  1.00  0.00    -0.200 F 
ATOM     83  F   UNL A   1      41.391  25.588  24.959  1.00  0.00    -0.200 F 
ENDBRANCH  49  73
BRANCH  61  84
ATOM     84  C   UNL A   1      44.170  28.089  34.565  1.00  0.00     0.064 A 
ATOM     85  C   UNL A   1      45.504  28.515  34.474  1.00  0.00     0.173 A 
ATOM     86  C   UNL A   1      43.911  26.893  35.252  1.00  0.00     0.173 A 
ATOM     87  F   UNL A   1      45.809  29.644  33.816  1.00  0.00    -0.203 F 
ATOM     88  C   UNL A   1      46.537  27.759  35.022  1.00  0.00     0.198 A 
ATOM     89  C   UNL A   1      44.943  26.157  35.827  1.00  0.00     0.198 A 
ATOM     90  F   UNL A   1      42.653  26.442  35.375  1.00  0.00    -0.203 F 
ATOM     91  F   UNL A   1      47.808  28.158  34.874  1.00  0.00    -0.200 F 
ATOM     92  C   UNL A   1      46.256  26.585  35.704  1.00  0.00     0.200 A 
ATOM     93  F   UNL A   1      44.667  25.031  36.500  1.00  0.00    -0.200 F 
ATOM     94  F   UNL A   1      47.251  25.862  36.236  1.00  0.00    -0.200 F 
ENDBRANCH  61  84
ENDBRANCH  35  36
ENDBRANCH  27  30
ENDBRANCH  25  26
ENDBRANCH   1  25
TORSDOF 13
ENDMDL
MODEL 2
REMARK VINA RESULT:     -12.5      4.151      8.866
REMARK SMILES CC[C@@](C)(NC(=O)c1cccc2ccccc12)C(=O)NCCCNC(=O)c1ccc(-c2c3nc(c(-c4c(F)c(F)c(F)c(F)c4F)c4ccc([nH]4)c(-c4c(F)c(F)c(F)c(F)c4F)c4nc(c(-c5c(F)c(F)c(F)c(F)c5F)c5ccc2[nH]5)C=C4)C=C3)cc1
REMARK SMILES IDX 22 1 21 2 20 3 18 4 19 5 3 7 4 8 2 9 1 10 5 11 6 12 7 14
REMARK SMILES IDX 8 15 9 16 17 17 10 18 12 19 16 20 11 21 13 22 15 23 14 24
REMARK SMILES IDX 23 25 24 26 25 27 26 29 27 30 28 31 89 32 29 33 88 34 30 35
REMARK SMILES IDX 31 36 32 37 82 38 33 39 87 40 81 41 83 42 34 43 86 44 80 45
REMARK SMILES IDX 79 46 35 48 67 49 47 50 66 51 48 52 51 53 65 54 84 55 49 56
REMARK SMILES IDX 50 57 64 59 85 60 52 61 36 62 37 63 45 64 38 65 39 66 43 67
REMARK SMILES IDX 46 68 40 69 41 70 44 71 42 72 68 73 69 74 77 75 70 76 71 77
REMARK SMILES IDX 75 78 78 79 72 80 73 81 76 82 74 83 53 84 54 85 62 86 55 87
REMARK SMILES IDX 56 88 60 89 63 90 57 91 58 92 61 93 59 94
REMARK H PARENT 20 6 5 13 24 28 83 47 51 58
REMARK Flexibility Score: inf
ROOT
ATOM      1  C   UNL A   1      36.004  23.832  24.767  1.00  0.00     0.042 C 
ENDROOT
BRANCH   1   2
ATOM      2  C   UNL A   1      35.380  22.837  23.786  1.00  0.00     0.117 C 
BRANCH   2   3
ATOM      3  N   UNL A   1      34.143  22.167  24.159  1.00  0.00    -0.354 N 
ATOM      4  C   UNL A   1      32.824  22.541  24.206  1.00  0.00     0.245 C 
ATOM      5  O   UNL A   1      32.027  21.606  24.343  1.00  0.00    -0.272 OA
ATOM      6  H   UNL A   1      34.284  21.235  24.442  1.00  0.00     0.163 HD
BRANCH   4   7
ATOM      7  C   UNL A   1      32.333  24.016  24.043  1.00  0.00     0.116 C 
ATOM      8  C   UNL A   1      30.889  23.874  23.485  1.00  0.00     0.045 C 
BRANCH   7   9
ATOM      9  C   UNL A   1      32.238  24.822  25.376  1.00  0.00     0.035 C 
ATOM     10  C   UNL A   1      30.870  25.339  25.810  1.00  0.00     0.007 C 
ENDBRANCH   7   9
BRANCH   7  11
ATOM     11  N   UNL A   1      33.121  24.860  23.086  1.00  0.00    -0.338 N 
ATOM     12  C   UNL A   1      32.942  26.067  22.423  1.00  0.00     0.252 C 
ATOM     13  H   UNL A   1      33.992  24.453  22.874  1.00  0.00     0.164 HD
ATOM     14  O   UNL A   1      33.631  26.179  21.405  1.00  0.00    -0.269 OA
BRANCH  12  15
ATOM     15  C   UNL A   1      32.106  27.244  22.886  1.00  0.00     0.047 A 
ATOM     16  C   UNL A   1      30.825  27.405  22.364  1.00  0.00     0.014 A 
ATOM     17  C   UNL A   1      32.466  28.094  23.987  1.00  0.00    -0.006 A 
ATOM     18  C   UNL A   1      29.912  28.354  22.802  1.00  0.00     0.001 A 
ATOM     19  C   UNL A   1      31.503  29.048  24.453  1.00  0.00    -0.018 A 
ATOM     20  C   UNL A   1      33.693  28.069  24.699  1.00  0.00     0.009 A 
ATOM     21  C   UNL A   1      30.255  29.178  23.846  1.00  0.00     0.009 A 
ATOM     22  C   UNL A   1      31.759  29.868  25.558  1.00  0.00     0.009 A 
ATOM     23  C   UNL A   1      33.932  28.891  25.810  1.00  0.00     0.001 A 
ATOM     24  C   UNL A   1      32.963  29.784  26.243  1.00  0.00     0.001 A 
ENDBRANCH  12  15
ENDBRANCH   7  11
ENDBRANCH   4   7
ENDBRANCH   2   3
ENDBRANCH   1   2
BRANCH   1  25
ATOM     25  C   UNL A   1      36.508  23.327  26.117  1.00  0.00     0.118 C 
BRANCH  25  26
ATOM     26  N   UNL A   1      37.678  22.476  26.050  1.00  0.00    -0.352 N 
ATOM     27  C   UNL A   1      38.987  22.735  26.376  1.00  0.00     0.251 C 
ATOM     28  H   UNL A   1      37.508  21.566  25.717  1.00  0.00     0.163 HD
ATOM     29  O   UNL A   1      39.827  21.854  26.216  1.00  0.00    -0.269 OA
BRANCH  27  30
ATOM     30  C   UNL A   1      39.422  24.062  26.877  1.00  0.00     0.039 A 
ATOM     31  C   UNL A   1      39.169  24.361  28.220  1.00  0.00     0.014 A 
ATOM     32  C   UNL A   1      40.002  25.032  26.053  1.00  0.00     0.014 A 
ATOM     33  C   UNL A   1      39.536  25.603  28.748  1.00  0.00     0.010 A 
ATOM     34  C   UNL A   1      40.413  26.258  26.594  1.00  0.00     0.010 A 
ATOM     35  C   UNL A   1      40.184  26.557  27.948  1.00  0.00    -0.014 A 
BRANCH  35  36
ATOM     36  C   UNL A   1      40.629  27.852  28.537  1.00  0.00     0.031 A 
ATOM     37  C   UNL A   1      42.071  28.086  28.894  1.00  0.00     0.074 A 
ATOM     38  C   UNL A   1      39.725  28.827  28.761  1.00  0.00     0.049 A 
ATOM     39  N   UNL A   1      42.637  29.154  29.405  1.00  0.00    -0.248 NA
ATOM     40  C   UNL A   1      43.001  26.972  28.660  1.00  0.00     0.031 C 
ATOM     41  C   UNL A   1      38.291  28.722  28.489  1.00  0.00     0.029 A 
ATOM     42  N   UNL A   1      39.875  30.094  29.269  1.00  0.00    -0.354 N 
ATOM     43  C   UNL A   1      43.981  28.839  29.555  1.00  0.00     0.074 A 
ATOM     44  C   UNL A   1      44.139  27.465  29.127  1.00  0.00     0.031 C 
ATOM     45  C   UNL A   1      37.696  29.881  28.811  1.00  0.00     0.029 A 
ATOM     46  C   UNL A   1      38.698  30.800  29.347  1.00  0.00     0.049 A 
ATOM     47  H   UNL A   1      40.743  30.463  29.550  1.00  0.00     0.167 HD
ATOM     48  C   UNL A   1      44.995  29.627  29.990  1.00  0.00     0.037 A 
ATOM     49  C   UNL A   1      38.449  32.043  29.803  1.00  0.00     0.037 A 
ATOM     50  C   UNL A   1      44.842  30.997  30.411  1.00  0.00     0.049 A 
ATOM     51  C   UNL A   1      39.588  32.887  30.310  1.00  0.00     0.074 A 
ATOM     52  C   UNL A   1      45.818  31.890  30.823  1.00  0.00     0.029 A 
ATOM     53  N   UNL A   1      43.632  31.674  30.484  1.00  0.00    -0.354 N 
ATOM     54  N   UNL A   1      40.865  32.601  30.381  1.00  0.00    -0.248 NA
ATOM     55  C   UNL A   1      39.250  34.233  30.794  1.00  0.00     0.031 C 
ATOM     56  C   UNL A   1      45.194  33.084  31.199  1.00  0.00     0.029 A 
ATOM     57  C   UNL A   1      43.835  32.961  30.961  1.00  0.00     0.049 A 
ATOM     58  H   UNL A   1      42.759  31.296  30.234  1.00  0.00     0.167 HD
ATOM     59  C   UNL A   1      41.485  33.737  30.885  1.00  0.00     0.074 A 
ATOM     60  C   UNL A   1      40.446  34.724  31.087  1.00  0.00     0.031 C 
ATOM     61  C   UNL A   1      42.797  33.942  31.155  1.00  0.00     0.037 A 
BRANCH  48  62
ATOM     62  C   UNL A   1      46.372  29.027  30.043  1.00  0.00     0.064 A 
ATOM     63  C   UNL A   1      46.849  28.379  31.193  1.00  0.00     0.173 A 
ATOM     64  C   UNL A   1      47.208  29.057  28.916  1.00  0.00     0.173 A 
ATOM     65  F   UNL A   1      46.095  28.326  32.300  1.00  0.00    -0.203 F 
ATOM     66  C   UNL A   1      48.121  27.811  31.222  1.00  0.00     0.198 A 
ATOM     67  C   UNL A   1      48.466  28.460  28.937  1.00  0.00     0.198 A 
ATOM     68  F   UNL A   1      46.799  29.654  27.786  1.00  0.00    -0.203 F 
ATOM     69  F   UNL A   1      48.573  27.241  32.347  1.00  0.00    -0.200 F 
ATOM     70  C   UNL A   1      48.925  27.845  30.093  1.00  0.00     0.200 A 
ATOM     71  F   UNL A   1      49.235  28.479  27.839  1.00  0.00    -0.200 F 
ATOM     72  F   UNL A   1      50.145  27.292  30.119  1.00  0.00    -0.200 F 
ENDBRANCH  48  62
BRANCH  49  73
ATOM     73  C   UNL A   1      37.061  32.575  29.791  1.00  0.00     0.064 A 
ATOM     74  C   UNL A   1      36.566  33.280  28.683  1.00  0.00     0.173 A 
ATOM     75  C   UNL A   1      36.204  32.405  30.888  1.00  0.00     0.173 A 
ATOM     76  F   UNL A   1      37.354  33.491  27.619  1.00  0.00    -0.203 F 
ATOM     77  C   UNL A   1      35.279  33.813  28.684  1.00  0.00     0.198 A 
ATOM     78  C   UNL A   1      34.906  32.910  30.876  1.00  0.00     0.198 A 
ATOM     79  F   UNL A   1      36.627  31.737  31.973  1.00  0.00    -0.203 F 
ATOM     80  F   UNL A   1      34.851  34.527  27.634  1.00  0.00    -0.200 F 
ATOM     81  C   UNL A   1      34.447  33.622  29.778  1.00  0.00     0.200 A 
ATOM     82  F   UNL A   1      34.101  32.711  31.928  1.00  0.00    -0.200 F 
ATOM     83  F   UNL A   1      33.209  34.131  29.776  1.00  0.00    -0.200 F 
ENDBRANCH  49  73
BRANCH  61  84
ATOM     84  C   UNL A   1      43.196  35.299  31.662  1.00  0.00     0.064 A 
ATOM     85  C   UNL A   1      43.155  35.621  33.028  1.00  0.00     0.173 A 
ATOM     86  C   UNL A   1      43.652  36.284  30.772  1.00  0.00     0.173 A 
ATOM     87  F   UNL A   1      42.713  34.723  33.920  1.00  0.00    -0.203 F 
ATOM     88  C   UNL A   1      43.528  36.885  33.478  1.00  0.00     0.198 A 
ATOM     89  C   UNL A   1      44.056  37.535  31.229  1.00  0.00     0.198 A 
ATOM     90  F   UNL A   1      43.718  36.028  29.456  1.00  0.00    -0.203 F 
ATOM     91  F   UNL A   1      43.428  37.187  34.780  1.00  0.00    -0.200 F 
ATOM     92  C   UNL A   1      43.984  37.839  32.580  1.00  0.00     0.200 A 
ATOM     93  F   UNL A   1      44.512  38.449  30.361  1.00  0.00    -0.200 F 
ATOM     94  F   UNL A   1      44.348  39.052  33.016  1.00  0.00    -0.200 F 
ENDBRANCH  61  84
ENDBRANCH  35  36
ENDBRANCH  27  30
ENDBRANCH  25  26
ENDBRANCH   1  25
TORSDOF 13
ENDMDL
MODEL 3
REMARK VINA RESULT:     -12.5      1.149      3.132
REMARK SMILES CC[C@@](C)(NC(=O)c1cccc2ccccc12)C(=O)NCCCNC(=O)c1ccc(-c2c3nc(c(-c4c(F)c(F)c(F)c(F)c4F)c4ccc([nH]4)c(-c4c(F)c(F)c(F)c(F)c4F)c4nc(c(-c5c(F)c(F)c(F)c(F)c5F)c5ccc2[nH]5)C=C4)C=C3)cc1
REMARK SMILES IDX 22 1 21 2 20 3 18 4 19 5 3 7 4 8 2 9 1 10 5 11 6 12 7 14
REMARK SMILES IDX 8 15 9 16 17 17 10 18 12 19 16 20 11 21 13 22 15 23 14 24
REMARK SMILES IDX 23 25 24 26 25 27 26 29 27 30 28 31 89 32 29 33 88 34 30 35
REMARK SMILES IDX 31 36 32 37 82 38 33 39 87 40 81 41 83 42 34 43 86 44 80 45
REMARK SMILES IDX 79 46 35 48 67 49 47 50 66 51 48 52 51 53 65 54 84 55 49 56
REMARK SMILES IDX 50 57 64 59 85 60 52 61 36 62 37 63 45 64 38 65 39 66 43 67
REMARK SMILES IDX 46 68 40 69 41 70 44 71 42 72 68 73 69 74 77 75 70 76 71 77
REMARK SMILES IDX 75 78 78 79 72 80 73 81 76 82 74 83 53 84 54 85 62 86 55 87
REMARK SMILES IDX 56 88 60 89 63 90 57 91 58 92 61 93 59 94
REMARK H PARENT 20 6 5 13 24 28 83 47 51 58
REMARK Flexibility Score: inf
ROOT
ATOM      1  C   UNL A   1      31.289  31.788  26.502  1.00  0.00     0.042 C 
ENDROOT
BRANCH   1   2
ATOM      2  C   UNL A   1      31.403  30.459  25.752  1.00  0.00     0.117 C 
BRANCH   2   3
ATOM      3  N   UNL A   1      30.757  30.328  24.455  1.00  0.00    -0.354 N 
ATOM      4  C   UNL A   1      30.566  29.292  23.577  1.00  0.00     0.245 C 
ATOM      5  O   UNL A   1      29.746  29.520  22.680  1.00  0.00    -0.272 OA
ATOM      6  H   UNL A   1      30.371  31.174  24.134  1.00  0.00     0.163 HD
BRANCH   4   7
ATOM      7  C   UNL A   1      31.268  27.900  23.708  1.00  0.00     0.116 C 
ATOM      8  C   UNL A   1      30.652  27.057  22.558  1.00  0.00     0.045 C 
BRANCH   7   9
ATOM      9  C   UNL A   1      32.813  27.928  23.487  1.00  0.00     0.035 C 
ATOM     10  C   UNL A   1      33.401  27.043  22.393  1.00  0.00     0.007 C 
ENDBRANCH   7   9
BRANCH   7  11
ATOM     11  N   UNL A   1      31.031  27.173  24.998  1.00  0.00    -0.338 N 
ATOM     12  C   UNL A   1      30.904  25.851  25.401  1.00  0.00     0.252 C 
ATOM     13  H   UNL A   1      30.943  27.796  25.756  1.00  0.00     0.164 HD
ATOM     14  O   UNL A   1      30.282  25.714  26.459  1.00  0.00    -0.269 OA
BRANCH  12  15
ATOM     15  C   UNL A   1      31.535  24.636  24.749  1.00  0.00     0.047 A 
ATOM     16  C   UNL A   1      30.763  23.859  23.888  1.00  0.00     0.014 A 
ATOM     17  C   UNL A   1      32.941  24.347  24.793  1.00  0.00    -0.006 A 
ATOM     18  C   UNL A   1      31.254  22.809  23.125  1.00  0.00     0.001 A 
ATOM     19  C   UNL A   1      33.443  23.282  23.976  1.00  0.00    -0.018 A 
ATOM     20  C   UNL A   1      33.916  25.039  25.558  1.00  0.00     0.009 A 
ATOM     21  C   UNL A   1      32.596  22.520  23.174  1.00  0.00     0.009 A 
ATOM     22  C   UNL A   1      34.809  22.981  23.922  1.00  0.00     0.009 A 
ATOM     23  C   UNL A   1      35.282  24.732  25.486  1.00  0.00     0.001 A 
ATOM     24  C   UNL A   1      35.729  23.709  24.664  1.00  0.00     0.001 A 
ENDBRANCH  12  15
ENDBRANCH   7  11
ENDBRANCH   4   7
ENDBRANCH   2   3
ENDBRANCH   1   2
BRANCH   1  25
ATOM     25  C   UNL A   1      32.564  32.544  26.871  1.00  0.00     0.118 C 
BRANCH  25  26
ATOM     26  N   UNL A   1      32.346  33.841  27.478  1.00  0.00    -0.352 N 
ATOM     27  C   UNL A   1      33.066  34.505  28.441  1.00  0.00     0.251 C 
ATOM     28  H   UNL A   1      31.556  34.325  27.146  1.00  0.00     0.163 HD
ATOM     29  O   UNL A   1      32.677  35.606  28.823  1.00  0.00    -0.269 OA
BRANCH  27  30
ATOM     30  C   UNL A   1      34.276  33.913  29.063  1.00  0.00     0.039 A 
ATOM     31  C   UNL A   1      34.086  32.911  30.021  1.00  0.00     0.014 A 
ATOM     32  C   UNL A   1      35.571  34.362  28.782  1.00  0.00     0.014 A 
ATOM     33  C   UNL A   1      35.185  32.327  30.659  1.00  0.00     0.010 A 
ATOM     34  C   UNL A   1      36.674  33.742  29.386  1.00  0.00     0.010 A 
ATOM     35  C   UNL A   1      36.493  32.718  30.332  1.00  0.00    -0.014 A 
BRANCH  35  36
ATOM     36  C   UNL A   1      37.659  32.045  30.971  1.00  0.00     0.031 A 
ATOM     37  C   UNL A   1      38.100  32.412  32.361  1.00  0.00     0.074 A 
ATOM     38  C   UNL A   1      38.335  31.097  30.290  1.00  0.00     0.049 A 
ATOM     39  N   UNL A   1      39.085  31.922  33.076  1.00  0.00    -0.248 NA
ATOM     40  C   UNL A   1      37.345  33.478  33.036  1.00  0.00     0.031 C 
ATOM     41  C   UNL A   1      38.033  30.666  28.925  1.00  0.00     0.029 A 
ATOM     42  N   UNL A   1      39.414  30.328  30.651  1.00  0.00    -0.354 N 
ATOM     43  C   UNL A   1      39.069  32.620  34.277  1.00  0.00     0.074 A 
ATOM     44  C   UNL A   1      38.007  33.599  34.177  1.00  0.00     0.031 C 
ATOM     45  C   UNL A   1      38.890  29.696  28.571  1.00  0.00     0.029 A 
ATOM     46  C   UNL A   1      39.826  29.460  29.667  1.00  0.00     0.049 A 
ATOM     47  H   UNL A   1      39.852  30.392  31.530  1.00  0.00     0.167 HD
ATOM     48  C   UNL A   1      39.852  32.447  35.370  1.00  0.00     0.037 A 
ATOM     49  C   UNL A   1      40.845  28.579  29.646  1.00  0.00     0.037 A 
ATOM     50  C   UNL A   1      40.906  31.469  35.474  1.00  0.00     0.049 A 
ATOM     51  C   UNL A   1      41.720  28.428  30.862  1.00  0.00     0.074 A 
ATOM     52  C   UNL A   1      41.721  31.188  36.558  1.00  0.00     0.029 A 
ATOM     53  N   UNL A   1      41.298  30.614  34.454  1.00  0.00    -0.354 N 
ATOM     54  N   UNL A   1      41.649  29.045  32.016  1.00  0.00    -0.248 NA
ATOM     55  C   UNL A   1      42.813  27.450  30.773  1.00  0.00     0.031 C 
ATOM     56  C   UNL A   1      42.641  30.207  36.176  1.00  0.00     0.029 A 
ATOM     57  C   UNL A   1      42.360  29.828  34.874  1.00  0.00     0.049 A 
ATOM     58  H   UNL A   1      40.883  30.572  33.562  1.00  0.00     0.167 HD
ATOM     59  C   UNL A   1      42.663  28.510  32.800  1.00  0.00     0.074 A 
ATOM     60  C   UNL A   1      43.326  27.505  31.995  1.00  0.00     0.031 C 
ATOM     61  C   UNL A   1      43.013  28.824  34.071  1.00  0.00     0.037 A 
BRANCH  48  62
ATOM     62  C   UNL A   1      39.609  33.345  36.551  1.00  0.00     0.064 A 
ATOM     63  C   UNL A   1      38.731  32.981  37.584  1.00  0.00     0.173 A 
ATOM     64  C   UNL A   1      40.298  34.562  36.677  1.00  0.00     0.173 A 
ATOM     65  F   UNL A   1      38.043  31.833  37.512  1.00  0.00    -0.203 F 
ATOM     66  C   UNL A   1      38.529  33.815  38.682  1.00  0.00     0.198 A 
ATOM     67  C   UNL A   1      40.118  35.378  37.791  1.00  0.00     0.198 A 
ATOM     68  F   UNL A   1      41.158  34.954  35.725  1.00  0.00    -0.203 F 
ATOM     69  F   UNL A   1      37.649  33.469  39.631  1.00  0.00    -0.200 F 
ATOM     70  C   UNL A   1      39.228  35.008  38.788  1.00  0.00     0.200 A 
ATOM     71  F   UNL A   1      40.807  36.522  37.900  1.00  0.00    -0.200 F 
ATOM     72  F   UNL A   1      39.039  35.806  39.848  1.00  0.00    -0.200 F 
ENDBRANCH  48  62
BRANCH  49  73
ATOM     73  C   UNL A   1      41.089  27.755  28.432  1.00  0.00     0.064 A 
ATOM     74  C   UNL A   1      41.985  28.177  27.439  1.00  0.00     0.173 A 
ATOM     75  C   UNL A   1      40.421  26.538  28.231  1.00  0.00     0.173 A 
ATOM     76  F   UNL A   1      42.630  29.346  27.573  1.00  0.00    -0.203 F 
ATOM     77  C   UNL A   1      42.186  27.426  26.283  1.00  0.00     0.198 A 
ATOM     78  C   UNL A   1      40.647  25.771  27.089  1.00  0.00     0.198 A 
ATOM     79  F   UNL A   1      39.554  26.088  29.150  1.00  0.00    -0.203 F 
ATOM     80  F   UNL A   1      43.008  27.879  25.327  1.00  0.00    -0.200 F 
ATOM     81  C   UNL A   1      41.522  26.221  26.111  1.00  0.00     0.200 A 
ATOM     82  F   UNL A   1      40.014  24.601  26.934  1.00  0.00    -0.200 F 
ATOM     83  F   UNL A   1      41.718  25.497  25.002  1.00  0.00    -0.200 F 
ENDBRANCH  49  73
BRANCH  61  84
ATOM     84  C   UNL A   1      44.139  28.047  34.691  1.00  0.00     0.064 A 
ATOM     85  C   UNL A   1      43.920  26.836  35.366  1.00  0.00     0.173 A 
ATOM     86  C   UNL A   1      45.461  28.505  34.584  1.00  0.00     0.173 A 
ATOM     87  F   UNL A   1      42.674  26.359  35.511  1.00  0.00    -0.203 F 
ATOM     88  C   UNL A   1      44.977  26.130  35.935  1.00  0.00     0.198 A 
ATOM     89  C   UNL A   1      46.519  27.780  35.125  1.00  0.00     0.198 A 
ATOM     90  F   UNL A   1      45.729  29.653  33.943  1.00  0.00    -0.203 F 
ATOM     91  F   UNL A   1      44.737  25.005  36.622  1.00  0.00    -0.200 F 
ATOM     92  C   UNL A   1      46.276  26.599  35.808  1.00  0.00     0.200 A 
ATOM     93  F   UNL A   1      47.776  28.226  34.986  1.00  0.00    -0.200 F 
ATOM     94  F   UNL A   1      47.293  25.915  36.351  1.00  0.00    -0.200 F 
ENDBRANCH  61  84
ENDBRANCH  35  36
ENDBRANCH  27  30
ENDBRANCH  25  26
ENDBRANCH   1  25
TORSDOF 13
ENDMDL
