MODEL 1
REMARK VINA RESULT:     -10.9      0.000      0.000
REMARK SMILES COc1ccc(NCc2cc(C(=O)NCCCNC(=O)c3ccc(-c4c5nc(c(-c6c(F)c(F)c(F)c(F)c6F)c6ccc([nH]6)c(-c6c(F)c(F)c(F)c(F)c6F)c6nc(c(-c7c(F)c(F)c(F)c(F)c7F)c7ccc4[nH]7)C=C6)C=C5)cc3)cs2)cc1Br
REMARK SMILES IDX 15 1 14 2 12 3 13 4 11 6 9 7 10 8 85 9 84 10 8 11 7 12 6 14
REMARK SMILES IDX 3 15 4 16 87 17 5 18 86 19 88 20 2 21 1 22 16 23 17 24 18 25
REMARK SMILES IDX 19 26 20 28 21 29 22 30 83 31 23 32 82 33 24 34 25 35 26 36
REMARK SMILES IDX 76 37 27 38 81 39 75 40 77 41 28 42 80 43 74 44 73 45 29 47
REMARK SMILES IDX 61 48 41 49 60 50 42 51 45 52 59 53 78 54 43 55 44 56 58 58
REMARK SMILES IDX 79 59 46 60 30 61 31 62 39 63 32 64 33 65 37 66 40 67 34 68
REMARK SMILES IDX 35 69 38 70 36 71 62 72 63 73 71 74 64 75 65 76 69 77 72 78
REMARK SMILES IDX 66 79 67 80 70 81 68 82 47 83 48 84 56 85 49 86 50 87 54 88
REMARK SMILES IDX 57 89 51 90 52 91 55 92 53 93
REMARK H PARENT 14 5 7 13 18 27 77 46 45 57
REMARK Flexibility Score: inf
ROOT
ATOM      1  C   UNL A   1      35.279  34.818  28.416  1.00  0.00     0.118 C 
ENDROOT
BRANCH   1   2
ATOM      2  N   UNL A   1      33.967  35.414  28.271  1.00  0.00    -0.352 N 
ATOM      3  C   UNL A   1      33.094  35.940  29.189  1.00  0.00     0.252 C 
ATOM      4  O   UNL A   1      32.066  36.454  28.751  1.00  0.00    -0.269 OA
ATOM      5  H   UNL A   1      33.640  35.446  27.342  1.00  0.00     0.163 HD
BRANCH   3   6
ATOM      6  C   UNL A   1      33.403  35.941  30.620  1.00  0.00     0.050 A 
ATOM      7  C   UNL A   1      34.163  35.288  32.755  1.00  0.00     0.024 A 
ATOM      8  C   UNL A   1      33.809  34.872  31.484  1.00  0.00     0.031 A 
ATOM      9  S   UNL A   1      33.779  36.937  32.983  1.00  0.00    -0.146 S 
ATOM     10  C   UNL A   1      33.281  37.106  31.361  1.00  0.00     0.079 A 
BRANCH   7  11
ATOM     11  C   UNL A   1      34.778  34.443  33.838  1.00  0.00     0.159 C 
BRANCH  11  12
ATOM     12  N   UNL A   1      35.089  33.077  33.469  1.00  0.00    -0.380 N 
ATOM     13  H   UNL A   1      34.348  32.540  33.107  1.00  0.00     0.160 HD
BRANCH  12  14
ATOM     14  C   UNL A   1      36.311  32.449  33.571  1.00  0.00     0.036 A 
ATOM     15  C   UNL A   1      38.903  31.331  33.791  1.00  0.00     0.133 A 
ATOM     16  C   UNL A   1      37.935  30.724  32.995  1.00  0.00     0.050 A 
ATOM     17  C   UNL A   1      38.591  32.510  34.466  1.00  0.00     0.062 A 
ATOM     18  C   UNL A   1      36.654  31.279  32.890  1.00  0.00     0.029 A 
ATOM     19  C   UNL A   1      37.303  33.051  34.360  1.00  0.00     0.045 A 
ATOM     20  Br  UNL A   1      39.867  33.479  35.482  1.00  0.00    -0.047 Br
BRANCH  15  21
ATOM     21  O   UNL A   1      40.151  30.771  33.760  1.00  0.00    -0.496 OA
ATOM     22  C   UNL A   1      40.109  29.363  33.534  1.00  0.00     0.278 C 
ENDBRANCH  15  21
ENDBRANCH  12  14
ENDBRANCH  11  12
ENDBRANCH   7  11
ENDBRANCH   3   6
ENDBRANCH   1   2
BRANCH   1  23
ATOM     23  C   UNL A   1      35.272  33.354  27.982  1.00  0.00     0.042 C 
BRANCH  23  24
ATOM     24  C   UNL A   1      34.608  32.435  29.004  1.00  0.00     0.118 C 
BRANCH  24  25
ATOM     25  N   UNL A   1      34.019  31.261  28.375  1.00  0.00    -0.352 N 
ATOM     26  C   UNL A   1      34.611  30.125  27.885  1.00  0.00     0.251 C 
ATOM     27  H   UNL A   1      33.039  31.287  28.286  1.00  0.00     0.163 HD
ATOM     28  O   UNL A   1      33.960  29.359  27.181  1.00  0.00    -0.269 OA
BRANCH  26  29
ATOM     29  C   UNL A   1      36.025  29.820  28.191  1.00  0.00     0.039 A 
ATOM     30  C   UNL A   1      36.346  29.328  29.459  1.00  0.00     0.014 A 
ATOM     31  C   UNL A   1      37.037  30.065  27.259  1.00  0.00     0.014 A 
ATOM     32  C   UNL A   1      37.674  29.034  29.774  1.00  0.00     0.010 A 
ATOM     33  C   UNL A   1      38.349  29.702  27.547  1.00  0.00     0.010 A 
ATOM     34  C   UNL A   1      38.681  29.190  28.809  1.00  0.00    -0.014 A 
BRANCH  34  35
ATOM     35  C   UNL A   1      40.090  28.826  29.105  1.00  0.00     0.031 A 
ATOM     36  C   UNL A   1      40.990  29.802  29.810  1.00  0.00     0.074 A 
ATOM     37  C   UNL A   1      40.572  27.643  28.682  1.00  0.00     0.049 A 
ATOM     38  N   UNL A   1      42.268  29.703  30.082  1.00  0.00    -0.248 NA
ATOM     39  C   UNL A   1      40.382  31.070  30.244  1.00  0.00     0.031 C 
ATOM     40  C   UNL A   1      39.806  26.634  27.948  1.00  0.00     0.029 A 
ATOM     41  N   UNL A   1      41.824  27.093  28.794  1.00  0.00    -0.354 N 
ATOM     42  C   UNL A   1      42.614  30.893  30.707  1.00  0.00     0.074 A 
ATOM     43  C   UNL A   1      41.429  31.724  30.722  1.00  0.00     0.031 C 
ATOM     44  C   UNL A   1      40.600  25.582  27.687  1.00  0.00     0.029 A 
ATOM     45  C   UNL A   1      41.938  25.860  28.198  1.00  0.00     0.049 A 
ATOM     46  H   UNL A   1      42.570  27.539  29.257  1.00  0.00     0.167 HD
ATOM     47  C   UNL A   1      43.806  31.250  31.244  1.00  0.00     0.037 A 
ATOM     48  C   UNL A   1      43.008  25.053  28.066  1.00  0.00     0.037 A 
ATOM     49  C   UNL A   1      44.977  30.413  31.239  1.00  0.00     0.049 A 
ATOM     50  C   UNL A   1      44.323  25.478  28.660  1.00  0.00     0.074 A 
ATOM     51  C   UNL A   1      46.220  30.664  31.792  1.00  0.00     0.029 A 
ATOM     52  N   UNL A   1      45.047  29.159  30.649  1.00  0.00    -0.354 N 
ATOM     53  N   UNL A   1      44.624  26.580  29.302  1.00  0.00    -0.248 NA
ATOM     54  C   UNL A   1      45.447  24.542  28.519  1.00  0.00     0.031 C 
ATOM     55  C   UNL A   1      47.057  29.583  31.495  1.00  0.00     0.029 A 
ATOM     56  C   UNL A   1      46.319  28.633  30.808  1.00  0.00     0.049 A 
ATOM     57  H   UNL A   1      44.304  28.710  30.185  1.00  0.00     0.167 HD
ATOM     58  C   UNL A   1      45.958  26.460  29.665  1.00  0.00     0.074 A 
ATOM     59  C   UNL A   1      46.404  25.168  29.187  1.00  0.00     0.031 C 
ATOM     60  C   UNL A   1      46.744  27.340  30.333  1.00  0.00     0.037 A 
BRANCH  47  61
ATOM     61  C   UNL A   1      43.900  32.604  31.889  1.00  0.00     0.064 A 
ATOM     62  C   UNL A   1      43.592  32.794  33.245  1.00  0.00     0.173 A 
ATOM     63  C   UNL A   1      44.340  33.717  31.157  1.00  0.00     0.173 A 
ATOM     64  F   UNL A   1      43.156  31.766  33.989  1.00  0.00    -0.203 F 
ATOM     65  C   UNL A   1      43.691  34.051  33.836  1.00  0.00     0.198 A 
ATOM     66  C   UNL A   1      44.469  34.966  31.759  1.00  0.00     0.198 A 
ATOM     67  F   UNL A   1      44.654  33.592  29.859  1.00  0.00    -0.203 F 
ATOM     68  F   UNL A   1      43.341  34.216  35.119  1.00  0.00    -0.200 F 
ATOM     69  C   UNL A   1      44.137  35.135  33.095  1.00  0.00     0.200 A 
ATOM     70  F   UNL A   1      44.914  36.010  31.044  1.00  0.00    -0.200 F 
ATOM     71  F   UNL A   1      44.240  36.343  33.666  1.00  0.00    -0.200 F 
ENDBRANCH  47  61
BRANCH  48  72
ATOM     72  C   UNL A   1      42.875  23.756  27.350  1.00  0.00     0.064 A 
ATOM     73  C   UNL A   1      42.372  22.620  28.000  1.00  0.00     0.173 A 
ATOM     74  C   UNL A   1      43.252  23.623  26.006  1.00  0.00     0.173 A 
ATOM     75  F   UNL A   1      42.014  22.691  29.291  1.00  0.00    -0.203 F 
ATOM     76  C   UNL A   1      42.277  21.396  27.341  1.00  0.00     0.198 A 
ATOM     77  C   UNL A   1      43.127  22.407  25.338  1.00  0.00     0.198 A 
ATOM     78  F   UNL A   1      43.731  24.681  25.335  1.00  0.00    -0.203 F 
ATOM     79  F   UNL A   1      41.841  20.314  28.002  1.00  0.00    -0.200 F 
ATOM     80  C   UNL A   1      42.649  21.292  26.010  1.00  0.00     0.200 A 
ATOM     81  F   UNL A   1      43.471  22.315  24.047  1.00  0.00    -0.200 F 
ATOM     82  F   UNL A   1      42.554  20.115  25.375  1.00  0.00    -0.200 F 
ENDBRANCH  48  72
BRANCH  60  83
ATOM     83  C   UNL A   1      48.156  26.921  30.620  1.00  0.00     0.064 A 
ATOM     84  C   UNL A   1      48.485  26.162  31.753  1.00  0.00     0.173 A 
ATOM     85  C   UNL A   1      49.188  27.249  29.727  1.00  0.00     0.173 A 
ATOM     86  F   UNL A   1      47.537  25.835  32.644  1.00  0.00    -0.203 F 
ATOM     87  C   UNL A   1      49.799  25.772  31.997  1.00  0.00     0.198 A 
ATOM     88  C   UNL A   1      50.495  26.829  29.957  1.00  0.00     0.198 A 
ATOM     89  F   UNL A   1      48.927  27.966  28.625  1.00  0.00    -0.203 F 
ATOM     90  F   UNL A   1      50.099  25.092  33.112  1.00  0.00    -0.200 F 
ATOM     91  C   UNL A   1      50.801  26.099  31.095  1.00  0.00     0.200 A 
ATOM     92  F   UNL A   1      51.460  27.133  29.077  1.00  0.00    -0.200 F 
ATOM     93  F   UNL A   1      52.065  25.715  31.326  1.00  0.00    -0.200 F 
ENDBRANCH  60  83
ENDBRANCH  34  35
ENDBRANCH  26  29
ENDBRANCH  24  25
ENDBRANCH  23  24
ENDBRANCH   1  23
TORSDOF 14
ENDMDL
MODEL 2
REMARK VINA RESULT:     -10.6      5.008     10.490
REMARK SMILES COc1ccc(NCc2cc(C(=O)NCCCNC(=O)c3ccc(-c4c5nc(c(-c6c(F)c(F)c(F)c(F)c6F)c6ccc([nH]6)c(-c6c(F)c(F)c(F)c(F)c6F)c6nc(c(-c7c(F)c(F)c(F)c(F)c7F)c7ccc4[nH]7)C=C6)C=C5)cc3)cs2)cc1Br
REMARK SMILES IDX 15 1 14 2 12 3 13 4 11 6 9 7 10 8 85 9 84 10 8 11 7 12 6 14
REMARK SMILES IDX 3 15 4 16 87 17 5 18 86 19 88 20 2 21 1 22 16 23 17 24 18 25
REMARK SMILES IDX 19 26 20 28 21 29 22 30 83 31 23 32 82 33 24 34 25 35 26 36
REMARK SMILES IDX 76 37 27 38 81 39 75 40 77 41 28 42 80 43 74 44 73 45 29 47
REMARK SMILES IDX 61 48 41 49 60 50 42 51 45 52 59 53 78 54 43 55 44 56 58 58
REMARK SMILES IDX 79 59 46 60 30 61 31 62 39 63 32 64 33 65 37 66 40 67 34 68
REMARK SMILES IDX 35 69 38 70 36 71 62 72 63 73 71 74 64 75 65 76 69 77 72 78
REMARK SMILES IDX 66 79 67 80 70 81 68 82 47 83 48 84 56 85 49 86 50 87 54 88
REMARK SMILES IDX 57 89 51 90 52 91 55 92 53 93
REMARK H PARENT 14 5 7 13 18 27 77 46 45 57
REMARK Flexibility Score: inf
ROOT
ATOM      1  C   UNL A   1      31.475  31.015  26.174  1.00  0.00     0.118 C 
ENDROOT
BRANCH   1   2
ATOM      2  N   UNL A   1      32.754  30.459  26.567  1.00  0.00    -0.352 N 
ATOM      3  C   UNL A   1      33.275  29.195  26.454  1.00  0.00     0.252 C 
ATOM      4  O   UNL A   1      34.441  29.038  26.814  1.00  0.00    -0.269 OA
ATOM      5  H   UNL A   1      33.360  31.106  26.994  1.00  0.00     0.163 HD
BRANCH   3   6
ATOM      6  C   UNL A   1      32.496  28.099  25.875  1.00  0.00     0.050 A 
ATOM      7  C   UNL A   1      30.877  26.413  25.565  1.00  0.00     0.024 A 
ATOM      8  C   UNL A   1      31.518  27.238  26.472  1.00  0.00     0.031 A 
ATOM      9  S   UNL A   1      31.620  26.504  24.030  1.00  0.00    -0.146 S 
ATOM     10  C   UNL A   1      32.684  27.729  24.552  1.00  0.00     0.079 A 
BRANCH   7  11
ATOM     11  C   UNL A   1      29.701  25.515  25.843  1.00  0.00     0.159 C 
BRANCH  11  12
ATOM     12  N   UNL A   1      30.000  24.290  26.558  1.00  0.00    -0.380 N 
ATOM     13  H   UNL A   1      29.355  24.014  27.247  1.00  0.00     0.160 HD
BRANCH  12  14
ATOM     14  C   UNL A   1      31.093  23.471  26.375  1.00  0.00     0.036 A 
ATOM     15  C   UNL A   1      33.229  21.675  25.893  1.00  0.00     0.133 A 
ATOM     16  C   UNL A   1      33.108  22.319  27.122  1.00  0.00     0.050 A 
ATOM     17  C   UNL A   1      32.275  21.908  24.904  1.00  0.00     0.062 A 
ATOM     18  C   UNL A   1      32.052  23.207  27.356  1.00  0.00     0.029 A 
ATOM     19  C   UNL A   1      31.227  22.806  25.147  1.00  0.00     0.045 A 
ATOM     20  Br  UNL A   1      32.279  20.998  23.239  1.00  0.00    -0.047 Br
BRANCH  15  21
ATOM     21  O   UNL A   1      34.238  20.757  25.786  1.00  0.00    -0.496 OA
ATOM     22  C   UNL A   1      35.428  21.319  25.238  1.00  0.00     0.278 C 
ENDBRANCH  15  21
ENDBRANCH  12  14
ENDBRANCH  11  12
ENDBRANCH   7  11
ENDBRANCH   3   6
ENDBRANCH   1   2
BRANCH   1  23
ATOM     23  C   UNL A   1      31.372  32.489  26.560  1.00  0.00     0.042 C 
BRANCH  23  24
ATOM     24  C   UNL A   1      32.628  33.008  27.257  1.00  0.00     0.118 C 
BRANCH  24  25
ATOM     25  N   UNL A   1      32.458  34.375  27.731  1.00  0.00    -0.352 N 
ATOM     26  C   UNL A   1      33.046  35.029  28.783  1.00  0.00     0.251 C 
ATOM     27  H   UNL A   1      31.818  34.915  27.215  1.00  0.00     0.163 HD
ATOM     28  O   UNL A   1      32.590  36.106  29.156  1.00  0.00    -0.269 OA
BRANCH  26  29
ATOM     29  C   UNL A   1      34.216  34.447  29.474  1.00  0.00     0.039 A 
ATOM     30  C   UNL A   1      34.018  33.786  30.690  1.00  0.00     0.014 A 
ATOM     31  C   UNL A   1      35.508  34.597  28.962  1.00  0.00     0.014 A 
ATOM     32  C   UNL A   1      35.106  33.230  31.364  1.00  0.00     0.010 A 
ATOM     33  C   UNL A   1      36.582  33.978  29.596  1.00  0.00     0.010 A 
ATOM     34  C   UNL A   1      36.392  33.296  30.806  1.00  0.00    -0.014 A 
BRANCH  34  35
ATOM     35  C   UNL A   1      37.553  32.659  31.478  1.00  0.00     0.031 A 
ATOM     36  C   UNL A   1      38.265  31.506  30.826  1.00  0.00     0.074 A 
ATOM     37  C   UNL A   1      37.923  33.079  32.702  1.00  0.00     0.049 A 
ATOM     38  N   UNL A   1      39.241  30.766  31.290  1.00  0.00    -0.248 NA
ATOM     39  C   UNL A   1      37.801  31.114  29.486  1.00  0.00     0.031 C 
ATOM     40  C   UNL A   1      37.279  34.158  33.454  1.00  0.00     0.029 A 
ATOM     41  N   UNL A   1      38.920  32.641  33.537  1.00  0.00    -0.354 N 
ATOM     42  C   UNL A   1      39.500  29.821  30.306  1.00  0.00     0.074 A 
ATOM     43  C   UNL A   1      38.540  30.042  29.245  1.00  0.00     0.031 C 
ATOM     44  C   UNL A   1      37.905  34.307  34.632  1.00  0.00     0.029 A 
ATOM     45  C   UNL A   1      38.965  33.310  34.736  1.00  0.00     0.049 A 
ATOM     46  H   UNL A   1      39.543  31.917  33.300  1.00  0.00     0.167 HD
ATOM     47  C   UNL A   1      40.467  28.873  30.277  1.00  0.00     0.037 A 
ATOM     48  C   UNL A   1      39.763  33.127  35.805  1.00  0.00     0.037 A 
ATOM     49  C   UNL A   1      41.428  28.669  31.329  1.00  0.00     0.049 A 
ATOM     50  C   UNL A   1      40.821  32.058  35.754  1.00  0.00     0.074 A 
ATOM     51  C   UNL A   1      42.474  27.764  31.380  1.00  0.00     0.029 A 
ATOM     52  N   UNL A   1      41.459  29.383  32.518  1.00  0.00    -0.354 N 
ATOM     53  N   UNL A   1      41.096  31.210  34.793  1.00  0.00    -0.248 NA
ATOM     54  C   UNL A   1      41.688  31.928  36.933  1.00  0.00     0.031 C 
ATOM     55  C   UNL A   1      43.108  27.898  32.619  1.00  0.00     0.029 A 
ATOM     56  C   UNL A   1      42.495  28.925  33.317  1.00  0.00     0.049 A 
ATOM     57  H   UNL A   1      40.838  30.108  32.759  1.00  0.00     0.167 HD
ATOM     58  C   UNL A   1      42.180  30.466  35.237  1.00  0.00     0.074 A 
ATOM     59  C   UNL A   1      42.526  30.976  36.548  1.00  0.00     0.031 C 
ATOM     60  C   UNL A   1      42.830  29.451  34.617  1.00  0.00     0.037 A 
BRANCH  47  61
ATOM     61  C   UNL A   1      40.538  27.989  29.065  1.00  0.00     0.064 A 
ATOM     62  C   UNL A   1      39.771  26.817  28.964  1.00  0.00     0.173 A 
ATOM     63  C   UNL A   1      41.352  28.332  27.975  1.00  0.00     0.173 A 
ATOM     64  F   UNL A   1      38.984  26.436  29.982  1.00  0.00    -0.203 F 
ATOM     65  C   UNL A   1      39.838  26.009  27.833  1.00  0.00     0.198 A 
ATOM     66  C   UNL A   1      41.393  27.538  26.831  1.00  0.00     0.198 A 
ATOM     67  F   UNL A   1      42.102  29.443  28.014  1.00  0.00    -0.203 F 
ATOM     68  F   UNL A   1      39.135  24.869  27.783  1.00  0.00    -0.200 F 
ATOM     69  C   UNL A   1      40.643  26.374  26.764  1.00  0.00     0.200 A 
ATOM     70  F   UNL A   1      42.160  27.900  25.793  1.00  0.00    -0.200 F 
ATOM     71  F   UNL A   1      40.701  25.599  25.672  1.00  0.00    -0.200 F 
ENDBRANCH  47  61
BRANCH  48  72
ATOM     72  C   UNL A   1      39.598  33.983  37.010  1.00  0.00     0.064 A 
ATOM     73  C   UNL A   1      38.840  33.550  38.106  1.00  0.00     0.173 A 
ATOM     74  C   UNL A   1      40.188  35.253  37.087  1.00  0.00     0.173 A 
ATOM     75  F   UNL A   1      38.240  32.350  38.073  1.00  0.00    -0.203 F 
ATOM     76  C   UNL A   1      38.657  34.364  39.222  1.00  0.00     0.198 A 
ATOM     77  C   UNL A   1      40.032  36.053  38.217  1.00  0.00     0.198 A 
ATOM     78  F   UNL A   1      40.931  35.713  36.069  1.00  0.00    -0.203 F 
ATOM     79  F   UNL A   1      37.884  33.945  40.235  1.00  0.00    -0.200 F 
ATOM     80  C   UNL A   1      39.257  35.612  39.279  1.00  0.00     0.200 A 
ATOM     81  F   UNL A   1      40.628  37.252  38.275  1.00  0.00    -0.200 F 
ATOM     82  F   UNL A   1      39.084  36.393  40.354  1.00  0.00    -0.200 F 
ENDBRANCH  48  72
BRANCH  60  83
ATOM     83  C   UNL A   1      44.005  28.849  35.331  1.00  0.00     0.064 A 
ATOM     84  C   UNL A   1      45.312  29.311  35.120  1.00  0.00     0.173 A 
ATOM     85  C   UNL A   1      43.815  27.822  36.268  1.00  0.00     0.173 A 
ATOM     86  F   UNL A   1      45.549  30.281  34.224  1.00  0.00    -0.203 F 
ATOM     87  C   UNL A   1      46.389  28.749  35.801  1.00  0.00     0.198 A 
ATOM     88  C   UNL A   1      44.889  27.284  36.971  1.00  0.00     0.198 A 
ATOM     89  F   UNL A   1      42.584  27.349  36.513  1.00  0.00    -0.203 F 
ATOM     90  F   UNL A   1      47.635  29.171  35.546  1.00  0.00    -0.200 F 
ATOM     91  C   UNL A   1      46.176  27.742  36.731  1.00  0.00     0.200 A 
ATOM     92  F   UNL A   1      44.679  26.322  37.880  1.00  0.00    -0.200 F 
ATOM     93  F   UNL A   1      47.212  27.207  37.392  1.00  0.00    -0.200 F 
ENDBRANCH  60  83
ENDBRANCH  34  35
ENDBRANCH  26  29
ENDBRANCH  24  25
ENDBRANCH  23  24
ENDBRANCH   1  23
TORSDOF 14
ENDMDL
MODEL 3
REMARK VINA RESULT:     -10.6      4.929     10.525
REMARK SMILES COc1ccc(NCc2cc(C(=O)NCCCNC(=O)c3ccc(-c4c5nc(c(-c6c(F)c(F)c(F)c(F)c6F)c6ccc([nH]6)c(-c6c(F)c(F)c(F)c(F)c6F)c6nc(c(-c7c(F)c(F)c(F)c(F)c7F)c7ccc4[nH]7)C=C6)C=C5)cc3)cs2)cc1Br
REMARK SMILES IDX 15 1 14 2 12 3 13 4 11 6 9 7 10 8 85 9 84 10 8 11 7 12 6 14
REMARK SMILES IDX 3 15 4 16 87 17 5 18 86 19 88 20 2 21 1 22 16 23 17 24 18 25
REMARK SMILES IDX 19 26 20 28 21 29 22 30 83 31 23 32 82 33 24 34 25 35 26 36
REMARK SMILES IDX 76 37 27 38 81 39 75 40 77 41 28 42 80 43 74 44 73 45 29 47
REMARK SMILES IDX 61 48 41 49 60 50 42 51 45 52 59 53 78 54 43 55 44 56 58 58
REMARK SMILES IDX 79 59 46 60 30 61 31 62 39 63 32 64 33 65 37 66 40 67 34 68
REMARK SMILES IDX 35 69 38 70 36 71 62 72 63 73 71 74 64 75 65 76 69 77 72 78
REMARK SMILES IDX 66 79 67 80 70 81 68 82 47 83 48 84 56 85 49 86 50 87 54 88
REMARK SMILES IDX 57 89 51 90 52 91 55 92 53 93
REMARK H PARENT 14 5 7 13 18 27 77 46 45 57
REMARK Flexibility Score: inf
ROOT
ATOM      1  C   UNL A   1      31.314  30.850  26.104  1.00  0.00     0.118 C 
ENDROOT
BRANCH   1   2
ATOM      2  N   UNL A   1      32.654  30.329  26.282  1.00  0.00    -0.352 N 
ATOM      3  C   UNL A   1      33.181  29.077  26.092  1.00  0.00     0.252 C 
ATOM      4  O   UNL A   1      34.394  28.951  26.254  1.00  0.00    -0.269 OA
ATOM      5  H   UNL A   1      33.306  30.995  26.599  1.00  0.00     0.163 HD
BRANCH   3   6
ATOM      6  C   UNL A   1      32.345  27.956  25.658  1.00  0.00     0.050 A 
ATOM      7  C   UNL A   1      31.246  26.363  24.311  1.00  0.00     0.024 A 
ATOM      8  C   UNL A   1      31.899  27.581  24.348  1.00  0.00     0.031 A 
ATOM      9  S   UNL A   1      30.958  25.779  25.890  1.00  0.00    -0.146 S 
ATOM     10  C   UNL A   1      31.819  27.074  26.589  1.00  0.00     0.079 A 
BRANCH   7  11
ATOM     11  C   UNL A   1      30.800  25.620  23.080  1.00  0.00     0.159 C 
BRANCH  11  12
ATOM     12  N   UNL A   1      31.786  24.739  22.486  1.00  0.00    -0.380 N 
ATOM     13  H   UNL A   1      31.975  24.871  21.530  1.00  0.00     0.160 HD
BRANCH  12  14
ATOM     14  C   UNL A   1      32.487  23.736  23.119  1.00  0.00     0.036 A 
ATOM     15  C   UNL A   1      34.057  21.687  24.285  1.00  0.00     0.133 A 
ATOM     16  C   UNL A   1      32.667  21.622  24.321  1.00  0.00     0.050 A 
ATOM     17  C   UNL A   1      34.673  22.765  23.649  1.00  0.00     0.062 A 
ATOM     18  C   UNL A   1      31.894  22.637  23.746  1.00  0.00     0.029 A 
ATOM     19  C   UNL A   1      33.889  23.779  23.084  1.00  0.00     0.045 A 
ATOM     20  Br  UNL A   1      36.554  22.895  23.440  1.00  0.00    -0.047 Br
BRANCH  15  21
ATOM     21  O   UNL A   1      34.729  20.608  24.790  1.00  0.00    -0.496 OA
ATOM     22  C   UNL A   1      33.971  19.403  24.694  1.00  0.00     0.278 C 
ENDBRANCH  15  21
ENDBRANCH  12  14
ENDBRANCH  11  12
ENDBRANCH   7  11
ENDBRANCH   3   6
ENDBRANCH   1   2
BRANCH   1  23
ATOM     23  C   UNL A   1      31.249  32.336  26.452  1.00  0.00     0.042 C 
BRANCH  23  24
ATOM     24  C   UNL A   1      32.493  32.827  27.188  1.00  0.00     0.118 C 
BRANCH  24  25
ATOM     25  N   UNL A   1      32.367  34.220  27.594  1.00  0.00    -0.352 N 
ATOM     26  C   UNL A   1      33.006  34.917  28.587  1.00  0.00     0.251 C 
ATOM     27  H   UNL A   1      31.720  34.746  27.071  1.00  0.00     0.163 HD
ATOM     28  O   UNL A   1      32.585  36.022  28.917  1.00  0.00    -0.269 OA
BRANCH  26  29
ATOM     29  C   UNL A   1      34.189  34.348  29.267  1.00  0.00     0.039 A 
ATOM     30  C   UNL A   1      33.998  33.595  30.429  1.00  0.00     0.014 A 
ATOM     31  C   UNL A   1      35.482  34.596  28.798  1.00  0.00     0.014 A 
ATOM     32  C   UNL A   1      35.099  33.050  31.092  1.00  0.00     0.010 A 
ATOM     33  C   UNL A   1      36.572  33.989  29.416  1.00  0.00     0.010 A 
ATOM     34  C   UNL A   1      36.392  33.217  30.572  1.00  0.00    -0.014 A 
BRANCH  34  35
ATOM     35  C   UNL A   1      37.569  32.594  31.228  1.00  0.00     0.031 A 
ATOM     36  C   UNL A   1      38.292  31.456  30.562  1.00  0.00     0.074 A 
ATOM     37  C   UNL A   1      37.944  33.012  32.451  1.00  0.00     0.049 A 
ATOM     38  N   UNL A   1      39.284  30.729  31.012  1.00  0.00    -0.248 NA
ATOM     39  C   UNL A   1      37.820  31.065  29.224  1.00  0.00     0.031 C 
ATOM     40  C   UNL A   1      37.292  34.076  33.216  1.00  0.00     0.029 A 
ATOM     41  N   UNL A   1      38.956  32.584  33.274  1.00  0.00    -0.354 N 
ATOM     42  C   UNL A   1      39.547  29.794  30.019  1.00  0.00     0.074 A 
ATOM     43  C   UNL A   1      38.573  30.006  28.969  1.00  0.00     0.031 C 
ATOM     44  C   UNL A   1      37.927  34.227  34.390  1.00  0.00     0.029 A 
ATOM     45  C   UNL A   1      39.003  33.246  34.477  1.00  0.00     0.049 A 
ATOM     46  H   UNL A   1      39.588  31.871  33.026  1.00  0.00     0.167 HD
ATOM     47  C   UNL A   1      40.528  28.861  29.975  1.00  0.00     0.037 A 
ATOM     48  C   UNL A   1      39.814  33.069  35.537  1.00  0.00     0.037 A 
ATOM     49  C   UNL A   1      41.503  28.665  31.016  1.00  0.00     0.049 A 
ATOM     50  C   UNL A   1      40.888  32.017  35.469  1.00  0.00     0.074 A 
ATOM     51  C   UNL A   1      42.563  27.776  31.051  1.00  0.00     0.029 A 
ATOM     52  N   UNL A   1      41.535  29.372  32.210  1.00  0.00    -0.354 N 
ATOM     53  N   UNL A   1      41.166  31.179  34.500  1.00  0.00    -0.248 NA
ATOM     54  C   UNL A   1      41.769  31.893  36.639  1.00  0.00     0.031 C 
ATOM     55  C   UNL A   1      43.207  27.912  32.285  1.00  0.00     0.029 A 
ATOM     56  C   UNL A   1      42.585  28.925  32.996  1.00  0.00     0.049 A 
ATOM     57  H   UNL A   1      40.905  30.086  32.462  1.00  0.00     0.167 HD
ATOM     58  C   UNL A   1      42.265  30.449  34.928  1.00  0.00     0.074 A 
ATOM     59  C   UNL A   1      42.616  30.956  36.239  1.00  0.00     0.031 C 
ATOM     60  C   UNL A   1      42.925  29.448  34.295  1.00  0.00     0.037 A 
BRANCH  47  61
ATOM     61  C   UNL A   1      40.601  27.985  28.757  1.00  0.00     0.064 A 
ATOM     62  C   UNL A   1      39.896  26.774  28.680  1.00  0.00     0.173 A 
ATOM     63  C   UNL A   1      41.353  28.376  27.638  1.00  0.00     0.173 A 
ATOM     64  F   UNL A   1      39.170  26.347  29.725  1.00  0.00    -0.203 F 
ATOM     65  C   UNL A   1      39.963  25.973  27.543  1.00  0.00     0.198 A 
ATOM     66  C   UNL A   1      41.392  27.588  26.490  1.00  0.00     0.198 A 
ATOM     67  F   UNL A   1      42.042  29.526  27.654  1.00  0.00    -0.203 F 
ATOM     68  F   UNL A   1      39.322  24.797  27.514  1.00  0.00    -0.200 F 
ATOM     69  C   UNL A   1      40.705  26.385  26.445  1.00  0.00     0.200 A 
ATOM     70  F   UNL A   1      42.099  27.994  25.425  1.00  0.00    -0.200 F 
ATOM     71  F   UNL A   1      40.763  25.617  25.348  1.00  0.00    -0.200 F 
ENDBRANCH  47  61
BRANCH  48  72
ATOM     72  C   UNL A   1      39.648  33.915  36.748  1.00  0.00     0.064 A 
ATOM     73  C   UNL A   1      40.281  35.162  36.851  1.00  0.00     0.173 A 
ATOM     74  C   UNL A   1      38.861  33.494  37.829  1.00  0.00     0.173 A 
ATOM     75  F   UNL A   1      41.059  35.602  35.851  1.00  0.00    -0.203 F 
ATOM     76  C   UNL A   1      40.153  35.942  37.999  1.00  0.00     0.198 A 
ATOM     77  C   UNL A   1      38.707  34.289  38.963  1.00  0.00     0.198 A 
ATOM     78  F   UNL A   1      38.227  32.313  37.779  1.00  0.00    -0.203 F 
ATOM     79  F   UNL A   1      40.810  37.107  38.090  1.00  0.00    -0.200 F 
ATOM     80  C   UNL A   1      39.362  35.507  39.051  1.00  0.00     0.200 A 
ATOM     81  F   UNL A   1      37.928  33.873  39.970  1.00  0.00    -0.200 F 
ATOM     82  F   UNL A   1      39.237  36.260  40.153  1.00  0.00    -0.200 F 
ENDBRANCH  48  72
BRANCH  60  83
ATOM     83  C   UNL A   1      44.116  28.860  34.994  1.00  0.00     0.064 A 
ATOM     84  C   UNL A   1      44.000  27.749  35.842  1.00  0.00     0.173 A 
ATOM     85  C   UNL A   1      45.397  29.392  34.780  1.00  0.00     0.173 A 
ATOM     86  F   UNL A   1      42.796  27.212  36.091  1.00  0.00    -0.203 F 
ATOM     87  C   UNL A   1      45.118  27.210  36.473  1.00  0.00     0.198 A 
ATOM     88  C   UNL A   1      46.517  28.831  35.386  1.00  0.00     0.198 A 
ATOM     89  F   UNL A   1      45.564  30.450  33.973  1.00  0.00    -0.203 F 
ATOM     90  F   UNL A   1      44.978  26.180  37.319  1.00  0.00    -0.200 F 
ATOM     91  C   UNL A   1      46.376  27.746  36.238  1.00  0.00     0.200 A 
ATOM     92  F   UNL A   1      47.733  29.341  35.146  1.00  0.00    -0.200 F 
ATOM     93  F   UNL A   1      47.453  27.220  36.839  1.00  0.00    -0.200 F 
ENDBRANCH  60  83
ENDBRANCH  34  35
ENDBRANCH  26  29
ENDBRANCH  24  25
ENDBRANCH  23  24
ENDBRANCH   1  23
TORSDOF 14
ENDMDL
