MODEL 1
REMARK VINA RESULT:     -10.9      0.000      0.000
REMARK SMILES O=C(NCCCNC(=O)[C@@H](CCOCCO)c1cccc(F)c1)c1ccc(-c2c3nc(c(-c4c(F)c(F)c(F)c(F)c4F)c4ccc([nH]4)c(-c4c(F)c(F)c(F)c(F)c4F)c4nc(c(-c5c(F)c(F)c(F)c(F)c5F)c5ccc2[nH]5)C=C4)C=C3)cc1
REMARK SMILES IDX 7 1 8 2 9 3 6 5 5 6 4 7 3 8 1 9 2 10 24 12 25 13 86 14 26 15
REMARK SMILES IDX 85 16 27 17 28 18 29 19 79 20 30 21 84 22 78 23 80 24 31 25
REMARK SMILES IDX 83 26 77 27 76 28 32 30 64 31 44 32 63 33 45 34 48 35 62 36
REMARK SMILES IDX 81 37 46 38 47 39 61 41 82 42 49 43 33 44 34 45 42 46 35 47
REMARK SMILES IDX 36 48 40 49 43 50 37 51 38 52 41 53 39 54 65 55 66 56 74 57
REMARK SMILES IDX 67 58 68 59 72 60 75 61 69 62 70 63 73 64 71 65 50 66 51 67
REMARK SMILES IDX 59 68 52 69 53 70 57 71 60 72 54 73 55 74 58 75 56 76 10 77
REMARK SMILES IDX 11 78 12 79 13 80 14 81 15 82 16 83 17 85 18 86 23 87 19 88
REMARK SMILES IDX 21 89 20 90 22 91
REMARK H PARENT 7 4 3 11 80 29 48 40 16 84
REMARK Flexibility Score: inf
ROOT
ATOM      1  N   UNL A   1      32.663  29.713  26.572  1.00  0.00    -0.356 N 
ATOM      2  C   UNL A   1      33.362  28.582  26.353  1.00  0.00     0.227 C 
ATOM      3  O   UNL A   1      34.260  28.431  27.204  1.00  0.00    -0.274 OA
ATOM      4  H   UNL A   1      32.842  30.061  27.475  1.00  0.00     0.163 HD
ENDROOT
BRANCH   1   5
ATOM      5  C   UNL A   1      31.724  30.572  25.872  1.00  0.00     0.117 C 
BRANCH   5   6
ATOM      6  C   UNL A   1      31.437  31.860  26.640  1.00  0.00     0.042 C 
BRANCH   6   7
ATOM      7  C   UNL A   1      32.689  32.454  27.279  1.00  0.00     0.118 C 
BRANCH   7   8
ATOM      8  N   UNL A   1      32.514  33.871  27.599  1.00  0.00    -0.352 N 
ATOM      9  O   UNL A   1      32.567  35.744  28.840  1.00  0.00    -0.269 OA
ATOM     10  C   UNL A   1      33.080  34.662  28.575  1.00  0.00     0.251 C 
ATOM     11  H   UNL A   1      31.879  34.343  27.013  1.00  0.00     0.163 HD
BRANCH  10  12
ATOM     12  C   UNL A   1      34.305  34.237  29.293  1.00  0.00     0.039 A 
ATOM     13  C   UNL A   1      34.211  33.387  30.389  1.00  0.00     0.014 A 
ATOM     14  C   UNL A   1      35.572  34.602  28.817  1.00  0.00     0.014 A 
ATOM     15  C   UNL A   1      35.340  33.059  31.119  1.00  0.00     0.010 A 
ATOM     16  C   UNL A   1      36.728  34.127  29.456  1.00  0.00     0.010 A 
ATOM     17  C   UNL A   1      36.617  33.351  30.617  1.00  0.00    -0.014 A 
BRANCH  17  18
ATOM     18  C   UNL A   1      37.772  32.676  31.265  1.00  0.00     0.031 A 
ATOM     19  C   UNL A   1      38.189  32.997  32.666  1.00  0.00     0.074 A 
ATOM     20  C   UNL A   1      38.379  31.687  30.572  1.00  0.00     0.049 A 
ATOM     21  N   UNL A   1      39.144  32.453  33.377  1.00  0.00    -0.248 NA
ATOM     22  C   UNL A   1      37.457  34.064  33.365  1.00  0.00     0.031 C 
ATOM     23  C   UNL A   1      38.045  31.306  29.194  1.00  0.00     0.029 A 
ATOM     24  N   UNL A   1      39.346  30.784  30.931  1.00  0.00    -0.354 N 
ATOM     25  C   UNL A   1      39.147  33.126  34.591  1.00  0.00     0.074 A 
ATOM     26  C   UNL A   1      38.104  34.127  34.522  1.00  0.00     0.031 C 
ATOM     27  C   UNL A   1      38.704  30.189  28.868  1.00  0.00     0.029 A 
ATOM     28  C   UNL A   1      39.605  29.844  29.959  1.00  0.00     0.049 A 
ATOM     29  H   UNL A   1      39.811  30.805  31.797  1.00  0.00     0.167 HD
ATOM     30  C   UNL A   1      39.954  32.916  35.657  1.00  0.00     0.037 A 
ATOM     31  C   UNL A   1      40.494  28.835  29.928  1.00  0.00     0.037 A 
ATOM     32  C   UNL A   1      40.967  31.891  35.708  1.00  0.00     0.049 A 
ATOM     33  C   UNL A   1      41.385  28.646  31.118  1.00  0.00     0.074 A 
ATOM     34  C   UNL A   1      41.830  31.586  36.746  1.00  0.00     0.029 A 
ATOM     35  N   UNL A   1      41.249  31.002  34.679  1.00  0.00    -0.354 N 
ATOM     36  N   UNL A   1      41.384  29.300  32.254  1.00  0.00    -0.248 NA
ATOM     37  C   UNL A   1      42.414  27.606  31.019  1.00  0.00     0.031 C 
ATOM     38  C   UNL A   1      42.666  30.548  36.329  1.00  0.00     0.029 A 
ATOM     39  C   UNL A   1      42.289  30.164  35.052  1.00  0.00     0.049 A 
ATOM     40  H   UNL A   1      40.781  30.973  33.814  1.00  0.00     0.167 HD
ATOM     41  C   UNL A   1      42.411  28.755  33.006  1.00  0.00     0.074 A 
ATOM     42  C   UNL A   1      42.993  27.692  32.209  1.00  0.00     0.031 C 
ATOM     43  C   UNL A   1      42.845  29.113  34.238  1.00  0.00     0.037 A 
BRANCH  30  44
ATOM     44  C   UNL A   1      39.806  33.809  36.854  1.00  0.00     0.064 A 
ATOM     45  C   UNL A   1      38.966  33.433  37.915  1.00  0.00     0.173 A 
ATOM     46  C   UNL A   1      40.398  35.079  36.906  1.00  0.00     0.173 A 
ATOM     47  F   UNL A   1      38.370  32.231  37.912  1.00  0.00    -0.203 F 
ATOM     48  C   UNL A   1      38.707  34.304  38.970  1.00  0.00     0.198 A 
ATOM     49  C   UNL A   1      40.155  35.939  37.975  1.00  0.00     0.198 A 
ATOM     50  F   UNL A   1      41.216  35.483  35.923  1.00  0.00    -0.203 F 
ATOM     51  F   UNL A   1      37.867  33.938  39.949  1.00  0.00    -0.200 F 
ATOM     52  C   UNL A   1      39.300  35.556  38.999  1.00  0.00     0.200 A 
ATOM     53  F   UNL A   1      40.742  37.143  38.011  1.00  0.00    -0.200 F 
ATOM     54  F   UNL A   1      39.044  36.398  40.011  1.00  0.00    -0.200 F 
ENDBRANCH  30  44
BRANCH  31  55
ATOM     55  C   UNL A   1      40.601  27.977  28.717  1.00  0.00     0.064 A 
ATOM     56  C   UNL A   1      41.382  28.369  27.616  1.00  0.00     0.173 A 
ATOM     57  C   UNL A   1      39.899  26.769  28.615  1.00  0.00     0.173 A 
ATOM     58  F   UNL A   1      42.072  29.518  27.657  1.00  0.00    -0.203 F 
ATOM     59  C   UNL A   1      41.424  27.608  26.451  1.00  0.00     0.198 A 
ATOM     60  C   UNL A   1      39.975  25.987  27.462  1.00  0.00     0.198 A 
ATOM     61  F   UNL A   1      39.154  26.337  29.643  1.00  0.00    -0.203 F 
ATOM     62  F   UNL A   1      42.130  28.040  25.397  1.00  0.00    -0.200 F 
ATOM     63  C   UNL A   1      40.726  26.414  26.377  1.00  0.00     0.200 A 
ATOM     64  F   UNL A   1      39.319  24.819  27.403  1.00  0.00    -0.200 F 
ATOM     65  F   UNL A   1      40.779  25.674  25.261  1.00  0.00    -0.200 F 
ENDBRANCH  31  55
BRANCH  43  66
ATOM     66  C   UNL A   1      43.995  28.339  34.807  1.00  0.00     0.064 A 
ATOM     67  C   UNL A   1      45.313  28.757  34.578  1.00  0.00     0.173 A 
ATOM     68  C   UNL A   1      43.792  27.148  35.519  1.00  0.00     0.173 A 
ATOM     69  F   UNL A   1      45.557  29.888  33.899  1.00  0.00    -0.203 F 
ATOM     70  C   UNL A   1      46.391  27.999  35.027  1.00  0.00     0.198 A 
ATOM     71  C   UNL A   1      44.870  26.409  35.992  1.00  0.00     0.198 A 
ATOM     72  F   UNL A   1      42.546  26.719  35.776  1.00  0.00    -0.203 F 
ATOM     73  F   UNL A   1      47.643  28.398  34.765  1.00  0.00    -0.200 F 
ATOM     74  C   UNL A   1      46.168  26.829  35.736  1.00  0.00     0.200 A 
ATOM     75  F   UNL A   1      44.655  25.292  36.701  1.00  0.00    -0.200 F 
ATOM     76  F   UNL A   1      47.206  26.105  36.177  1.00  0.00    -0.200 F 
ENDBRANCH  43  66
ENDBRANCH  17  18
ENDBRANCH  10  12
ENDBRANCH   7   8
ENDBRANCH   6   7
ENDBRANCH   5   6
ENDBRANCH   1   5
BRANCH   2  77
ATOM     77  C   UNL A   1      33.144  27.435  25.346  1.00  0.00     0.111 C 
BRANCH  77  78
ATOM     78  C   UNL A   1      33.296  27.844  23.853  1.00  0.00     0.047 C 
BRANCH  78  79
ATOM     79  C   UNL A   1      32.388  27.296  22.758  1.00  0.00     0.161 C 
BRANCH  79  80
ATOM     80  O   UNL A   1      31.004  27.297  23.055  1.00  0.00    -0.379 OA
BRANCH  80  81
ATOM     81  C   UNL A   1      30.295  28.505  23.322  1.00  0.00     0.188 C 
BRANCH  81  82
ATOM     82  C   UNL A   1      29.973  29.436  22.164  1.00  0.00     0.184 C 
BRANCH  82  83
ATOM     83  O   UNL A   1      31.123  30.033  21.581  1.00  0.00    -0.394 OA
ATOM     84  H   UNL A   1      30.865  30.521  20.783  1.00  0.00     0.210 HD
ENDBRANCH  82  83
ENDBRANCH  81  82
ENDBRANCH  80  81
ENDBRANCH  79  80
ENDBRANCH  78  79
ENDBRANCH  77  78
BRANCH  77  85
ATOM     85  C   UNL A   1      33.298  25.960  25.691  1.00  0.00    -0.033 A 
ATOM     86  C   UNL A   1      34.450  25.192  25.512  1.00  0.00     0.005 A 
ATOM     87  C   UNL A   1      32.185  25.319  26.289  1.00  0.00     0.043 A 
ATOM     88  C   UNL A   1      34.462  23.821  25.829  1.00  0.00     0.003 A 
ATOM     89  C   UNL A   1      32.212  23.971  26.627  1.00  0.00     0.123 A 
ATOM     90  C   UNL A   1      33.338  23.209  26.380  1.00  0.00     0.039 A 
ATOM     91  F   UNL A   1      31.136  23.411  27.195  1.00  0.00    -0.207 F 
ENDBRANCH  77  85
ENDBRANCH   2  77
TORSDOF 17
ENDMDL
MODEL 2
REMARK VINA RESULT:     -10.9      5.852     11.240
REMARK SMILES O=C(NCCCNC(=O)[C@@H](CCOCCO)c1cccc(F)c1)c1ccc(-c2c3nc(c(-c4c(F)c(F)c(F)c(F)c4F)c4ccc([nH]4)c(-c4c(F)c(F)c(F)c(F)c4F)c4nc(c(-c5c(F)c(F)c(F)c(F)c5F)c5ccc2[nH]5)C=C4)C=C3)cc1
REMARK SMILES IDX 7 1 8 2 9 3 6 5 5 6 4 7 3 8 1 9 2 10 24 12 25 13 86 14 26 15
REMARK SMILES IDX 85 16 27 17 28 18 29 19 79 20 30 21 84 22 78 23 80 24 31 25
REMARK SMILES IDX 83 26 77 27 76 28 32 30 64 31 44 32 63 33 45 34 48 35 62 36
REMARK SMILES IDX 81 37 46 38 47 39 61 41 82 42 49 43 33 44 34 45 42 46 35 47
REMARK SMILES IDX 36 48 40 49 43 50 37 51 38 52 41 53 39 54 65 55 66 56 74 57
REMARK SMILES IDX 67 58 68 59 72 60 75 61 69 62 70 63 73 64 71 65 50 66 51 67
REMARK SMILES IDX 59 68 52 69 53 70 57 71 60 72 54 73 55 74 58 75 56 76 10 77
REMARK SMILES IDX 11 78 12 79 13 80 14 81 15 82 16 83 17 85 18 86 23 87 19 88
REMARK SMILES IDX 21 89 20 90 22 91
REMARK H PARENT 7 4 3 11 80 29 48 40 16 84
REMARK Flexibility Score: inf
ROOT
ATOM      1  N   UNL A   1      37.319  22.353  24.896  1.00  0.00    -0.356 N 
ATOM      2  C   UNL A   1      36.635  23.285  25.589  1.00  0.00     0.227 C 
ATOM      3  O   UNL A   1      37.405  24.087  26.154  1.00  0.00    -0.274 OA
ATOM      4  H   UNL A   1      38.257  22.628  24.781  1.00  0.00     0.163 HD
ENDROOT
BRANCH   1   5
ATOM      5  C   UNL A   1      37.084  21.065  24.268  1.00  0.00     0.117 C 
BRANCH   5   6
ATOM      6  C   UNL A   1      37.779  19.926  25.009  1.00  0.00     0.042 C 
BRANCH   6   7
ATOM      7  C   UNL A   1      38.977  20.401  25.825  1.00  0.00     0.118 C 
BRANCH   7   8
ATOM      8  N   UNL A   1      40.014  19.372  25.917  1.00  0.00    -0.352 N 
ATOM      9  O   UNL A   1      42.069  18.473  25.774  1.00  0.00    -0.269 OA
ATOM     10  C   UNL A   1      41.386  19.465  26.004  1.00  0.00     0.251 C 
ATOM     11  H   UNL A   1      39.670  18.450  25.916  1.00  0.00     0.163 HD
BRANCH  10  12
ATOM     12  C   UNL A   1      42.046  20.736  26.389  1.00  0.00     0.039 A 
ATOM     13  C   UNL A   1      42.284  21.716  25.433  1.00  0.00     0.014 A 
ATOM     14  C   UNL A   1      42.345  21.004  27.733  1.00  0.00     0.014 A 
ATOM     15  C   UNL A   1      42.981  22.864  25.765  1.00  0.00     0.010 A 
ATOM     16  C   UNL A   1      42.894  22.243  28.098  1.00  0.00     0.010 A 
ATOM     17  C   UNL A   1      43.218  23.182  27.111  1.00  0.00    -0.014 A 
BRANCH  17  18
ATOM     18  C   UNL A   1      43.653  24.572  27.414  1.00  0.00     0.031 A 
ATOM     19  C   UNL A   1      45.024  25.063  27.067  1.00  0.00     0.074 A 
ATOM     20  C   UNL A   1      42.728  25.410  27.931  1.00  0.00     0.049 A 
ATOM     21  N   UNL A   1      45.524  26.262  27.225  1.00  0.00    -0.248 NA
ATOM     22  C   UNL A   1      45.963  24.096  26.476  1.00  0.00     0.031 C 
ATOM     23  C   UNL A   1      41.364  25.019  28.308  1.00  0.00     0.029 A 
ATOM     24  N   UNL A   1      42.755  26.759  28.173  1.00  0.00    -0.354 N 
ATOM     25  C   UNL A   1      46.837  26.190  26.782  1.00  0.00     0.074 A 
ATOM     26  C   UNL A   1      47.065  24.826  26.354  1.00  0.00     0.031 C 
ATOM     27  C   UNL A   1      40.657  26.111  28.620  1.00  0.00     0.029 A 
ATOM     28  C   UNL A   1      41.545  27.264  28.594  1.00  0.00     0.049 A 
ATOM     29  H   UNL A   1      43.560  27.313  28.058  1.00  0.00     0.167 HD
ATOM     30  C   UNL A   1      47.757  27.181  26.742  1.00  0.00     0.037 A 
ATOM     31  C   UNL A   1      41.192  28.510  28.955  1.00  0.00     0.037 A 
ATOM     32  C   UNL A   1      47.494  28.539  27.148  1.00  0.00     0.049 A 
ATOM     33  C   UNL A   1      42.244  29.578  28.918  1.00  0.00     0.074 A 
ATOM     34  C   UNL A   1      48.354  29.623  27.135  1.00  0.00     0.029 A 
ATOM     35  N   UNL A   1      46.278  29.000  27.635  1.00  0.00    -0.354 N 
ATOM     36  N   UNL A   1      43.486  29.491  28.509  1.00  0.00    -0.248 NA
ATOM     37  C   UNL A   1      41.862  30.904  29.415  1.00  0.00     0.031 C 
ATOM     38  C   UNL A   1      47.676  30.726  27.660  1.00  0.00     0.029 A 
ATOM     39  C   UNL A   1      46.374  30.347  27.947  1.00  0.00     0.049 A 
ATOM     40  H   UNL A   1      45.468  28.450  27.744  1.00  0.00     0.167 HD
ATOM     41  C   UNL A   1      44.038  30.747  28.699  1.00  0.00     0.074 A 
ATOM     42  C   UNL A   1      42.983  31.588  29.230  1.00  0.00     0.031 C 
ATOM     43  C   UNL A   1      45.307  31.161  28.471  1.00  0.00     0.037 A 
BRANCH  30  44
ATOM     44  C   UNL A   1      49.142  26.853  26.266  1.00  0.00     0.064 A 
ATOM     45  C   UNL A   1      49.489  27.044  24.919  1.00  0.00     0.173 A 
ATOM     46  C   UNL A   1      50.088  26.248  27.105  1.00  0.00     0.173 A 
ATOM     47  F   UNL A   1      48.619  27.614  24.071  1.00  0.00    -0.203 F 
ATOM     48  C   UNL A   1      50.720  26.620  24.426  1.00  0.00     0.198 A 
ATOM     49  C   UNL A   1      51.329  25.846  26.614  1.00  0.00     0.198 A 
ATOM     50  F   UNL A   1      49.811  26.051  28.403  1.00  0.00    -0.203 F 
ATOM     51  F   UNL A   1      51.011  26.775  23.126  1.00  0.00    -0.200 F 
ATOM     52  C   UNL A   1      51.639  26.021  25.273  1.00  0.00     0.200 A 
ATOM     53  F   UNL A   1      52.223  25.282  27.438  1.00  0.00    -0.200 F 
ATOM     54  F   UNL A   1      52.822  25.606  24.797  1.00  0.00    -0.200 F 
ENDBRANCH  30  44
BRANCH  31  55
ATOM     55  C   UNL A   1      39.805  28.785  29.419  1.00  0.00     0.064 A 
ATOM     56  C   UNL A   1      39.429  28.562  30.755  1.00  0.00     0.173 A 
ATOM     57  C   UNL A   1      38.817  29.236  28.536  1.00  0.00     0.173 A 
ATOM     58  F   UNL A   1      40.334  28.127  31.644  1.00  0.00    -0.203 F 
ATOM     59  C   UNL A   1      38.115  28.743  31.177  1.00  0.00     0.198 A 
ATOM     60  C   UNL A   1      37.509  29.455  28.969  1.00  0.00     0.198 A 
ATOM     61  F   UNL A   1      39.124  29.483  27.254  1.00  0.00    -0.203 F 
ATOM     62  F   UNL A   1      37.776  28.464  32.443  1.00  0.00    -0.200 F 
ATOM     63  C   UNL A   1      37.156  29.196  30.285  1.00  0.00     0.200 A 
ATOM     64  F   UNL A   1      36.590  29.919  28.110  1.00  0.00    -0.200 F 
ATOM     65  F   UNL A   1      35.895  29.384  30.695  1.00  0.00    -0.200 F 
ENDBRANCH  31  55
BRANCH  43  66
ATOM     66  C   UNL A   1      45.622  32.592  28.781  1.00  0.00     0.064 A 
ATOM     67  C   UNL A   1      46.070  32.960  30.057  1.00  0.00     0.173 A 
ATOM     68  C   UNL A   1      45.413  33.606  27.834  1.00  0.00     0.173 A 
ATOM     69  F   UNL A   1      46.280  32.026  30.996  1.00  0.00    -0.203 F 
ATOM     70  C   UNL A   1      46.282  34.297  30.381  1.00  0.00     0.198 A 
ATOM     71  C   UNL A   1      45.655  34.938  28.152  1.00  0.00     0.198 A 
ATOM     72  F   UNL A   1      45.001  33.298  26.594  1.00  0.00    -0.203 F 
ATOM     73  F   UNL A   1      46.675  34.629  31.618  1.00  0.00    -0.200 F 
ATOM     74  C   UNL A   1      46.078  35.283  29.428  1.00  0.00     0.200 A 
ATOM     75  F   UNL A   1      45.484  35.888  27.223  1.00  0.00    -0.200 F 
ATOM     76  F   UNL A   1      46.293  36.569  29.738  1.00  0.00    -0.200 F 
ENDBRANCH  43  66
ENDBRANCH  17  18
ENDBRANCH  10  12
ENDBRANCH   7   8
ENDBRANCH   6   7
ENDBRANCH   5   6
ENDBRANCH   1   5
BRANCH   2  77
ATOM     77  C   UNL A   1      35.124  23.577  25.675  1.00  0.00     0.111 C 
BRANCH  77  78
ATOM     78  C   UNL A   1      34.420  22.999  26.935  1.00  0.00     0.047 C 
BRANCH  78  79
ATOM     79  C   UNL A   1      33.781  21.615  26.954  1.00  0.00     0.161 C 
BRANCH  79  80
ATOM     80  O   UNL A   1      34.026  20.815  25.812  1.00  0.00    -0.379 OA
BRANCH  80  81
ATOM     81  C   UNL A   1      32.971  20.139  25.130  1.00  0.00     0.188 C 
BRANCH  81  82
ATOM     82  C   UNL A   1      32.851  18.631  25.279  1.00  0.00     0.184 C 
BRANCH  82  83
ATOM     83  O   UNL A   1      32.571  18.214  26.608  1.00  0.00    -0.394 OA
ATOM     84  H   UNL A   1      33.249  18.565  27.207  1.00  0.00     0.210 HD
ENDBRANCH  82  83
ENDBRANCH  81  82
ENDBRANCH  80  81
ENDBRANCH  79  80
ENDBRANCH  78  79
ENDBRANCH  77  78
BRANCH  77  85
ATOM     85  C   UNL A   1      34.439  24.730  24.953  1.00  0.00    -0.033 A 
ATOM     86  C   UNL A   1      34.117  24.772  23.596  1.00  0.00     0.005 A 
ATOM     87  C   UNL A   1      34.055  25.845  25.740  1.00  0.00     0.043 A 
ATOM     88  C   UNL A   1      33.521  25.914  23.029  1.00  0.00     0.003 A 
ATOM     89  C   UNL A   1      33.439  26.957  25.179  1.00  0.00     0.123 A 
ATOM     90  C   UNL A   1      33.189  27.011  23.822  1.00  0.00     0.039 A 
ATOM     91  F   UNL A   1      33.090  27.985  25.966  1.00  0.00    -0.207 F 
ENDBRANCH  77  85
ENDBRANCH   2  77
TORSDOF 17
ENDMDL
MODEL 3
REMARK VINA RESULT:     -10.9      2.028      3.485
REMARK SMILES O=C(NCCCNC(=O)[C@@H](CCOCCO)c1cccc(F)c1)c1ccc(-c2c3nc(c(-c4c(F)c(F)c(F)c(F)c4F)c4ccc([nH]4)c(-c4c(F)c(F)c(F)c(F)c4F)c4nc(c(-c5c(F)c(F)c(F)c(F)c5F)c5ccc2[nH]5)C=C4)C=C3)cc1
REMARK SMILES IDX 7 1 8 2 9 3 6 5 5 6 4 7 3 8 1 9 2 10 24 12 25 13 86 14 26 15
REMARK SMILES IDX 85 16 27 17 28 18 29 19 79 20 30 21 84 22 78 23 80 24 31 25
REMARK SMILES IDX 83 26 77 27 76 28 32 30 64 31 44 32 63 33 45 34 48 35 62 36
REMARK SMILES IDX 81 37 46 38 47 39 61 41 82 42 49 43 33 44 34 45 42 46 35 47
REMARK SMILES IDX 36 48 40 49 43 50 37 51 38 52 41 53 39 54 65 55 66 56 74 57
REMARK SMILES IDX 67 58 68 59 72 60 75 61 69 62 70 63 73 64 71 65 50 66 51 67
REMARK SMILES IDX 59 68 52 69 53 70 57 71 60 72 54 73 55 74 58 75 56 76 10 77
REMARK SMILES IDX 11 78 12 79 13 80 14 81 15 82 16 83 17 85 18 86 23 87 19 88
REMARK SMILES IDX 21 89 20 90 22 91
REMARK H PARENT 7 4 3 11 80 29 48 40 16 84
REMARK Flexibility Score: inf
ROOT
ATOM      1  N   UNL A   1      33.478  27.431  21.758  1.00  0.00    -0.356 N 
ATOM      2  C   UNL A   1      33.042  26.157  21.701  1.00  0.00     0.227 C 
ATOM      3  O   UNL A   1      33.229  25.663  20.573  1.00  0.00    -0.274 OA
ATOM      4  H   UNL A   1      34.060  27.632  20.990  1.00  0.00     0.163 HD
ENDROOT
BRANCH   1   5
ATOM      5  C   UNL A   1      33.347  28.596  22.616  1.00  0.00     0.117 C 
BRANCH   5   6
ATOM      6  C   UNL A   1      34.346  28.578  23.770  1.00  0.00     0.042 C 
BRANCH   6   7
ATOM      7  C   UNL A   1      33.666  28.568  25.136  1.00  0.00     0.118 C 
BRANCH   7   8
ATOM      8  N   UNL A   1      33.022  29.848  25.430  1.00  0.00    -0.352 N 
ATOM      9  O   UNL A   1      32.293  31.572  26.676  1.00  0.00    -0.269 OA
ATOM     10  C   UNL A   1      33.144  30.706  26.502  1.00  0.00     0.251 C 
ATOM     11  H   UNL A   1      32.389  30.152  24.739  1.00  0.00     0.163 HD
BRANCH  10  12
ATOM     12  C   UNL A   1      34.294  30.612  27.433  1.00  0.00     0.039 A 
ATOM     13  C   UNL A   1      34.596  29.402  28.047  1.00  0.00     0.014 A 
ATOM     14  C   UNL A   1      35.145  31.709  27.626  1.00  0.00     0.014 A 
ATOM     15  C   UNL A   1      35.610  29.328  28.986  1.00  0.00     0.010 A 
ATOM     16  C   UNL A   1      36.278  31.585  28.446  1.00  0.00     0.010 A 
ATOM     17  C   UNL A   1      36.516  30.389  29.134  1.00  0.00    -0.014 A 
BRANCH  17  18
ATOM     18  C   UNL A   1      37.764  30.115  29.893  1.00  0.00     0.031 A 
ATOM     19  C   UNL A   1      37.947  30.577  31.305  1.00  0.00     0.074 A 
ATOM     20  C   UNL A   1      38.698  29.345  29.291  1.00  0.00     0.049 A 
ATOM     21  N   UNL A   1      38.961  30.367  32.107  1.00  0.00    -0.248 NA
ATOM     22  C   UNL A   1      36.870  31.382  31.901  1.00  0.00     0.031 C 
ATOM     23  C   UNL A   1      38.610  28.852  27.911  1.00  0.00     0.029 A 
ATOM     24  N   UNL A   1      39.861  28.790  29.758  1.00  0.00    -0.354 N 
ATOM     25  C   UNL A   1      38.660  31.033  33.286  1.00  0.00     0.074 A 
ATOM     26  C   UNL A   1      37.371  31.664  33.098  1.00  0.00     0.031 C 
ATOM     27  C   UNL A   1      39.602  27.984  27.683  1.00  0.00     0.029 A 
ATOM     28  C   UNL A   1      40.473  27.955  28.850  1.00  0.00     0.049 A 
ATOM     29  H   UNL A   1      40.225  28.971  30.654  1.00  0.00     0.167 HD
ATOM     30  C   UNL A   1      39.402  31.102  34.415  1.00  0.00     0.037 A 
ATOM     31  C   UNL A   1      41.625  27.267  28.928  1.00  0.00     0.037 A 
ATOM     32  C   UNL A   1      40.671  30.439  34.585  1.00  0.00     0.049 A 
ATOM     33  C   UNL A   1      42.431  27.385  30.187  1.00  0.00     0.074 A 
ATOM     34  C   UNL A   1      41.497  30.435  35.695  1.00  0.00     0.029 A 
ATOM     35  N   UNL A   1      41.294  29.658  33.620  1.00  0.00    -0.354 N 
ATOM     36  N   UNL A   1      42.138  28.030  31.289  1.00  0.00    -0.248 NA
ATOM     37  C   UNL A   1      43.732  26.709  30.208  1.00  0.00     0.031 C 
ATOM     38  C   UNL A   1      42.641  29.695  35.386  1.00  0.00     0.029 A 
ATOM     39  C   UNL A   1      42.504  29.187  34.103  1.00  0.00     0.049 A 
ATOM     40  H   UNL A   1      40.928  29.469  32.725  1.00  0.00     0.167 HD
ATOM     41  C   UNL A   1      43.217  27.842  32.137  1.00  0.00     0.074 A 
ATOM     42  C   UNL A   1      44.157  26.993  31.431  1.00  0.00     0.031 C 
ATOM     43  C   UNL A   1      43.419  28.341  33.379  1.00  0.00     0.037 A 
BRANCH  30  44
ATOM     44  C   UNL A   1      38.891  31.931  35.558  1.00  0.00     0.064 A 
ATOM     45  C   UNL A   1      39.242  33.287  35.658  1.00  0.00     0.173 A 
ATOM     46  C   UNL A   1      38.154  31.366  36.608  1.00  0.00     0.173 A 
ATOM     47  F   UNL A   1      39.952  33.876  34.684  1.00  0.00    -0.203 F 
ATOM     48  C   UNL A   1      38.895  34.038  36.778  1.00  0.00     0.198 A 
ATOM     49  C   UNL A   1      37.787  32.128  37.716  1.00  0.00     0.198 A 
ATOM     50  F   UNL A   1      37.785  30.078  36.557  1.00  0.00    -0.203 F 
ATOM     51  F   UNL A   1      39.279  35.320  36.870  1.00  0.00    -0.200 F 
ATOM     52  C   UNL A   1      38.169  33.459  37.806  1.00  0.00     0.200 A 
ATOM     53  F   UNL A   1      37.070  31.571  38.703  1.00  0.00    -0.200 F 
ATOM     54  F   UNL A   1      37.841  34.181  38.887  1.00  0.00    -0.200 F 
ENDBRANCH  30  44
BRANCH  31  55
ATOM     55  C   UNL A   1      42.088  26.458  27.768  1.00  0.00     0.064 A 
ATOM     56  C   UNL A   1      41.603  25.157  27.551  1.00  0.00     0.173 A 
ATOM     57  C   UNL A   1      43.049  26.948  26.874  1.00  0.00     0.173 A 
ATOM     58  F   UNL A   1      40.684  24.636  28.377  1.00  0.00    -0.203 F 
ATOM     59  C   UNL A   1      42.089  24.367  26.513  1.00  0.00     0.198 A 
ATOM     60  C   UNL A   1      43.506  26.169  25.810  1.00  0.00     0.198 A 
ATOM     61  F   UNL A   1      43.532  28.189  27.023  1.00  0.00    -0.203 F 
ATOM     62  F   UNL A   1      41.650  23.109  26.369  1.00  0.00    -0.200 F 
ATOM     63  C   UNL A   1      43.036  24.876  25.639  1.00  0.00     0.200 A 
ATOM     64  F   UNL A   1      44.402  26.674  24.951  1.00  0.00    -0.200 F 
ATOM     65  F   UNL A   1      43.493  24.121  24.631  1.00  0.00    -0.200 F 
ENDBRANCH  31  55
BRANCH  43  66
ATOM     66  C   UNL A   1      44.699  27.970  34.063  1.00  0.00     0.064 A 
ATOM     67  C   UNL A   1      44.773  26.811  34.848  1.00  0.00     0.173 A 
ATOM     68  C   UNL A   1      45.829  28.798  33.996  1.00  0.00     0.173 A 
ATOM     69  F   UNL A   1      43.716  25.991  34.946  1.00  0.00    -0.203 F 
ATOM     70  C   UNL A   1      45.930  26.502  35.558  1.00  0.00     0.198 A 
ATOM     71  C   UNL A   1      46.993  28.471  34.682  1.00  0.00     0.198 A 
ATOM     72  F   UNL A   1      45.809  29.908  33.242  1.00  0.00    -0.203 F 
ATOM     73  F   UNL A   1      45.966  25.409  36.332  1.00  0.00    -0.200 F 
ATOM     74  C   UNL A   1      47.039  27.330  35.471  1.00  0.00     0.200 A 
ATOM     75  F   UNL A   1      48.074  29.256  34.576  1.00  0.00    -0.200 F 
ATOM     76  F   UNL A   1      48.156  27.026  36.147  1.00  0.00    -0.200 F 
ENDBRANCH  43  66
ENDBRANCH  17  18
ENDBRANCH  10  12
ENDBRANCH   7   8
ENDBRANCH   6   7
ENDBRANCH   5   6
ENDBRANCH   1   5
BRANCH   2  77
ATOM     77  C   UNL A   1      32.499  25.223  22.801  1.00  0.00     0.111 C 
BRANCH  77  78
ATOM     78  C   UNL A   1      30.952  25.228  22.954  1.00  0.00     0.047 C 
BRANCH  78  79
ATOM     79  C   UNL A   1      30.231  26.120  23.958  1.00  0.00     0.161 C 
BRANCH  79  80
ATOM     80  O   UNL A   1      30.385  27.513  23.756  1.00  0.00    -0.379 OA
BRANCH  80  81
ATOM     81  C   UNL A   1      29.653  28.211  22.751  1.00  0.00     0.188 C 
BRANCH  81  82
ATOM     82  C   UNL A   1      29.892  29.701  22.574  1.00  0.00     0.184 C 
BRANCH  82  83
ATOM     83  O   UNL A   1      30.266  30.062  21.251  1.00  0.00    -0.394 OA
ATOM     84  H   UNL A   1      30.095  29.318  20.653  1.00  0.00     0.210 HD
ENDBRANCH  82  83
ENDBRANCH  81  82
ENDBRANCH  80  81
ENDBRANCH  79  80
ENDBRANCH  78  79
ENDBRANCH  77  78
BRANCH  77  85
ATOM     85  C   UNL A   1      33.255  24.015  23.339  1.00  0.00    -0.033 A 
ATOM     86  C   UNL A   1      34.633  23.940  23.556  1.00  0.00     0.005 A 
ATOM     87  C   UNL A   1      32.486  22.878  23.692  1.00  0.00     0.043 A 
ATOM     88  C   UNL A   1      35.228  22.752  24.018  1.00  0.00     0.003 A 
ATOM     89  C   UNL A   1      33.077  21.717  24.176  1.00  0.00     0.123 A 
ATOM     90  C   UNL A   1      34.449  21.636  24.321  1.00  0.00     0.039 A 
ATOM     91  F   UNL A   1      32.307  20.670  24.501  1.00  0.00    -0.207 F 
ENDBRANCH  77  85
ENDBRANCH   2  77
TORSDOF 17
ENDMDL
