MODEL 1
REMARK VINA RESULT:     -11.6      0.000      0.000
REMARK SMILES COc1ccc(/C=C/C(=O)NCCCNC(=O)c2ccc(-c3c4nc(c(-c5c(F)c(F)c(F)c(F)c5F)c5ccc([nH]5)c(-c5c(F)c(F)c(F)c(F)c5F)c5nc(c(-c6c(F)c(F)c(F)c(F)c6F)c6ccc3[nH]6)C=C5)C=C4)cc2)cc1OC[C@@H](C)C(N)=O
REMARK SMILES IDX 9 1 10 2 11 3 8 5 7 6 6 7 3 8 4 9 82 10 5 11 81 12 2 13 1 14
REMARK SMILES IDX 83 15 84 16 85 17 86 18 87 19 88 20 89 21 12 24 13 25 14 26
REMARK SMILES IDX 15 27 16 28 17 30 18 31 19 32 80 33 20 34 79 35 21 36 22 37
REMARK SMILES IDX 23 38 73 39 24 40 78 41 72 42 74 43 25 44 77 45 71 46 70 47
REMARK SMILES IDX 26 49 58 50 38 51 57 52 39 53 42 54 56 55 75 56 40 57 41 58
REMARK SMILES IDX 55 60 76 61 43 62 27 63 28 64 36 65 29 66 30 67 34 68 37 69
REMARK SMILES IDX 31 70 32 71 35 72 33 73 59 74 60 75 68 76 61 77 62 78 66 79
REMARK SMILES IDX 69 80 63 81 64 82 67 83 65 84 44 85 45 86 53 87 46 88 47 89
REMARK SMILES IDX 51 90 54 91 48 92 49 93 52 94 50 95
REMARK H PARENT 11 4 88 22 88 23 15 29 74 48 42 59
REMARK Flexibility Score: inf
ROOT
ATOM      1  C   UNL A   1      30.898  29.237  23.935  1.00  0.00     0.244 C 
ATOM      2  O   UNL A   1      30.344  29.308  22.840  1.00  0.00    -0.270 OA
ATOM      3  N   UNL A   1      31.003  30.361  24.692  1.00  0.00    -0.352 N 
ATOM      4  H   UNL A   1      30.707  31.183  24.239  1.00  0.00     0.163 HD
ENDROOT
BRANCH   1   5
ATOM      5  C   UNL A   1      31.372  27.917  24.415  1.00  0.00     0.072 C 
ATOM      6  C   UNL A   1      30.655  27.103  25.202  1.00  0.00     0.014 C 
BRANCH   6   7
ATOM      7  C   UNL A   1      31.119  25.826  25.757  1.00  0.00    -0.022 A 
ATOM      8  C   UNL A   1      32.104  23.254  26.326  1.00  0.00     0.160 A 
ATOM      9  C   UNL A   1      30.731  23.523  26.407  1.00  0.00     0.051 A 
ATOM     10  C   UNL A   1      33.001  24.299  26.078  1.00  0.00     0.161 A 
ATOM     11  C   UNL A   1      30.242  24.809  26.141  1.00  0.00     0.012 A 
ATOM     12  C   UNL A   1      32.494  25.567  25.760  1.00  0.00     0.058 A 
BRANCH   8  13
ATOM     13  O   UNL A   1      32.557  21.965  26.281  1.00  0.00    -0.493 OA
ATOM     14  C   UNL A   1      32.208  21.217  25.124  1.00  0.00     0.278 C 
ENDBRANCH   8  13
BRANCH  10  15
ATOM     15  O   UNL A   1      34.372  24.265  26.091  1.00  0.00    -0.489 OA
BRANCH  15  16
ATOM     16  C   UNL A   1      35.096  24.249  24.859  1.00  0.00     0.243 C 
BRANCH  16  17
ATOM     17  C   UNL A   1      35.638  22.868  24.443  1.00  0.00     0.113 C 
ATOM     18  C   UNL A   1      36.571  22.842  23.234  1.00  0.00     0.022 C 
BRANCH  17  19
ATOM     19  C   UNL A   1      36.352  22.230  25.625  1.00  0.00     0.223 C 
ATOM     20  N   UNL A   1      35.560  21.494  26.456  1.00  0.00    -0.369 N 
ATOM     21  O   UNL A   1      37.557  22.310  25.840  1.00  0.00    -0.275 OA
ATOM     22  H   UNL A   1      34.593  21.429  26.284  1.00  0.00     0.159 HD
ATOM     23  H   UNL A   1      35.954  21.027  27.227  1.00  0.00     0.159 HD
ENDBRANCH  17  19
ENDBRANCH  16  17
ENDBRANCH  15  16
ENDBRANCH  10  15
ENDBRANCH   6   7
ENDBRANCH   1   5
BRANCH   3  24
ATOM     24  C   UNL A   1      31.475  30.567  26.052  1.00  0.00     0.118 C 
BRANCH  24  25
ATOM     25  C   UNL A   1      31.331  32.027  26.485  1.00  0.00     0.042 C 
BRANCH  25  26
ATOM     26  C   UNL A   1      32.612  32.629  27.065  1.00  0.00     0.118 C 
BRANCH  26  27
ATOM     27  N   UNL A   1      32.424  34.005  27.506  1.00  0.00    -0.352 N 
ATOM     28  C   UNL A   1      33.032  34.707  28.516  1.00  0.00     0.251 C 
ATOM     29  H   UNL A   1      31.752  34.513  26.997  1.00  0.00     0.163 HD
ATOM     30  O   UNL A   1      32.574  35.795  28.856  1.00  0.00    -0.269 OA
BRANCH  28  31
ATOM     31  C   UNL A   1      34.226  34.172  29.207  1.00  0.00     0.039 A 
ATOM     32  C   UNL A   1      34.044  33.324  30.304  1.00  0.00     0.014 A 
ATOM     33  C   UNL A   1      35.517  34.543  28.821  1.00  0.00     0.014 A 
ATOM     34  C   UNL A   1      35.153  32.803  30.976  1.00  0.00     0.010 A 
ATOM     35  C   UNL A   1      36.622  33.971  29.449  1.00  0.00     0.010 A 
ATOM     36  C   UNL A   1      36.453  33.097  30.533  1.00  0.00    -0.014 A 
BRANCH  36  37
ATOM     37  C   UNL A   1      37.644  32.492  31.183  1.00  0.00     0.031 A 
ATOM     38  C   UNL A   1      38.392  31.374  30.510  1.00  0.00     0.074 A 
ATOM     39  C   UNL A   1      38.006  32.899  32.415  1.00  0.00     0.049 A 
ATOM     40  N   UNL A   1      39.393  30.658  30.958  1.00  0.00    -0.248 NA
ATOM     41  C   UNL A   1      37.937  30.992  29.164  1.00  0.00     0.031 C 
ATOM     42  C   UNL A   1      37.337  33.946  33.190  1.00  0.00     0.029 A 
ATOM     43  N   UNL A   1      39.015  32.470  33.241  1.00  0.00    -0.354 N 
ATOM     44  C   UNL A   1      39.670  29.730  29.962  1.00  0.00     0.074 A 
ATOM     45  C   UNL A   1      38.709  29.946  28.903  1.00  0.00     0.031 C 
ATOM     46  C   UNL A   1      37.961  34.088  34.369  1.00  0.00     0.029 A 
ATOM     47  C   UNL A   1      39.047  33.117  34.453  1.00  0.00     0.049 A 
ATOM     48  H   UNL A   1      39.655  31.765  32.990  1.00  0.00     0.167 HD
ATOM     49  C   UNL A   1      40.649  28.794  29.930  1.00  0.00     0.037 A 
ATOM     50  C   UNL A   1      39.853  32.937  35.518  1.00  0.00     0.037 A 
ATOM     51  C   UNL A   1      41.625  28.606  30.972  1.00  0.00     0.049 A 
ATOM     52  C   UNL A   1      40.927  31.885  35.455  1.00  0.00     0.074 A 
ATOM     53  C   UNL A   1      42.705  27.741  30.996  1.00  0.00     0.029 A 
ATOM     54  N   UNL A   1      41.636  29.293  32.177  1.00  0.00    -0.354 N 
ATOM     55  N   UNL A   1      41.229  31.066  34.477  1.00  0.00    -0.248 NA
ATOM     56  C   UNL A   1      41.776  31.734  36.646  1.00  0.00     0.031 C 
ATOM     57  C   UNL A   1      43.340  27.868  32.235  1.00  0.00     0.029 A 
ATOM     58  C   UNL A   1      42.687  28.849  32.963  1.00  0.00     0.049 A 
ATOM     59  H   UNL A   1      40.992  29.991  32.435  1.00  0.00     0.167 HD
ATOM     60  C   UNL A   1      42.318  30.328  34.920  1.00  0.00     0.074 A 
ATOM     61  C   UNL A   1      42.632  30.803  36.250  1.00  0.00     0.031 C 
ATOM     62  C   UNL A   1      42.995  29.342  34.282  1.00  0.00     0.037 A 
BRANCH  49  63
ATOM     63  C   UNL A   1      40.717  27.894  28.730  1.00  0.00     0.064 A 
ATOM     64  C   UNL A   1      39.978  26.703  28.657  1.00  0.00     0.173 A 
ATOM     65  C   UNL A   1      41.491  28.253  27.616  1.00  0.00     0.173 A 
ATOM     66  F   UNL A   1      39.228  26.310  29.698  1.00  0.00    -0.203 F 
ATOM     67  C   UNL A   1      40.032  25.894  27.525  1.00  0.00     0.198 A 
ATOM     68  C   UNL A   1      41.519  27.457  26.474  1.00  0.00     0.198 A 
ATOM     69  F   UNL A   1      42.211  29.385  27.629  1.00  0.00    -0.203 F 
ATOM     70  F   UNL A   1      39.351  24.740  27.496  1.00  0.00    -0.200 F 
ATOM     71  C   UNL A   1      40.796  26.275  26.432  1.00  0.00     0.200 A 
ATOM     72  F   UNL A   1      42.246  27.833  25.412  1.00  0.00    -0.200 F 
ATOM     73  F   UNL A   1      40.837  25.500  25.340  1.00  0.00    -0.200 F 
ENDBRANCH  49  63
BRANCH  50  74
ATOM     74  C   UNL A   1      39.688  33.781  36.730  1.00  0.00     0.064 A 
ATOM     75  C   UNL A   1      38.896  33.349  37.803  1.00  0.00     0.173 A 
ATOM     76  C   UNL A   1      40.300  35.038  36.836  1.00  0.00     0.173 A 
ATOM     77  F   UNL A   1      38.271  32.164  37.739  1.00  0.00    -0.203 F 
ATOM     78  C   UNL A   1      38.704  34.151  38.926  1.00  0.00     0.198 A 
ATOM     79  C   UNL A   1      40.131  35.828  37.972  1.00  0.00     0.198 A 
ATOM     80  F   UNL A   1      41.071  35.496  35.839  1.00  0.00    -0.203 F 
ATOM     81  F   UNL A   1      37.900  33.735  39.914  1.00  0.00    -0.200 F 
ATOM     82  C   UNL A   1      39.326  35.388  39.011  1.00  0.00     0.200 A 
ATOM     83  F   UNL A   1      40.745  37.016  38.058  1.00  0.00    -0.200 F 
ATOM     84  F   UNL A   1      39.141  36.159  40.091  1.00  0.00    -0.200 F 
ENDBRANCH  50  74
BRANCH  62  85
ATOM     85  C   UNL A   1      44.168  28.738  34.997  1.00  0.00     0.064 A 
ATOM     86  C   UNL A   1      44.031  27.602  35.807  1.00  0.00     0.173 A 
ATOM     87  C   UNL A   1      45.453  29.279  34.833  1.00  0.00     0.173 A 
ATOM     88  F   UNL A   1      42.820  27.058  36.009  1.00  0.00    -0.203 F 
ATOM     89  C   UNL A   1      45.134  27.042  36.447  1.00  0.00     0.198 A 
ATOM     90  C   UNL A   1      46.557  28.698  35.450  1.00  0.00     0.198 A 
ATOM     91  F   UNL A   1      45.639  30.361  34.063  1.00  0.00    -0.203 F 
ATOM     92  F   UNL A   1      44.973  25.985  37.253  1.00  0.00    -0.200 F 
ATOM     93  C   UNL A   1      46.397  27.586  36.261  1.00  0.00     0.200 A 
ATOM     94  F   UNL A   1      47.778  29.216  35.257  1.00  0.00    -0.200 F 
ATOM     95  F   UNL A   1      47.458  27.040  36.870  1.00  0.00    -0.200 F 
ENDBRANCH  62  85
ENDBRANCH  36  37
ENDBRANCH  28  31
ENDBRANCH  26  27
ENDBRANCH  25  26
ENDBRANCH  24  25
ENDBRANCH   3  24
TORSDOF 16
ENDMDL
MODEL 2
REMARK VINA RESULT:     -11.3      2.219      3.664
REMARK SMILES COc1ccc(/C=C/C(=O)NCCCNC(=O)c2ccc(-c3c4nc(c(-c5c(F)c(F)c(F)c(F)c5F)c5ccc([nH]5)c(-c5c(F)c(F)c(F)c(F)c5F)c5nc(c(-c6c(F)c(F)c(F)c(F)c6F)c6ccc3[nH]6)C=C5)C=C4)cc2)cc1OC[C@@H](C)C(N)=O
REMARK SMILES IDX 9 1 10 2 11 3 8 5 7 6 6 7 3 8 4 9 82 10 5 11 81 12 2 13 1 14
REMARK SMILES IDX 83 15 84 16 85 17 86 18 87 19 88 20 89 21 12 24 13 25 14 26
REMARK SMILES IDX 15 27 16 28 17 30 18 31 19 32 80 33 20 34 79 35 21 36 22 37
REMARK SMILES IDX 23 38 73 39 24 40 78 41 72 42 74 43 25 44 77 45 71 46 70 47
REMARK SMILES IDX 26 49 58 50 38 51 57 52 39 53 42 54 56 55 75 56 40 57 41 58
REMARK SMILES IDX 55 60 76 61 43 62 27 63 28 64 36 65 29 66 30 67 34 68 37 69
REMARK SMILES IDX 31 70 32 71 35 72 33 73 59 74 60 75 68 76 61 77 62 78 66 79
REMARK SMILES IDX 69 80 63 81 64 82 67 83 65 84 44 85 45 86 53 87 46 88 47 89
REMARK SMILES IDX 51 90 54 91 48 92 49 93 52 94 50 95
REMARK H PARENT 11 4 88 22 88 23 15 29 74 48 42 59
REMARK Flexibility Score: inf
ROOT
ATOM      1  C   UNL A   1      31.935  26.315  21.702  1.00  0.00     0.244 C 
ATOM      2  O   UNL A   1      31.393  26.171  20.608  1.00  0.00    -0.270 OA
ATOM      3  N   UNL A   1      31.497  27.301  22.529  1.00  0.00    -0.352 N 
ATOM      4  H   UNL A   1      30.830  27.900  22.125  1.00  0.00     0.163 HD
ENDROOT
BRANCH   1   5
ATOM      5  C   UNL A   1      33.000  25.365  22.104  1.00  0.00     0.072 C 
ATOM      6  C   UNL A   1      32.769  24.165  22.653  1.00  0.00     0.014 C 
BRANCH   6   7
ATOM      7  C   UNL A   1      33.796  23.233  23.131  1.00  0.00    -0.022 A 
ATOM      8  C   UNL A   1      35.643  21.628  24.518  1.00  0.00     0.160 A 
ATOM      9  C   UNL A   1      36.081  22.726  23.766  1.00  0.00     0.051 A 
ATOM     10  C   UNL A   1      34.294  21.255  24.480  1.00  0.00     0.161 A 
ATOM     11  C   UNL A   1      35.162  23.515  23.061  1.00  0.00     0.012 A 
ATOM     12  C   UNL A   1      33.380  22.086  23.816  1.00  0.00     0.058 A 
BRANCH   8  13
ATOM     13  O   UNL A   1      36.468  21.045  25.438  1.00  0.00    -0.493 OA
ATOM     14  C   UNL A   1      37.661  20.462  24.933  1.00  0.00     0.278 C 
ENDBRANCH   8  13
BRANCH  10  15
ATOM     15  O   UNL A   1      33.702  20.149  25.032  1.00  0.00    -0.489 OA
BRANCH  15  16
ATOM     16  C   UNL A   1      32.966  19.247  24.203  1.00  0.00     0.243 C 
BRANCH  16  17
ATOM     17  C   UNL A   1      33.431  17.780  24.268  1.00  0.00     0.113 C 
ATOM     18  C   UNL A   1      34.940  17.545  24.230  1.00  0.00     0.022 C 
BRANCH  17  19
ATOM     19  C   UNL A   1      32.865  17.127  25.520  1.00  0.00     0.223 C 
ATOM     20  N   UNL A   1      32.647  17.970  26.569  1.00  0.00    -0.369 N 
ATOM     21  O   UNL A   1      32.574  15.939  25.618  1.00  0.00    -0.275 OA
ATOM     22  H   UNL A   1      32.881  18.923  26.492  1.00  0.00     0.159 HD
ATOM     23  H   UNL A   1      32.257  17.626  27.405  1.00  0.00     0.159 HD
ENDBRANCH  17  19
ENDBRANCH  16  17
ENDBRANCH  15  16
ENDBRANCH  10  15
ENDBRANCH   6   7
ENDBRANCH   1   5
BRANCH   3  24
ATOM     24  C   UNL A   1      31.838  27.629  23.904  1.00  0.00     0.118 C 
BRANCH  24  25
ATOM     25  C   UNL A   1      32.700  28.889  23.987  1.00  0.00     0.042 C 
BRANCH  25  26
ATOM     26  C   UNL A   1      33.216  29.195  25.394  1.00  0.00     0.118 C 
BRANCH  26  27
ATOM     27  N   UNL A   1      32.757  30.489  25.882  1.00  0.00    -0.352 N 
ATOM     28  C   UNL A   1      33.199  31.252  26.933  1.00  0.00     0.251 C 
ATOM     29  H   UNL A   1      32.008  30.878  25.375  1.00  0.00     0.163 HD
ATOM     30  O   UNL A   1      32.531  32.215  27.302  1.00  0.00    -0.269 OA
BRANCH  28  31
ATOM     31  C   UNL A   1      34.462  30.929  27.633  1.00  0.00     0.039 A 
ATOM     32  C   UNL A   1      35.426  31.932  27.775  1.00  0.00     0.014 A 
ATOM     33  C   UNL A   1      34.726  29.638  28.097  1.00  0.00     0.014 A 
ATOM     34  C   UNL A   1      36.628  31.657  28.432  1.00  0.00     0.010 A 
ATOM     35  C   UNL A   1      35.897  29.382  28.810  1.00  0.00     0.010 A 
ATOM     36  C   UNL A   1      36.860  30.387  28.985  1.00  0.00    -0.014 A 
BRANCH  36  37
ATOM     37  C   UNL A   1      38.096  30.095  29.755  1.00  0.00     0.031 A 
ATOM     38  C   UNL A   1      39.134  29.158  29.200  1.00  0.00     0.074 A 
ATOM     39  C   UNL A   1      38.247  30.613  30.990  1.00  0.00     0.049 A 
ATOM     40  N   UNL A   1      40.229  28.707  29.761  1.00  0.00    -0.248 NA
ATOM     41  C   UNL A   1      38.898  28.640  27.844  1.00  0.00     0.031 C 
ATOM     42  C   UNL A   1      37.292  31.501  31.655  1.00  0.00     0.029 A 
ATOM     43  N   UNL A   1      39.251  30.455  31.912  1.00  0.00    -0.354 N 
ATOM     44  C   UNL A   1      40.795  27.838  28.838  1.00  0.00     0.074 A 
ATOM     45  C   UNL A   1      39.906  27.792  27.697  1.00  0.00     0.031 C 
ATOM     46  C   UNL A   1      37.762  31.821  32.870  1.00  0.00     0.029 A 
ATOM     47  C   UNL A   1      39.029  31.130  33.089  1.00  0.00     0.049 A 
ATOM     48  H   UNL A   1      40.054  29.909  31.748  1.00  0.00     0.167 HD
ATOM     49  C   UNL A   1      41.960  27.152  28.930  1.00  0.00     0.037 A 
ATOM     50  C   UNL A   1      39.758  31.175  34.220  1.00  0.00     0.037 A 
ATOM     51  C   UNL A   1      42.859  27.228  30.053  1.00  0.00     0.049 A 
ATOM     52  C   UNL A   1      41.045  30.398  34.295  1.00  0.00     0.074 A 
ATOM     53  C   UNL A   1      44.101  26.636  30.205  1.00  0.00     0.029 A 
ATOM     54  N   UNL A   1      42.608  27.936  31.219  1.00  0.00    -0.354 N 
ATOM     55  N   UNL A   1      41.609  29.640  33.386  1.00  0.00    -0.248 NA
ATOM     56  C   UNL A   1      41.798  30.485  35.555  1.00  0.00     0.031 C 
ATOM     57  C   UNL A   1      44.579  26.946  31.482  1.00  0.00     0.029 A 
ATOM     58  C   UNL A   1      43.659  27.772  32.106  1.00  0.00     0.049 A 
ATOM     59  H   UNL A   1      41.802  28.474  31.390  1.00  0.00     0.167 HD
ATOM     60  C   UNL A   1      42.794  29.187  33.950  1.00  0.00     0.074 A 
ATOM     61  C   UNL A   1      42.874  29.764  35.274  1.00  0.00     0.031 C 
ATOM     62  C   UNL A   1      43.731  28.364  33.417  1.00  0.00     0.037 A 
BRANCH  49  63
ATOM     63  C   UNL A   1      42.336  26.254  27.786  1.00  0.00     0.064 A 
ATOM     64  C   UNL A   1      43.220  26.671  26.779  1.00  0.00     0.173 A 
ATOM     65  C   UNL A   1      41.847  24.940  27.726  1.00  0.00     0.173 A 
ATOM     66  F   UNL A   1      43.709  27.920  26.787  1.00  0.00    -0.203 F 
ATOM     67  C   UNL A   1      43.579  25.815  25.742  1.00  0.00     0.198 A 
ATOM     68  C   UNL A   1      42.232  24.078  26.702  1.00  0.00     0.198 A 
ATOM     69  F   UNL A   1      41.006  24.487  28.667  1.00  0.00    -0.203 F 
ATOM     70  F   UNL A   1      44.391  26.251  24.768  1.00  0.00    -0.200 F 
ATOM     71  C   UNL A   1      43.092  24.518  25.708  1.00  0.00     0.200 A 
ATOM     72  F   UNL A   1      41.772  22.818  26.679  1.00  0.00    -0.200 F 
ATOM     73  F   UNL A   1      43.448  23.693  24.713  1.00  0.00    -0.200 F 
ENDBRANCH  49  63
BRANCH  50  74
ATOM     74  C   UNL A   1      39.300  31.996  35.371  1.00  0.00     0.064 A 
ATOM     75  C   UNL A   1      38.471  31.447  36.360  1.00  0.00     0.173 A 
ATOM     76  C   UNL A   1      39.664  33.344  35.500  1.00  0.00     0.173 A 
ATOM     77  F   UNL A   1      38.078  30.168  36.269  1.00  0.00    -0.203 F 
ATOM     78  C   UNL A   1      38.005  32.221  37.421  1.00  0.00     0.198 A 
ATOM     79  C   UNL A   1      39.221  34.110  36.577  1.00  0.00     0.198 A 
ATOM     80  F   UNL A   1      40.458  33.916  34.583  1.00  0.00    -0.203 F 
ATOM     81  F   UNL A   1      37.173  31.684  38.323  1.00  0.00    -0.200 F 
ATOM     82  C   UNL A   1      38.385  33.550  37.531  1.00  0.00     0.200 A 
ATOM     83  F   UNL A   1      39.601  35.390  36.688  1.00  0.00    -0.200 F 
ATOM     84  F   UNL A   1      37.936  34.294  38.551  1.00  0.00    -0.200 F 
ENDBRANCH  50  74
BRANCH  62  85
ATOM     85  C   UNL A   1      44.943  28.070  34.252  1.00  0.00     0.064 A 
ATOM     86  C   UNL A   1      46.091  28.874  34.191  1.00  0.00     0.173 A 
ATOM     87  C   UNL A   1      44.939  26.996  35.155  1.00  0.00     0.173 A 
ATOM     88  F   UNL A   1      46.150  29.903  33.331  1.00  0.00    -0.203 F 
ATOM     89  C   UNL A   1      47.199  28.600  34.988  1.00  0.00     0.198 A 
ATOM     90  C   UNL A   1      46.037  26.743  35.972  1.00  0.00     0.198 A 
ATOM     91  F   UNL A   1      43.863  26.201  35.256  1.00  0.00    -0.203 F 
ATOM     92  F   UNL A   1      48.302  29.352  34.880  1.00  0.00    -0.200 F 
ATOM     93  C   UNL A   1      47.168  27.540  35.883  1.00  0.00     0.200 A 
ATOM     94  F   UNL A   1      46.000  25.728  36.846  1.00  0.00    -0.200 F 
ATOM     95  F   UNL A   1      48.232  27.283  36.655  1.00  0.00    -0.200 F 
ENDBRANCH  62  85
ENDBRANCH  36  37
ENDBRANCH  28  31
ENDBRANCH  26  27
ENDBRANCH  25  26
ENDBRANCH  24  25
ENDBRANCH   3  24
TORSDOF 16
ENDMDL
MODEL 3
REMARK VINA RESULT:     -11.3      2.425      8.445
REMARK SMILES COc1ccc(/C=C/C(=O)NCCCNC(=O)c2ccc(-c3c4nc(c(-c5c(F)c(F)c(F)c(F)c5F)c5ccc([nH]5)c(-c5c(F)c(F)c(F)c(F)c5F)c5nc(c(-c6c(F)c(F)c(F)c(F)c6F)c6ccc3[nH]6)C=C5)C=C4)cc2)cc1OC[C@@H](C)C(N)=O
REMARK SMILES IDX 9 1 10 2 11 3 8 5 7 6 6 7 3 8 4 9 82 10 5 11 81 12 2 13 1 14
REMARK SMILES IDX 83 15 84 16 85 17 86 18 87 19 88 20 89 21 12 24 13 25 14 26
REMARK SMILES IDX 15 27 16 28 17 30 18 31 19 32 80 33 20 34 79 35 21 36 22 37
REMARK SMILES IDX 23 38 73 39 24 40 78 41 72 42 74 43 25 44 77 45 71 46 70 47
REMARK SMILES IDX 26 49 58 50 38 51 57 52 39 53 42 54 56 55 75 56 40 57 41 58
REMARK SMILES IDX 55 60 76 61 43 62 27 63 28 64 36 65 29 66 30 67 34 68 37 69
REMARK SMILES IDX 31 70 32 71 35 72 33 73 59 74 60 75 68 76 61 77 62 78 66 79
REMARK SMILES IDX 69 80 63 81 64 82 67 83 65 84 44 85 45 86 53 87 46 88 47 89
REMARK SMILES IDX 51 90 54 91 48 92 49 93 52 94 50 95
REMARK H PARENT 11 4 88 22 88 23 15 29 74 48 42 59
REMARK Flexibility Score: inf
ROOT
ATOM      1  C   UNL A   1      36.300  33.899  28.733  1.00  0.00     0.244 C 
ATOM      2  O   UNL A   1      37.349  33.810  29.369  1.00  0.00    -0.270 OA
ATOM      3  N   UNL A   1      35.612  35.071  28.761  1.00  0.00    -0.352 N 
ATOM      4  H   UNL A   1      35.971  35.735  29.391  1.00  0.00     0.163 HD
ENDROOT
BRANCH   1   5
ATOM      5  C   UNL A   1      35.863  32.748  27.907  1.00  0.00     0.072 C 
ATOM      6  C   UNL A   1      34.969  31.834  28.307  1.00  0.00     0.014 C 
BRANCH   6   7
ATOM      7  C   UNL A   1      34.569  30.643  27.549  1.00  0.00    -0.022 A 
ATOM      8  C   UNL A   1      33.547  28.230  26.528  1.00  0.00     0.160 A 
ATOM      9  C   UNL A   1      34.899  28.336  26.881  1.00  0.00     0.051 A 
ATOM     10  C   UNL A   1      32.729  29.365  26.570  1.00  0.00     0.161 A 
ATOM     11  C   UNL A   1      35.412  29.543  27.373  1.00  0.00     0.012 A 
ATOM     12  C   UNL A   1      33.242  30.550  27.115  1.00  0.00     0.058 A 
BRANCH   8  13
ATOM     13  O   UNL A   1      32.972  27.004  26.342  1.00  0.00    -0.493 OA
ATOM     14  C   UNL A   1      33.821  25.983  25.835  1.00  0.00     0.278 C 
ENDBRANCH   8  13
BRANCH  10  15
ATOM     15  O   UNL A   1      31.432  29.495  26.144  1.00  0.00    -0.489 OA
BRANCH  15  16
ATOM     16  C   UNL A   1      31.161  29.844  24.784  1.00  0.00     0.243 C 
BRANCH  16  17
ATOM     17  C   UNL A   1      31.091  28.652  23.811  1.00  0.00     0.113 C 
ATOM     18  C   UNL A   1      30.295  27.437  24.282  1.00  0.00     0.022 C 
BRANCH  17  19
ATOM     19  C   UNL A   1      30.523  29.122  22.479  1.00  0.00     0.223 C 
ATOM     20  N   UNL A   1      31.364  29.884  21.723  1.00  0.00    -0.369 N 
ATOM     21  O   UNL A   1      29.409  28.834  22.054  1.00  0.00    -0.275 OA
ATOM     22  H   UNL A   1      32.258  30.116  22.064  1.00  0.00     0.159 HD
ATOM     23  H   UNL A   1      31.078  30.202  20.837  1.00  0.00     0.159 HD
ENDBRANCH  17  19
ENDBRANCH  16  17
ENDBRANCH  15  16
ENDBRANCH  10  15
ENDBRANCH   6   7
ENDBRANCH   1   5
BRANCH   3  24
ATOM     24  C   UNL A   1      34.440  35.519  28.027  1.00  0.00     0.118 C 
BRANCH  24  25
ATOM     25  C   UNL A   1      33.467  36.281  28.926  1.00  0.00     0.042 C 
BRANCH  25  26
ATOM     26  C   UNL A   1      32.724  35.393  29.926  1.00  0.00     0.118 C 
BRANCH  26  27
ATOM     27  N   UNL A   1      32.373  36.108  31.146  1.00  0.00    -0.352 N 
ATOM     28  C   UNL A   1      32.838  35.963  32.428  1.00  0.00     0.251 C 
ATOM     29  H   UNL A   1      31.691  36.809  31.031  1.00  0.00     0.163 HD
ATOM     30  O   UNL A   1      32.254  36.526  33.350  1.00  0.00    -0.269 OA
BRANCH  28  31
ATOM     31  C   UNL A   1      34.029  35.134  32.719  1.00  0.00     0.039 A 
ATOM     32  C   UNL A   1      35.294  35.637  32.395  1.00  0.00     0.014 A 
ATOM     33  C   UNL A   1      33.907  33.848  33.252  1.00  0.00     0.014 A 
ATOM     34  C   UNL A   1      36.436  34.877  32.659  1.00  0.00     0.010 A 
ATOM     35  C   UNL A   1      35.050  33.118  33.576  1.00  0.00     0.010 A 
ATOM     36  C   UNL A   1      36.325  33.623  33.283  1.00  0.00    -0.014 A 
BRANCH  36  37
ATOM     37  C   UNL A   1      37.530  32.832  33.644  1.00  0.00     0.031 A 
ATOM     38  C   UNL A   1      38.285  33.132  34.910  1.00  0.00     0.074 A 
ATOM     39  C   UNL A   1      37.989  31.895  32.791  1.00  0.00     0.049 A 
ATOM     40  N   UNL A   1      39.407  32.618  35.348  1.00  0.00    -0.248 NA
ATOM     41  C   UNL A   1      37.716  34.165  35.788  1.00  0.00     0.031 C 
ATOM     42  C   UNL A   1      37.369  31.540  31.513  1.00  0.00     0.029 A 
ATOM     43  N   UNL A   1      39.091  31.080  32.862  1.00  0.00    -0.354 N 
ATOM     44  C   UNL A   1      39.688  33.280  36.535  1.00  0.00     0.074 A 
ATOM     45  C   UNL A   1      38.642  34.260  36.732  1.00  0.00     0.031 C 
ATOM     46  C   UNL A   1      38.090  30.571  30.929  1.00  0.00     0.029 A 
ATOM     47  C   UNL A   1      39.245  30.265  31.767  1.00  0.00     0.049 A 
ATOM     48  H   UNL A   1      39.714  31.081  33.625  1.00  0.00     0.167 HD
ATOM     49  C   UNL A   1      40.718  33.076  37.392  1.00  0.00     0.037 A 
ATOM     50  C   UNL A   1      40.215  29.380  31.467  1.00  0.00     0.037 A 
ATOM     51  C   UNL A   1      41.738  32.075  37.210  1.00  0.00     0.049 A 
ATOM     52  C   UNL A   1      41.350  29.179  32.435  1.00  0.00     0.074 A 
ATOM     53  C   UNL A   1      42.775  31.736  38.061  1.00  0.00     0.029 A 
ATOM     54  N   UNL A   1      41.850  31.256  36.096  1.00  0.00    -0.354 N 
ATOM     55  N   UNL A   1      41.564  29.756  33.592  1.00  0.00    -0.248 NA
ATOM     56  C   UNL A   1      42.379  28.201  32.054  1.00  0.00     0.031 C 
ATOM     57  C   UNL A   1      43.544  30.746  37.440  1.00  0.00     0.029 A 
ATOM     58  C   UNL A   1      42.956  30.433  36.226  1.00  0.00     0.049 A 
ATOM     59  H   UNL A   1      41.235  31.260  35.327  1.00  0.00     0.167 HD
ATOM     60  C   UNL A   1      42.729  29.190  34.091  1.00  0.00     0.074 A 
ATOM     61  C   UNL A   1      43.171  28.216  33.117  1.00  0.00     0.031 C 
ATOM     62  C   UNL A   1      43.376  29.457  35.252  1.00  0.00     0.037 A 
BRANCH  49  63
ATOM     63  C   UNL A   1      40.802  33.953  38.608  1.00  0.00     0.064 A 
ATOM     64  C   UNL A   1      41.524  35.156  38.604  1.00  0.00     0.173 A 
ATOM     65  C   UNL A   1      40.105  33.612  39.778  1.00  0.00     0.173 A 
ATOM     66  F   UNL A   1      42.214  35.523  37.513  1.00  0.00    -0.203 F 
ATOM     67  C   UNL A   1      41.568  35.970  39.732  1.00  0.00     0.198 A 
ATOM     68  C   UNL A   1      40.127  34.444  40.894  1.00  0.00     0.198 A 
ATOM     69  F   UNL A   1      39.392  32.477  39.835  1.00  0.00    -0.203 F 
ATOM     70  F   UNL A   1      42.300  37.092  39.717  1.00  0.00    -0.200 F 
ATOM     71  C   UNL A   1      40.864  35.618  40.873  1.00  0.00     0.200 A 
ATOM     72  F   UNL A   1      39.434  34.109  41.992  1.00  0.00    -0.200 F 
ATOM     73  F   UNL A   1      40.899  36.409  41.954  1.00  0.00    -0.200 F 
ENDBRANCH  49  63
BRANCH  50  74
ATOM     74  C   UNL A   1      40.151  28.603  30.202  1.00  0.00     0.064 A 
ATOM     75  C   UNL A   1      40.741  29.092  29.028  1.00  0.00     0.173 A 
ATOM     76  C   UNL A   1      39.488  27.369  30.133  1.00  0.00     0.173 A 
ATOM     77  F   UNL A   1      41.368  30.278  29.038  1.00  0.00    -0.203 F 
ATOM     78  C   UNL A   1      40.652  28.389  27.829  1.00  0.00     0.198 A 
ATOM     79  C   UNL A   1      39.423  26.652  28.940  1.00  0.00     0.198 A 
ATOM     80  F   UNL A   1      38.910  26.855  31.228  1.00  0.00    -0.203 F 
ATOM     81  F   UNL A   1      41.181  28.905  26.712  1.00  0.00    -0.200 F 
ATOM     82  C   UNL A   1      39.997  27.167  27.787  1.00  0.00     0.200 A 
ATOM     83  F   UNL A   1      38.802  25.465  28.905  1.00  0.00    -0.200 F 
ATOM     84  F   UNL A   1      39.911  26.491  26.633  1.00  0.00    -0.200 F 
ENDBRANCH  50  74
BRANCH  62  85
ATOM     85  C   UNL A   1      44.610  28.656  35.552  1.00  0.00     0.064 A 
ATOM     86  C   UNL A   1      44.546  27.439  36.247  1.00  0.00     0.173 A 
ATOM     87  C   UNL A   1      45.865  29.091  35.100  1.00  0.00     0.173 A 
ATOM     88  F   UNL A   1      43.371  26.990  36.714  1.00  0.00    -0.203 F 
ATOM     89  C   UNL A   1      45.697  26.699  36.498  1.00  0.00     0.198 A 
ATOM     90  C   UNL A   1      47.010  28.333  35.327  1.00  0.00     0.198 A 
ATOM     91  F   UNL A   1      45.979  30.244  34.425  1.00  0.00    -0.203 F 
ATOM     92  F   UNL A   1      45.620  25.563  37.204  1.00  0.00    -0.200 F 
ATOM     93  C   UNL A   1      46.927  27.142  36.031  1.00  0.00     0.200 A 
ATOM     94  F   UNL A   1      48.194  28.755  34.862  1.00  0.00    -0.200 F 
ATOM     95  F   UNL A   1      48.032  26.422  36.266  1.00  0.00    -0.200 F 
ENDBRANCH  62  85
ENDBRANCH  36  37
ENDBRANCH  28  31
ENDBRANCH  26  27
ENDBRANCH  25  26
ENDBRANCH  24  25
ENDBRANCH   3  24
TORSDOF 16
ENDMDL
