MODEL 1
REMARK VINA RESULT:     -13.0      0.000      0.000
REMARK SMILES N#CCCn1cc(C(=O)NCCCNC(=O)c2ccc(-c3c4nc(c(-c5c(F)c(F)c(F)c(F)c5F)c5ccc([nH]5)c(-c5c(F)c(F)c(F)c(F)c5F)c5nc(c(-c6c(F)c(F)c(F)c(F)c6F)c6ccc3[nH]6)C=C5)C=C4)cc2)c(-c2cccc([N+](=O)[O-])c2)n1
REMARK SMILES IDX 11 1 10 2 8 3 9 4 7 6 5 7 6 8 90 9 80 10 4 11 3 12 2 13 1 14
REMARK SMILES IDX 81 15 82 16 89 17 83 18 85 19 84 20 86 21 87 22 88 23 12 24
REMARK SMILES IDX 13 25 14 26 15 27 16 29 17 30 18 31 79 32 19 33 78 34 20 35
REMARK SMILES IDX 21 36 22 37 72 38 23 39 77 40 71 41 73 42 24 43 76 44 70 45
REMARK SMILES IDX 69 46 25 48 57 49 37 50 56 51 38 52 41 53 55 54 74 55 39 56
REMARK SMILES IDX 40 57 54 59 75 60 42 61 26 62 27 63 35 64 28 65 29 66 33 67
REMARK SMILES IDX 36 68 30 69 31 70 34 71 32 72 58 73 59 74 67 75 60 76 61 77
REMARK SMILES IDX 65 78 68 79 62 80 63 81 66 82 64 83 43 84 44 85 52 86 45 87
REMARK SMILES IDX 46 88 50 89 53 90 47 91 48 92 51 93 49 94
REMARK H PARENT 10 5 14 28 73 47 41 58
REMARK Flexibility Score: inf
ROOT
ATOM      1  C   UNL A   1      35.883  23.188  25.023  1.00  0.00     0.118 C 
ENDROOT
BRANCH   1   2
ATOM      2  N   UNL A   1      35.100  22.805  26.189  1.00  0.00    -0.352 N 
ATOM      3  C   UNL A   1      34.179  21.806  26.376  1.00  0.00     0.255 C 
ATOM      4  O   UNL A   1      33.771  21.644  27.536  1.00  0.00    -0.269 OA
ATOM      5  H   UNL A   1      35.261  23.362  26.987  1.00  0.00     0.163 HD
BRANCH   3   6
ATOM      6  C   UNL A   1      33.740  20.970  25.272  1.00  0.00     0.085 A 
ATOM      7  N   UNL A   1      33.258  19.220  24.031  1.00  0.00    -0.270 N 
ATOM      8  C   UNL A   1      34.082  19.661  25.014  1.00  0.00     0.123 A 
ATOM      9  N   UNL A   1      32.584  20.216  23.433  1.00  0.00    -0.172 NA
ATOM     10  C   UNL A   1      32.904  21.310  24.155  1.00  0.00     0.105 A 
BRANCH   7  11
ATOM     11  C   UNL A   1      33.078  17.837  23.617  1.00  0.00     0.159 C 
BRANCH  11  12
ATOM     12  C   UNL A   1      32.874  16.835  24.766  1.00  0.00     0.144 C 
BRANCH  12  13
ATOM     13  C   UNL A   1      34.142  16.036  25.025  1.00  0.00     0.064 C 
ATOM     14  N   UNL A   1      35.193  15.374  25.239  1.00  0.00    -0.198 NA
ENDBRANCH  12  13
ENDBRANCH  11  12
ENDBRANCH   7  11
BRANCH  10  15
ATOM     15  C   UNL A   1      32.439  22.645  23.782  1.00  0.00     0.010 A 
ATOM     16  C   UNL A   1      31.266  23.147  24.371  1.00  0.00     0.011 A 
ATOM     17  C   UNL A   1      33.095  23.400  22.804  1.00  0.00     0.096 A 
ATOM     18  C   UNL A   1      30.708  24.354  23.950  1.00  0.00     0.008 A 
ATOM     19  C   UNL A   1      32.528  24.615  22.385  1.00  0.00     0.270 A 
ATOM     20  C   UNL A   1      31.331  25.088  22.946  1.00  0.00     0.085 A 
BRANCH  19  21
ATOM     21  N   UNL A   1      33.173  25.392  21.320  1.00  0.00     0.062 N 
ATOM     22  O   UNL A   1      33.780  26.423  21.646  1.00  0.00    -0.258 OA
ATOM     23  O   UNL A   1      33.073  24.976  20.157  1.00  0.00    -0.258 OA
ENDBRANCH  19  21
ENDBRANCH  10  15
ENDBRANCH   3   6
ENDBRANCH   1   2
BRANCH   1  24
ATOM     24  C   UNL A   1      37.242  22.475  24.973  1.00  0.00     0.042 C 
BRANCH  24  25
ATOM     25  C   UNL A   1      38.186  22.971  26.051  1.00  0.00     0.118 C 
BRANCH  25  26
ATOM     26  N   UNL A   1      39.406  22.166  26.140  1.00  0.00    -0.352 N 
ATOM     27  C   UNL A   1      40.716  22.586  26.264  1.00  0.00     0.251 C 
ATOM     28  H   UNL A   1      39.274  21.191  26.109  1.00  0.00     0.163 HD
ATOM     29  O   UNL A   1      41.643  21.837  25.987  1.00  0.00    -0.269 OA
BRANCH  27  30
ATOM     30  C   UNL A   1      40.980  23.956  26.732  1.00  0.00     0.039 A 
ATOM     31  C   UNL A   1      40.427  25.072  26.097  1.00  0.00     0.014 A 
ATOM     32  C   UNL A   1      41.781  24.105  27.857  1.00  0.00     0.014 A 
ATOM     33  C   UNL A   1      40.629  26.330  26.661  1.00  0.00     0.010 A 
ATOM     34  C   UNL A   1      41.788  25.293  28.527  1.00  0.00     0.010 A 
ATOM     35  C   UNL A   1      41.297  26.424  27.891  1.00  0.00    -0.014 A 
BRANCH  35  36
ATOM     36  C   UNL A   1      41.399  27.678  28.624  1.00  0.00     0.031 A 
ATOM     37  C   UNL A   1      42.556  28.515  28.217  1.00  0.00     0.074 A 
ATOM     38  C   UNL A   1      40.382  28.128  29.395  1.00  0.00     0.049 A 
ATOM     39  N   UNL A   1      43.558  28.870  28.948  1.00  0.00    -0.248 NA
ATOM     40  C   UNL A   1      42.707  28.870  26.793  1.00  0.00     0.031 C 
ATOM     41  C   UNL A   1      39.077  27.494  29.632  1.00  0.00     0.029 A 
ATOM     42  N   UNL A   1      40.243  29.320  30.037  1.00  0.00    -0.354 N 
ATOM     43  C   UNL A   1      44.353  29.677  28.141  1.00  0.00     0.074 A 
ATOM     44  C   UNL A   1      43.901  29.468  26.792  1.00  0.00     0.031 C 
ATOM     45  C   UNL A   1      38.215  28.397  30.145  1.00  0.00     0.029 A 
ATOM     46  C   UNL A   1      38.938  29.623  30.423  1.00  0.00     0.049 A 
ATOM     47  H   UNL A   1      41.003  29.919  30.216  1.00  0.00     0.167 HD
ATOM     48  C   UNL A   1      45.119  30.658  28.693  1.00  0.00     0.037 A 
ATOM     49  C   UNL A   1      38.487  30.811  30.901  1.00  0.00     0.037 A 
ATOM     50  C   UNL A   1      45.271  30.445  30.113  1.00  0.00     0.049 A 
ATOM     51  C   UNL A   1      39.676  31.556  31.388  1.00  0.00     0.074 A 
ATOM     52  C   UNL A   1      45.782  29.422  30.888  1.00  0.00     0.029 A 
ATOM     53  N   UNL A   1      44.490  31.198  30.955  1.00  0.00    -0.354 N 
ATOM     54  N   UNL A   1      40.377  31.190  32.424  1.00  0.00    -0.248 NA
ATOM     55  C   UNL A   1      40.369  32.412  30.434  1.00  0.00     0.031 C 
ATOM     56  C   UNL A   1      44.904  29.335  32.009  1.00  0.00     0.029 A 
ATOM     57  C   UNL A   1      43.967  30.362  31.906  1.00  0.00     0.049 A 
ATOM     58  H   UNL A   1      44.334  32.168  30.888  1.00  0.00     0.167 HD
ATOM     59  C   UNL A   1      41.695  31.372  32.034  1.00  0.00     0.074 A 
ATOM     60  C   UNL A   1      41.627  32.204  30.833  1.00  0.00     0.031 C 
ATOM     61  C   UNL A   1      42.686  30.578  32.536  1.00  0.00     0.037 A 
BRANCH  48  62
ATOM     62  C   UNL A   1      45.369  32.008  28.062  1.00  0.00     0.064 A 
ATOM     63  C   UNL A   1      44.264  32.843  27.796  1.00  0.00     0.173 A 
ATOM     64  C   UNL A   1      46.573  32.378  27.422  1.00  0.00     0.173 A 
ATOM     65  F   UNL A   1      43.066  32.585  28.344  1.00  0.00    -0.203 F 
ATOM     66  C   UNL A   1      44.334  33.894  26.880  1.00  0.00     0.198 A 
ATOM     67  C   UNL A   1      46.652  33.462  26.551  1.00  0.00     0.198 A 
ATOM     68  F   UNL A   1      47.691  31.652  27.516  1.00  0.00    -0.203 F 
ATOM     69  F   UNL A   1      43.222  34.566  26.553  1.00  0.00    -0.200 F 
ATOM     70  C   UNL A   1      45.526  34.196  26.249  1.00  0.00     0.200 A 
ATOM     71  F   UNL A   1      47.815  33.728  25.938  1.00  0.00    -0.200 F 
ATOM     72  F   UNL A   1      45.581  35.157  25.318  1.00  0.00    -0.200 F 
ENDBRANCH  48  62
BRANCH  49  73
ATOM     73  C   UNL A   1      37.166  31.463  30.706  1.00  0.00     0.064 A 
ATOM     74  C   UNL A   1      36.258  31.595  31.773  1.00  0.00     0.173 A 
ATOM     75  C   UNL A   1      36.881  32.223  29.555  1.00  0.00     0.173 A 
ATOM     76  F   UNL A   1      36.469  30.940  32.924  1.00  0.00    -0.203 F 
ATOM     77  C   UNL A   1      35.160  32.462  31.706  1.00  0.00     0.198 A 
ATOM     78  C   UNL A   1      35.783  33.082  29.486  1.00  0.00     0.198 A 
ATOM     79  F   UNL A   1      37.718  32.226  28.508  1.00  0.00    -0.203 F 
ATOM     80  F   UNL A   1      34.360  32.614  32.770  1.00  0.00    -0.200 F 
ATOM     81  C   UNL A   1      34.932  33.215  30.566  1.00  0.00     0.200 A 
ATOM     82  F   UNL A   1      35.594  33.833  28.391  1.00  0.00    -0.200 F 
ATOM     83  F   UNL A   1      33.923  34.098  30.526  1.00  0.00    -0.200 F 
ENDBRANCH  49  73
BRANCH  61  84
ATOM     84  C   UNL A   1      42.350  29.693  33.706  1.00  0.00     0.064 A 
ATOM     85  C   UNL A   1      41.875  28.374  33.592  1.00  0.00     0.173 A 
ATOM     86  C   UNL A   1      42.661  30.153  34.990  1.00  0.00     0.173 A 
ATOM     87  F   UNL A   1      41.650  27.820  32.396  1.00  0.00    -0.203 F 
ATOM     88  C   UNL A   1      41.678  27.574  34.717  1.00  0.00     0.198 A 
ATOM     89  C   UNL A   1      42.501  29.340  36.109  1.00  0.00     0.198 A 
ATOM     90  F   UNL A   1      43.173  31.383  35.156  1.00  0.00    -0.203 F 
ATOM     91  F   UNL A   1      41.211  26.323  34.581  1.00  0.00    -0.200 F 
ATOM     92  C   UNL A   1      41.998  28.056  35.974  1.00  0.00     0.200 A 
ATOM     93  F   UNL A   1      42.863  29.794  37.316  1.00  0.00    -0.200 F 
ATOM     94  F   UNL A   1      41.850  27.275  37.054  1.00  0.00    -0.200 F 
ENDBRANCH  61  84
ENDBRANCH  35  36
ENDBRANCH  27  30
ENDBRANCH  25  26
ENDBRANCH  24  25
ENDBRANCH   1  24
TORSDOF 15
ENDMDL
MODEL 2
REMARK VINA RESULT:     -12.9      3.700      9.285
REMARK SMILES N#CCCn1cc(C(=O)NCCCNC(=O)c2ccc(-c3c4nc(c(-c5c(F)c(F)c(F)c(F)c5F)c5ccc([nH]5)c(-c5c(F)c(F)c(F)c(F)c5F)c5nc(c(-c6c(F)c(F)c(F)c(F)c6F)c6ccc3[nH]6)C=C5)C=C4)cc2)c(-c2cccc([N+](=O)[O-])c2)n1
REMARK SMILES IDX 11 1 10 2 8 3 9 4 7 6 5 7 6 8 90 9 80 10 4 11 3 12 2 13 1 14
REMARK SMILES IDX 81 15 82 16 89 17 83 18 85 19 84 20 86 21 87 22 88 23 12 24
REMARK SMILES IDX 13 25 14 26 15 27 16 29 17 30 18 31 79 32 19 33 78 34 20 35
REMARK SMILES IDX 21 36 22 37 72 38 23 39 77 40 71 41 73 42 24 43 76 44 70 45
REMARK SMILES IDX 69 46 25 48 57 49 37 50 56 51 38 52 41 53 55 54 74 55 39 56
REMARK SMILES IDX 40 57 54 59 75 60 42 61 26 62 27 63 35 64 28 65 29 66 33 67
REMARK SMILES IDX 36 68 30 69 31 70 34 71 32 72 58 73 59 74 67 75 60 76 61 77
REMARK SMILES IDX 65 78 68 79 62 80 63 81 66 82 64 83 43 84 44 85 52 86 45 87
REMARK SMILES IDX 46 88 50 89 53 90 47 91 48 92 51 93 49 94
REMARK H PARENT 10 5 14 28 73 47 41 58
REMARK Flexibility Score: inf
ROOT
ATOM      1  C   UNL A   1      32.389  29.537  26.122  1.00  0.00     0.118 C 
ENDROOT
BRANCH   1   2
ATOM      2  N   UNL A   1      32.999  29.154  24.857  1.00  0.00    -0.352 N 
ATOM      3  C   UNL A   1      32.446  28.820  23.647  1.00  0.00     0.255 C 
ATOM      4  O   UNL A   1      33.237  28.666  22.705  1.00  0.00    -0.269 OA
ATOM      5  H   UNL A   1      33.984  29.129  24.872  1.00  0.00     0.163 HD
BRANCH   3   6
ATOM      6  C   UNL A   1      31.008  28.693  23.485  1.00  0.00     0.085 A 
ATOM      7  N   UNL A   1      28.912  29.109  22.967  1.00  0.00    -0.270 N 
ATOM      8  C   UNL A   1      30.083  29.699  23.314  1.00  0.00     0.123 A 
ATOM      9  N   UNL A   1      28.923  27.779  23.162  1.00  0.00    -0.172 NA
ATOM     10  C   UNL A   1      30.193  27.511  23.527  1.00  0.00     0.105 A 
BRANCH   7  11
ATOM     11  C   UNL A   1      27.735  29.781  22.438  1.00  0.00     0.159 C 
BRANCH  11  12
ATOM     12  C   UNL A   1      27.994  30.686  21.221  1.00  0.00     0.144 C 
BRANCH  12  13
ATOM     13  C   UNL A   1      28.040  32.150  21.630  1.00  0.00     0.064 C 
ATOM     14  N   UNL A   1      28.078  33.363  21.970  1.00  0.00    -0.198 NA
ENDBRANCH  12  13
ENDBRANCH  11  12
ENDBRANCH   7  11
BRANCH  10  15
ATOM     15  C   UNL A   1      30.616  26.167  23.918  1.00  0.00     0.010 A 
ATOM     16  C   UNL A   1      31.110  25.294  22.934  1.00  0.00     0.011 A 
ATOM     17  C   UNL A   1      30.475  25.711  25.233  1.00  0.00     0.096 A 
ATOM     18  C   UNL A   1      31.398  23.962  23.232  1.00  0.00     0.008 A 
ATOM     19  C   UNL A   1      30.767  24.369  25.526  1.00  0.00     0.270 A 
ATOM     20  C   UNL A   1      31.217  23.491  24.528  1.00  0.00     0.085 A 
BRANCH  19  21
ATOM     21  N   UNL A   1      30.570  23.860  26.889  1.00  0.00     0.062 N 
ATOM     22  O   UNL A   1      29.410  23.817  27.327  1.00  0.00    -0.258 OA
ATOM     23  O   UNL A   1      31.573  23.506  27.525  1.00  0.00    -0.258 OA
ENDBRANCH  19  21
ENDBRANCH  10  15
ENDBRANCH   3   6
ENDBRANCH   1   2
BRANCH   1  24
ATOM     24  C   UNL A   1      33.218  29.081  27.331  1.00  0.00     0.042 C 
BRANCH  24  25
ATOM     25  C   UNL A   1      34.534  29.827  27.435  1.00  0.00     0.118 C 
BRANCH  25  26
ATOM     26  N   UNL A   1      34.401  31.100  28.146  1.00  0.00    -0.352 N 
ATOM     27  C   UNL A   1      35.103  31.557  29.244  1.00  0.00     0.251 C 
ATOM     28  H   UNL A   1      33.718  31.715  27.793  1.00  0.00     0.163 HD
ATOM     29  O   UNL A   1      34.666  32.470  29.933  1.00  0.00    -0.269 OA
BRANCH  27  30
ATOM     30  C   UNL A   1      36.389  30.924  29.579  1.00  0.00     0.039 A 
ATOM     31  C   UNL A   1      36.486  29.559  29.864  1.00  0.00     0.014 A 
ATOM     32  C   UNL A   1      37.520  31.730  29.571  1.00  0.00     0.014 A 
ATOM     33  C   UNL A   1      37.751  29.007  30.062  1.00  0.00     0.010 A 
ATOM     34  C   UNL A   1      38.757  31.155  29.539  1.00  0.00     0.010 A 
ATOM     35  C   UNL A   1      38.882  29.815  29.875  1.00  0.00    -0.014 A 
BRANCH  35  36
ATOM     36  C   UNL A   1      40.234  29.273  29.898  1.00  0.00     0.031 A 
ATOM     37  C   UNL A   1      40.782  29.096  31.266  1.00  0.00     0.074 A 
ATOM     38  C   UNL A   1      40.799  28.745  28.788  1.00  0.00     0.049 A 
ATOM     39  N   UNL A   1      41.811  29.685  31.776  1.00  0.00    -0.248 NA
ATOM     40  C   UNL A   1      40.015  28.296  32.239  1.00  0.00     0.031 C 
ATOM     41  C   UNL A   1      40.214  28.622  27.445  1.00  0.00     0.029 A 
ATOM     42  N   UNL A   1      41.979  28.083  28.648  1.00  0.00    -0.354 N 
ATOM     43  C   UNL A   1      41.952  29.163  33.058  1.00  0.00     0.074 A 
ATOM     44  C   UNL A   1      40.718  28.489  33.358  1.00  0.00     0.031 C 
ATOM     45  C   UNL A   1      40.921  27.733  26.716  1.00  0.00     0.029 A 
ATOM     46  C   UNL A   1      42.094  27.341  27.473  1.00  0.00     0.049 A 
ATOM     47  H   UNL A   1      42.695  28.124  29.323  1.00  0.00     0.167 HD
ATOM     48  C   UNL A   1      43.182  29.093  33.639  1.00  0.00     0.037 A 
ATOM     49  C   UNL A   1      43.068  26.446  27.168  1.00  0.00     0.037 A 
ATOM     50  C   UNL A   1      44.119  29.947  32.949  1.00  0.00     0.049 A 
ATOM     51  C   UNL A   1      44.217  26.742  28.063  1.00  0.00     0.074 A 
ATOM     52  C   UNL A   1      44.176  31.301  32.678  1.00  0.00     0.029 A 
ATOM     53  N   UNL A   1      44.992  29.353  32.071  1.00  0.00    -0.354 N 
ATOM     54  N   UNL A   1      44.929  27.830  27.978  1.00  0.00    -0.248 NA
ATOM     55  C   UNL A   1      44.254  26.067  29.353  1.00  0.00     0.031 C 
ATOM     56  C   UNL A   1      44.694  31.389  31.352  1.00  0.00     0.029 A 
ATOM     57  C   UNL A   1      45.012  30.101  30.924  1.00  0.00     0.049 A 
ATOM     58  H   UNL A   1      45.513  28.533  32.237  1.00  0.00     0.167 HD
ATOM     59  C   UNL A   1      45.122  28.222  29.295  1.00  0.00     0.074 A 
ATOM     60  C   UNL A   1      44.756  27.056  30.098  1.00  0.00     0.031 C 
ATOM     61  C   UNL A   1      45.255  29.543  29.615  1.00  0.00     0.037 A 
BRANCH  48  62
ATOM     62  C   UNL A   1      43.644  27.964  34.532  1.00  0.00     0.064 A 
ATOM     63  C   UNL A   1      43.562  26.643  34.046  1.00  0.00     0.173 A 
ATOM     64  C   UNL A   1      43.853  28.084  35.924  1.00  0.00     0.173 A 
ATOM     65  F   UNL A   1      43.359  26.407  32.741  1.00  0.00    -0.203 F 
ATOM     66  C   UNL A   1      43.577  25.538  34.901  1.00  0.00     0.198 A 
ATOM     67  C   UNL A   1      43.922  26.976  36.766  1.00  0.00     0.198 A 
ATOM     68  F   UNL A   1      43.885  29.266  36.548  1.00  0.00    -0.203 F 
ATOM     69  F   UNL A   1      43.349  24.314  34.407  1.00  0.00    -0.200 F 
ATOM     70  C   UNL A   1      43.746  25.706  36.262  1.00  0.00     0.200 A 
ATOM     71  F   UNL A   1      44.072  27.163  38.086  1.00  0.00    -0.200 F 
ATOM     72  F   UNL A   1      43.690  24.657  37.091  1.00  0.00    -0.200 F 
ENDBRANCH  48  62
BRANCH  49  73
ATOM     73  C   UNL A   1      42.977  25.188  26.382  1.00  0.00     0.064 A 
ATOM     74  C   UNL A   1      43.869  24.929  25.325  1.00  0.00     0.173 A 
ATOM     75  C   UNL A   1      42.209  24.094  26.825  1.00  0.00     0.173 A 
ATOM     76  F   UNL A   1      44.670  25.900  24.863  1.00  0.00    -0.203 F 
ATOM     77  C   UNL A   1      44.012  23.648  24.777  1.00  0.00     0.198 A 
ATOM     78  C   UNL A   1      42.347  22.819  26.274  1.00  0.00     0.198 A 
ATOM     79  F   UNL A   1      41.380  24.214  27.871  1.00  0.00    -0.203 F 
ATOM     80  F   UNL A   1      44.925  23.426  23.821  1.00  0.00    -0.200 F 
ATOM     81  C   UNL A   1      43.260  22.591  25.262  1.00  0.00     0.200 A 
ATOM     82  F   UNL A   1      41.639  21.797  26.777  1.00  0.00    -0.200 F 
ATOM     83  F   UNL A   1      43.446  21.351  24.788  1.00  0.00    -0.200 F 
ENDBRANCH  49  73
BRANCH  61  84
ATOM     84  C   UNL A   1      45.453  30.521  28.489  1.00  0.00     0.064 A 
ATOM     85  C   UNL A   1      44.408  31.175  27.813  1.00  0.00     0.173 A 
ATOM     86  C   UNL A   1      46.760  30.918  28.184  1.00  0.00     0.173 A 
ATOM     87  F   UNL A   1      43.128  30.930  28.115  1.00  0.00    -0.203 F 
ATOM     88  C   UNL A   1      44.664  32.145  26.845  1.00  0.00     0.198 A 
ATOM     89  C   UNL A   1      47.014  31.915  27.246  1.00  0.00     0.198 A 
ATOM     90  F   UNL A   1      47.797  30.371  28.839  1.00  0.00    -0.203 F 
ATOM     91  F   UNL A   1      43.648  32.744  26.205  1.00  0.00    -0.200 F 
ATOM     92  C   UNL A   1      45.967  32.519  26.567  1.00  0.00     0.200 A 
ATOM     93  F   UNL A   1      48.274  32.309  27.021  1.00  0.00    -0.200 F 
ATOM     94  F   UNL A   1      46.216  33.481  25.668  1.00  0.00    -0.200 F 
ENDBRANCH  61  84
ENDBRANCH  35  36
ENDBRANCH  27  30
ENDBRANCH  25  26
ENDBRANCH  24  25
ENDBRANCH   1  24
TORSDOF 15
ENDMDL
MODEL 3
REMARK VINA RESULT:     -12.8      0.698      1.735
REMARK SMILES N#CCCn1cc(C(=O)NCCCNC(=O)c2ccc(-c3c4nc(c(-c5c(F)c(F)c(F)c(F)c5F)c5ccc([nH]5)c(-c5c(F)c(F)c(F)c(F)c5F)c5nc(c(-c6c(F)c(F)c(F)c(F)c6F)c6ccc3[nH]6)C=C5)C=C4)cc2)c(-c2cccc([N+](=O)[O-])c2)n1
REMARK SMILES IDX 11 1 10 2 8 3 9 4 7 6 5 7 6 8 90 9 80 10 4 11 3 12 2 13 1 14
REMARK SMILES IDX 81 15 82 16 89 17 83 18 85 19 84 20 86 21 87 22 88 23 12 24
REMARK SMILES IDX 13 25 14 26 15 27 16 29 17 30 18 31 79 32 19 33 78 34 20 35
REMARK SMILES IDX 21 36 22 37 72 38 23 39 77 40 71 41 73 42 24 43 76 44 70 45
REMARK SMILES IDX 69 46 25 48 57 49 37 50 56 51 38 52 41 53 55 54 74 55 39 56
REMARK SMILES IDX 40 57 54 59 75 60 42 61 26 62 27 63 35 64 28 65 29 66 33 67
REMARK SMILES IDX 36 68 30 69 31 70 34 71 32 72 58 73 59 74 67 75 60 76 61 77
REMARK SMILES IDX 65 78 68 79 62 80 63 81 66 82 64 83 43 84 44 85 52 86 45 87
REMARK SMILES IDX 46 88 50 89 53 90 47 91 48 92 51 93 49 94
REMARK H PARENT 10 5 14 28 73 47 41 58
REMARK Flexibility Score: inf
ROOT
ATOM      1  C   UNL A   1      36.519  21.542  25.585  1.00  0.00     0.118 C 
ENDROOT
BRANCH   1   2
ATOM      2  N   UNL A   1      35.363  21.901  26.395  1.00  0.00    -0.352 N 
ATOM      3  C   UNL A   1      34.036  21.576  26.278  1.00  0.00     0.255 C 
ATOM      4  O   UNL A   1      33.299  21.930  27.209  1.00  0.00    -0.269 OA
ATOM      5  H   UNL A   1      35.571  22.480  27.165  1.00  0.00     0.163 HD
BRANCH   3   6
ATOM      6  C   UNL A   1      33.542  20.828  25.135  1.00  0.00     0.085 A 
ATOM      7  N   UNL A   1      32.942  19.179  23.809  1.00  0.00    -0.270 N 
ATOM      8  C   UNL A   1      33.793  19.513  24.811  1.00  0.00     0.123 A 
ATOM      9  N   UNL A   1      32.339  20.248  23.263  1.00  0.00    -0.172 NA
ATOM     10  C   UNL A   1      32.733  21.279  24.037  1.00  0.00     0.105 A 
BRANCH   7  11
ATOM     11  C   UNL A   1      32.667  17.834  23.328  1.00  0.00     0.159 C 
BRANCH  11  12
ATOM     12  C   UNL A   1      33.901  16.924  23.199  1.00  0.00     0.144 C 
BRANCH  12  13
ATOM     13  C   UNL A   1      33.961  15.921  24.340  1.00  0.00     0.064 C 
ATOM     14  N   UNL A   1      34.010  15.089  25.286  1.00  0.00    -0.198 NA
ENDBRANCH  12  13
ENDBRANCH  11  12
ENDBRANCH   7  11
BRANCH  10  15
ATOM     15  C   UNL A   1      32.361  22.660  23.731  1.00  0.00     0.010 A 
ATOM     16  C   UNL A   1      31.286  23.246  24.422  1.00  0.00     0.011 A 
ATOM     17  C   UNL A   1      33.005  23.383  22.722  1.00  0.00     0.096 A 
ATOM     18  C   UNL A   1      30.808  24.509  24.073  1.00  0.00     0.008 A 
ATOM     19  C   UNL A   1      32.518  24.654  22.375  1.00  0.00     0.270 A 
ATOM     20  C   UNL A   1      31.416  25.214  23.039  1.00  0.00     0.085 A 
BRANCH  19  21
ATOM     21  N   UNL A   1      33.147  25.403  21.280  1.00  0.00     0.062 N 
ATOM     22  O   UNL A   1      33.673  26.492  21.554  1.00  0.00    -0.258 OA
ATOM     23  O   UNL A   1      33.114  24.907  20.146  1.00  0.00    -0.258 OA
ENDBRANCH  19  21
ENDBRANCH  10  15
ENDBRANCH   3   6
ENDBRANCH   1   2
BRANCH   1  24
ATOM     24  C   UNL A   1      37.286  22.774  25.084  1.00  0.00     0.042 C 
BRANCH  24  25
ATOM     25  C   UNL A   1      38.230  23.324  26.135  1.00  0.00     0.118 C 
BRANCH  25  26
ATOM     26  N   UNL A   1      39.461  22.540  26.247  1.00  0.00    -0.352 N 
ATOM     27  C   UNL A   1      40.764  22.983  26.365  1.00  0.00     0.251 C 
ATOM     28  H   UNL A   1      39.345  21.562  26.239  1.00  0.00     0.163 HD
ATOM     29  O   UNL A   1      41.704  22.242  26.108  1.00  0.00    -0.269 OA
BRANCH  27  30
ATOM     30  C   UNL A   1      41.006  24.367  26.801  1.00  0.00     0.039 A 
ATOM     31  C   UNL A   1      40.479  25.462  26.109  1.00  0.00     0.014 A 
ATOM     32  C   UNL A   1      41.759  24.553  27.954  1.00  0.00     0.014 A 
ATOM     33  C   UNL A   1      40.655  26.737  26.642  1.00  0.00     0.010 A 
ATOM     34  C   UNL A   1      41.735  25.761  28.586  1.00  0.00     0.010 A 
ATOM     35  C   UNL A   1      41.270  26.871  27.896  1.00  0.00    -0.014 A 
BRANCH  35  36
ATOM     36  C   UNL A   1      41.338  28.147  28.594  1.00  0.00     0.031 A 
ATOM     37  C   UNL A   1      42.437  29.027  28.120  1.00  0.00     0.074 A 
ATOM     38  C   UNL A   1      40.332  28.567  29.393  1.00  0.00     0.049 A 
ATOM     39  N   UNL A   1      43.448  29.448  28.802  1.00  0.00    -0.248 NA
ATOM     40  C   UNL A   1      42.515  29.352  26.684  1.00  0.00     0.031 C 
ATOM     41  C   UNL A   1      39.069  27.878  29.698  1.00  0.00     0.029 A 
ATOM     42  N   UNL A   1      40.159  29.767  30.012  1.00  0.00    -0.354 N 
ATOM     43  C   UNL A   1      44.170  30.272  27.944  1.00  0.00     0.074 A 
ATOM     44  C   UNL A   1      43.677  30.006  26.620  1.00  0.00     0.031 C 
ATOM     45  C   UNL A   1      38.185  28.752  30.223  1.00  0.00     0.029 A 
ATOM     46  C   UNL A   1      38.857  30.018  30.442  1.00  0.00     0.049 A 
ATOM     47  H   UNL A   1      40.896  30.407  30.145  1.00  0.00     0.167 HD
ATOM     48  C   UNL A   1      44.909  31.302  28.441  1.00  0.00     0.037 A 
ATOM     49  C   UNL A   1      38.367  31.194  30.910  1.00  0.00     0.037 A 
ATOM     50  C   UNL A   1      45.125  31.134  29.859  1.00  0.00     0.049 A 
ATOM     51  C   UNL A   1      39.537  32.009  31.330  1.00  0.00     0.074 A 
ATOM     52  C   UNL A   1      45.716  30.157  30.638  1.00  0.00     0.029 A 
ATOM     53  N   UNL A   1      44.342  31.870  30.713  1.00  0.00    -0.354 N 
ATOM     54  N   UNL A   1      40.295  31.703  32.345  1.00  0.00    -0.248 NA
ATOM     55  C   UNL A   1      40.149  32.871  30.329  1.00  0.00     0.031 C 
ATOM     56  C   UNL A   1      44.887  30.058  31.795  1.00  0.00     0.029 A 
ATOM     57  C   UNL A   1      43.898  31.036  31.705  1.00  0.00     0.049 A 
ATOM     58  H   UNL A   1      44.136  32.830  30.628  1.00  0.00     0.167 HD
ATOM     59  C   UNL A   1      41.586  31.939  31.899  1.00  0.00     0.074 A 
ATOM     60  C   UNL A   1      41.431  32.734  30.682  1.00  0.00     0.031 C 
ATOM     61  C   UNL A   1      42.633  31.206  32.380  1.00  0.00     0.037 A 
BRANCH  48  62
ATOM     62  C   UNL A   1      45.067  32.646  27.768  1.00  0.00     0.064 A 
ATOM     63  C   UNL A   1      46.342  33.015  27.292  1.00  0.00     0.173 A 
ATOM     64  C   UNL A   1      44.127  33.696  27.855  1.00  0.00     0.173 A 
ATOM     65  F   UNL A   1      47.317  32.101  27.172  1.00  0.00    -0.203 F 
ATOM     66  C   UNL A   1      46.677  34.346  27.031  1.00  0.00     0.198 A 
ATOM     67  C   UNL A   1      44.450  35.015  27.541  1.00  0.00     0.198 A 
ATOM     68  F   UNL A   1      42.898  33.524  28.352  1.00  0.00    -0.203 F 
ATOM     69  F   UNL A   1      47.941  34.663  26.721  1.00  0.00    -0.200 F 
ATOM     70  C   UNL A   1      45.734  35.347  27.167  1.00  0.00     0.200 A 
ATOM     71  F   UNL A   1      43.524  35.973  27.695  1.00  0.00    -0.200 F 
ATOM     72  F   UNL A   1      46.070  36.630  26.986  1.00  0.00    -0.200 F 
ENDBRANCH  48  62
BRANCH  49  73
ATOM     73  C   UNL A   1      37.010  31.777  30.752  1.00  0.00     0.064 A 
ATOM     74  C   UNL A   1      36.127  31.864  31.844  1.00  0.00     0.173 A 
ATOM     75  C   UNL A   1      36.653  32.519  29.608  1.00  0.00     0.173 A 
ATOM     76  F   UNL A   1      36.404  31.223  32.988  1.00  0.00    -0.203 F 
ATOM     77  C   UNL A   1      34.984  32.673  31.808  1.00  0.00     0.198 A 
ATOM     78  C   UNL A   1      35.511  33.321  29.571  1.00  0.00     0.198 A 
ATOM     79  F   UNL A   1      37.459  32.563  28.538  1.00  0.00    -0.203 F 
ATOM     80  F   UNL A   1      34.208  32.785  32.894  1.00  0.00    -0.200 F 
ATOM     81  C   UNL A   1      34.685  33.411  30.675  1.00  0.00     0.200 A 
ATOM     82  F   UNL A   1      35.252  34.058  28.481  1.00  0.00    -0.200 F 
ATOM     83  F   UNL A   1      33.631  34.240  30.663  1.00  0.00    -0.200 F 
ENDBRANCH  49  73
BRANCH  61  84
ATOM     84  C   UNL A   1      42.387  30.337  33.583  1.00  0.00     0.064 A 
ATOM     85  C   UNL A   1      42.420  30.794  34.912  1.00  0.00     0.173 A 
ATOM     86  C   UNL A   1      41.959  29.022  33.369  1.00  0.00     0.173 A 
ATOM     87  F   UNL A   1      42.718  32.066  35.199  1.00  0.00    -0.203 F 
ATOM     88  C   UNL A   1      42.085  29.958  35.976  1.00  0.00     0.198 A 
ATOM     89  C   UNL A   1      41.586  28.199  34.428  1.00  0.00     0.198 A 
ATOM     90  F   UNL A   1      41.851  28.547  32.117  1.00  0.00    -0.203 F 
ATOM     91  F   UNL A   1      42.137  30.416  37.236  1.00  0.00    -0.200 F 
ATOM     92  C   UNL A   1      41.662  28.663  35.732  1.00  0.00     0.200 A 
ATOM     93  F   UNL A   1      41.128  26.965  34.182  1.00  0.00    -0.200 F 
ATOM     94  F   UNL A   1      41.298  27.869  36.749  1.00  0.00    -0.200 F 
ENDBRANCH  61  84
ENDBRANCH  35  36
ENDBRANCH  27  30
ENDBRANCH  25  26
ENDBRANCH  24  25
ENDBRANCH   1  24
TORSDOF 15
ENDMDL
