MODEL 1
REMARK VINA RESULT:     -12.4      0.000      0.000
REMARK SMILES C[C@H]1OCC[C@H]1c1nnnn1CC(=O)NCCCNC(=O)c1ccc(-c2c3nc(c(-c4c(F)c(F)c(F)c(F)c4F)c4ccc([nH]4)c(-c4c(F)c(F)c(F)c(F)c4F)c4nc(c(-c5c(F)c(F)c(F)c(F)c5F)c5ccc2[nH]5)C=C4)C=C3)cc1
REMARK SMILES IDX 17 1 16 2 15 3 13 4 14 5 12 7 11 8 7 9 8 10 9 11 10 12 6 13
REMARK SMILES IDX 1 14 2 15 3 16 4 17 5 18 18 19 19 20 20 21 21 23 22 24 23 25
REMARK SMILES IDX 84 26 24 27 83 28 25 29 26 30 27 31 77 32 28 33 82 34 76 35
REMARK SMILES IDX 78 36 29 37 81 38 75 39 74 40 30 42 62 43 42 44 61 45 43 46
REMARK SMILES IDX 46 47 60 48 79 49 44 50 45 51 59 53 80 54 47 55 31 56 32 57
REMARK SMILES IDX 40 58 33 59 34 60 38 61 41 62 35 63 36 64 39 65 37 66 63 67
REMARK SMILES IDX 64 68 72 69 65 70 66 71 70 72 73 73 67 74 68 75 71 76 69 77
REMARK SMILES IDX 48 78 49 79 57 80 50 81 51 82 55 83 58 84 52 85 53 86 56 87
REMARK SMILES IDX 54 88
REMARK H PARENT 15 6 19 22 78 41 46 52
REMARK Flexibility Score: inf
ROOT
ATOM      1  C   UNL A   1      32.927  30.725  27.262  1.00  0.00     0.042 C 
ENDROOT
BRANCH   1   2
ATOM      2  C   UNL A   1      33.145  29.549  26.305  1.00  0.00     0.117 C 
BRANCH   2   3
ATOM      3  N   UNL A   1      32.143  29.481  25.259  1.00  0.00    -0.354 N 
ATOM      4  C   UNL A   1      32.291  29.133  23.945  1.00  0.00     0.241 C 
ATOM      5  O   UNL A   1      31.282  29.102  23.238  1.00  0.00    -0.273 OA
ATOM      6  H   UNL A   1      31.228  29.719  25.534  1.00  0.00     0.163 HD
BRANCH   4   7
ATOM      7  C   UNL A   1      33.636  28.688  23.424  1.00  0.00     0.248 C 
BRANCH   7   8
ATOM      8  N   UNL A   1      33.670  27.314  22.986  1.00  0.00    -0.220 N 
ATOM      9  C   UNL A   1      33.681  26.143  23.714  1.00  0.00     0.157 A 
ATOM     10  N   UNL A   1      33.660  25.149  22.845  1.00  0.00    -0.113 NA
ATOM     11  N   UNL A   1      33.618  25.709  21.598  1.00  0.00    -0.024 NA
ATOM     12  N   UNL A   1      33.613  27.029  21.674  1.00  0.00    -0.044 NA
BRANCH   9  13
ATOM     13  C   UNL A   1      33.853  26.017  25.198  1.00  0.00     0.090 C 
ATOM     14  C   UNL A   1      31.227  25.965  25.435  1.00  0.00     0.039 C 
ATOM     15  C   UNL A   1      32.600  25.751  26.049  1.00  0.00     0.126 C 
ATOM     16  O   UNL A   1      32.661  24.389  26.513  1.00  0.00    -0.378 OA
ATOM     17  C   UNL A   1      33.774  23.746  25.892  1.00  0.00     0.161 C 
ATOM     18  C   UNL A   1      34.757  24.848  25.578  1.00  0.00     0.043 C 
ENDBRANCH   9  13
ENDBRANCH   7   8
ENDBRANCH   4   7
ENDBRANCH   2   3
ENDBRANCH   1   2
BRANCH   1  19
ATOM     19  C   UNL A   1      34.195  31.535  27.468  1.00  0.00     0.118 C 
BRANCH  19  20
ATOM     20  N   UNL A   1      34.227  32.175  28.784  1.00  0.00    -0.352 N 
ATOM     21  C   UNL A   1      35.087  31.935  29.838  1.00  0.00     0.251 C 
ATOM     22  H   UNL A   1      33.544  32.868  28.938  1.00  0.00     0.163 HD
ATOM     23  O   UNL A   1      34.789  32.258  30.974  1.00  0.00    -0.269 OA
BRANCH  21  24
ATOM     24  C   UNL A   1      36.373  31.274  29.556  1.00  0.00     0.039 A 
ATOM     25  C   UNL A   1      37.564  32.000  29.566  1.00  0.00     0.014 A 
ATOM     26  C   UNL A   1      36.372  29.899  29.331  1.00  0.00     0.014 A 
ATOM     27  C   UNL A   1      38.763  31.306  29.439  1.00  0.00     0.010 A 
ATOM     28  C   UNL A   1      37.552  29.201  29.372  1.00  0.00     0.010 A 
ATOM     29  C   UNL A   1      38.750  29.899  29.380  1.00  0.00    -0.014 A 
BRANCH  29  30
ATOM     30  C   UNL A   1      39.996  29.148  29.485  1.00  0.00     0.031 A 
ATOM     31  C   UNL A   1      40.406  28.896  30.889  1.00  0.00     0.074 A 
ATOM     32  C   UNL A   1      40.654  28.597  28.442  1.00  0.00     0.049 A 
ATOM     33  N   UNL A   1      41.345  29.508  31.526  1.00  0.00    -0.248 NA
ATOM     34  C   UNL A   1      39.585  28.018  31.738  1.00  0.00     0.031 C 
ATOM     35  C   UNL A   1      40.234  28.511  27.041  1.00  0.00     0.029 A 
ATOM     36  N   UNL A   1      41.838  27.919  28.436  1.00  0.00    -0.354 N 
ATOM     37  C   UNL A   1      41.396  28.928  32.786  1.00  0.00     0.074 A 
ATOM     38  C   UNL A   1      40.176  28.176  32.927  1.00  0.00     0.031 C 
ATOM     39  C   UNL A   1      41.026  27.637  26.379  1.00  0.00     0.029 A 
ATOM     40  C   UNL A   1      42.109  27.233  27.256  1.00  0.00     0.049 A 
ATOM     41  H   UNL A   1      42.452  27.916  29.206  1.00  0.00     0.167 HD
ATOM     42  C   UNL A   1      42.578  28.891  33.460  1.00  0.00     0.037 A 
ATOM     43  C   UNL A   1      43.152  26.394  27.019  1.00  0.00     0.037 A 
ATOM     44  C   UNL A   1      43.525  29.816  32.877  1.00  0.00     0.049 A 
ATOM     45  C   UNL A   1      44.211  26.734  27.999  1.00  0.00     0.074 A 
ATOM     46  C   UNL A   1      43.544  31.177  32.637  1.00  0.00     0.029 A 
ATOM     47  N   UNL A   1      44.493  29.282  32.064  1.00  0.00    -0.354 N 
ATOM     48  N   UNL A   1      44.885  27.848  27.979  1.00  0.00    -0.248 NA
ATOM     49  C   UNL A   1      44.208  26.026  29.268  1.00  0.00     0.031 C 
ATOM     50  C   UNL A   1      44.184  31.322  31.368  1.00  0.00     0.029 A 
ATOM     51  C   UNL A   1      44.600  30.060  30.944  1.00  0.00     0.049 A 
ATOM     52  H   UNL A   1      45.023  28.474  32.255  1.00  0.00     0.167 HD
ATOM     53  C   UNL A   1      44.966  28.221  29.310  1.00  0.00     0.074 A 
ATOM     54  C   UNL A   1      44.635  27.011  30.063  1.00  0.00     0.031 C 
ATOM     55  C   UNL A   1      44.999  29.540  29.658  1.00  0.00     0.037 A 
BRANCH  42  56
ATOM     56  C   UNL A   1      43.036  27.728  34.312  1.00  0.00     0.064 A 
ATOM     57  C   UNL A   1      43.326  26.502  33.676  1.00  0.00     0.173 A 
ATOM     58  C   UNL A   1      42.876  27.660  35.713  1.00  0.00     0.173 A 
ATOM     59  F   UNL A   1      43.482  26.445  32.345  1.00  0.00    -0.203 F 
ATOM     60  C   UNL A   1      43.345  25.294  34.375  1.00  0.00     0.198 A 
ATOM     61  C   UNL A   1      42.948  26.458  36.414  1.00  0.00     0.198 A 
ATOM     62  F   UNL A   1      42.524  28.718  36.448  1.00  0.00    -0.203 F 
ATOM     63  F   UNL A   1      43.473  24.140  33.705  1.00  0.00    -0.200 F 
ATOM     64  C   UNL A   1      43.146  25.270  35.742  1.00  0.00     0.200 A 
ATOM     65  F   UNL A   1      42.729  26.455  37.736  1.00  0.00    -0.200 F 
ATOM     66  F   UNL A   1      43.090  24.108  36.404  1.00  0.00    -0.200 F 
ENDBRANCH  42  56
BRANCH  43  67
ATOM     67  C   UNL A   1      43.203  25.137  26.228  1.00  0.00     0.064 A 
ATOM     68  C   UNL A   1      44.215  24.935  25.269  1.00  0.00     0.173 A 
ATOM     69  C   UNL A   1      42.481  23.995  26.619  1.00  0.00     0.173 A 
ATOM     70  F   UNL A   1      44.974  25.963  24.860  1.00  0.00    -0.203 F 
ATOM     71  C   UNL A   1      44.524  23.662  24.781  1.00  0.00     0.198 A 
ATOM     72  C   UNL A   1      42.787  22.724  26.125  1.00  0.00     0.198 A 
ATOM     73  F   UNL A   1      41.532  24.071  27.563  1.00  0.00    -0.203 F 
ATOM     74  F   UNL A   1      45.551  23.502  23.934  1.00  0.00    -0.200 F 
ATOM     75  C   UNL A   1      43.822  22.555  25.224  1.00  0.00     0.200 A 
ATOM     76  F   UNL A   1      42.122  21.656  26.585  1.00  0.00    -0.200 F 
ATOM     77  F   UNL A   1      44.169  21.325  24.817  1.00  0.00    -0.200 F 
ENDBRANCH  43  67
BRANCH  55  78
ATOM     78  C   UNL A   1      45.298  30.540  28.572  1.00  0.00     0.064 A 
ATOM     79  C   UNL A   1      44.356  31.053  27.663  1.00  0.00     0.173 A 
ATOM     80  C   UNL A   1      46.597  31.066  28.517  1.00  0.00     0.173 A 
ATOM     81  F   UNL A   1      43.071  30.681  27.710  1.00  0.00    -0.203 F 
ATOM     82  C   UNL A   1      44.719  32.004  26.708  1.00  0.00     0.198 A 
ATOM     83  C   UNL A   1      46.945  32.044  27.591  1.00  0.00     0.198 A 
ATOM     84  F   UNL A   1      47.528  30.651  29.391  1.00  0.00    -0.203 F 
ATOM     85  F   UNL A   1      43.810  32.457  25.831  1.00  0.00    -0.200 F 
ATOM     86  C   UNL A   1      46.011  32.500  26.676  1.00  0.00     0.200 A 
ATOM     87  F   UNL A   1      48.184  32.555  27.598  1.00  0.00    -0.200 F 
ATOM     88  F   UNL A   1      46.353  33.435  25.779  1.00  0.00    -0.200 F 
ENDBRANCH  55  78
ENDBRANCH  29  30
ENDBRANCH  21  24
ENDBRANCH  19  20
ENDBRANCH   1  19
TORSDOF 12
ENDMDL
MODEL 2
REMARK VINA RESULT:     -12.3      0.521      1.256
REMARK SMILES C[C@H]1OCC[C@H]1c1nnnn1CC(=O)NCCCNC(=O)c1ccc(-c2c3nc(c(-c4c(F)c(F)c(F)c(F)c4F)c4ccc([nH]4)c(-c4c(F)c(F)c(F)c(F)c4F)c4nc(c(-c5c(F)c(F)c(F)c(F)c5F)c5ccc2[nH]5)C=C4)C=C3)cc1
REMARK SMILES IDX 17 1 16 2 15 3 13 4 14 5 12 7 11 8 7 9 8 10 9 11 10 12 6 13
REMARK SMILES IDX 1 14 2 15 3 16 4 17 5 18 18 19 19 20 20 21 21 23 22 24 23 25
REMARK SMILES IDX 84 26 24 27 83 28 25 29 26 30 27 31 77 32 28 33 82 34 76 35
REMARK SMILES IDX 78 36 29 37 81 38 75 39 74 40 30 42 62 43 42 44 61 45 43 46
REMARK SMILES IDX 46 47 60 48 79 49 44 50 45 51 59 53 80 54 47 55 31 56 32 57
REMARK SMILES IDX 40 58 33 59 34 60 38 61 41 62 35 63 36 64 39 65 37 66 63 67
REMARK SMILES IDX 64 68 72 69 65 70 66 71 70 72 73 73 67 74 68 75 71 76 69 77
REMARK SMILES IDX 48 78 49 79 57 80 50 81 51 82 55 83 58 84 52 85 53 86 56 87
REMARK SMILES IDX 54 88
REMARK H PARENT 15 6 19 22 78 41 46 52
REMARK Flexibility Score: inf
ROOT
ATOM      1  C   UNL A   1      33.070  30.502  27.256  1.00  0.00     0.042 C 
ENDROOT
BRANCH   1   2
ATOM      2  C   UNL A   1      33.387  29.490  26.150  1.00  0.00     0.117 C 
BRANCH   2   3
ATOM      3  N   UNL A   1      32.351  29.420  25.137  1.00  0.00    -0.354 N 
ATOM      4  C   UNL A   1      32.443  29.001  23.839  1.00  0.00     0.241 C 
ATOM      5  O   UNL A   1      31.413  28.984  23.163  1.00  0.00    -0.273 OA
ATOM      6  H   UNL A   1      31.458  29.716  25.425  1.00  0.00     0.163 HD
BRANCH   4   7
ATOM      7  C   UNL A   1      33.749  28.466  23.303  1.00  0.00     0.248 C 
BRANCH   7   8
ATOM      8  N   UNL A   1      33.702  27.074  22.927  1.00  0.00    -0.220 N 
ATOM      9  C   UNL A   1      33.627  25.939  23.707  1.00  0.00     0.157 A 
ATOM     10  N   UNL A   1      33.556  24.910  22.883  1.00  0.00    -0.113 NA
ATOM     11  N   UNL A   1      33.570  25.414  21.612  1.00  0.00    -0.024 NA
ATOM     12  N   UNL A   1      33.648  26.734  21.628  1.00  0.00    -0.044 NA
BRANCH   9  13
ATOM     13  C   UNL A   1      33.766  25.870  25.198  1.00  0.00     0.090 C 
ATOM     14  C   UNL A   1      31.138  25.973  25.387  1.00  0.00     0.039 C 
ATOM     15  C   UNL A   1      32.487  25.711  26.036  1.00  0.00     0.126 C 
ATOM     16  O   UNL A   1      32.464  24.371  26.560  1.00  0.00    -0.378 OA
ATOM     17  C   UNL A   1      33.549  23.641  25.989  1.00  0.00     0.161 C 
ATOM     18  C   UNL A   1      34.597  24.671  25.646  1.00  0.00     0.043 C 
ENDBRANCH   9  13
ENDBRANCH   7   8
ENDBRANCH   4   7
ENDBRANCH   2   3
ENDBRANCH   1   2
BRANCH   1  19
ATOM     19  C   UNL A   1      34.114  31.602  27.337  1.00  0.00     0.118 C 
BRANCH  19  20
ATOM     20  N   UNL A   1      34.124  32.249  28.650  1.00  0.00    -0.352 N 
ATOM     21  C   UNL A   1      34.945  31.990  29.731  1.00  0.00     0.251 C 
ATOM     22  H   UNL A   1      33.458  32.962  28.781  1.00  0.00     0.163 HD
ATOM     23  O   UNL A   1      34.622  32.329  30.856  1.00  0.00    -0.269 OA
BRANCH  21  24
ATOM     24  C   UNL A   1      36.220  31.292  29.492  1.00  0.00     0.039 A 
ATOM     25  C   UNL A   1      37.428  31.990  29.499  1.00  0.00     0.014 A 
ATOM     26  C   UNL A   1      36.190  29.911  29.309  1.00  0.00     0.014 A 
ATOM     27  C   UNL A   1      38.611  31.265  29.414  1.00  0.00     0.010 A 
ATOM     28  C   UNL A   1      37.353  29.187  29.391  1.00  0.00     0.010 A 
ATOM     29  C   UNL A   1      38.567  29.858  29.398  1.00  0.00    -0.014 A 
BRANCH  29  30
ATOM     30  C   UNL A   1      39.792  29.082  29.548  1.00  0.00     0.031 A 
ATOM     31  C   UNL A   1      40.181  28.874  30.965  1.00  0.00     0.074 A 
ATOM     32  C   UNL A   1      40.449  28.476  28.535  1.00  0.00     0.049 A 
ATOM     33  N   UNL A   1      41.127  29.488  31.590  1.00  0.00    -0.248 NA
ATOM     34  C   UNL A   1      39.329  28.050  31.838  1.00  0.00     0.031 C 
ATOM     35  C   UNL A   1      40.043  28.345  27.133  1.00  0.00     0.029 A 
ATOM     36  N   UNL A   1      41.616  27.769  28.569  1.00  0.00    -0.354 N 
ATOM     37  C   UNL A   1      41.149  28.956  32.871  1.00  0.00     0.074 A 
ATOM     38  C   UNL A   1      39.910  28.240  33.027  1.00  0.00     0.031 C 
ATOM     39  C   UNL A   1      40.821  27.427  26.515  1.00  0.00     0.029 A 
ATOM     40  C   UNL A   1      41.884  27.032  27.420  1.00  0.00     0.049 A 
ATOM     41  H   UNL A   1      42.221  27.782  29.347  1.00  0.00     0.167 HD
ATOM     42  C   UNL A   1      42.322  28.918  33.561  1.00  0.00     0.037 A 
ATOM     43  C   UNL A   1      42.909  26.160  27.228  1.00  0.00     0.037 A 
ATOM     44  C   UNL A   1      43.298  29.797  32.954  1.00  0.00     0.049 A 
ATOM     45  C   UNL A   1      43.965  26.512  28.207  1.00  0.00     0.074 A 
ATOM     46  C   UNL A   1      43.353  31.146  32.663  1.00  0.00     0.029 A 
ATOM     47  N   UNL A   1      44.262  29.209  32.175  1.00  0.00    -0.354 N 
ATOM     48  N   UNL A   1      44.665  27.609  28.153  1.00  0.00    -0.248 NA
ATOM     49  C   UNL A   1      43.930  25.855  29.503  1.00  0.00     0.031 C 
ATOM     50  C   UNL A   1      44.011  31.227  31.398  1.00  0.00     0.029 A 
ATOM     51  C   UNL A   1      44.400  29.940  31.027  1.00  0.00     0.049 A 
ATOM     52  H   UNL A   1      44.770  28.396  32.404  1.00  0.00     0.167 HD
ATOM     53  C   UNL A   1      44.740  28.030  29.470  1.00  0.00     0.074 A 
ATOM     54  C   UNL A   1      44.371  26.859  30.264  1.00  0.00     0.031 C 
ATOM     55  C   UNL A   1      44.801  29.361  29.767  1.00  0.00     0.037 A 
BRANCH  42  56
ATOM     56  C   UNL A   1      42.742  27.778  34.463  1.00  0.00     0.064 A 
ATOM     57  C   UNL A   1      43.049  28.064  35.810  1.00  0.00     0.173 A 
ATOM     58  C   UNL A   1      43.177  26.518  33.997  1.00  0.00     0.173 A 
ATOM     59  F   UNL A   1      42.699  29.240  36.355  1.00  0.00    -0.203 F 
ATOM     60  C   UNL A   1      43.824  27.204  36.590  1.00  0.00     0.198 A 
ATOM     61  C   UNL A   1      43.905  25.639  34.797  1.00  0.00     0.198 A 
ATOM     62  F   UNL A   1      43.030  26.132  32.727  1.00  0.00    -0.203 F 
ATOM     63  F   UNL A   1      44.219  27.588  37.812  1.00  0.00    -0.200 F 
ATOM     64  C   UNL A   1      44.261  25.996  36.080  1.00  0.00     0.200 A 
ATOM     65  F   UNL A   1      44.338  24.483  34.275  1.00  0.00    -0.200 F 
ATOM     66  F   UNL A   1      45.065  25.202  36.798  1.00  0.00    -0.200 F 
ENDBRANCH  42  56
BRANCH  43  67
ATOM     67  C   UNL A   1      42.939  24.873  26.487  1.00  0.00     0.064 A 
ATOM     68  C   UNL A   1      43.784  24.707  25.373  1.00  0.00     0.173 A 
ATOM     69  C   UNL A   1      42.403  23.695  27.041  1.00  0.00     0.173 A 
ATOM     70  F   UNL A   1      44.364  25.772  24.800  1.00  0.00    -0.203 F 
ATOM     71  C   UNL A   1      44.121  23.441  24.885  1.00  0.00     0.198 A 
ATOM     72  C   UNL A   1      42.735  22.431  26.547  1.00  0.00     0.198 A 
ATOM     73  F   UNL A   1      41.628  23.740  28.134  1.00  0.00    -0.203 F 
ATOM     74  F   UNL A   1      44.997  23.324  23.876  1.00  0.00    -0.200 F 
ATOM     75  C   UNL A   1      43.610  22.303  25.484  1.00  0.00     0.200 A 
ATOM     76  F   UNL A   1      42.260  21.336  27.156  1.00  0.00    -0.200 F 
ATOM     77  F   UNL A   1      43.994  21.087  25.069  1.00  0.00    -0.200 F 
ENDBRANCH  43  67
BRANCH  55  78
ATOM     78  C   UNL A   1      45.137  30.310  28.648  1.00  0.00     0.064 A 
ATOM     79  C   UNL A   1      44.209  30.857  27.744  1.00  0.00     0.173 A 
ATOM     80  C   UNL A   1      46.465  30.753  28.550  1.00  0.00     0.173 A 
ATOM     81  F   UNL A   1      42.904  30.568  27.829  1.00  0.00    -0.203 F 
ATOM     82  C   UNL A   1      44.608  31.757  26.755  1.00  0.00     0.198 A 
ATOM     83  C   UNL A   1      46.851  31.681  27.590  1.00  0.00     0.198 A 
ATOM     84  F   UNL A   1      47.388  30.304  29.416  1.00  0.00    -0.203 F 
ATOM     85  F   UNL A   1      43.709  32.243  25.885  1.00  0.00    -0.200 F 
ATOM     86  C   UNL A   1      45.927  32.171  26.682  1.00  0.00     0.200 A 
ATOM     87  F   UNL A   1      48.119  32.114  27.556  1.00  0.00    -0.200 F 
ATOM     88  F   UNL A   1      46.305  33.058  25.752  1.00  0.00    -0.200 F 
ENDBRANCH  55  78
ENDBRANCH  29  30
ENDBRANCH  21  24
ENDBRANCH  19  20
ENDBRANCH   1  19
TORSDOF 12
ENDMDL
MODEL 3
REMARK VINA RESULT:     -12.2      3.392      9.001
REMARK SMILES C[C@H]1OCC[C@H]1c1nnnn1CC(=O)NCCCNC(=O)c1ccc(-c2c3nc(c(-c4c(F)c(F)c(F)c(F)c4F)c4ccc([nH]4)c(-c4c(F)c(F)c(F)c(F)c4F)c4nc(c(-c5c(F)c(F)c(F)c(F)c5F)c5ccc2[nH]5)C=C4)C=C3)cc1
REMARK SMILES IDX 17 1 16 2 15 3 13 4 14 5 12 7 11 8 7 9 8 10 9 11 10 12 6 13
REMARK SMILES IDX 1 14 2 15 3 16 4 17 5 18 18 19 19 20 20 21 21 23 22 24 23 25
REMARK SMILES IDX 84 26 24 27 83 28 25 29 26 30 27 31 77 32 28 33 82 34 76 35
REMARK SMILES IDX 78 36 29 37 81 38 75 39 74 40 30 42 62 43 42 44 61 45 43 46
REMARK SMILES IDX 46 47 60 48 79 49 44 50 45 51 59 53 80 54 47 55 31 56 32 57
REMARK SMILES IDX 40 58 33 59 34 60 38 61 41 62 35 63 36 64 39 65 37 66 63 67
REMARK SMILES IDX 64 68 72 69 65 70 66 71 70 72 73 73 67 74 68 75 71 76 69 77
REMARK SMILES IDX 48 78 49 79 57 80 50 81 51 82 55 83 58 84 52 85 53 86 56 87
REMARK SMILES IDX 54 88
REMARK H PARENT 15 6 19 22 78 41 46 52
REMARK Flexibility Score: inf
ROOT
ATOM      1  C   UNL A   1      37.892  21.340  25.122  1.00  0.00     0.042 C 
ENDROOT
BRANCH   1   2
ATOM      2  C   UNL A   1      36.566  22.045  24.822  1.00  0.00     0.117 C 
BRANCH   2   3
ATOM      3  N   UNL A   1      35.420  21.163  24.941  1.00  0.00    -0.354 N 
ATOM      4  C   UNL A   1      34.427  21.164  25.880  1.00  0.00     0.241 C 
ATOM      5  O   UNL A   1      33.518  20.340  25.760  1.00  0.00    -0.273 OA
ATOM      6  H   UNL A   1      35.349  20.468  24.249  1.00  0.00     0.163 HD
BRANCH   4   7
ATOM      7  C   UNL A   1      34.396  22.224  26.955  1.00  0.00     0.248 C 
BRANCH   7   8
ATOM      8  N   UNL A   1      33.285  23.137  26.847  1.00  0.00    -0.220 N 
ATOM      9  C   UNL A   1      33.084  24.204  25.998  1.00  0.00     0.157 A 
ATOM     10  N   UNL A   1      31.883  24.686  26.262  1.00  0.00    -0.113 NA
ATOM     11  N   UNL A   1      31.349  23.907  27.251  1.00  0.00    -0.024 NA
ATOM     12  N   UNL A   1      32.193  22.953  27.607  1.00  0.00    -0.044 NA
BRANCH   9  13
ATOM     13  C   UNL A   1      34.095  24.809  25.071  1.00  0.00     0.090 C 
ATOM     14  C   UNL A   1      33.138  23.291  23.138  1.00  0.00     0.039 C 
ATOM     15  C   UNL A   1      33.999  24.465  23.575  1.00  0.00     0.126 C 
ATOM     16  O   UNL A   1      33.524  25.633  22.881  1.00  0.00    -0.378 OA
ATOM     17  C   UNL A   1      33.174  26.625  23.846  1.00  0.00     0.161 C 
ATOM     18  C   UNL A   1      34.028  26.334  25.056  1.00  0.00     0.043 C 
ENDBRANCH   9  13
ENDBRANCH   7   8
ENDBRANCH   4   7
ENDBRANCH   2   3
ENDBRANCH   1   2
BRANCH   1  19
ATOM     19  C   UNL A   1      38.724  22.100  26.141  1.00  0.00     0.118 C 
BRANCH  19  20
ATOM     20  N   UNL A   1      40.155  21.845  25.977  1.00  0.00    -0.352 N 
ATOM     21  C   UNL A   1      41.210  22.725  26.129  1.00  0.00     0.251 C 
ATOM     22  H   UNL A   1      40.400  20.925  25.724  1.00  0.00     0.163 HD
ATOM     23  O   UNL A   1      42.293  22.496  25.620  1.00  0.00    -0.269 OA
BRANCH  21  24
ATOM     24  C   UNL A   1      40.992  23.949  26.919  1.00  0.00     0.039 A 
ATOM     25  C   UNL A   1      41.792  24.235  28.026  1.00  0.00     0.014 A 
ATOM     26  C   UNL A   1      40.003  24.836  26.500  1.00  0.00     0.014 A 
ATOM     27  C   UNL A   1      41.643  25.469  28.649  1.00  0.00     0.010 A 
ATOM     28  C   UNL A   1      39.970  26.111  27.008  1.00  0.00     0.010 A 
ATOM     29  C   UNL A   1      40.754  26.419  28.109  1.00  0.00    -0.014 A 
BRANCH  29  30
ATOM     30  C   UNL A   1      40.758  27.792  28.601  1.00  0.00     0.031 A 
ATOM     31  C   UNL A   1      41.819  28.628  27.987  1.00  0.00     0.074 A 
ATOM     32  C   UNL A   1      39.820  28.321  29.417  1.00  0.00     0.049 A 
ATOM     33  N   UNL A   1      42.921  28.989  28.550  1.00  0.00    -0.248 NA
ATOM     34  C   UNL A   1      41.754  28.943  26.551  1.00  0.00     0.031 C 
ATOM     35  C   UNL A   1      38.566  27.717  29.878  1.00  0.00     0.029 A 
ATOM     36  N   UNL A   1      39.761  29.571  29.960  1.00  0.00    -0.354 N 
ATOM     37  C   UNL A   1      43.585  29.779  27.623  1.00  0.00     0.074 A 
ATOM     38  C   UNL A   1      42.931  29.548  26.362  1.00  0.00     0.031 C 
ATOM     39  C   UNL A   1      37.778  28.667  30.433  1.00  0.00     0.029 A 
ATOM     40  C   UNL A   1      38.532  29.903  30.524  1.00  0.00     0.049 A 
ATOM     41  H   UNL A   1      40.528  30.188  29.955  1.00  0.00     0.167 HD
ATOM     42  C   UNL A   1      44.417  30.765  28.056  1.00  0.00     0.037 A 
ATOM     43  C   UNL A   1      38.164  31.110  31.029  1.00  0.00     0.037 A 
ATOM     44  C   UNL A   1      44.751  30.573  29.451  1.00  0.00     0.049 A 
ATOM     45  C   UNL A   1      39.412  31.836  31.365  1.00  0.00     0.074 A 
ATOM     46  C   UNL A   1      45.340  29.563  30.186  1.00  0.00     0.029 A 
ATOM     47  N   UNL A   1      44.088  31.357  30.361  1.00  0.00    -0.354 N 
ATOM     48  N   UNL A   1      40.214  31.488  32.330  1.00  0.00    -0.248 NA
ATOM     49  C   UNL A   1      39.996  32.684  30.339  1.00  0.00     0.031 C 
ATOM     50  C   UNL A   1      44.615  29.527  31.417  1.00  0.00     0.029 A 
ATOM     51  C   UNL A   1      43.688  30.569  31.405  1.00  0.00     0.049 A 
ATOM     52  H   UNL A   1      43.927  32.326  30.277  1.00  0.00     0.167 HD
ATOM     53  C   UNL A   1      41.481  31.649  31.794  1.00  0.00     0.074 A 
ATOM     54  C   UNL A   1      41.289  32.491  30.614  1.00  0.00     0.031 C 
ATOM     55  C   UNL A   1      42.506  30.839  32.189  1.00  0.00     0.037 A 
BRANCH  42  56
ATOM     56  C   UNL A   1      44.548  32.120  27.395  1.00  0.00     0.064 A 
ATOM     57  C   UNL A   1      45.705  32.387  26.633  1.00  0.00     0.173 A 
ATOM     58  C   UNL A   1      43.781  33.252  27.747  1.00  0.00     0.173 A 
ATOM     59  F   UNL A   1      46.519  31.389  26.255  1.00  0.00    -0.203 F 
ATOM     60  C   UNL A   1      46.115  33.690  26.344  1.00  0.00     0.198 A 
ATOM     61  C   UNL A   1      44.167  34.548  27.410  1.00  0.00     0.198 A 
ATOM     62  F   UNL A   1      42.701  33.172  28.530  1.00  0.00    -0.203 F 
ATOM     63  F   UNL A   1      47.299  33.898  25.751  1.00  0.00    -0.200 F 
ATOM     64  C   UNL A   1      45.351  34.770  26.741  1.00  0.00     0.200 A 
ATOM     65  F   UNL A   1      43.423  35.582  27.825  1.00  0.00    -0.200 F 
ATOM     66  F   UNL A   1      45.777  36.022  26.530  1.00  0.00    -0.200 F 
ENDBRANCH  42  56
BRANCH  43  67
ATOM     67  C   UNL A   1      36.854  31.808  30.971  1.00  0.00     0.064 A 
ATOM     68  C   UNL A   1      36.073  31.962  32.132  1.00  0.00     0.173 A 
ATOM     69  C   UNL A   1      36.500  32.613  29.872  1.00  0.00     0.173 A 
ATOM     70  F   UNL A   1      36.357  31.257  33.237  1.00  0.00    -0.203 F 
ATOM     71  C   UNL A   1      35.044  32.907  32.209  1.00  0.00     0.198 A 
ATOM     72  C   UNL A   1      35.468  33.552  29.949  1.00  0.00     0.198 A 
ATOM     73  F   UNL A   1      37.212  32.579  28.737  1.00  0.00    -0.203 F 
ATOM     74  F   UNL A   1      34.381  33.082  33.361  1.00  0.00    -0.200 F 
ATOM     75  C   UNL A   1      34.755  33.713  31.122  1.00  0.00     0.200 A 
ATOM     76  F   UNL A   1      35.218  34.350  28.902  1.00  0.00    -0.200 F 
ATOM     77  F   UNL A   1      33.824  34.673  31.220  1.00  0.00    -0.200 F 
ENDBRANCH  43  67
BRANCH  55  78
ATOM     78  C   UNL A   1      42.312  30.031  33.445  1.00  0.00     0.064 A 
ATOM     79  C   UNL A   1      42.502  30.511  34.753  1.00  0.00     0.173 A 
ATOM     80  C   UNL A   1      41.820  28.725  33.305  1.00  0.00     0.173 A 
ATOM     81  F   UNL A   1      42.873  31.777  34.981  1.00  0.00    -0.203 F 
ATOM     82  C   UNL A   1      42.266  29.698  35.862  1.00  0.00     0.198 A 
ATOM     83  C   UNL A   1      41.546  27.931  34.414  1.00  0.00     0.198 A 
ATOM     84  F   UNL A   1      41.572  28.227  32.083  1.00  0.00    -0.203 F 
ATOM     85  F   UNL A   1      42.483  30.168  37.099  1.00  0.00    -0.200 F 
ATOM     86  C   UNL A   1      41.785  28.411  35.691  1.00  0.00     0.200 A 
ATOM     87  F   UNL A   1      41.035  26.704  34.242  1.00  0.00    -0.200 F 
ATOM     88  F   UNL A   1      41.530  27.639  36.756  1.00  0.00    -0.200 F 
ENDBRANCH  55  78
ENDBRANCH  29  30
ENDBRANCH  21  24
ENDBRANCH  19  20
ENDBRANCH   1  19
TORSDOF 12
ENDMDL
