MODEL 1
REMARK VINA RESULT:     -12.7      0.000      0.000
REMARK SMILES C[C@@H]([NH2+][C@H]1CCOC2(CCOCC2)C1)C(=O)NCCCNC(=O)c1ccc(-c2c3nc(c(-c4c(F)c(F)c(F)c(F)c4F)c4ccc([nH]4)c(-c4c(F)c(F)c(F)c(F)c4F)c4nc(c(-c5c(F)c(F)c(F)c(F)c5F)c5ccc2[nH]5)C=C4)C=C3)cc1
REMARK SMILES IDX 19 1 18 2 17 3 15 4 16 5 2 7 1 8 3 9 4 12 5 13 14 14 6 15
REMARK SMILES IDX 8 16 7 17 9 18 13 19 10 20 12 21 11 22 20 23 21 24 22 25
REMARK SMILES IDX 23 27 24 28 25 29 86 30 26 31 85 32 27 33 28 34 29 35 79 36
REMARK SMILES IDX 30 37 84 38 78 39 80 40 31 41 83 42 77 43 76 44 32 46 64 47
REMARK SMILES IDX 44 48 63 49 45 50 48 51 62 52 81 53 46 54 47 55 61 57 82 58
REMARK SMILES IDX 49 59 33 60 34 61 42 62 35 63 36 64 40 65 43 66 37 67 38 68
REMARK SMILES IDX 41 69 39 70 65 71 66 72 74 73 67 74 68 75 72 76 75 77 69 78
REMARK SMILES IDX 70 79 73 80 71 81 50 82 51 83 59 84 52 85 53 86 57 87 60 88
REMARK SMILES IDX 54 89 55 90 58 91 56 92
REMARK H PARENT 17 6 3 10 3 11 21 26 80 45 48 56
REMARK Flexibility Score: inf
ROOT
ATOM      1  C   UNL A   1      31.932  28.484  26.387  1.00  0.00     0.042 C 
ENDROOT
BRANCH   1   2
ATOM      2  C   UNL A   1      32.394  27.034  26.308  1.00  0.00     0.118 C 
BRANCH   2   3
ATOM      3  N   UNL A   1      31.321  26.137  26.690  1.00  0.00    -0.351 N 
ATOM      4  C   UNL A   1      30.348  25.571  25.925  1.00  0.00     0.277 C 
ATOM      5  O   UNL A   1      29.496  24.888  26.502  1.00  0.00    -0.268 OA
ATOM      6  H   UNL A   1      31.293  25.902  27.646  1.00  0.00     0.163 HD
BRANCH   4   7
ATOM      7  C   UNL A   1      30.336  25.715  24.388  1.00  0.00     0.269 C 
ATOM      8  C   UNL A   1      30.449  24.370  23.677  1.00  0.00     0.086 C 
BRANCH   7   9
ATOM      9  N   UNL A   1      29.168  26.507  23.917  1.00  0.00    -0.334 N 
ATOM     10  H   UNL A   1      28.474  26.536  24.664  1.00  0.00     0.347 HD
ATOM     11  H   UNL A   1      28.810  26.051  23.079  1.00  0.00     0.347 HD
BRANCH   9  12
ATOM     12  C   UNL A   1      29.518  27.897  23.546  1.00  0.00     0.188 C 
ATOM     13  C   UNL A   1      30.856  28.004  22.805  1.00  0.00     0.093 C 
ATOM     14  C   UNL A   1      28.407  28.520  22.678  1.00  0.00     0.100 C 
ATOM     15  C   UNL A   1      31.126  29.440  22.400  1.00  0.00     0.167 C 
ATOM     16  C   UNL A   1      28.769  29.959  22.243  1.00  0.00     0.078 C 
ATOM     17  O   UNL A   1      30.063  29.953  21.612  1.00  0.00    -0.374 OA
ATOM     18  C   UNL A   1      28.715  30.959  23.418  1.00  0.00     0.064 C 
ATOM     19  C   UNL A   1      27.792  30.462  21.162  1.00  0.00     0.064 C 
ATOM     20  C   UNL A   1      28.994  32.376  22.931  1.00  0.00     0.163 C 
ATOM     21  C   UNL A   1      28.116  31.908  20.787  1.00  0.00     0.163 C 
ATOM     22  O   UNL A   1      28.045  32.754  21.936  1.00  0.00    -0.381 OA
ENDBRANCH   9  12
ENDBRANCH   7   9
ENDBRANCH   4   7
ENDBRANCH   2   3
ENDBRANCH   1   2
BRANCH   1  23
ATOM     23  C   UNL A   1      32.972  29.472  25.875  1.00  0.00     0.118 C 
BRANCH  23  24
ATOM     24  N   UNL A   1      32.623  30.854  26.178  1.00  0.00    -0.352 N 
ATOM     25  C   UNL A   1      33.187  31.717  27.081  1.00  0.00     0.251 C 
ATOM     26  H   UNL A   1      31.872  31.221  25.659  1.00  0.00     0.163 HD
ATOM     27  O   UNL A   1      32.634  32.782  27.347  1.00  0.00    -0.269 OA
BRANCH  25  28
ATOM     28  C   UNL A   1      34.454  31.359  27.751  1.00  0.00     0.039 A 
ATOM     29  C   UNL A   1      35.445  32.333  27.895  1.00  0.00     0.014 A 
ATOM     30  C   UNL A   1      34.664  30.065  28.232  1.00  0.00     0.014 A 
ATOM     31  C   UNL A   1      36.624  32.024  28.578  1.00  0.00     0.010 A 
ATOM     32  C   UNL A   1      35.798  29.784  28.985  1.00  0.00     0.010 A 
ATOM     33  C   UNL A   1      36.794  30.756  29.158  1.00  0.00    -0.014 A 
BRANCH  33  34
ATOM     34  C   UNL A   1      38.011  30.412  29.934  1.00  0.00     0.031 A 
ATOM     35  C   UNL A   1      39.021  29.461  29.354  1.00  0.00     0.074 A 
ATOM     36  C   UNL A   1      38.169  30.889  31.184  1.00  0.00     0.049 A 
ATOM     37  N   UNL A   1      40.086  28.940  29.910  1.00  0.00    -0.248 NA
ATOM     38  C   UNL A   1      38.786  29.013  27.972  1.00  0.00     0.031 C 
ATOM     39  C   UNL A   1      37.241  31.789  31.869  1.00  0.00     0.029 A 
ATOM     40  N   UNL A   1      39.159  30.666  32.108  1.00  0.00    -0.354 N 
ATOM     41  C   UNL A   1      40.630  28.090  28.957  1.00  0.00     0.074 A 
ATOM     42  C   UNL A   1      39.751  28.120  27.809  1.00  0.00     0.031 C 
ATOM     43  C   UNL A   1      37.714  32.056  33.097  1.00  0.00     0.029 A 
ATOM     44  C   UNL A   1      38.951  31.309  33.303  1.00  0.00     0.049 A 
ATOM     45  H   UNL A   1      39.944  30.100  31.929  1.00  0.00     0.167 HD
ATOM     46  C   UNL A   1      41.773  27.366  29.024  1.00  0.00     0.037 A 
ATOM     47  C   UNL A   1      39.670  31.285  34.442  1.00  0.00     0.037 A 
ATOM     48  C   UNL A   1      42.656  27.358  30.161  1.00  0.00     0.049 A 
ATOM     49  C   UNL A   1      40.925  30.456  34.498  1.00  0.00     0.074 A 
ATOM     50  C   UNL A   1      43.865  26.703  30.310  1.00  0.00     0.029 A 
ATOM     51  N   UNL A   1      42.421  28.038  31.348  1.00  0.00    -0.354 N 
ATOM     52  N   UNL A   1      41.464  29.702  33.571  1.00  0.00    -0.248 NA
ATOM     53  C   UNL A   1      41.677  30.479  35.761  1.00  0.00     0.031 C 
ATOM     54  C   UNL A   1      44.335  26.941  31.605  1.00  0.00     0.029 A 
ATOM     55  C   UNL A   1      43.452  27.797  32.242  1.00  0.00     0.049 A 
ATOM     56  H   UNL A   1      41.638  28.608  31.527  1.00  0.00     0.167 HD
ATOM     57  C   UNL A   1      42.632  29.192  34.122  1.00  0.00     0.074 A 
ATOM     58  C   UNL A   1      42.729  29.732  35.463  1.00  0.00     0.031 C 
ATOM     59  C   UNL A   1      43.542  28.354  33.568  1.00  0.00     0.037 A 
BRANCH  46  60
ATOM     60  C   UNL A   1      42.133  26.521  27.836  1.00  0.00     0.064 A 
ATOM     61  C   UNL A   1      43.054  26.956  26.871  1.00  0.00     0.173 A 
ATOM     62  C   UNL A   1      41.572  25.245  27.675  1.00  0.00     0.173 A 
ATOM     63  F   UNL A   1      43.612  28.172  26.970  1.00  0.00    -0.203 F 
ATOM     64  C   UNL A   1      43.375  26.161  25.773  1.00  0.00     0.198 A 
ATOM     65  C   UNL A   1      41.921  24.438  26.595  1.00  0.00     0.198 A 
ATOM     66  F   UNL A   1      40.689  24.775  28.570  1.00  0.00    -0.203 F 
ATOM     67  F   UNL A   1      44.215  26.623  24.836  1.00  0.00    -0.200 F 
ATOM     68  C   UNL A   1      42.815  24.899  25.640  1.00  0.00     0.200 A 
ATOM     69  F   UNL A   1      41.391  23.213  26.476  1.00  0.00    -0.200 F 
ATOM     70  F   UNL A   1      43.131  24.132  24.589  1.00  0.00    -0.200 F 
ENDBRANCH  46  60
BRANCH  47  71
ATOM     71  C   UNL A   1      39.229  32.081  35.618  1.00  0.00     0.064 A 
ATOM     72  C   UNL A   1      39.663  33.403  35.796  1.00  0.00     0.173 A 
ATOM     73  C   UNL A   1      38.379  31.540  36.593  1.00  0.00     0.173 A 
ATOM     74  F   UNL A   1      40.492  33.960  34.901  1.00  0.00    -0.203 F 
ATOM     75  C   UNL A   1      39.285  34.142  36.914  1.00  0.00     0.198 A 
ATOM     76  C   UNL A   1      37.976  32.291  37.696  1.00  0.00     0.198 A 
ATOM     77  F   UNL A   1      37.930  30.282  36.469  1.00  0.00    -0.203 F 
ATOM     78  F   UNL A   1      39.757  35.385  37.085  1.00  0.00    -0.200 F 
ATOM     79  C   UNL A   1      38.437  33.587  37.860  1.00  0.00     0.200 A 
ATOM     80  F   UNL A   1      37.143  31.756  38.599  1.00  0.00    -0.200 F 
ATOM     81  F   UNL A   1      38.072  34.299  38.935  1.00  0.00    -0.200 F 
ENDBRANCH  47  71
BRANCH  59  82
ATOM     82  C   UNL A   1      44.752  28.007  34.388  1.00  0.00     0.064 A 
ATOM     83  C   UNL A   1      45.908  28.801  34.376  1.00  0.00     0.173 A 
ATOM     84  C   UNL A   1      44.734  26.887  35.233  1.00  0.00     0.173 A 
ATOM     85  F   UNL A   1      45.982  29.875  33.575  1.00  0.00    -0.203 F 
ATOM     86  C   UNL A   1      47.011  28.471  35.160  1.00  0.00     0.198 A 
ATOM     87  C   UNL A   1      45.825  26.579  36.041  1.00  0.00     0.198 A 
ATOM     88  F   UNL A   1      43.650  26.098  35.288  1.00  0.00    -0.203 F 
ATOM     89  F   UNL A   1      48.124  29.215  35.094  1.00  0.00    -0.200 F 
ATOM     90  C   UNL A   1      46.965  27.367  35.998  1.00  0.00     0.200 A 
ATOM     91  F   UNL A   1      45.772  25.522  36.863  1.00  0.00    -0.200 F 
ATOM     92  F   UNL A   1      48.023  27.058  36.759  1.00  0.00    -0.200 F 
ENDBRANCH  59  82
ENDBRANCH  33  34
ENDBRANCH  25  28
ENDBRANCH  23  24
ENDBRANCH   1  23
TORSDOF 12
ENDMDL
MODEL 2
REMARK VINA RESULT:     -12.5      5.760      9.758
REMARK SMILES C[C@@H]([NH2+][C@H]1CCOC2(CCOCC2)C1)C(=O)NCCCNC(=O)c1ccc(-c2c3nc(c(-c4c(F)c(F)c(F)c(F)c4F)c4ccc([nH]4)c(-c4c(F)c(F)c(F)c(F)c4F)c4nc(c(-c5c(F)c(F)c(F)c(F)c5F)c5ccc2[nH]5)C=C4)C=C3)cc1
REMARK SMILES IDX 19 1 18 2 17 3 15 4 16 5 2 7 1 8 3 9 4 12 5 13 14 14 6 15
REMARK SMILES IDX 8 16 7 17 9 18 13 19 10 20 12 21 11 22 20 23 21 24 22 25
REMARK SMILES IDX 23 27 24 28 25 29 86 30 26 31 85 32 27 33 28 34 29 35 79 36
REMARK SMILES IDX 30 37 84 38 78 39 80 40 31 41 83 42 77 43 76 44 32 46 64 47
REMARK SMILES IDX 44 48 63 49 45 50 48 51 62 52 81 53 46 54 47 55 61 57 82 58
REMARK SMILES IDX 49 59 33 60 34 61 42 62 35 63 36 64 40 65 43 66 37 67 38 68
REMARK SMILES IDX 41 69 39 70 65 71 66 72 74 73 67 74 68 75 72 76 75 77 69 78
REMARK SMILES IDX 70 79 73 80 71 81 50 82 51 83 59 84 52 85 53 86 57 87 60 88
REMARK SMILES IDX 54 89 55 90 58 91 56 92
REMARK H PARENT 17 6 3 10 3 11 21 26 80 45 48 56
REMARK Flexibility Score: inf
ROOT
ATOM      1  C   UNL A   1      40.832  20.269  26.575  1.00  0.00     0.042 C 
ENDROOT
BRANCH   1   2
ATOM      2  C   UNL A   1      42.181  19.854  27.151  1.00  0.00     0.118 C 
BRANCH   2   3
ATOM      3  N   UNL A   1      42.867  18.956  26.243  1.00  0.00    -0.351 N 
ATOM      4  C   UNL A   1      43.906  19.200  25.397  1.00  0.00     0.277 C 
ATOM      5  O   UNL A   1      44.274  18.277  24.666  1.00  0.00    -0.268 OA
ATOM      6  H   UNL A   1      42.531  18.030  26.237  1.00  0.00     0.163 HD
BRANCH   4   7
ATOM      7  C   UNL A   1      44.646  20.555  25.391  1.00  0.00     0.269 C 
ATOM      8  C   UNL A   1      46.088  20.428  24.913  1.00  0.00     0.086 C 
BRANCH   7   9
ATOM      9  N   UNL A   1      43.890  21.594  24.638  1.00  0.00    -0.334 N 
ATOM     10  H   UNL A   1      42.926  21.277  24.530  1.00  0.00     0.347 HD
ATOM     11  H   UNL A   1      44.356  21.716  23.740  1.00  0.00     0.347 HD
BRANCH   9  12
ATOM     12  C   UNL A   1      43.880  22.911  25.313  1.00  0.00     0.188 C 
ATOM     13  C   UNL A   1      44.137  22.818  26.821  1.00  0.00     0.093 C 
ATOM     14  C   UNL A   1      44.924  23.850  24.678  1.00  0.00     0.100 C 
ATOM     15  C   UNL A   1      44.175  24.201  27.441  1.00  0.00     0.167 C 
ATOM     16  C   UNL A   1      44.962  25.221  25.394  1.00  0.00     0.078 C 
ATOM     17  O   UNL A   1      45.150  25.014  26.806  1.00  0.00    -0.374 OA
ATOM     18  C   UNL A   1      43.704  26.068  25.106  1.00  0.00     0.064 C 
ATOM     19  C   UNL A   1      46.185  26.039  24.937  1.00  0.00     0.064 C 
ATOM     20  C   UNL A   1      43.819  27.440  25.758  1.00  0.00     0.163 C 
ATOM     21  C   UNL A   1      46.178  27.417  25.597  1.00  0.00     0.163 C 
ATOM     22  O   UNL A   1      44.977  28.122  25.278  1.00  0.00    -0.381 OA
ENDBRANCH   9  12
ENDBRANCH   7   9
ENDBRANCH   4   7
ENDBRANCH   2   3
ENDBRANCH   1   2
BRANCH   1  23
ATOM     23  C   UNL A   1      40.552  21.759  26.722  1.00  0.00     0.118 C 
BRANCH  23  24
ATOM     24  N   UNL A   1      39.386  22.183  25.957  1.00  0.00    -0.352 N 
ATOM     25  C   UNL A   1      38.685  23.360  26.018  1.00  0.00     0.251 C 
ATOM     26  H   UNL A   1      39.054  21.530  25.301  1.00  0.00     0.163 HD
ATOM     27  O   UNL A   1      37.606  23.466  25.440  1.00  0.00    -0.269 OA
BRANCH  25  28
ATOM     28  C   UNL A   1      39.218  24.496  26.796  1.00  0.00     0.039 A 
ATOM     29  C   UNL A   1      40.017  25.445  26.153  1.00  0.00     0.014 A 
ATOM     30  C   UNL A   1      38.933  24.624  28.157  1.00  0.00     0.014 A 
ATOM     31  C   UNL A   1      40.479  26.555  26.862  1.00  0.00     0.010 A 
ATOM     32  C   UNL A   1      39.320  25.772  28.839  1.00  0.00     0.010 A 
ATOM     33  C   UNL A   1      40.105  26.745  28.202  1.00  0.00    -0.014 A 
BRANCH  33  34
ATOM     34  C   UNL A   1      40.535  27.940  28.969  1.00  0.00     0.031 A 
ATOM     35  C   UNL A   1      41.922  27.995  29.547  1.00  0.00     0.074 A 
ATOM     36  C   UNL A   1      39.660  28.934  29.213  1.00  0.00     0.049 A 
ATOM     37  N   UNL A   1      42.455  28.887  30.344  1.00  0.00    -0.248 NA
ATOM     38  C   UNL A   1      42.822  26.881  29.207  1.00  0.00     0.031 C 
ATOM     39  C   UNL A   1      38.277  28.979  28.737  1.00  0.00     0.029 A 
ATOM     40  N   UNL A   1      39.799  30.091  29.938  1.00  0.00    -0.354 N 
ATOM     41  C   UNL A   1      43.738  28.430  30.615  1.00  0.00     0.074 A 
ATOM     42  C   UNL A   1      43.886  27.157  29.947  1.00  0.00     0.031 C 
ATOM     43  C   UNL A   1      37.700  30.112  29.168  1.00  0.00     0.029 A 
ATOM     44  C   UNL A   1      38.656  30.849  29.988  1.00  0.00     0.049 A 
ATOM     45  H   UNL A   1      40.639  30.351  30.379  1.00  0.00     0.167 HD
ATOM     46  C   UNL A   1      44.713  29.031  31.339  1.00  0.00     0.037 A 
ATOM     47  C   UNL A   1      38.403  32.003  30.638  1.00  0.00     0.037 A 
ATOM     48  C   UNL A   1      44.566  30.310  31.983  1.00  0.00     0.049 A 
ATOM     49  C   UNL A   1      39.497  32.639  31.452  1.00  0.00     0.074 A 
ATOM     50  C   UNL A   1      45.510  31.031  32.694  1.00  0.00     0.029 A 
ATOM     51  N   UNL A   1      43.398  31.059  31.996  1.00  0.00    -0.354 N 
ATOM     52  N   UNL A   1      40.726  32.230  31.654  1.00  0.00    -0.248 NA
ATOM     53  C   UNL A   1      39.170  33.904  32.127  1.00  0.00     0.031 C 
ATOM     54  C   UNL A   1      44.897  32.189  33.184  1.00  0.00     0.029 A 
ATOM     55  C   UNL A   1      43.590  32.222  32.724  1.00  0.00     0.049 A 
ATOM     56  H   UNL A   1      42.557  30.801  31.553  1.00  0.00     0.167 HD
ATOM     57  C   UNL A   1      41.328  33.200  32.445  1.00  0.00     0.074 A 
ATOM     58  C   UNL A   1      40.330  34.225  32.677  1.00  0.00     0.031 C 
ATOM     59  C   UNL A   1      42.592  33.240  32.934  1.00  0.00     0.037 A 
BRANCH  46  60
ATOM     60  C   UNL A   1      46.024  28.310  31.474  1.00  0.00     0.064 A 
ATOM     61  C   UNL A   1      46.263  27.400  32.514  1.00  0.00     0.173 A 
ATOM     62  C   UNL A   1      47.044  28.508  30.531  1.00  0.00     0.173 A 
ATOM     63  F   UNL A   1      45.326  27.181  33.449  1.00  0.00    -0.203 F 
ATOM     64  C   UNL A   1      47.485  26.741  32.626  1.00  0.00     0.198 A 
ATOM     65  C   UNL A   1      48.251  27.821  30.625  1.00  0.00     0.198 A 
ATOM     66  F   UNL A   1      46.869  29.362  29.511  1.00  0.00    -0.203 F 
ATOM     67  F   UNL A   1      47.709  25.919  33.661  1.00  0.00    -0.200 F 
ATOM     68  C   UNL A   1      48.475  26.945  31.677  1.00  0.00     0.200 A 
ATOM     69  F   UNL A   1      49.202  28.008  29.698  1.00  0.00    -0.200 F 
ATOM     70  F   UNL A   1      49.646  26.304  31.781  1.00  0.00    -0.200 F 
ENDBRANCH  46  60
BRANCH  47  71
ATOM     71  C   UNL A   1      37.062  32.638  30.533  1.00  0.00     0.064 A 
ATOM     72  C   UNL A   1      36.742  33.467  29.448  1.00  0.00     0.173 A 
ATOM     73  C   UNL A   1      36.080  32.444  31.515  1.00  0.00     0.173 A 
ATOM     74  F   UNL A   1      37.654  33.700  28.492  1.00  0.00    -0.203 F 
ATOM     75  C   UNL A   1      35.503  34.096  29.362  1.00  0.00     0.198 A 
ATOM     76  C   UNL A   1      34.829  33.049  31.412  1.00  0.00     0.198 A 
ATOM     77  F   UNL A   1      36.333  31.656  32.570  1.00  0.00    -0.203 F 
ATOM     78  F   UNL A   1      35.243  34.925  28.342  1.00  0.00    -0.200 F 
ATOM     79  C   UNL A   1      34.545  33.882  30.342  1.00  0.00     0.200 A 
ATOM     80  F   UNL A   1      33.901  32.825  32.352  1.00  0.00    -0.200 F 
ATOM     81  F   UNL A   1      33.352  34.486  30.258  1.00  0.00    -0.200 F 
ENDBRANCH  47  71
BRANCH  59  82
ATOM     82  C   UNL A   1      42.990  34.453  33.725  1.00  0.00     0.064 A 
ATOM     83  C   UNL A   1      43.402  35.640  33.104  1.00  0.00     0.173 A 
ATOM     84  C   UNL A   1      42.912  34.438  35.126  1.00  0.00     0.173 A 
ATOM     85  F   UNL A   1      43.508  35.704  31.768  1.00  0.00    -0.203 F 
ATOM     86  C   UNL A   1      43.748  36.759  33.858  1.00  0.00     0.198 A 
ATOM     87  C   UNL A   1      43.225  35.568  35.875  1.00  0.00     0.198 A 
ATOM     88  F   UNL A   1      42.516  33.330  35.770  1.00  0.00    -0.203 F 
ATOM     89  F   UNL A   1      44.188  37.868  33.245  1.00  0.00    -0.200 F 
ATOM     90  C   UNL A   1      43.650  36.726  35.241  1.00  0.00     0.200 A 
ATOM     91  F   UNL A   1      43.113  35.539  37.210  1.00  0.00    -0.200 F 
ATOM     92  F   UNL A   1      43.972  37.807  35.963  1.00  0.00    -0.200 F 
ENDBRANCH  59  82
ENDBRANCH  33  34
ENDBRANCH  25  28
ENDBRANCH  23  24
ENDBRANCH   1  23
TORSDOF 12
ENDMDL
MODEL 3
REMARK VINA RESULT:     -12.5      4.350     10.174
REMARK SMILES C[C@@H]([NH2+][C@H]1CCOC2(CCOCC2)C1)C(=O)NCCCNC(=O)c1ccc(-c2c3nc(c(-c4c(F)c(F)c(F)c(F)c4F)c4ccc([nH]4)c(-c4c(F)c(F)c(F)c(F)c4F)c4nc(c(-c5c(F)c(F)c(F)c(F)c5F)c5ccc2[nH]5)C=C4)C=C3)cc1
REMARK SMILES IDX 19 1 18 2 17 3 15 4 16 5 2 7 1 8 3 9 4 12 5 13 14 14 6 15
REMARK SMILES IDX 8 16 7 17 9 18 13 19 10 20 12 21 11 22 20 23 21 24 22 25
REMARK SMILES IDX 23 27 24 28 25 29 86 30 26 31 85 32 27 33 28 34 29 35 79 36
REMARK SMILES IDX 30 37 84 38 78 39 80 40 31 41 83 42 77 43 76 44 32 46 64 47
REMARK SMILES IDX 44 48 63 49 45 50 48 51 62 52 81 53 46 54 47 55 61 57 82 58
REMARK SMILES IDX 49 59 33 60 34 61 42 62 35 63 36 64 40 65 43 66 37 67 38 68
REMARK SMILES IDX 41 69 39 70 65 71 66 72 74 73 67 74 68 75 72 76 75 77 69 78
REMARK SMILES IDX 70 79 73 80 71 81 50 82 51 83 59 84 52 85 53 86 57 87 60 88
REMARK SMILES IDX 54 89 55 90 58 91 56 92
REMARK H PARENT 17 6 3 10 3 11 21 26 80 45 48 56
REMARK Flexibility Score: inf
ROOT
ATOM      1  C   UNL A   1      33.813  33.780  28.162  1.00  0.00     0.042 C 
ENDROOT
BRANCH   1   2
ATOM      2  C   UNL A   1      34.380  35.075  28.732  1.00  0.00     0.118 C 
BRANCH   2   3
ATOM      3  N   UNL A   1      33.348  35.818  29.429  1.00  0.00    -0.351 N 
ATOM      4  C   UNL A   1      33.145  35.980  30.765  1.00  0.00     0.277 C 
ATOM      5  O   UNL A   1      32.144  36.610  31.116  1.00  0.00    -0.268 OA
ATOM      6  H   UNL A   1      32.697  36.275  28.848  1.00  0.00     0.163 HD
BRANCH   4   7
ATOM      7  C   UNL A   1      34.155  35.457  31.809  1.00  0.00     0.269 C 
ATOM      8  C   UNL A   1      34.127  36.265  33.102  1.00  0.00     0.086 C 
BRANCH   7   9
ATOM      9  N   UNL A   1      33.994  33.998  32.051  1.00  0.00    -0.334 N 
ATOM     10  H   UNL A   1      33.430  33.605  31.296  1.00  0.00     0.347 HD
ATOM     11  H   UNL A   1      33.546  33.889  32.960  1.00  0.00     0.347 HD
BRANCH   9  12
ATOM     12  C   UNL A   1      35.281  33.269  32.104  1.00  0.00     0.188 C 
ATOM     13  C   UNL A   1      36.433  34.032  31.439  1.00  0.00     0.093 C 
ATOM     14  C   UNL A   1      35.661  32.950  33.563  1.00  0.00     0.100 C 
ATOM     15  C   UNL A   1      37.732  33.264  31.581  1.00  0.00     0.167 C 
ATOM     16  C   UNL A   1      37.025  32.225  33.647  1.00  0.00     0.078 C 
ATOM     17  O   UNL A   1      38.017  32.997  32.946  1.00  0.00    -0.374 OA
ATOM     18  C   UNL A   1      36.953  30.776  33.119  1.00  0.00     0.064 C 
ATOM     19  C   UNL A   1      37.516  32.161  35.106  1.00  0.00     0.064 C 
ATOM     20  C   UNL A   1      38.292  30.072  33.298  1.00  0.00     0.163 C 
ATOM     21  C   UNL A   1      38.831  31.385  35.189  1.00  0.00     0.163 C 
ATOM     22  O   UNL A   1      38.667  30.062  34.675  1.00  0.00    -0.381 OA
ENDBRANCH   9  12
ENDBRANCH   7   9
ENDBRANCH   4   7
ENDBRANCH   2   3
ENDBRANCH   1   2
BRANCH   1  23
ATOM     23  C   UNL A   1      34.689  32.567  28.449  1.00  0.00     0.118 C 
BRANCH  23  24
ATOM     24  N   UNL A   1      34.035  31.314  28.095  1.00  0.00    -0.352 N 
ATOM     25  C   UNL A   1      34.580  30.072  27.897  1.00  0.00     0.251 C 
ATOM     26  H   UNL A   1      33.059  31.367  27.982  1.00  0.00     0.163 HD
ATOM     27  O   UNL A   1      33.903  29.171  27.406  1.00  0.00    -0.269 OA
BRANCH  25  28
ATOM     28  C   UNL A   1      35.990  29.820  28.256  1.00  0.00     0.039 A 
ATOM     29  C   UNL A   1      36.291  29.345  29.535  1.00  0.00     0.014 A 
ATOM     30  C   UNL A   1      37.013  30.055  27.334  1.00  0.00     0.014 A 
ATOM     31  C   UNL A   1      37.614  29.047  29.868  1.00  0.00     0.010 A 
ATOM     32  C   UNL A   1      38.315  29.677  27.637  1.00  0.00     0.010 A 
ATOM     33  C   UNL A   1      38.632  29.178  28.909  1.00  0.00    -0.014 A 
BRANCH  33  34
ATOM     34  C   UNL A   1      40.039  28.821  29.214  1.00  0.00     0.031 A 
ATOM     35  C   UNL A   1      40.912  29.796  29.956  1.00  0.00     0.074 A 
ATOM     36  C   UNL A   1      40.553  27.662  28.759  1.00  0.00     0.049 A 
ATOM     37  N   UNL A   1      42.194  29.730  30.218  1.00  0.00    -0.248 NA
ATOM     38  C   UNL A   1      40.263  31.023  30.443  1.00  0.00     0.031 C 
ATOM     39  C   UNL A   1      39.818  26.652  27.997  1.00  0.00     0.029 A 
ATOM     40  N   UNL A   1      41.821  27.147  28.855  1.00  0.00    -0.354 N 
ATOM     41  C   UNL A   1      42.503  30.913  30.876  1.00  0.00     0.074 A 
ATOM     42  C   UNL A   1      41.293  31.702  30.926  1.00  0.00     0.031 C 
ATOM     43  C   UNL A   1      40.642  25.632  27.710  1.00  0.00     0.029 A 
ATOM     44  C   UNL A   1      41.973  25.937  28.224  1.00  0.00     0.049 A 
ATOM     45  H   UNL A   1      42.553  27.603  29.331  1.00  0.00     0.167 HD
ATOM     46  C   UNL A   1      43.687  31.296  31.413  1.00  0.00     0.037 A 
ATOM     47  C   UNL A   1      43.068  25.168  28.066  1.00  0.00     0.037 A 
ATOM     48  C   UNL A   1      44.883  30.495  31.380  1.00  0.00     0.049 A 
ATOM     49  C   UNL A   1      44.376  25.626  28.653  1.00  0.00     0.074 A 
ATOM     50  C   UNL A   1      46.118  30.767  31.941  1.00  0.00     0.029 A 
ATOM     51  N   UNL A   1      44.993  29.264  30.748  1.00  0.00    -0.354 N 
ATOM     52  N   UNL A   1      44.646  26.718  29.326  1.00  0.00    -0.248 NA
ATOM     53  C   UNL A   1      45.533  24.740  28.462  1.00  0.00     0.031 C 
ATOM     54  C   UNL A   1      46.991  29.728  31.601  1.00  0.00     0.029 A 
ATOM     55  C   UNL A   1      46.283  28.777  30.885  1.00  0.00     0.049 A 
ATOM     56  H   UNL A   1      44.262  28.806  30.274  1.00  0.00     0.167 HD
ATOM     57  C   UNL A   1      45.989  26.634  29.670  1.00  0.00     0.074 A 
ATOM     58  C   UNL A   1      46.476  25.378  29.139  1.00  0.00     0.031 C 
ATOM     59  C   UNL A   1      46.749  27.517  30.364  1.00  0.00     0.037 A 
BRANCH  46  60
ATOM     60  C   UNL A   1      43.746  32.641  32.078  1.00  0.00     0.064 A 
ATOM     61  C   UNL A   1      44.044  33.808  31.360  1.00  0.00     0.173 A 
ATOM     62  C   UNL A   1      43.470  32.769  33.448  1.00  0.00     0.173 A 
ATOM     63  F   UNL A   1      44.327  33.742  30.050  1.00  0.00    -0.203 F 
ATOM     64  C   UNL A   1      44.096  35.048  31.993  1.00  0.00     0.198 A 
ATOM     65  C   UNL A   1      43.489  34.014  34.071  1.00  0.00     0.198 A 
ATOM     66  F   UNL A   1      43.174  31.686  34.184  1.00  0.00    -0.203 F 
ATOM     67  F   UNL A   1      44.439  36.141  31.295  1.00  0.00    -0.200 F 
ATOM     68  C   UNL A   1      43.811  35.151  33.346  1.00  0.00     0.200 A 
ATOM     69  F   UNL A   1      43.198  34.114  35.375  1.00  0.00    -0.200 F 
ATOM     70  F   UNL A   1      43.854  36.345  33.951  1.00  0.00    -0.200 F 
ENDBRANCH  46  60
BRANCH  47  71
ATOM     71  C   UNL A   1      42.972  23.878  27.331  1.00  0.00     0.064 A 
ATOM     72  C   UNL A   1      42.540  22.712  27.979  1.00  0.00     0.173 A 
ATOM     73  C   UNL A   1      43.320  23.778  25.977  1.00  0.00     0.173 A 
ATOM     74  F   UNL A   1      42.214  22.751  29.280  1.00  0.00    -0.203 F 
ATOM     75  C   UNL A   1      42.484  21.493  27.308  1.00  0.00     0.198 A 
ATOM     76  C   UNL A   1      43.234  22.564  25.298  1.00  0.00     0.198 A 
ATOM     77  F   UNL A   1      43.735  24.865  25.308  1.00  0.00    -0.203 F 
ATOM     78  F   UNL A   1      42.118  20.384  27.966  1.00  0.00    -0.200 F 
ATOM     79  C   UNL A   1      42.826  21.421  25.966  1.00  0.00     0.200 A 
ATOM     80  F   UNL A   1      43.549  22.503  23.997  1.00  0.00    -0.200 F 
ATOM     81  F   UNL A   1      42.770  20.248  25.321  1.00  0.00    -0.200 F 
ENDBRANCH  47  71
BRANCH  59  82
ATOM     82  C   UNL A   1      48.176  27.136  30.637  1.00  0.00     0.064 A 
ATOM     83  C   UNL A   1      48.528  26.305  31.710  1.00  0.00     0.173 A 
ATOM     84  C   UNL A   1      49.199  27.574  29.782  1.00  0.00     0.173 A 
ATOM     85  F   UNL A   1      47.591  25.870  32.565  1.00  0.00    -0.203 F 
ATOM     86  C   UNL A   1      49.857  25.948  31.932  1.00  0.00     0.198 A 
ATOM     87  C   UNL A   1      50.520  27.187  29.986  1.00  0.00     0.198 A 
ATOM     88  F   UNL A   1      48.915  28.364  28.736  1.00  0.00    -0.203 F 
ATOM     89  F   UNL A   1      50.177  25.195  32.993  1.00  0.00    -0.200 F 
ATOM     90  C   UNL A   1      50.850  26.382  31.066  1.00  0.00     0.200 A 
ATOM     91  F   UNL A   1      51.475  27.593  29.138  1.00  0.00    -0.200 F 
ATOM     92  F   UNL A   1      52.125  26.028  31.275  1.00  0.00    -0.200 F 
ENDBRANCH  59  82
ENDBRANCH  33  34
ENDBRANCH  25  28
ENDBRANCH  23  24
ENDBRANCH   1  23
TORSDOF 12
ENDMDL
