MODEL 1
REMARK VINA RESULT:     -13.0      0.000      0.000
REMARK SMILES CCCN1C(=O)/C(=C\c2ccc(C(=O)NCCCNC(=O)c3ccc(-c4c5nc(c(-c6c(F)c(F)c(F)c(F)c6F)c6ccc([nH]6)c(-c6c(F)c(F)c(F)c(F)c6F)c6nc(c(-c7c(F)c(F)c(F)c(F)c7F)c7ccc4[nH]7)C=C6)C=C5)cc3)cc2)S/C1=[NH+]\c1nnc(C)s1
REMARK SMILES IDX 16 1 15 2 13 3 14 4 12 6 9 7 10 8 86 9 11 10 85 11 8 12 4 13
REMARK SMILES IDX 5 14 88 15 6 16 7 17 87 18 89 19 3 21 2 22 1 23 90 24 91 25
REMARK SMILES IDX 95 26 92 27 93 28 94 29 17 30 18 31 19 32 20 33 21 35 22 36
REMARK SMILES IDX 23 37 84 38 24 39 83 40 25 41 26 42 27 43 77 44 28 45 82 46
REMARK SMILES IDX 76 47 78 48 29 49 81 50 75 51 74 52 30 54 62 55 42 56 61 57
REMARK SMILES IDX 43 58 46 59 60 60 79 61 44 62 45 63 59 65 80 66 47 67 31 68
REMARK SMILES IDX 32 69 40 70 33 71 34 72 38 73 41 74 35 75 36 76 39 77 37 78
REMARK SMILES IDX 63 79 64 80 72 81 65 82 66 83 70 84 73 85 67 86 68 87 71 88
REMARK SMILES IDX 69 89 48 90 49 91 57 92 50 93 51 94 55 95 58 96 52 97 53 98
REMARK SMILES IDX 56 99 54 100
REMARK H PARENT 15 5 89 20 19 34 78 53 46 64
REMARK Flexibility Score: inf
ROOT
ATOM      1  C   UNL A   1      31.753  29.392  25.068  1.00  0.00     0.118 C 
ENDROOT
BRANCH   1   2
ATOM      2  N   UNL A   1      31.179  29.686  23.766  1.00  0.00    -0.352 N 
ATOM      3  C   UNL A   1      30.756  28.878  22.742  1.00  0.00     0.251 C 
ATOM      4  O   UNL A   1      30.280  29.421  21.745  1.00  0.00    -0.269 OA
ATOM      5  H   UNL A   1      31.075  30.647  23.585  1.00  0.00     0.163 HD
BRANCH   3   6
ATOM      6  C   UNL A   1      30.783  27.394  22.817  1.00  0.00     0.039 A 
ATOM      7  C   UNL A   1      30.848  24.617  23.232  1.00  0.00    -0.024 A 
ATOM      8  C   UNL A   1      29.937  25.405  23.936  1.00  0.00     0.009 A 
ATOM      9  C   UNL A   1      31.657  25.205  22.254  1.00  0.00     0.009 A 
ATOM     10  C   UNL A   1      29.909  26.786  23.731  1.00  0.00     0.014 A 
ATOM     11  C   UNL A   1      31.607  26.583  22.033  1.00  0.00     0.014 A 
BRANCH   7  12
ATOM     12  C   UNL A   1      30.982  23.193  23.528  1.00  0.00     0.031 C 
ATOM     13  N   UNL A   1      34.049  22.444  25.383  1.00  0.00    -0.219 N 
ATOM     14  C   UNL A   1      33.128  23.361  24.899  1.00  0.00     0.321 C 
ATOM     15  C   UNL A   1      33.740  21.117  25.200  1.00  0.00     0.271 C 
ATOM     16  O   UNL A   1      33.223  24.578  25.000  1.00  0.00    -0.250 OA
ATOM     17  C   UNL A   1      31.991  22.658  24.231  1.00  0.00     0.100 C 
ATOM     18  S   UNL A   1      32.163  20.962  24.442  1.00  0.00    -0.012 SA
ATOM     19  N   UNL A   1      34.558  20.166  25.507  1.00  0.00    -0.226 N 
ATOM     20  H   UNL A   1      35.378  20.344  26.020  1.00  0.00     0.268 HD
BRANCH  13  21
ATOM     21  C   UNL A   1      35.229  22.937  26.098  1.00  0.00     0.206 C 
BRANCH  21  22
ATOM     22  C   UNL A   1      36.458  23.328  25.270  1.00  0.00     0.035 C 
ATOM     23  C   UNL A   1      37.624  23.853  26.092  1.00  0.00     0.007 C 
ENDBRANCH  21  22
ENDBRANCH  13  21
BRANCH  19  24
ATOM     24  C   UNL A   1      34.245  18.914  25.093  1.00  0.00     0.345 A 
ATOM     25  N   UNL A   1      34.783  18.221  24.112  1.00  0.00     0.023 NA
ATOM     26  S   UNL A   1      32.943  18.074  25.878  1.00  0.00    -0.044 S 
ATOM     27  N   UNL A   1      34.262  16.943  24.011  1.00  0.00    -0.067 NA
ATOM     28  C   UNL A   1      33.331  16.716  24.910  1.00  0.00     0.135 A 
ATOM     29  C   UNL A   1      32.642  15.418  25.117  1.00  0.00     0.083 C 
ENDBRANCH  19  24
ENDBRANCH   7  12
ENDBRANCH   3   6
ENDBRANCH   1   2
BRANCH   1  30
ATOM     30  C   UNL A   1      33.083  28.653  24.915  1.00  0.00     0.042 C 
BRANCH  30  31
ATOM     31  C   UNL A   1      34.031  28.877  26.090  1.00  0.00     0.118 C 
BRANCH  31  32
ATOM     32  N   UNL A   1      33.835  30.183  26.707  1.00  0.00    -0.352 N 
ATOM     33  C   UNL A   1      34.530  30.798  27.715  1.00  0.00     0.251 C 
ATOM     34  H   UNL A   1      33.085  30.705  26.340  1.00  0.00     0.163 HD
ATOM     35  O   UNL A   1      34.059  31.797  28.253  1.00  0.00    -0.269 OA
BRANCH  33  36
ATOM     36  C   UNL A   1      35.833  30.269  28.169  1.00  0.00     0.039 A 
ATOM     37  C   UNL A   1      36.939  30.391  27.322  1.00  0.00     0.014 A 
ATOM     38  C   UNL A   1      35.964  29.609  29.395  1.00  0.00     0.014 A 
ATOM     39  C   UNL A   1      38.181  29.901  27.726  1.00  0.00     0.010 A 
ATOM     40  C   UNL A   1      37.220  29.189  29.829  1.00  0.00     0.010 A 
ATOM     41  C   UNL A   1      38.341  29.325  28.997  1.00  0.00    -0.014 A 
BRANCH  41  42
ATOM     42  C   UNL A   1      39.671  28.860  29.466  1.00  0.00     0.031 A 
ATOM     43  C   UNL A   1      40.463  29.686  30.444  1.00  0.00     0.074 A 
ATOM     44  C   UNL A   1      40.182  27.711  28.980  1.00  0.00     0.049 A 
ATOM     45  N   UNL A   1      41.665  29.478  30.919  1.00  0.00    -0.248 NA
ATOM     46  C   UNL A   1      39.829  30.919  30.937  1.00  0.00     0.031 C 
ATOM     47  C   UNL A   1      39.526  26.841  28.002  1.00  0.00     0.029 A 
ATOM     48  N   UNL A   1      41.375  27.081  29.234  1.00  0.00    -0.354 N 
ATOM     49  C   UNL A   1      41.927  30.547  31.767  1.00  0.00     0.074 A 
ATOM     50  C   UNL A   1      40.788  31.436  31.691  1.00  0.00     0.031 C 
ATOM     51  C   UNL A   1      40.314  25.783  27.755  1.00  0.00     0.029 A 
ATOM     52  C   UNL A   1      41.549  25.920  28.520  1.00  0.00     0.049 A 
ATOM     53  H   UNL A   1      42.044  27.429  29.868  1.00  0.00     0.167 HD
ATOM     54  C   UNL A   1      43.004  30.751  32.563  1.00  0.00     0.037 A 
ATOM     55  C   UNL A   1      42.593  25.070  28.478  1.00  0.00     0.037 A 
ATOM     56  C   UNL A   1      44.132  29.862  32.642  1.00  0.00     0.049 A 
ATOM     57  C   UNL A   1      43.799  25.352  29.336  1.00  0.00     0.074 A 
ATOM     58  C   UNL A   1      45.268  29.975  33.426  1.00  0.00     0.029 A 
ATOM     59  N   UNL A   1      44.267  28.692  31.910  1.00  0.00    -0.354 N 
ATOM     60  N   UNL A   1      44.009  26.339  30.174  1.00  0.00    -0.248 NA
ATOM     61  C   UNL A   1      44.910  24.396  29.251  1.00  0.00     0.031 C 
ATOM     62  C   UNL A   1      46.109  28.896  33.135  1.00  0.00     0.029 A 
ATOM     63  C   UNL A   1      45.473  28.081  32.215  1.00  0.00     0.049 A 
ATOM     64  H   UNL A   1      43.605  28.347  31.268  1.00  0.00     0.167 HD
ATOM     65  C   UNL A   1      45.252  26.099  30.742  1.00  0.00     0.074 A 
ATOM     66  C   UNL A   1      45.743  24.864  30.169  1.00  0.00     0.031 C 
ATOM     67  C   UNL A   1      45.932  26.836  31.656  1.00  0.00     0.037 A 
BRANCH  54  68
ATOM     68  C   UNL A   1      43.006  31.975  33.436  1.00  0.00     0.064 A 
ATOM     69  C   UNL A   1      43.542  33.190  32.984  1.00  0.00     0.173 A 
ATOM     70  C   UNL A   1      42.410  31.953  34.706  1.00  0.00     0.173 A 
ATOM     71  F   UNL A   1      44.133  33.262  31.781  1.00  0.00    -0.203 F 
ATOM     72  C   UNL A   1      43.499  34.333  33.777  1.00  0.00     0.198 A 
ATOM     73  C   UNL A   1      42.340  33.106  35.483  1.00  0.00     0.198 A 
ATOM     74  F   UNL A   1      41.875  30.819  35.184  1.00  0.00    -0.203 F 
ATOM     75  F   UNL A   1      44.052  35.473  33.340  1.00  0.00    -0.200 F 
ATOM     76  C   UNL A   1      42.888  34.293  35.022  1.00  0.00     0.200 A 
ATOM     77  F   UNL A   1      41.735  33.070  36.679  1.00  0.00    -0.200 F 
ATOM     78  F   UNL A   1      42.831  35.398  35.778  1.00  0.00    -0.200 F 
ENDBRANCH  54  68
BRANCH  55  79
ATOM     79  C   UNL A   1      42.559  23.873  27.594  1.00  0.00     0.064 A 
ATOM     80  C   UNL A   1      42.192  22.615  28.095  1.00  0.00     0.173 A 
ATOM     81  C   UNL A   1      42.947  23.948  26.248  1.00  0.00     0.173 A 
ATOM     82  F   UNL A   1      41.830  22.486  29.380  1.00  0.00    -0.203 F 
ATOM     83  C   UNL A   1      42.260  21.473  27.299  1.00  0.00     0.198 A 
ATOM     84  C   UNL A   1      42.977  22.811  25.442  1.00  0.00     0.198 A 
ATOM     85  F   UNL A   1      43.299  25.126  25.712  1.00  0.00    -0.203 F 
ATOM     86  F   UNL A   1      41.978  20.274  27.827  1.00  0.00    -0.200 F 
ATOM     87  C   UNL A   1      42.650  21.573  25.973  1.00  0.00     0.200 A 
ATOM     88  F   UNL A   1      43.336  22.915  24.155  1.00  0.00    -0.200 F 
ATOM     89  F   UNL A   1      42.725  20.474  25.209  1.00  0.00    -0.200 F 
ENDBRANCH  55  79
BRANCH  67  90
ATOM     90  C   UNL A   1      47.248  26.296  32.136  1.00  0.00     0.064 A 
ATOM     91  C   UNL A   1      47.336  25.412  33.222  1.00  0.00     0.173 A 
ATOM     92  C   UNL A   1      48.436  26.641  31.474  1.00  0.00     0.173 A 
ATOM     93  F   UNL A   1      46.232  25.062  33.898  1.00  0.00    -0.203 F 
ATOM     94  C   UNL A   1      48.568  24.923  33.648  1.00  0.00     0.198 A 
ATOM     95  C   UNL A   1      49.661  26.121  31.879  1.00  0.00     0.198 A 
ATOM     96  F   UNL A   1      48.408  27.475  30.423  1.00  0.00    -0.203 F 
ATOM     97  F   UNL A   1      48.634  24.126  34.724  1.00  0.00    -0.200 F 
ATOM     98  C   UNL A   1      49.728  25.271  32.972  1.00  0.00     0.200 A 
ATOM     99  F   UNL A   1      50.779  26.445  31.214  1.00  0.00    -0.200 F 
ATOM    100  F   UNL A   1      50.912  24.791  33.379  1.00  0.00    -0.200 F 
ENDBRANCH  67  90
ENDBRANCH  41  42
ENDBRANCH  33  36
ENDBRANCH  31  32
ENDBRANCH  30  31
ENDBRANCH   1  30
TORSDOF 14
ENDMDL
MODEL 2
REMARK VINA RESULT:     -12.9      0.960      1.869
REMARK SMILES CCCN1C(=O)/C(=C\c2ccc(C(=O)NCCCNC(=O)c3ccc(-c4c5nc(c(-c6c(F)c(F)c(F)c(F)c6F)c6ccc([nH]6)c(-c6c(F)c(F)c(F)c(F)c6F)c6nc(c(-c7c(F)c(F)c(F)c(F)c7F)c7ccc4[nH]7)C=C6)C=C5)cc3)cc2)S/C1=[NH+]\c1nnc(C)s1
REMARK SMILES IDX 16 1 15 2 13 3 14 4 12 6 9 7 10 8 86 9 11 10 85 11 8 12 4 13
REMARK SMILES IDX 5 14 88 15 6 16 7 17 87 18 89 19 3 21 2 22 1 23 90 24 91 25
REMARK SMILES IDX 95 26 92 27 93 28 94 29 17 30 18 31 19 32 20 33 21 35 22 36
REMARK SMILES IDX 23 37 84 38 24 39 83 40 25 41 26 42 27 43 77 44 28 45 82 46
REMARK SMILES IDX 76 47 78 48 29 49 81 50 75 51 74 52 30 54 62 55 42 56 61 57
REMARK SMILES IDX 43 58 46 59 60 60 79 61 44 62 45 63 59 65 80 66 47 67 31 68
REMARK SMILES IDX 32 69 40 70 33 71 34 72 38 73 41 74 35 75 36 76 39 77 37 78
REMARK SMILES IDX 63 79 64 80 72 81 65 82 66 83 70 84 73 85 67 86 68 87 71 88
REMARK SMILES IDX 69 89 48 90 49 91 57 92 50 93 51 94 55 95 58 96 52 97 53 98
REMARK SMILES IDX 56 99 54 100
REMARK H PARENT 15 5 89 20 19 34 78 53 46 64
REMARK Flexibility Score: inf
ROOT
ATOM      1  C   UNL A   1      33.541  28.898  24.161  1.00  0.00     0.118 C 
ENDROOT
BRANCH   1   2
ATOM      2  N   UNL A   1      32.387  29.295  23.373  1.00  0.00    -0.352 N 
ATOM      3  C   UNL A   1      31.385  28.572  22.778  1.00  0.00     0.251 C 
ATOM      4  O   UNL A   1      30.507  29.196  22.181  1.00  0.00    -0.269 OA
ATOM      5  H   UNL A   1      32.310  30.267  23.241  1.00  0.00     0.163 HD
BRANCH   3   6
ATOM      6  C   UNL A   1      31.281  27.093  22.883  1.00  0.00     0.039 A 
ATOM      7  C   UNL A   1      31.134  24.328  23.351  1.00  0.00    -0.024 A 
ATOM      8  C   UNL A   1      30.400  25.208  24.146  1.00  0.00     0.009 A 
ATOM      9  C   UNL A   1      31.863  24.824  22.265  1.00  0.00     0.009 A 
ATOM     10  C   UNL A   1      30.477  26.584  23.914  1.00  0.00     0.014 A 
ATOM     11  C   UNL A   1      31.917  26.198  22.020  1.00  0.00     0.014 A 
BRANCH   7  12
ATOM     12  C   UNL A   1      31.169  22.901  23.660  1.00  0.00     0.031 C 
ATOM     13  N   UNL A   1      34.432  21.837  24.935  1.00  0.00    -0.219 N 
ATOM     14  C   UNL A   1      33.540  22.845  24.603  1.00  0.00     0.321 C 
ATOM     15  C   UNL A   1      33.955  20.551  24.853  1.00  0.00     0.271 C 
ATOM     16  O   UNL A   1      33.781  24.046  24.647  1.00  0.00    -0.250 OA
ATOM     17  C   UNL A   1      32.229  22.265  24.180  1.00  0.00     0.100 C 
ATOM     18  S   UNL A   1      32.256  20.562  24.407  1.00  0.00    -0.012 SA
ATOM     19  N   UNL A   1      34.710  19.518  25.032  1.00  0.00    -0.226 N 
ATOM     20  H   UNL A   1      35.626  19.610  25.379  1.00  0.00     0.268 HD
BRANCH  13  21
ATOM     21  C   UNL A   1      35.771  22.204  25.403  1.00  0.00     0.206 C 
BRANCH  21  22
ATOM     22  C   UNL A   1      36.936  22.077  24.416  1.00  0.00     0.035 C 
ATOM     23  C   UNL A   1      36.738  22.838  23.115  1.00  0.00     0.007 C 
ENDBRANCH  21  22
ENDBRANCH  13  21
BRANCH  19  24
ATOM     24  C   UNL A   1      34.193  18.305  24.722  1.00  0.00     0.345 A 
ATOM     25  N   UNL A   1      34.330  17.620  23.605  1.00  0.00     0.023 NA
ATOM     26  S   UNL A   1      33.168  17.511  25.878  1.00  0.00    -0.044 S 
ATOM     27  N   UNL A   1      33.719  16.380  23.659  1.00  0.00    -0.067 NA
ATOM     28  C   UNL A   1      33.122  16.173  24.811  1.00  0.00     0.135 A 
ATOM     29  C   UNL A   1      32.453  14.909  25.210  1.00  0.00     0.083 C 
ENDBRANCH  19  24
ENDBRANCH   7  12
ENDBRANCH   3   6
ENDBRANCH   1   2
BRANCH   1  30
ATOM     30  C   UNL A   1      33.100  28.279  25.488  1.00  0.00     0.042 C 
BRANCH  30  31
ATOM     31  C   UNL A   1      34.079  28.546  26.629  1.00  0.00     0.118 C 
BRANCH  31  32
ATOM     32  N   UNL A   1      33.927  29.888  27.175  1.00  0.00    -0.352 N 
ATOM     33  C   UNL A   1      34.731  30.588  28.037  1.00  0.00     0.251 C 
ATOM     34  H   UNL A   1      33.120  30.367  26.876  1.00  0.00     0.163 HD
ATOM     35  O   UNL A   1      34.305  31.614  28.562  1.00  0.00    -0.269 OA
BRANCH  33  36
ATOM     36  C   UNL A   1      36.097  30.119  28.348  1.00  0.00     0.039 A 
ATOM     37  C   UNL A   1      37.091  30.253  27.373  1.00  0.00     0.014 A 
ATOM     38  C   UNL A   1      36.396  29.504  29.567  1.00  0.00     0.014 A 
ATOM     39  C   UNL A   1      38.390  29.819  27.640  1.00  0.00     0.010 A 
ATOM     40  C   UNL A   1      37.709  29.143  29.862  1.00  0.00     0.010 A 
ATOM     41  C   UNL A   1      38.719  29.291  28.900  1.00  0.00    -0.014 A 
BRANCH  41  42
ATOM     42  C   UNL A   1      40.112  28.887  29.221  1.00  0.00     0.031 A 
ATOM     43  C   UNL A   1      41.001  29.800  30.022  1.00  0.00     0.074 A 
ATOM     44  C   UNL A   1      40.588  27.715  28.756  1.00  0.00     0.049 A 
ATOM     45  N   UNL A   1      42.261  29.652  30.348  1.00  0.00    -0.248 NA
ATOM     46  C   UNL A   1      40.402  31.055  30.504  1.00  0.00     0.031 C 
ATOM     47  C   UNL A   1      39.834  26.761  27.939  1.00  0.00     0.029 A 
ATOM     48  N   UNL A   1      41.821  27.129  28.895  1.00  0.00    -0.354 N 
ATOM     49  C   UNL A   1      42.600  30.786  31.073  1.00  0.00     0.074 A 
ATOM     50  C   UNL A   1      41.437  31.646  31.084  1.00  0.00     0.031 C 
ATOM     51  C   UNL A   1      40.613  25.702  27.668  1.00  0.00     0.029 A 
ATOM     52  C   UNL A   1      41.933  25.920  28.251  1.00  0.00     0.049 A 
ATOM     53  H   UNL A   1      42.557  27.536  29.407  1.00  0.00     0.167 HD
ATOM     54  C   UNL A   1      43.766  31.071  31.703  1.00  0.00     0.037 A 
ATOM     55  C   UNL A   1      42.986  25.089  28.132  1.00  0.00     0.037 A 
ATOM     56  C   UNL A   1      44.919  30.211  31.696  1.00  0.00     0.049 A 
ATOM     57  C   UNL A   1      44.285  25.458  28.801  1.00  0.00     0.074 A 
ATOM     58  C   UNL A   1      46.144  30.405  32.311  1.00  0.00     0.029 A 
ATOM     59  N   UNL A   1      44.991  28.992  31.039  1.00  0.00    -0.354 N 
ATOM     60  N   UNL A   1      44.575  26.509  29.530  1.00  0.00    -0.248 NA
ATOM     61  C   UNL A   1      45.403  24.519  28.639  1.00  0.00     0.031 C 
ATOM     62  C   UNL A   1      46.971  29.323  31.991  1.00  0.00     0.029 A 
ATOM     63  C   UNL A   1      46.243  28.428  31.226  1.00  0.00     0.049 A 
ATOM     64  H   UNL A   1      44.261  28.587  30.518  1.00  0.00     0.167 HD
ATOM     65  C   UNL A   1      45.888  26.336  29.943  1.00  0.00     0.074 A 
ATOM     66  C   UNL A   1      46.335  25.071  29.402  1.00  0.00     0.031 C 
ATOM     67  C   UNL A   1      46.660  27.153  30.703  1.00  0.00     0.037 A 
BRANCH  54  68
ATOM     68  C   UNL A   1      43.847  32.357  32.476  1.00  0.00     0.064 A 
ATOM     69  C   UNL A   1      43.502  32.412  33.835  1.00  0.00     0.173 A 
ATOM     70  C   UNL A   1      44.335  33.527  31.875  1.00  0.00     0.173 A 
ATOM     71  F   UNL A   1      43.020  31.324  34.455  1.00  0.00    -0.203 F 
ATOM     72  C   UNL A   1      43.624  33.595  34.559  1.00  0.00     0.198 A 
ATOM     73  C   UNL A   1      44.486  34.700  32.610  1.00  0.00     0.198 A 
ATOM     74  F   UNL A   1      44.686  33.528  30.580  1.00  0.00    -0.203 F 
ATOM     75  F   UNL A   1      43.252  33.633  35.846  1.00  0.00    -0.200 F 
ATOM     76  C   UNL A   1      44.127  34.735  33.949  1.00  0.00     0.200 A 
ATOM     77  F   UNL A   1      44.986  35.796  32.024  1.00  0.00    -0.200 F 
ATOM     78  F   UNL A   1      44.260  35.869  34.651  1.00  0.00    -0.200 F 
ENDBRANCH  54  68
BRANCH  55  79
ATOM     79  C   UNL A   1      42.872  23.828  27.351  1.00  0.00     0.064 A 
ATOM     80  C   UNL A   1      42.434  22.640  27.955  1.00  0.00     0.173 A 
ATOM     81  C   UNL A   1      43.250  23.768  26.001  1.00  0.00     0.173 A 
ATOM     82  F   UNL A   1      42.077  22.639  29.249  1.00  0.00    -0.203 F 
ATOM     83  C   UNL A   1      42.425  21.435  27.256  1.00  0.00     0.198 A 
ATOM     84  C   UNL A   1      43.203  22.570  25.291  1.00  0.00     0.198 A 
ATOM     85  F   UNL A   1      43.668  24.874  25.369  1.00  0.00    -0.203 F 
ATOM     86  F   UNL A   1      42.075  20.303  27.882  1.00  0.00    -0.200 F 
ATOM     87  C   UNL A   1      42.807  21.401  25.924  1.00  0.00     0.200 A 
ATOM     88  F   UNL A   1      43.556  22.545  23.999  1.00  0.00    -0.200 F 
ATOM     89  F   UNL A   1      42.808  20.240  25.253  1.00  0.00    -0.200 F 
ENDBRANCH  55  79
BRANCH  67  90
ATOM     90  C   UNL A   1      48.043  26.676  31.042  1.00  0.00     0.064 A 
ATOM     91  C   UNL A   1      49.158  27.019  30.263  1.00  0.00     0.173 A 
ATOM     92  C   UNL A   1      48.258  25.892  32.186  1.00  0.00     0.173 A 
ATOM     93  F   UNL A   1      49.005  27.754  29.152  1.00  0.00    -0.203 F 
ATOM     94  C   UNL A   1      50.432  26.566  30.598  1.00  0.00     0.198 A 
ATOM     95  C   UNL A   1      49.537  25.472  32.538  1.00  0.00     0.198 A 
ATOM     96  F   UNL A   1      47.228  25.542  32.971  1.00  0.00    -0.203 F 
ATOM     97  F   UNL A   1      51.474  26.859  29.808  1.00  0.00    -0.200 F 
ATOM     98  C   UNL A   1      50.621  25.801  31.739  1.00  0.00     0.200 A 
ATOM     99  F   UNL A   1      49.721  24.747  33.650  1.00  0.00    -0.200 F 
ATOM    100  F   UNL A   1      51.850  25.374  32.065  1.00  0.00    -0.200 F 
ENDBRANCH  67  90
ENDBRANCH  41  42
ENDBRANCH  33  36
ENDBRANCH  31  32
ENDBRANCH  30  31
ENDBRANCH   1  30
TORSDOF 14
ENDMDL
MODEL 3
REMARK VINA RESULT:     -12.9      3.711      8.585
REMARK SMILES CCCN1C(=O)/C(=C\c2ccc(C(=O)NCCCNC(=O)c3ccc(-c4c5nc(c(-c6c(F)c(F)c(F)c(F)c6F)c6ccc([nH]6)c(-c6c(F)c(F)c(F)c(F)c6F)c6nc(c(-c7c(F)c(F)c(F)c(F)c7F)c7ccc4[nH]7)C=C6)C=C5)cc3)cc2)S/C1=[NH+]\c1nnc(C)s1
REMARK SMILES IDX 16 1 15 2 13 3 14 4 12 6 9 7 10 8 86 9 11 10 85 11 8 12 4 13
REMARK SMILES IDX 5 14 88 15 6 16 7 17 87 18 89 19 3 21 2 22 1 23 90 24 91 25
REMARK SMILES IDX 95 26 92 27 93 28 94 29 17 30 18 31 19 32 20 33 21 35 22 36
REMARK SMILES IDX 23 37 84 38 24 39 83 40 25 41 26 42 27 43 77 44 28 45 82 46
REMARK SMILES IDX 76 47 78 48 29 49 81 50 75 51 74 52 30 54 62 55 42 56 61 57
REMARK SMILES IDX 43 58 46 59 60 60 79 61 44 62 45 63 59 65 80 66 47 67 31 68
REMARK SMILES IDX 32 69 40 70 33 71 34 72 38 73 41 74 35 75 36 76 39 77 37 78
REMARK SMILES IDX 63 79 64 80 72 81 65 82 66 83 70 84 73 85 67 86 68 87 71 88
REMARK SMILES IDX 69 89 48 90 49 91 57 92 50 93 51 94 55 95 58 96 52 97 53 98
REMARK SMILES IDX 56 99 54 100
REMARK H PARENT 15 5 89 20 19 34 78 53 46 64
REMARK Flexibility Score: inf
ROOT
ATOM      1  C   UNL A   1      36.501  20.539  24.995  1.00  0.00     0.118 C 
ENDROOT
BRANCH   1   2
ATOM      2  N   UNL A   1      35.282  19.749  25.003  1.00  0.00    -0.352 N 
ATOM      3  C   UNL A   1      33.982  20.056  24.696  1.00  0.00     0.251 C 
ATOM      4  O   UNL A   1      33.147  19.155  24.774  1.00  0.00    -0.269 OA
ATOM      5  H   UNL A   1      35.416  18.815  25.283  1.00  0.00     0.163 HD
BRANCH   3   6
ATOM      6  C   UNL A   1      33.559  21.397  24.212  1.00  0.00     0.039 A 
ATOM      7  C   UNL A   1      32.557  23.801  23.162  1.00  0.00    -0.024 A 
ATOM      8  C   UNL A   1      31.695  22.905  23.793  1.00  0.00     0.009 A 
ATOM      9  C   UNL A   1      33.931  23.538  23.142  1.00  0.00     0.009 A 
ATOM     10  C   UNL A   1      32.195  21.708  24.312  1.00  0.00     0.014 A 
ATOM     11  C   UNL A   1      34.430  22.352  23.685  1.00  0.00     0.014 A 
BRANCH   7  12
ATOM     12  C   UNL A   1      32.035  24.993  22.499  1.00  0.00     0.031 C 
ATOM     13  N   UNL A   1      31.428  27.733  24.850  1.00  0.00    -0.219 N 
ATOM     14  C   UNL A   1      31.986  26.498  24.560  1.00  0.00     0.321 C 
ATOM     15  C   UNL A   1      30.836  28.396  23.801  1.00  0.00     0.271 C 
ATOM     16  O   UNL A   1      32.577  25.784  25.360  1.00  0.00    -0.250 OA
ATOM     17  C   UNL A   1      31.767  26.149  23.123  1.00  0.00     0.100 C 
ATOM     18  S   UNL A   1      31.036  27.479  22.316  1.00  0.00    -0.012 SA
ATOM     19  N   UNL A   1      30.189  29.503  23.956  1.00  0.00    -0.226 N 
ATOM     20  H   UNL A   1      30.216  29.995  24.807  1.00  0.00     0.268 HD
BRANCH  13  21
ATOM     21  C   UNL A   1      31.560  28.268  26.208  1.00  0.00     0.206 C 
BRANCH  21  22
ATOM     22  C   UNL A   1      32.751  29.186  26.505  1.00  0.00     0.035 C 
ATOM     23  C   UNL A   1      32.365  30.564  27.018  1.00  0.00     0.007 C 
ENDBRANCH  21  22
ENDBRANCH  13  21
BRANCH  19  24
ATOM     24  C   UNL A   1      29.469  29.959  22.902  1.00  0.00     0.345 A 
ATOM     25  N   UNL A   1      28.782  29.263  22.021  1.00  0.00     0.023 NA
ATOM     26  S   UNL A   1      29.444  31.666  22.582  1.00  0.00    -0.044 S 
ATOM     27  N   UNL A   1      28.109  30.062  21.114  1.00  0.00    -0.067 NA
ATOM     28  C   UNL A   1      28.324  31.341  21.328  1.00  0.00     0.135 A 
ATOM     29  C   UNL A   1      27.679  32.451  20.584  1.00  0.00     0.083 C 
ENDBRANCH  19  24
ENDBRANCH   7  12
ENDBRANCH   3   6
ENDBRANCH   1   2
BRANCH   1  30
ATOM     30  C   UNL A   1      37.731  19.633  24.928  1.00  0.00     0.042 C 
BRANCH  30  31
ATOM     31  C   UNL A   1      38.919  20.175  25.720  1.00  0.00     0.118 C 
BRANCH  31  32
ATOM     32  N   UNL A   1      39.991  19.195  25.830  1.00  0.00    -0.352 N 
ATOM     33  C   UNL A   1      41.335  19.375  26.036  1.00  0.00     0.251 C 
ATOM     34  H   UNL A   1      39.705  18.257  25.744  1.00  0.00     0.163 HD
ATOM     35  O   UNL A   1      42.104  18.434  25.860  1.00  0.00    -0.269 OA
BRANCH  33  36
ATOM     36  C   UNL A   1      41.867  20.687  26.458  1.00  0.00     0.039 A 
ATOM     37  C   UNL A   1      42.244  21.606  25.474  1.00  0.00     0.014 A 
ATOM     38  C   UNL A   1      42.047  21.000  27.809  1.00  0.00     0.014 A 
ATOM     39  C   UNL A   1      42.749  22.853  25.844  1.00  0.00     0.010 A 
ATOM     40  C   UNL A   1      42.478  22.273  28.178  1.00  0.00     0.010 A 
ATOM     41  C   UNL A   1      42.839  23.211  27.200  1.00  0.00    -0.014 A 
BRANCH  41  42
ATOM     42  C   UNL A   1      43.312  24.559  27.606  1.00  0.00     0.031 A 
ATOM     43  C   UNL A   1      42.321  25.644  27.932  1.00  0.00     0.074 A 
ATOM     44  C   UNL A   1      44.635  24.816  27.643  1.00  0.00     0.049 A 
ATOM     45  N   UNL A   1      42.539  26.897  28.245  1.00  0.00    -0.248 NA
ATOM     46  C   UNL A   1      40.896  25.278  27.883  1.00  0.00     0.031 C 
ATOM     47  C   UNL A   1      45.691  23.857  27.314  1.00  0.00     0.029 A 
ATOM     48  N   UNL A   1      45.317  25.963  27.964  1.00  0.00    -0.354 N 
ATOM     49  C   UNL A   1      41.285  27.464  28.432  1.00  0.00     0.074 A 
ATOM     50  C   UNL A   1      40.308  26.440  28.134  1.00  0.00     0.031 C 
ATOM     51  C   UNL A   1      46.886  24.448  27.470  1.00  0.00     0.029 A 
ATOM     52  C   UNL A   1      46.682  25.838  27.865  1.00  0.00     0.049 A 
ATOM     53  H   UNL A   1      44.871  26.797  28.238  1.00  0.00     0.167 HD
ATOM     54  C   UNL A   1      40.976  28.716  28.847  1.00  0.00     0.037 A 
ATOM     55  C   UNL A   1      47.657  26.747  28.057  1.00  0.00     0.037 A 
ATOM     56  C   UNL A   1      41.950  29.731  29.149  1.00  0.00     0.049 A 
ATOM     57  C   UNL A   1      47.279  28.146  28.469  1.00  0.00     0.074 A 
ATOM     58  C   UNL A   1      41.738  31.027  29.587  1.00  0.00     0.029 A 
ATOM     59  N   UNL A   1      43.323  29.565  29.045  1.00  0.00    -0.354 N 
ATOM     60  N   UNL A   1      46.091  28.653  28.695  1.00  0.00    -0.248 NA
ATOM     61  C   UNL A   1      48.380  29.100  28.664  1.00  0.00     0.031 C 
ATOM     62  C   UNL A   1      42.981  31.658  29.707  1.00  0.00     0.029 A 
ATOM     63  C   UNL A   1      43.969  30.737  29.399  1.00  0.00     0.049 A 
ATOM     64  H   UNL A   1      43.771  28.735  28.761  1.00  0.00     0.167 HD
ATOM     65  C   UNL A   1      46.305  29.965  29.095  1.00  0.00     0.074 A 
ATOM     66  C   UNL A   1      47.737  30.172  29.101  1.00  0.00     0.031 C 
ATOM     67  C   UNL A   1      45.398  30.916  29.427  1.00  0.00     0.037 A 
BRANCH  54  68
ATOM     68  C   UNL A   1      39.523  29.055  29.025  1.00  0.00     0.064 A 
ATOM     69  C   UNL A   1      38.730  29.454  27.938  1.00  0.00     0.173 A 
ATOM     70  C   UNL A   1      38.900  28.916  30.275  1.00  0.00     0.173 A 
ATOM     71  F   UNL A   1      39.279  29.612  26.724  1.00  0.00    -0.203 F 
ATOM     72  C   UNL A   1      37.374  29.721  28.099  1.00  0.00     0.198 A 
ATOM     73  C   UNL A   1      37.536  29.153  30.425  1.00  0.00     0.198 A 
ATOM     74  F   UNL A   1      39.610  28.531  31.346  1.00  0.00    -0.203 F 
ATOM     75  F   UNL A   1      36.645  30.139  27.054  1.00  0.00    -0.200 F 
ATOM     76  C   UNL A   1      36.775  29.560  29.340  1.00  0.00     0.200 A 
ATOM     77  F   UNL A   1      36.957  28.981  31.621  1.00  0.00    -0.200 F 
ATOM     78  F   UNL A   1      35.465  29.800  29.490  1.00  0.00    -0.200 F 
ENDBRANCH  54  68
BRANCH  55  79
ATOM     79  C   UNL A   1      49.086  26.378  27.863  1.00  0.00     0.064 A 
ATOM     80  C   UNL A   1      49.934  26.167  28.960  1.00  0.00     0.173 A 
ATOM     81  C   UNL A   1      49.648  26.284  26.580  1.00  0.00     0.173 A 
ATOM     82  F   UNL A   1      49.450  26.263  30.208  1.00  0.00    -0.203 F 
ATOM     83  C   UNL A   1      51.295  25.924  28.784  1.00  0.00     0.198 A 
ATOM     84  C   UNL A   1      51.001  26.003  26.405  1.00  0.00     0.198 A 
ATOM     85  F   UNL A   1      48.883  26.467  25.494  1.00  0.00    -0.203 F 
ATOM     86  F   UNL A   1      52.094  25.804  29.853  1.00  0.00    -0.200 F 
ATOM     87  C   UNL A   1      51.827  25.840  27.507  1.00  0.00     0.200 A 
ATOM     88  F   UNL A   1      51.507  25.903  25.169  1.00  0.00    -0.200 F 
ATOM     89  F   UNL A   1      53.138  25.617  27.338  1.00  0.00    -0.200 F 
ENDBRANCH  55  79
BRANCH  67  90
ATOM     90  C   UNL A   1      45.928  32.246  29.881  1.00  0.00     0.064 A 
ATOM     91  C   UNL A   1      46.141  33.305  28.984  1.00  0.00     0.173 A 
ATOM     92  C   UNL A   1      46.192  32.474  31.240  1.00  0.00     0.173 A 
ATOM     93  F   UNL A   1      45.918  33.135  27.673  1.00  0.00    -0.203 F 
ATOM     94  C   UNL A   1      46.632  34.530  29.429  1.00  0.00     0.198 A 
ATOM     95  C   UNL A   1      46.647  33.711  31.685  1.00  0.00     0.198 A 
ATOM     96  F   UNL A   1      45.997  31.499  32.140  1.00  0.00    -0.203 F 
ATOM     97  F   UNL A   1      46.883  35.508  28.547  1.00  0.00    -0.200 F 
ATOM     98  C   UNL A   1      46.876  34.735  30.779  1.00  0.00     0.200 A 
ATOM     99  F   UNL A   1      46.867  33.913  32.992  1.00  0.00    -0.200 F 
ATOM    100  F   UNL A   1      47.340  35.918  31.205  1.00  0.00    -0.200 F 
ENDBRANCH  67  90
ENDBRANCH  41  42
ENDBRANCH  33  36
ENDBRANCH  31  32
ENDBRANCH  30  31
ENDBRANCH   1  30
TORSDOF 14
ENDMDL
