MODEL 1
REMARK VINA RESULT:     -13.2      0.000      0.000
REMARK SMILES O=C(CSc1nnc(-c2ccncc2)s1)Nc1cccc(C(=O)NCCCNC(=O)c2ccc(-c3c4nc(c(-c5c(F)c(F)c(F)c(F)c5F)c5ccc([nH]5)c(-c5c(F)c(F)c(F)c(F)c5F)c5nc(c(-c6c(F)c(F)c(F)c(F)c6F)c6ccc3[nH]6)C=C5)C=C4)cc2)c1
REMARK SMILES IDX 22 1 23 2 24 3 21 5 17 6 18 7 94 8 19 9 20 10 16 11 1 12
REMARK SMILES IDX 2 13 3 15 4 16 5 17 6 18 15 19 7 20 8 21 9 22 10 23 14 24
REMARK SMILES IDX 11 25 13 26 12 27 25 28 26 29 27 30 28 31 29 32 30 34 31 35
REMARK SMILES IDX 32 36 93 37 33 38 92 39 34 40 35 41 36 42 86 43 37 44 91 45
REMARK SMILES IDX 85 46 87 47 38 48 90 49 84 50 83 51 39 53 71 54 51 55 70 56
REMARK SMILES IDX 52 57 55 58 69 59 88 60 53 61 54 62 68 64 89 65 56 66 40 67
REMARK SMILES IDX 41 68 49 69 42 70 43 71 47 72 50 73 44 74 45 75 48 76 46 77
REMARK SMILES IDX 72 78 73 79 81 80 74 81 75 82 79 83 82 84 76 85 77 86 80 87
REMARK SMILES IDX 78 88 57 89 58 90 66 91 59 92 60 93 64 94 67 95 61 96 62 97
REMARK SMILES IDX 65 98 63 99
REMARK H PARENT 24 4 16 14 28 33 87 52 55 63
REMARK Flexibility Score: inf
ROOT
ATOM      1  C   UNL A   1      35.197  21.350  26.058  1.00  0.00     0.251 C 
ATOM      2  O   UNL A   1      34.775  21.671  27.168  1.00  0.00    -0.269 OA
ATOM      3  N   UNL A   1      36.558  21.201  25.890  1.00  0.00    -0.352 N 
ATOM      4  H   UNL A   1      37.080  21.341  26.713  1.00  0.00     0.163 HD
ENDROOT
BRANCH   1   5
ATOM      5  C   UNL A   1      34.238  21.209  24.931  1.00  0.00     0.041 A 
ATOM      6  C   UNL A   1      32.667  22.212  23.390  1.00  0.00     0.041 A 
ATOM      7  C   UNL A   1      32.153  20.944  23.098  1.00  0.00     0.026 A 
ATOM      8  C   UNL A   1      33.799  22.308  24.194  1.00  0.00     0.040 A 
ATOM      9  C   UNL A   1      32.711  19.806  23.688  1.00  0.00     0.003 A 
ATOM     10  C   UNL A   1      33.726  19.943  24.636  1.00  0.00     0.014 A 
BRANCH   6  11
ATOM     11  N   UNL A   1      31.938  23.343  22.959  1.00  0.00    -0.325 N 
ATOM     12  O   UNL A   1      33.618  24.652  22.010  1.00  0.00    -0.274 OA
ATOM     13  C   UNL A   1      32.453  24.495  22.372  1.00  0.00     0.234 C 
ATOM     14  H   UNL A   1      30.963  23.312  23.086  1.00  0.00     0.169 HD
BRANCH  13  15
ATOM     15  C   UNL A   1      31.499  25.682  22.345  1.00  0.00     0.177 C 
BRANCH  15  16
ATOM     16  S   UNL A   1      30.491  25.850  23.840  1.00  0.00    -0.084 SA
BRANCH  16  17
ATOM     17  C   UNL A   1      29.549  27.249  23.395  1.00  0.00     0.175 A 
ATOM     18  N   UNL A   1      28.243  27.290  23.501  1.00  0.00    -0.131 NA
ATOM     19  S   UNL A   1      30.273  28.695  22.854  1.00  0.00    -0.086 S 
ATOM     20  N   UNL A   1      27.742  28.527  23.139  1.00  0.00    -0.137 NA
ATOM     21  C   UNL A   1      28.687  29.367  22.761  1.00  0.00     0.148 A 
BRANCH  21  22
ATOM     22  C   UNL A   1      28.471  30.757  22.343  1.00  0.00     0.015 A 
ATOM     23  C   UNL A   1      28.642  31.835  23.218  1.00  0.00     0.031 A 
ATOM     24  C   UNL A   1      28.089  31.029  21.025  1.00  0.00     0.031 A 
ATOM     25  C   UNL A   1      28.409  33.117  22.751  1.00  0.00     0.111 A 
ATOM     26  C   UNL A   1      27.879  32.346  20.653  1.00  0.00     0.111 A 
ATOM     27  N   UNL A   1      28.027  33.394  21.489  1.00  0.00    -0.265 NA
ENDBRANCH  21  22
ENDBRANCH  16  17
ENDBRANCH  15  16
ENDBRANCH  13  15
ENDBRANCH   6  11
ENDBRANCH   1   5
BRANCH   3  28
ATOM     28  C   UNL A   1      37.369  20.876  24.721  1.00  0.00     0.118 C 
BRANCH  28  29
ATOM     29  C   UNL A   1      38.304  19.695  24.916  1.00  0.00     0.042 C 
BRANCH  29  30
ATOM     30  C   UNL A   1      39.215  19.786  26.127  1.00  0.00     0.118 C 
BRANCH  30  31
ATOM     31  N   UNL A   1      40.388  18.929  26.032  1.00  0.00    -0.352 N 
ATOM     32  C   UNL A   1      41.733  19.208  26.043  1.00  0.00     0.251 C 
ATOM     33  H   UNL A   1      40.178  17.971  25.943  1.00  0.00     0.163 HD
ATOM     34  O   UNL A   1      42.528  18.307  25.789  1.00  0.00    -0.269 OA
BRANCH  32  35
ATOM     35  C   UNL A   1      42.249  20.567  26.330  1.00  0.00     0.039 A 
ATOM     36  C   UNL A   1      42.492  21.429  25.253  1.00  0.00     0.014 A 
ATOM     37  C   UNL A   1      42.550  20.991  27.624  1.00  0.00     0.014 A 
ATOM     38  C   UNL A   1      42.971  22.722  25.482  1.00  0.00     0.010 A 
ATOM     39  C   UNL A   1      42.923  22.313  27.861  1.00  0.00     0.010 A 
ATOM     40  C   UNL A   1      43.153  23.190  26.793  1.00  0.00    -0.014 A 
BRANCH  40  41
ATOM     41  C   UNL A   1      43.597  24.584  27.059  1.00  0.00     0.031 A 
ATOM     42  C   UNL A   1      42.627  25.607  27.588  1.00  0.00     0.074 A 
ATOM     43  C   UNL A   1      44.862  24.946  26.769  1.00  0.00     0.049 A 
ATOM     44  N   UNL A   1      42.816  26.877  27.841  1.00  0.00    -0.248 NA
ATOM     45  C   UNL A   1      41.251  25.148  27.837  1.00  0.00     0.031 C 
ATOM     46  C   UNL A   1      45.881  24.068  26.192  1.00  0.00     0.029 A 
ATOM     47  N   UNL A   1      45.506  26.148  26.917  1.00  0.00    -0.354 N 
ATOM     48  C   UNL A   1      41.586  27.369  28.257  1.00  0.00     0.074 A 
ATOM     49  C   UNL A   1      40.642  26.278  28.165  1.00  0.00     0.031 C 
ATOM     50  C   UNL A   1      47.031  24.749  26.069  1.00  0.00     0.029 A 
ATOM     51  C   UNL A   1      46.822  26.120  26.525  1.00  0.00     0.049 A 
ATOM     52  H   UNL A   1      45.067  26.955  27.271  1.00  0.00     0.167 HD
ATOM     53  C   UNL A   1      41.275  28.611  28.703  1.00  0.00     0.037 A 
ATOM     54  C   UNL A   1      47.756  27.089  26.537  1.00  0.00     0.037 A 
ATOM     55  C   UNL A   1      42.222  29.688  28.825  1.00  0.00     0.049 A 
ATOM     56  C   UNL A   1      47.394  28.451  27.062  1.00  0.00     0.074 A 
ATOM     57  C   UNL A   1      42.023  30.963  29.323  1.00  0.00     0.029 A 
ATOM     58  N   UNL A   1      43.554  29.611  28.444  1.00  0.00    -0.354 N 
ATOM     59  N   UNL A   1      46.244  28.884  27.518  1.00  0.00    -0.248 NA
ATOM     60  C   UNL A   1      48.465  29.456  27.083  1.00  0.00     0.031 C 
ATOM     61  C   UNL A   1      43.225  31.671  29.207  1.00  0.00     0.029 A 
ATOM     62  C   UNL A   1      44.185  30.823  28.682  1.00  0.00     0.049 A 
ATOM     63  H   UNL A   1      43.988  28.815  28.061  1.00  0.00     0.167 HD
ATOM     64  C   UNL A   1      46.457  30.200  27.903  1.00  0.00     0.074 A 
ATOM     65  C   UNL A   1      47.853  30.487  27.648  1.00  0.00     0.031 C 
ATOM     66  C   UNL A   1      45.576  31.092  28.420  1.00  0.00     0.037 A 
BRANCH  53  67
ATOM     67  C   UNL A   1      39.849  28.866  29.099  1.00  0.00     0.064 A 
ATOM     68  C   UNL A   1      39.406  28.675  30.418  1.00  0.00     0.173 A 
ATOM     69  C   UNL A   1      38.916  29.329  28.158  1.00  0.00     0.173 A 
ATOM     70  F   UNL A   1      40.252  28.222  31.356  1.00  0.00    -0.203 F 
ATOM     71  C   UNL A   1      38.077  28.904  30.771  1.00  0.00     0.198 A 
ATOM     72  C   UNL A   1      37.597  29.587  28.521  1.00  0.00     0.198 A 
ATOM     73  F   UNL A   1      39.286  29.535  26.886  1.00  0.00    -0.203 F 
ATOM     74  F   UNL A   1      37.667  28.659  32.023  1.00  0.00    -0.200 F 
ATOM     75  C   UNL A   1      37.176  29.365  29.824  1.00  0.00     0.200 A 
ATOM     76  F   UNL A   1      36.730  30.047  27.608  1.00  0.00    -0.200 F 
ATOM     77  F   UNL A   1      35.900  29.589  30.165  1.00  0.00    -0.200 F 
ENDBRANCH  53  67
BRANCH  54  78
ATOM     78  C   UNL A   1      49.138  26.791  26.079  1.00  0.00     0.064 A 
ATOM     79  C   UNL A   1      49.512  26.996  24.743  1.00  0.00     0.173 A 
ATOM     80  C   UNL A   1      50.113  26.303  26.961  1.00  0.00     0.173 A 
ATOM     81  F   UNL A   1      48.609  27.443  23.858  1.00  0.00    -0.203 F 
ATOM     82  C   UNL A   1      50.800  26.703  24.303  1.00  0.00     0.198 A 
ATOM     83  C   UNL A   1      51.410  26.038  26.526  1.00  0.00     0.198 A 
ATOM     84  F   UNL A   1      49.809  26.097  28.252  1.00  0.00    -0.203 F 
ATOM     85  F   UNL A   1      51.117  26.867  23.012  1.00  0.00    -0.200 F 
ATOM     86  C   UNL A   1      51.750  26.231  25.195  1.00  0.00     0.200 A 
ATOM     87  F   UNL A   1      52.329  25.596  27.395  1.00  0.00    -0.200 F 
ATOM     88  F   UNL A   1      52.992  25.955  24.773  1.00  0.00    -0.200 F 
ENDBRANCH  54  78
BRANCH  66  89
ATOM     89  C   UNL A   1      46.109  32.453  28.767  1.00  0.00     0.064 A 
ATOM     90  C   UNL A   1      46.091  33.507  27.843  1.00  0.00     0.173 A 
ATOM     91  C   UNL A   1      46.635  32.705  30.043  1.00  0.00     0.173 A 
ATOM     92  F   UNL A   1      45.614  33.312  26.604  1.00  0.00    -0.203 F 
ATOM     93  C   UNL A   1      46.614  34.755  28.171  1.00  0.00     0.198 A 
ATOM     94  C   UNL A   1      47.128  33.963  30.379  1.00  0.00     0.198 A 
ATOM     95  F   UNL A   1      46.667  31.732  30.966  1.00  0.00    -0.203 F 
ATOM     96  F   UNL A   1      46.643  35.730  27.252  1.00  0.00    -0.200 F 
ATOM     97  C   UNL A   1      47.127  34.983  29.440  1.00  0.00     0.200 A 
ATOM     98  F   UNL A   1      47.612  34.185  31.608  1.00  0.00    -0.200 F 
ATOM     99  F   UNL A   1      47.633  36.183  29.753  1.00  0.00    -0.200 F 
ENDBRANCH  66  89
ENDBRANCH  40  41
ENDBRANCH  32  35
ENDBRANCH  30  31
ENDBRANCH  29  30
ENDBRANCH  28  29
ENDBRANCH   3  28
TORSDOF 15
ENDMDL
MODEL 2
REMARK VINA RESULT:     -13.1      0.577      7.151
REMARK SMILES O=C(CSc1nnc(-c2ccncc2)s1)Nc1cccc(C(=O)NCCCNC(=O)c2ccc(-c3c4nc(c(-c5c(F)c(F)c(F)c(F)c5F)c5ccc([nH]5)c(-c5c(F)c(F)c(F)c(F)c5F)c5nc(c(-c6c(F)c(F)c(F)c(F)c6F)c6ccc3[nH]6)C=C5)C=C4)cc2)c1
REMARK SMILES IDX 22 1 23 2 24 3 21 5 17 6 18 7 94 8 19 9 20 10 16 11 1 12
REMARK SMILES IDX 2 13 3 15 4 16 5 17 6 18 15 19 7 20 8 21 9 22 10 23 14 24
REMARK SMILES IDX 11 25 13 26 12 27 25 28 26 29 27 30 28 31 29 32 30 34 31 35
REMARK SMILES IDX 32 36 93 37 33 38 92 39 34 40 35 41 36 42 86 43 37 44 91 45
REMARK SMILES IDX 85 46 87 47 38 48 90 49 84 50 83 51 39 53 71 54 51 55 70 56
REMARK SMILES IDX 52 57 55 58 69 59 88 60 53 61 54 62 68 64 89 65 56 66 40 67
REMARK SMILES IDX 41 68 49 69 42 70 43 71 47 72 50 73 44 74 45 75 48 76 46 77
REMARK SMILES IDX 72 78 73 79 81 80 74 81 75 82 79 83 82 84 76 85 77 86 80 87
REMARK SMILES IDX 78 88 57 89 58 90 66 91 59 92 60 93 64 94 67 95 61 96 62 97
REMARK SMILES IDX 65 98 63 99
REMARK H PARENT 24 4 16 14 28 33 87 52 55 63
REMARK Flexibility Score: inf
ROOT
ATOM      1  C   UNL A   1      35.179  21.350  26.014  1.00  0.00     0.251 C 
ATOM      2  O   UNL A   1      34.780  21.712  27.120  1.00  0.00    -0.269 OA
ATOM      3  N   UNL A   1      36.531  21.137  25.840  1.00  0.00    -0.352 N 
ATOM      4  H   UNL A   1      37.065  21.271  26.657  1.00  0.00     0.163 HD
ENDROOT
BRANCH   1   5
ATOM      5  C   UNL A   1      34.207  21.228  24.897  1.00  0.00     0.041 A 
ATOM      6  C   UNL A   1      32.634  22.260  23.377  1.00  0.00     0.041 A 
ATOM      7  C   UNL A   1      32.100  21.001  23.084  1.00  0.00     0.026 A 
ATOM      8  C   UNL A   1      33.775  22.336  24.169  1.00  0.00     0.040 A 
ATOM      9  C   UNL A   1      32.648  19.852  23.663  1.00  0.00     0.003 A 
ATOM     10  C   UNL A   1      33.675  19.970  24.601  1.00  0.00     0.014 A 
BRANCH   6  11
ATOM     11  N   UNL A   1      31.917  23.403  22.959  1.00  0.00    -0.325 N 
ATOM     12  O   UNL A   1      33.599  24.682  21.975  1.00  0.00    -0.274 OA
ATOM     13  C   UNL A   1      32.440  24.545  22.361  1.00  0.00     0.234 C 
ATOM     14  H   UNL A   1      30.944  23.390  23.105  1.00  0.00     0.169 HD
BRANCH  13  15
ATOM     15  C   UNL A   1      31.506  25.749  22.351  1.00  0.00     0.177 C 
BRANCH  15  16
ATOM     16  S   UNL A   1      30.444  25.868  23.813  1.00  0.00    -0.084 SA
BRANCH  16  17
ATOM     17  C   UNL A   1      29.490  27.256  23.361  1.00  0.00     0.175 A 
ATOM     18  N   UNL A   1      28.188  27.304  23.514  1.00  0.00    -0.131 NA
ATOM     19  S   UNL A   1      30.195  28.684  22.751  1.00  0.00    -0.086 S 
ATOM     20  N   UNL A   1      27.676  28.531  23.134  1.00  0.00    -0.137 NA
ATOM     21  C   UNL A   1      28.609  29.356  22.697  1.00  0.00     0.148 A 
BRANCH  21  22
ATOM     22  C   UNL A   1      28.380  30.734  22.246  1.00  0.00     0.015 A 
ATOM     23  C   UNL A   1      27.969  31.036  20.944  1.00  0.00     0.031 A 
ATOM     24  C   UNL A   1      28.569  31.792  23.142  1.00  0.00     0.031 A 
ATOM     25  C   UNL A   1      27.784  32.362  20.592  1.00  0.00     0.111 A 
ATOM     26  C   UNL A   1      28.359  33.086  22.695  1.00  0.00     0.111 A 
ATOM     27  N   UNL A   1      27.975  33.393  21.439  1.00  0.00    -0.265 NA
ENDBRANCH  21  22
ENDBRANCH  16  17
ENDBRANCH  15  16
ENDBRANCH  13  15
ENDBRANCH   6  11
ENDBRANCH   1   5
BRANCH   3  28
ATOM     28  C   UNL A   1      37.319  20.752  24.673  1.00  0.00     0.118 C 
BRANCH  28  29
ATOM     29  C   UNL A   1      38.309  19.629  24.928  1.00  0.00     0.042 C 
BRANCH  29  30
ATOM     30  C   UNL A   1      39.261  19.859  26.089  1.00  0.00     0.118 C 
BRANCH  30  31
ATOM     31  N   UNL A   1      40.474  19.059  26.005  1.00  0.00    -0.352 N 
ATOM     32  C   UNL A   1      41.804  19.397  26.067  1.00  0.00     0.251 C 
ATOM     33  H   UNL A   1      40.311  18.095  25.881  1.00  0.00     0.163 HD
ATOM     34  O   UNL A   1      42.647  18.541  25.812  1.00  0.00    -0.269 OA
BRANCH  32  35
ATOM     35  C   UNL A   1      42.249  20.769  26.410  1.00  0.00     0.039 A 
ATOM     36  C   UNL A   1      42.357  21.711  25.380  1.00  0.00     0.014 A 
ATOM     37  C   UNL A   1      42.613  21.130  27.707  1.00  0.00     0.014 A 
ATOM     38  C   UNL A   1      42.764  23.018  25.664  1.00  0.00     0.010 A 
ATOM     39  C   UNL A   1      42.914  22.458  28.008  1.00  0.00     0.010 A 
ATOM     40  C   UNL A   1      43.008  23.414  26.988  1.00  0.00    -0.014 A 
BRANCH  40  41
ATOM     41  C   UNL A   1      43.377  24.816  27.318  1.00  0.00     0.031 A 
ATOM     42  C   UNL A   1      44.777  25.314  27.075  1.00  0.00     0.074 A 
ATOM     43  C   UNL A   1      42.466  25.628  27.889  1.00  0.00     0.049 A 
ATOM     44  N   UNL A   1      45.298  26.487  27.336  1.00  0.00    -0.248 NA
ATOM     45  C   UNL A   1      45.729  24.356  26.490  1.00  0.00     0.031 C 
ATOM     46  C   UNL A   1      41.095  25.248  28.236  1.00  0.00     0.029 A 
ATOM     47  N   UNL A   1      42.556  26.939  28.284  1.00  0.00    -0.354 N 
ATOM     48  C   UNL A   1      46.634  26.400  26.967  1.00  0.00     0.074 A 
ATOM     49  C   UNL A   1      46.861  25.044  26.522  1.00  0.00     0.031 C 
ATOM     50  C   UNL A   1      40.462  26.310  28.756  1.00  0.00     0.029 A 
ATOM     51  C   UNL A   1      41.390  27.436  28.813  1.00  0.00     0.049 A 
ATOM     52  H   UNL A   1      43.378  27.473  28.196  1.00  0.00     0.167 HD
ATOM     53  C   UNL A   1      47.581  27.370  26.972  1.00  0.00     0.037 A 
ATOM     54  C   UNL A   1      41.100  28.662  29.286  1.00  0.00     0.037 A 
ATOM     55  C   UNL A   1      47.346  28.729  27.385  1.00  0.00     0.049 A 
ATOM     56  C   UNL A   1      42.160  29.729  29.255  1.00  0.00     0.074 A 
ATOM     57  C   UNL A   1      48.219  29.802  27.370  1.00  0.00     0.029 A 
ATOM     58  N   UNL A   1      46.142  29.201  27.889  1.00  0.00    -0.354 N 
ATOM     59  N   UNL A   1      43.400  29.653  28.839  1.00  0.00    -0.248 NA
ATOM     60  C   UNL A   1      41.773  31.057  29.752  1.00  0.00     0.031 C 
ATOM     61  C   UNL A   1      47.556  30.914  27.901  1.00  0.00     0.029 A 
ATOM     62  C   UNL A   1      46.255  30.547  28.202  1.00  0.00     0.049 A 
ATOM     63  H   UNL A   1      45.327  28.661  28.007  1.00  0.00     0.167 HD
ATOM     64  C   UNL A   1      43.936  30.923  28.998  1.00  0.00     0.074 A 
ATOM     65  C   UNL A   1      42.876  31.757  29.529  1.00  0.00     0.031 C 
ATOM     66  C   UNL A   1      45.191  31.361  28.731  1.00  0.00     0.037 A 
BRANCH  53  67
ATOM     67  C   UNL A   1      48.959  26.994  26.507  1.00  0.00     0.064 A 
ATOM     68  C   UNL A   1      49.937  26.531  27.402  1.00  0.00     0.173 A 
ATOM     69  C   UNL A   1      49.302  27.074  25.149  1.00  0.00     0.173 A 
ATOM     70  F   UNL A   1      49.666  26.447  28.714  1.00  0.00    -0.203 F 
ATOM     71  C   UNL A   1      51.215  26.197  26.961  1.00  0.00     0.198 A 
ATOM     72  C   UNL A   1      50.571  26.708  24.707  1.00  0.00     0.198 A 
ATOM     73  F   UNL A   1      48.405  27.503  24.249  1.00  0.00    -0.203 F 
ATOM     74  F   UNL A   1      52.147  25.812  27.844  1.00  0.00    -0.200 F 
ATOM     75  C   UNL A   1      51.529  26.280  25.614  1.00  0.00     0.200 A 
ATOM     76  F   UNL A   1      50.870  26.776  23.402  1.00  0.00    -0.200 F 
ATOM     77  F   UNL A   1      52.758  25.954  25.190  1.00  0.00    -0.200 F 
ENDBRANCH  53  67
BRANCH  54  78
ATOM     78  C   UNL A   1      39.733  28.960  29.786  1.00  0.00     0.064 A 
ATOM     79  C   UNL A   1      38.760  29.502  28.934  1.00  0.00     0.173 A 
ATOM     80  C   UNL A   1      39.368  28.709  31.116  1.00  0.00     0.173 A 
ATOM     81  F   UNL A   1      39.068  29.778  27.658  1.00  0.00    -0.203 F 
ATOM     82  C   UNL A   1      37.482  29.801  29.399  1.00  0.00     0.198 A 
ATOM     83  C   UNL A   1      38.080  28.981  31.573  1.00  0.00     0.198 A 
ATOM     84  F   UNL A   1      40.260  28.184  31.970  1.00  0.00    -0.203 F 
ATOM     85  F   UNL A   1      36.585  30.359  28.574  1.00  0.00    -0.200 F 
ATOM     86  C   UNL A   1      37.140  29.534  30.716  1.00  0.00     0.200 A 
ATOM     87  F   UNL A   1      37.750  28.707  32.842  1.00  0.00    -0.200 F 
ATOM     88  F   UNL A   1      35.908  29.815  31.162  1.00  0.00    -0.200 F 
ENDBRANCH  54  78
BRANCH  66  89
ATOM     89  C   UNL A   1      45.474  32.814  28.986  1.00  0.00     0.064 A 
ATOM     90  C   UNL A   1      46.026  33.255  30.198  1.00  0.00     0.173 A 
ATOM     91  C   UNL A   1      45.198  33.775  28.001  1.00  0.00     0.173 A 
ATOM     92  F   UNL A   1      46.292  32.378  31.177  1.00  0.00    -0.203 F 
ATOM     93  C   UNL A   1      46.256  34.609  30.428  1.00  0.00     0.198 A 
ATOM     94  C   UNL A   1      45.459  35.124  28.223  1.00  0.00     0.198 A 
ATOM     95  F   UNL A   1      44.677  33.404  26.821  1.00  0.00    -0.203 F 
ATOM     96  F   UNL A   1      46.726  35.014  31.617  1.00  0.00    -0.200 F 
ATOM     97  C   UNL A   1      45.978  35.540  29.439  1.00  0.00     0.200 A 
ATOM     98  F   UNL A   1      45.202  36.021  27.262  1.00  0.00    -0.200 F 
ATOM     99  F   UNL A   1      46.198  36.843  29.663  1.00  0.00    -0.200 F 
ENDBRANCH  66  89
ENDBRANCH  40  41
ENDBRANCH  32  35
ENDBRANCH  30  31
ENDBRANCH  29  30
ENDBRANCH  28  29
ENDBRANCH   3  28
TORSDOF 15
ENDMDL
MODEL 3
REMARK VINA RESULT:     -12.7      1.193      2.271
REMARK SMILES O=C(CSc1nnc(-c2ccncc2)s1)Nc1cccc(C(=O)NCCCNC(=O)c2ccc(-c3c4nc(c(-c5c(F)c(F)c(F)c(F)c5F)c5ccc([nH]5)c(-c5c(F)c(F)c(F)c(F)c5F)c5nc(c(-c6c(F)c(F)c(F)c(F)c6F)c6ccc3[nH]6)C=C5)C=C4)cc2)c1
REMARK SMILES IDX 22 1 23 2 24 3 21 5 17 6 18 7 94 8 19 9 20 10 16 11 1 12
REMARK SMILES IDX 2 13 3 15 4 16 5 17 6 18 15 19 7 20 8 21 9 22 10 23 14 24
REMARK SMILES IDX 11 25 13 26 12 27 25 28 26 29 27 30 28 31 29 32 30 34 31 35
REMARK SMILES IDX 32 36 93 37 33 38 92 39 34 40 35 41 36 42 86 43 37 44 91 45
REMARK SMILES IDX 85 46 87 47 38 48 90 49 84 50 83 51 39 53 71 54 51 55 70 56
REMARK SMILES IDX 52 57 55 58 69 59 88 60 53 61 54 62 68 64 89 65 56 66 40 67
REMARK SMILES IDX 41 68 49 69 42 70 43 71 47 72 50 73 44 74 45 75 48 76 46 77
REMARK SMILES IDX 72 78 73 79 81 80 74 81 75 82 79 83 82 84 76 85 77 86 80 87
REMARK SMILES IDX 78 88 57 89 58 90 66 91 59 92 60 93 64 94 67 95 61 96 62 97
REMARK SMILES IDX 65 98 63 99
REMARK H PARENT 24 4 16 14 28 33 87 52 55 63
REMARK Flexibility Score: inf
ROOT
ATOM      1  C   UNL A   1      36.738  22.826  25.693  1.00  0.00     0.251 C 
ATOM      2  O   UNL A   1      37.286  23.910  25.886  1.00  0.00    -0.269 OA
ATOM      3  N   UNL A   1      37.460  21.824  25.077  1.00  0.00    -0.352 N 
ATOM      4  H   UNL A   1      38.391  22.071  24.872  1.00  0.00     0.163 HD
ENDROOT
BRANCH   1   5
ATOM      5  C   UNL A   1      35.306  22.663  26.057  1.00  0.00     0.041 A 
ATOM      6  C   UNL A   1      33.014  23.419  25.906  1.00  0.00     0.041 A 
ATOM      7  C   UNL A   1      32.689  22.637  27.019  1.00  0.00     0.026 A 
ATOM      8  C   UNL A   1      34.287  23.306  25.356  1.00  0.00     0.040 A 
ATOM      9  C   UNL A   1      33.661  21.833  27.622  1.00  0.00     0.003 A 
ATOM     10  C   UNL A   1      34.979  21.878  27.167  1.00  0.00     0.014 A 
BRANCH   6  11
ATOM     11  N   UNL A   1      32.077  24.382  25.470  1.00  0.00    -0.325 N 
ATOM     12  O   UNL A   1      32.726  26.258  26.691  1.00  0.00    -0.274 OA
ATOM     13  C   UNL A   1      31.948  25.689  25.927  1.00  0.00     0.234 C 
ATOM     14  H   UNL A   1      31.448  24.098  24.767  1.00  0.00     0.169 HD
BRANCH  13  15
ATOM     15  C   UNL A   1      30.641  26.376  25.550  1.00  0.00     0.177 C 
BRANCH  15  16
ATOM     16  S   UNL A   1      29.904  25.760  24.014  1.00  0.00    -0.084 SA
BRANCH  16  17
ATOM     17  C   UNL A   1      29.074  27.205  23.497  1.00  0.00     0.175 A 
ATOM     18  N   UNL A   1      27.769  27.319  23.516  1.00  0.00    -0.131 NA
ATOM     19  S   UNL A   1      29.912  28.602  22.993  1.00  0.00    -0.086 S 
ATOM     20  N   UNL A   1      27.362  28.578  23.112  1.00  0.00    -0.137 NA
ATOM     21  C   UNL A   1      28.377  29.359  22.790  1.00  0.00     0.148 A 
BRANCH  21  22
ATOM     22  C   UNL A   1      28.267  30.754  22.348  1.00  0.00     0.015 A 
ATOM     23  C   UNL A   1      28.538  31.831  23.198  1.00  0.00     0.031 A 
ATOM     24  C   UNL A   1      27.887  31.032  21.031  1.00  0.00     0.031 A 
ATOM     25  C   UNL A   1      28.403  33.119  22.709  1.00  0.00     0.111 A 
ATOM     26  C   UNL A   1      27.779  32.354  20.635  1.00  0.00     0.111 A 
ATOM     27  N   UNL A   1      28.024  33.403  21.448  1.00  0.00    -0.265 NA
ENDBRANCH  21  22
ENDBRANCH  16  17
ENDBRANCH  15  16
ENDBRANCH  13  15
ENDBRANCH   6  11
ENDBRANCH   1   5
BRANCH   3  28
ATOM     28  C   UNL A   1      37.103  20.467  24.674  1.00  0.00     0.118 C 
BRANCH  28  29
ATOM     29  C   UNL A   1      38.150  19.418  25.007  1.00  0.00     0.042 C 
BRANCH  29  30
ATOM     30  C   UNL A   1      39.213  19.860  25.997  1.00  0.00     0.118 C 
BRANCH  30  31
ATOM     31  N   UNL A   1      40.378  18.987  26.019  1.00  0.00    -0.352 N 
ATOM     32  C   UNL A   1      41.722  19.250  26.121  1.00  0.00     0.251 C 
ATOM     33  H   UNL A   1      40.161  18.029  25.946  1.00  0.00     0.163 HD
ATOM     34  O   UNL A   1      42.522  18.333  25.957  1.00  0.00    -0.269 OA
BRANCH  32  35
ATOM     35  C   UNL A   1      42.234  20.613  26.399  1.00  0.00     0.039 A 
ATOM     36  C   UNL A   1      42.677  21.392  25.322  1.00  0.00     0.014 A 
ATOM     37  C   UNL A   1      42.340  21.118  27.695  1.00  0.00     0.014 A 
ATOM     38  C   UNL A   1      43.159  22.686  25.542  1.00  0.00     0.010 A 
ATOM     39  C   UNL A   1      42.718  22.443  27.904  1.00  0.00     0.010 A 
ATOM     40  C   UNL A   1      43.146  23.239  26.832  1.00  0.00    -0.014 A 
BRANCH  40  41
ATOM     41  C   UNL A   1      43.592  24.636  27.076  1.00  0.00     0.031 A 
ATOM     42  C   UNL A   1      42.625  25.665  27.599  1.00  0.00     0.074 A 
ATOM     43  C   UNL A   1      44.855  24.994  26.773  1.00  0.00     0.049 A 
ATOM     44  N   UNL A   1      42.816  26.939  27.833  1.00  0.00    -0.248 NA
ATOM     45  C   UNL A   1      41.251  25.210  27.864  1.00  0.00     0.031 C 
ATOM     46  C   UNL A   1      45.870  24.108  26.200  1.00  0.00     0.029 A 
ATOM     47  N   UNL A   1      45.500  26.198  26.901  1.00  0.00    -0.354 N 
ATOM     48  C   UNL A   1      41.588  27.437  28.251  1.00  0.00     0.074 A 
ATOM     49  C   UNL A   1      40.644  26.344  28.180  1.00  0.00     0.031 C 
ATOM     50  C   UNL A   1      47.019  24.788  26.061  1.00  0.00     0.029 A 
ATOM     51  C   UNL A   1      46.813  26.165  26.500  1.00  0.00     0.049 A 
ATOM     52  H   UNL A   1      45.062  27.010  27.247  1.00  0.00     0.167 HD
ATOM     53  C   UNL A   1      41.280  28.684  28.683  1.00  0.00     0.037 A 
ATOM     54  C   UNL A   1      47.747  27.134  26.492  1.00  0.00     0.037 A 
ATOM     55  C   UNL A   1      42.228  29.763  28.784  1.00  0.00     0.049 A 
ATOM     56  C   UNL A   1      47.388  28.502  27.001  1.00  0.00     0.074 A 
ATOM     57  C   UNL A   1      42.033  31.045  29.266  1.00  0.00     0.029 A 
ATOM     58  N   UNL A   1      43.558  29.681  28.395  1.00  0.00    -0.354 N 
ATOM     59  N   UNL A   1      46.241  28.942  27.459  1.00  0.00    -0.248 NA
ATOM     60  C   UNL A   1      48.459  29.508  27.002  1.00  0.00     0.031 C 
ATOM     61  C   UNL A   1      43.233  31.751  29.132  1.00  0.00     0.029 A 
ATOM     62  C   UNL A   1      44.190  30.896  28.612  1.00  0.00     0.049 A 
ATOM     63  H   UNL A   1      43.989  28.880  28.019  1.00  0.00     0.167 HD
ATOM     64  C   UNL A   1      46.456  30.263  27.826  1.00  0.00     0.074 A 
ATOM     65  C   UNL A   1      47.851  30.547  27.557  1.00  0.00     0.031 C 
ATOM     66  C   UNL A   1      45.579  31.161  28.337  1.00  0.00     0.037 A 
BRANCH  53  67
ATOM     67  C   UNL A   1      39.857  28.945  29.086  1.00  0.00     0.064 A 
ATOM     68  C   UNL A   1      38.893  29.363  28.154  1.00  0.00     0.173 A 
ATOM     69  C   UNL A   1      39.443  28.753  30.413  1.00  0.00     0.173 A 
ATOM     70  F   UNL A   1      39.238  29.573  26.874  1.00  0.00    -0.203 F 
ATOM     71  C   UNL A   1      37.579  29.613  28.543  1.00  0.00     0.198 A 
ATOM     72  C   UNL A   1      38.121  28.974  30.791  1.00  0.00     0.198 A 
ATOM     73  F   UNL A   1      40.320  28.348  31.343  1.00  0.00    -0.203 F 
ATOM     74  F   UNL A   1      36.692  30.066  27.645  1.00  0.00    -0.200 F 
ATOM     75  C   UNL A   1      37.193  29.413  29.858  1.00  0.00     0.200 A 
ATOM     76  F   UNL A   1      37.745  28.766  32.061  1.00  0.00    -0.200 F 
ATOM     77  F   UNL A   1      35.927  29.650  30.230  1.00  0.00    -0.200 F 
ENDBRANCH  53  67
BRANCH  54  78
ATOM     78  C   UNL A   1      49.126  26.830  26.029  1.00  0.00     0.064 A 
ATOM     79  C   UNL A   1      50.097  26.361  26.924  1.00  0.00     0.173 A 
ATOM     80  C   UNL A   1      49.502  26.998  24.688  1.00  0.00     0.173 A 
ATOM     81  F   UNL A   1      49.790  26.204  28.220  1.00  0.00    -0.203 F 
ATOM     82  C   UNL A   1      51.396  26.091  26.502  1.00  0.00     0.198 A 
ATOM     83  C   UNL A   1      50.794  26.700  24.261  1.00  0.00     0.198 A 
ATOM     84  F   UNL A   1      48.608  27.438  23.789  1.00  0.00    -0.203 F 
ATOM     85  F   UNL A   1      52.316  25.685  27.388  1.00  0.00    -0.200 F 
ATOM     86  C   UNL A   1      51.743  26.254  25.170  1.00  0.00     0.200 A 
ATOM     87  F   UNL A   1      51.120  26.845  22.969  1.00  0.00    -0.200 F 
ATOM     88  F   UNL A   1      52.991  25.989  24.761  1.00  0.00    -0.200 F 
ENDBRANCH  54  78
BRANCH  66  89
ATOM     89  C   UNL A   1      46.114  32.527  28.661  1.00  0.00     0.064 A 
ATOM     90  C   UNL A   1      46.696  32.813  29.904  1.00  0.00     0.173 A 
ATOM     91  C   UNL A   1      46.052  33.558  27.711  1.00  0.00     0.173 A 
ATOM     92  F   UNL A   1      46.765  31.867  30.852  1.00  0.00    -0.203 F 
ATOM     93  C   UNL A   1      47.162  34.092  30.198  1.00  0.00     0.198 A 
ATOM     94  C   UNL A   1      46.548  34.827  27.997  1.00  0.00     0.198 A 
ATOM     95  F   UNL A   1      45.513  33.333  26.503  1.00  0.00    -0.203 F 
ATOM     96  F   UNL A   1      47.657  34.359  31.415  1.00  0.00    -0.200 F 
ATOM     97  C   UNL A   1      47.092  35.095  29.243  1.00  0.00     0.200 A 
ATOM     98  F   UNL A   1      46.491  35.791  27.068  1.00  0.00    -0.200 F 
ATOM     99  F   UNL A   1      47.538  36.326  29.529  1.00  0.00    -0.200 F 
ENDBRANCH  66  89
ENDBRANCH  40  41
ENDBRANCH  32  35
ENDBRANCH  30  31
ENDBRANCH  29  30
ENDBRANCH  28  29
ENDBRANCH   3  28
TORSDOF 15
ENDMDL
