MODEL 1
REMARK VINA RESULT:     -12.0      0.000      0.000
REMARK SMILES C[C@@H](C(=O)NCCCNC(=O)c1ccc(-c2c3nc(c(-c4c(F)c(F)c(F)c(F)c4F)c4ccc([nH]4)c(-c4c(F)c(F)c(F)c(F)c4F)c4nc(c(-c5c(F)c(F)c(F)c(F)c5F)c5ccc2[nH]5)C=C4)C=C3)cc1)c1ccc(-c2ccccc2)c(F)c1
REMARK SMILES IDX 7 1 6 2 5 3 3 4 4 5 2 7 1 8 75 9 76 10 87 11 77 12 85 13
REMARK SMILES IDX 78 14 86 15 79 16 80 17 84 18 81 19 83 20 82 21 8 22 9 23
REMARK SMILES IDX 10 24 11 26 12 27 13 28 74 29 14 30 73 31 15 32 16 33 17 34
REMARK SMILES IDX 67 35 18 36 72 37 66 38 68 39 19 40 71 41 65 42 64 43 20 45
REMARK SMILES IDX 52 46 32 47 51 48 33 49 36 50 50 51 69 52 34 53 35 54 49 56
REMARK SMILES IDX 70 57 37 58 21 59 22 60 30 61 23 62 24 63 28 64 31 65 25 66
REMARK SMILES IDX 26 67 29 68 27 69 53 70 54 71 62 72 55 73 56 74 60 75 63 76
REMARK SMILES IDX 57 77 58 78 61 79 59 80 38 81 39 82 47 83 40 84 41 85 45 86
REMARK SMILES IDX 48 87 42 88 43 89 46 90 44 91
REMARK H PARENT 5 6 9 25 68 44 36 55
REMARK Flexibility Score: inf
ROOT
ATOM      1  C   UNL A   1      33.018  27.746  26.796  1.00  0.00     0.042 C 
ENDROOT
BRANCH   1   2
ATOM      2  C   UNL A   1      31.603  27.835  26.226  1.00  0.00     0.117 C 
BRANCH   2   3
ATOM      3  N   UNL A   1      30.780  26.707  26.613  1.00  0.00    -0.356 N 
ATOM      4  C   UNL A   1      30.625  25.473  26.049  1.00  0.00     0.227 C 
ATOM      5  O   UNL A   1      29.827  24.720  26.610  1.00  0.00    -0.274 OA
ATOM      6  H   UNL A   1      30.239  26.855  27.422  1.00  0.00     0.163 HD
BRANCH   4   7
ATOM      7  C   UNL A   1      31.430  25.081  24.797  1.00  0.00     0.105 C 
ATOM      8  C   UNL A   1      30.737  23.974  23.997  1.00  0.00     0.023 C 
BRANCH   7   9
ATOM      9  C   UNL A   1      32.859  24.632  25.098  1.00  0.00    -0.033 A 
ATOM     10  C   UNL A   1      33.876  24.832  24.155  1.00  0.00     0.005 A 
ATOM     11  C   UNL A   1      33.176  23.940  26.275  1.00  0.00     0.044 A 
ATOM     12  C   UNL A   1      35.173  24.351  24.385  1.00  0.00     0.012 A 
ATOM     13  C   UNL A   1      34.470  23.470  26.499  1.00  0.00     0.131 A 
ATOM     14  C   UNL A   1      35.496  23.655  25.562  1.00  0.00     0.017 A 
ATOM     15  F   UNL A   1      34.709  22.820  27.649  1.00  0.00    -0.206 F 
BRANCH  14  16
ATOM     16  C   UNL A   1      36.852  23.123  25.784  1.00  0.00    -0.015 A 
ATOM     17  C   UNL A   1      37.186  21.808  25.421  1.00  0.00     0.009 A 
ATOM     18  C   UNL A   1      37.854  23.917  26.370  1.00  0.00     0.009 A 
ATOM     19  C   UNL A   1      38.472  21.305  25.636  1.00  0.00     0.001 A 
ATOM     20  C   UNL A   1      39.140  23.417  26.585  1.00  0.00     0.001 A 
ATOM     21  C   UNL A   1      39.448  22.110  26.219  1.00  0.00     0.000 A 
ENDBRANCH  14  16
ENDBRANCH   7   9
ENDBRANCH   4   7
ENDBRANCH   2   3
ENDBRANCH   1   2
BRANCH   1  22
ATOM     22  C   UNL A   1      34.033  28.700  26.169  1.00  0.00     0.118 C 
BRANCH  22  23
ATOM     23  N   UNL A   1      33.853  30.080  26.586  1.00  0.00    -0.352 N 
ATOM     24  C   UNL A   1      34.554  30.842  27.482  1.00  0.00     0.251 C 
ATOM     25  H   UNL A   1      33.101  30.545  26.151  1.00  0.00     0.163 HD
ATOM     26  O   UNL A   1      34.121  31.959  27.778  1.00  0.00    -0.269 OA
BRANCH  24  27
ATOM     27  C   UNL A   1      35.799  30.357  28.122  1.00  0.00     0.039 A 
ATOM     28  C   UNL A   1      37.008  30.568  27.448  1.00  0.00     0.014 A 
ATOM     29  C   UNL A   1      35.798  29.649  29.327  1.00  0.00     0.014 A 
ATOM     30  C   UNL A   1      38.209  30.116  28.000  1.00  0.00     0.010 A 
ATOM     31  C   UNL A   1      37.004  29.251  29.910  1.00  0.00     0.010 A 
ATOM     32  C   UNL A   1      38.221  29.477  29.250  1.00  0.00    -0.014 A 
BRANCH  32  33
ATOM     33  C   UNL A   1      39.508  29.058  29.865  1.00  0.00     0.031 A 
ATOM     34  C   UNL A   1      40.046  29.754  31.082  1.00  0.00     0.074 A 
ATOM     35  C   UNL A   1      40.209  28.052  29.305  1.00  0.00     0.049 A 
ATOM     36  N   UNL A   1      41.137  29.502  31.765  1.00  0.00    -0.248 NA
ATOM     37  C   UNL A   1      39.270  30.894  31.592  1.00  0.00     0.031 C 
ATOM     38  C   UNL A   1      39.826  27.332  28.089  1.00  0.00     0.029 A 
ATOM     39  N   UNL A   1      41.387  27.460  29.685  1.00  0.00    -0.354 N 
ATOM     40  C   UNL A   1      41.181  30.455  32.774  1.00  0.00     0.074 A 
ATOM     41  C   UNL A   1      40.033  31.317  32.591  1.00  0.00     0.031 C 
ATOM     42  C   UNL A   1      40.736  26.377  27.840  1.00  0.00     0.029 A 
ATOM     43  C   UNL A   1      41.775  26.431  28.864  1.00  0.00     0.049 A 
ATOM     44  H   UNL A   1      41.905  27.748  30.472  1.00  0.00     0.167 HD
ATOM     45  C   UNL A   1      42.083  30.586  33.777  1.00  0.00     0.037 A 
ATOM     46  C   UNL A   1      42.841  25.613  28.935  1.00  0.00     0.037 A 
ATOM     47  C   UNL A   1      43.213  29.714  33.977  1.00  0.00     0.049 A 
ATOM     48  C   UNL A   1      43.811  25.758  30.074  1.00  0.00     0.074 A 
ATOM     49  C   UNL A   1      44.146  29.730  35.000  1.00  0.00     0.029 A 
ATOM     50  N   UNL A   1      43.561  28.669  33.135  1.00  0.00    -0.354 N 
ATOM     51  N   UNL A   1      43.800  26.616  31.064  1.00  0.00    -0.248 NA
ATOM     52  C   UNL A   1      44.936  24.813  30.110  1.00  0.00     0.031 C 
ATOM     53  C   UNL A   1      45.079  28.714  34.758  1.00  0.00     0.029 A 
ATOM     54  C   UNL A   1      44.705  28.043  33.606  1.00  0.00     0.049 A 
ATOM     55  H   UNL A   1      43.069  28.409  32.323  1.00  0.00     0.167 HD
ATOM     56  C   UNL A   1      44.901  26.306  31.850  1.00  0.00     0.074 A 
ATOM     57  C   UNL A   1      45.547  25.166  31.231  1.00  0.00     0.031 C 
ATOM     58  C   UNL A   1      45.340  26.913  32.978  1.00  0.00     0.037 A 
BRANCH  45  59
ATOM     59  C   UNL A   1      41.882  31.712  34.747  1.00  0.00     0.064 A 
ATOM     60  C   UNL A   1      42.527  32.946  34.581  1.00  0.00     0.173 A 
ATOM     61  C   UNL A   1      41.003  31.571  35.831  1.00  0.00     0.173 A 
ATOM     62  F   UNL A   1      43.386  33.126  33.565  1.00  0.00    -0.203 F 
ATOM     63  C   UNL A   1      42.320  33.990  35.477  1.00  0.00     0.198 A 
ATOM     64  C   UNL A   1      40.778  32.626  36.713  1.00  0.00     0.198 A 
ATOM     65  F   UNL A   1      40.356  30.412  36.032  1.00  0.00    -0.203 F 
ATOM     66  F   UNL A   1      42.979  35.147  35.321  1.00  0.00    -0.200 F 
ATOM     67  C   UNL A   1      41.442  33.832  36.539  1.00  0.00     0.200 A 
ATOM     68  F   UNL A   1      39.922  32.474  37.733  1.00  0.00    -0.200 F 
ATOM     69  F   UNL A   1      41.239  34.839  37.399  1.00  0.00    -0.200 F 
ENDBRANCH  45  59
BRANCH  46  70
ATOM     70  C   UNL A   1      43.023  24.550  27.915  1.00  0.00     0.064 A 
ATOM     71  C   UNL A   1      43.603  24.839  26.673  1.00  0.00     0.173 A 
ATOM     72  C   UNL A   1      42.630  23.227  28.164  1.00  0.00     0.173 A 
ATOM     73  F   UNL A   1      43.975  26.095  26.384  1.00  0.00    -0.203 F 
ATOM     74  C   UNL A   1      43.769  23.847  25.709  1.00  0.00     0.198 A 
ATOM     75  C   UNL A   1      42.817  22.232  27.208  1.00  0.00     0.198 A 
ATOM     76  F   UNL A   1      42.076  22.901  29.340  1.00  0.00    -0.203 F 
ATOM     77  F   UNL A   1      44.292  24.157  24.515  1.00  0.00    -0.200 F 
ATOM     78  C   UNL A   1      43.381  22.544  25.979  1.00  0.00     0.200 A 
ATOM     79  F   UNL A   1      42.453  20.970  27.477  1.00  0.00    -0.200 F 
ATOM     80  F   UNL A   1      43.545  21.588  25.054  1.00  0.00    -0.200 F 
ENDBRANCH  46  70
BRANCH  58  81
ATOM     81  C   UNL A   1      46.570  26.346  33.622  1.00  0.00     0.064 A 
ATOM     82  C   UNL A   1      47.849  26.825  33.303  1.00  0.00     0.173 A 
ATOM     83  C   UNL A   1      46.468  25.326  34.579  1.00  0.00     0.173 A 
ATOM     84  F   UNL A   1      47.998  27.789  32.382  1.00  0.00    -0.203 F 
ATOM     85  C   UNL A   1      48.984  26.283  33.898  1.00  0.00     0.198 A 
ATOM     86  C   UNL A   1      47.605  24.802  35.190  1.00  0.00     0.198 A 
ATOM     87  F   UNL A   1      45.267  24.837  34.920  1.00  0.00    -0.203 F 
ATOM     88  F   UNL A   1      50.200  26.722  33.543  1.00  0.00    -0.200 F 
ATOM     89  C   UNL A   1      48.861  25.276  34.844  1.00  0.00     0.200 A 
ATOM     90  F   UNL A   1      47.484  23.835  36.109  1.00  0.00    -0.200 F 
ATOM     91  F   UNL A   1      49.955  24.753  35.415  1.00  0.00    -0.200 F 
ENDBRANCH  58  81
ENDBRANCH  32  33
ENDBRANCH  24  27
ENDBRANCH  22  23
ENDBRANCH   1  22
TORSDOF 12
ENDMDL
MODEL 2
REMARK VINA RESULT:     -12.0      1.503      2.501
REMARK SMILES C[C@@H](C(=O)NCCCNC(=O)c1ccc(-c2c3nc(c(-c4c(F)c(F)c(F)c(F)c4F)c4ccc([nH]4)c(-c4c(F)c(F)c(F)c(F)c4F)c4nc(c(-c5c(F)c(F)c(F)c(F)c5F)c5ccc2[nH]5)C=C4)C=C3)cc1)c1ccc(-c2ccccc2)c(F)c1
REMARK SMILES IDX 7 1 6 2 5 3 3 4 4 5 2 7 1 8 75 9 76 10 87 11 77 12 85 13
REMARK SMILES IDX 78 14 86 15 79 16 80 17 84 18 81 19 83 20 82 21 8 22 9 23
REMARK SMILES IDX 10 24 11 26 12 27 13 28 74 29 14 30 73 31 15 32 16 33 17 34
REMARK SMILES IDX 67 35 18 36 72 37 66 38 68 39 19 40 71 41 65 42 64 43 20 45
REMARK SMILES IDX 52 46 32 47 51 48 33 49 36 50 50 51 69 52 34 53 35 54 49 56
REMARK SMILES IDX 70 57 37 58 21 59 22 60 30 61 23 62 24 63 28 64 31 65 25 66
REMARK SMILES IDX 26 67 29 68 27 69 53 70 54 71 62 72 55 73 56 74 60 75 63 76
REMARK SMILES IDX 57 77 58 78 61 79 59 80 38 81 39 82 47 83 40 84 41 85 45 86
REMARK SMILES IDX 48 87 42 88 43 89 46 90 44 91
REMARK H PARENT 5 6 9 25 68 44 36 55
REMARK Flexibility Score: inf
ROOT
ATOM      1  C   UNL A   1      32.858  27.889  25.971  1.00  0.00     0.042 C 
ENDROOT
BRANCH   1   2
ATOM      2  C   UNL A   1      31.422  27.783  25.459  1.00  0.00     0.117 C 
BRANCH   2   3
ATOM      3  N   UNL A   1      30.692  26.699  26.085  1.00  0.00    -0.356 N 
ATOM      4  C   UNL A   1      30.614  25.372  25.775  1.00  0.00     0.227 C 
ATOM      5  O   UNL A   1      29.884  24.692  26.499  1.00  0.00    -0.274 OA
ATOM      6  H   UNL A   1      30.160  26.966  26.870  1.00  0.00     0.163 HD
BRANCH   4   7
ATOM      7  C   UNL A   1      31.416  24.797  24.594  1.00  0.00     0.105 C 
ATOM      8  C   UNL A   1      30.747  23.556  23.999  1.00  0.00     0.023 C 
BRANCH   7   9
ATOM      9  C   UNL A   1      32.860  24.442  24.945  1.00  0.00    -0.033 A 
ATOM     10  C   UNL A   1      33.878  24.599  23.994  1.00  0.00     0.005 A 
ATOM     11  C   UNL A   1      33.194  23.876  26.183  1.00  0.00     0.044 A 
ATOM     12  C   UNL A   1      35.191  24.199  24.276  1.00  0.00     0.012 A 
ATOM     13  C   UNL A   1      34.505  23.486  26.458  1.00  0.00     0.131 A 
ATOM     14  C   UNL A   1      35.532  23.629  25.515  1.00  0.00     0.017 A 
ATOM     15  F   UNL A   1      34.760  22.956  27.664  1.00  0.00    -0.206 F 
BRANCH  14  16
ATOM     16  C   UNL A   1      36.907  23.180  25.794  1.00  0.00    -0.015 A 
ATOM     17  C   UNL A   1      37.324  21.875  25.481  1.00  0.00     0.009 A 
ATOM     18  C   UNL A   1      37.845  24.044  26.385  1.00  0.00     0.009 A 
ATOM     19  C   UNL A   1      38.628  21.451  25.750  1.00  0.00     0.001 A 
ATOM     20  C   UNL A   1      39.149  23.623  26.655  1.00  0.00     0.001 A 
ATOM     21  C   UNL A   1      39.540  22.325  26.338  1.00  0.00     0.000 A 
ENDBRANCH  14  16
ENDBRANCH   7   9
ENDBRANCH   4   7
ENDBRANCH   2   3
ENDBRANCH   1   2
BRANCH   1  22
ATOM     22  C   UNL A   1      33.649  29.087  25.449  1.00  0.00     0.118 C 
BRANCH  22  23
ATOM     23  N   UNL A   1      33.133  30.362  25.920  1.00  0.00    -0.352 N 
ATOM     24  C   UNL A   1      33.541  31.165  26.951  1.00  0.00     0.251 C 
ATOM     25  H   UNL A   1      32.363  30.704  25.411  1.00  0.00     0.163 HD
ATOM     26  O   UNL A   1      32.850  32.142  27.250  1.00  0.00    -0.269 OA
BRANCH  24  27
ATOM     27  C   UNL A   1      34.769  30.882  27.730  1.00  0.00     0.039 A 
ATOM     28  C   UNL A   1      34.856  29.652  28.393  1.00  0.00     0.014 A 
ATOM     29  C   UNL A   1      35.798  31.817  27.876  1.00  0.00     0.014 A 
ATOM     30  C   UNL A   1      35.986  29.342  29.154  1.00  0.00     0.010 A 
ATOM     31  C   UNL A   1      36.954  31.483  28.586  1.00  0.00     0.010 A 
ATOM     32  C   UNL A   1      37.058  30.245  29.236  1.00  0.00    -0.014 A 
BRANCH  32  33
ATOM     33  C   UNL A   1      38.285  29.883  29.992  1.00  0.00     0.031 A 
ATOM     34  C   UNL A   1      38.510  30.390  31.388  1.00  0.00     0.074 A 
ATOM     35  C   UNL A   1      39.217  29.106  29.404  1.00  0.00     0.049 A 
ATOM     36  N   UNL A   1      39.508  30.152  32.204  1.00  0.00    -0.248 NA
ATOM     37  C   UNL A   1      37.491  31.297  31.937  1.00  0.00     0.031 C 
ATOM     38  C   UNL A   1      39.147  28.596  28.034  1.00  0.00     0.029 A 
ATOM     39  N   UNL A   1      40.402  28.609  29.884  1.00  0.00    -0.354 N 
ATOM     40  C   UNL A   1      39.243  30.885  33.353  1.00  0.00     0.074 A 
ATOM     41  C   UNL A   1      38.013  31.610  33.115  1.00  0.00     0.031 C 
ATOM     42  C   UNL A   1      40.226  27.835  27.793  1.00  0.00     0.029 A 
ATOM     43  C   UNL A   1      41.072  27.820  28.983  1.00  0.00     0.049 A 
ATOM     44  H   UNL A   1      40.740  28.801  30.789  1.00  0.00     0.167 HD
ATOM     45  C   UNL A   1      39.947  30.932  34.509  1.00  0.00     0.037 A 
ATOM     46  C   UNL A   1      42.233  27.149  29.105  1.00  0.00     0.037 A 
ATOM     47  C   UNL A   1      41.157  30.192  34.759  1.00  0.00     0.049 A 
ATOM     48  C   UNL A   1      42.979  27.192  30.409  1.00  0.00     0.074 A 
ATOM     49  C   UNL A   1      41.907  30.127  35.921  1.00  0.00     0.029 A 
ATOM     50  N   UNL A   1      41.795  29.386  33.828  1.00  0.00    -0.354 N 
ATOM     51  N   UNL A   1      42.678  27.830  31.512  1.00  0.00    -0.248 NA
ATOM     52  C   UNL A   1      44.222  26.412  30.485  1.00  0.00     0.031 C 
ATOM     53  C   UNL A   1      43.018  29.307  35.682  1.00  0.00     0.029 A 
ATOM     54  C   UNL A   1      42.939  28.834  34.383  1.00  0.00     0.049 A 
ATOM     55  H   UNL A   1      41.482  29.229  32.907  1.00  0.00     0.167 HD
ATOM     56  C   UNL A   1      43.680  27.516  32.420  1.00  0.00     0.074 A 
ATOM     57  C   UNL A   1      44.589  26.614  31.743  1.00  0.00     0.031 C 
ATOM     58  C   UNL A   1      43.836  27.941  33.696  1.00  0.00     0.037 A 
BRANCH  45  59
ATOM     59  C   UNL A   1      39.419  31.809  35.605  1.00  0.00     0.064 A 
ATOM     60  C   UNL A   1      38.494  31.331  36.545  1.00  0.00     0.173 A 
ATOM     61  C   UNL A   1      39.872  33.129  35.743  1.00  0.00     0.173 A 
ATOM     62  F   UNL A   1      38.022  30.078  36.449  1.00  0.00    -0.203 F 
ATOM     63  C   UNL A   1      38.024  32.148  37.569  1.00  0.00     0.198 A 
ATOM     64  C   UNL A   1      39.419  33.938  36.783  1.00  0.00     0.198 A 
ATOM     65  F   UNL A   1      40.762  33.634  34.874  1.00  0.00    -0.203 F 
ATOM     66  F   UNL A   1      37.110  31.682  38.431  1.00  0.00    -0.200 F 
ATOM     67  C   UNL A   1      38.490  33.449  37.691  1.00  0.00     0.200 A 
ATOM     68  F   UNL A   1      39.878  35.191  36.906  1.00  0.00    -0.200 F 
ATOM     69  F   UNL A   1      38.041  34.234  38.679  1.00  0.00    -0.200 F 
ENDBRANCH  45  59
BRANCH  46  70
ATOM     70  C   UNL A   1      42.739  26.340  27.968  1.00  0.00     0.064 A 
ATOM     71  C   UNL A   1      43.565  26.912  26.992  1.00  0.00     0.173 A 
ATOM     72  C   UNL A   1      42.414  24.983  27.839  1.00  0.00     0.173 A 
ATOM     73  F   UNL A   1      43.885  28.213  27.064  1.00  0.00    -0.203 F 
ATOM     74  C   UNL A   1      44.036  26.160  25.918  1.00  0.00     0.198 A 
ATOM     75  C   UNL A   1      42.904  24.226  26.777  1.00  0.00     0.198 A 
ATOM     76  F   UNL A   1      41.631  24.390  28.751  1.00  0.00    -0.203 F 
ATOM     77  F   UNL A   1      44.795  26.740  24.978  1.00  0.00    -0.200 F 
ATOM     78  C   UNL A   1      43.709  24.816  25.814  1.00  0.00     0.200 A 
ATOM     79  F   UNL A   1      42.597  22.924  26.687  1.00  0.00    -0.200 F 
ATOM     80  F   UNL A   1      44.166  24.091  24.784  1.00  0.00    -0.200 F 
ENDBRANCH  46  70
BRANCH  58  81
ATOM     81  C   UNL A   1      45.027  27.422  34.445  1.00  0.00     0.064 A 
ATOM     82  C   UNL A   1      44.960  26.238  35.194  1.00  0.00     0.173 A 
ATOM     83  C   UNL A   1      46.251  28.105  34.401  1.00  0.00     0.173 A 
ATOM     84  F   UNL A   1      43.807  25.559  35.280  1.00  0.00    -0.203 F 
ATOM     85  C   UNL A   1      46.069  25.772  35.895  1.00  0.00     0.198 A 
ATOM     86  C   UNL A   1      47.365  27.623  35.084  1.00  0.00     0.198 A 
ATOM     87  F   UNL A   1      46.367  29.240  33.696  1.00  0.00    -0.203 F 
ATOM     88  F   UNL A   1      45.969  24.665  36.643  1.00  0.00    -0.200 F 
ATOM     89  C   UNL A   1      47.271  26.462  35.835  1.00  0.00     0.200 A 
ATOM     90  F   UNL A   1      48.528  28.286  35.019  1.00  0.00    -0.200 F 
ATOM     91  F   UNL A   1      48.337  26.013  36.512  1.00  0.00    -0.200 F 
ENDBRANCH  58  81
ENDBRANCH  32  33
ENDBRANCH  24  27
ENDBRANCH  22  23
ENDBRANCH   1  22
TORSDOF 12
ENDMDL
MODEL 3
REMARK VINA RESULT:     -11.9      0.200      1.266
REMARK SMILES C[C@@H](C(=O)NCCCNC(=O)c1ccc(-c2c3nc(c(-c4c(F)c(F)c(F)c(F)c4F)c4ccc([nH]4)c(-c4c(F)c(F)c(F)c(F)c4F)c4nc(c(-c5c(F)c(F)c(F)c(F)c5F)c5ccc2[nH]5)C=C4)C=C3)cc1)c1ccc(-c2ccccc2)c(F)c1
REMARK SMILES IDX 7 1 6 2 5 3 3 4 4 5 2 7 1 8 75 9 76 10 87 11 77 12 85 13
REMARK SMILES IDX 78 14 86 15 79 16 80 17 84 18 81 19 83 20 82 21 8 22 9 23
REMARK SMILES IDX 10 24 11 26 12 27 13 28 74 29 14 30 73 31 15 32 16 33 17 34
REMARK SMILES IDX 67 35 18 36 72 37 66 38 68 39 19 40 71 41 65 42 64 43 20 45
REMARK SMILES IDX 52 46 32 47 51 48 33 49 36 50 50 51 69 52 34 53 35 54 49 56
REMARK SMILES IDX 70 57 37 58 21 59 22 60 30 61 23 62 24 63 28 64 31 65 25 66
REMARK SMILES IDX 26 67 29 68 27 69 53 70 54 71 62 72 55 73 56 74 60 75 63 76
REMARK SMILES IDX 57 77 58 78 61 79 59 80 38 81 39 82 47 83 40 84 41 85 45 86
REMARK SMILES IDX 48 87 42 88 43 89 46 90 44 91
REMARK H PARENT 5 6 9 25 68 44 36 55
REMARK Flexibility Score: inf
ROOT
ATOM      1  C   UNL A   1      32.997  27.699  26.581  1.00  0.00     0.042 C 
ENDROOT
BRANCH   1   2
ATOM      2  C   UNL A   1      31.554  27.810  26.088  1.00  0.00     0.117 C 
BRANCH   2   3
ATOM      3  N   UNL A   1      30.741  26.686  26.505  1.00  0.00    -0.356 N 
ATOM      4  C   UNL A   1      30.585  25.441  25.964  1.00  0.00     0.227 C 
ATOM      5  O   UNL A   1      29.796  24.696  26.549  1.00  0.00    -0.274 OA
ATOM      6  H   UNL A   1      30.209  26.847  27.317  1.00  0.00     0.163 HD
BRANCH   4   7
ATOM      7  C   UNL A   1      31.376  25.029  24.710  1.00  0.00     0.105 C 
ATOM      8  C   UNL A   1      30.657  23.938  23.915  1.00  0.00     0.023 C 
BRANCH   7   9
ATOM      9  C   UNL A   1      32.796  24.549  25.008  1.00  0.00    -0.033 A 
ATOM     10  C   UNL A   1      33.797  24.656  24.032  1.00  0.00     0.005 A 
ATOM     11  C   UNL A   1      33.117  23.919  26.218  1.00  0.00     0.044 A 
ATOM     12  C   UNL A   1      35.082  24.144  24.264  1.00  0.00     0.012 A 
ATOM     13  C   UNL A   1      34.400  23.418  26.442  1.00  0.00     0.131 A 
ATOM     14  C   UNL A   1      35.408  23.509  25.474  1.00  0.00     0.017 A 
ATOM     15  F   UNL A   1      34.643  22.830  27.624  1.00  0.00    -0.206 F 
BRANCH  14  16
ATOM     16  C   UNL A   1      36.750  22.944  25.699  1.00  0.00    -0.015 A 
ATOM     17  C   UNL A   1      37.770  23.705  26.293  1.00  0.00     0.009 A 
ATOM     18  C   UNL A   1      37.052  21.623  25.322  1.00  0.00     0.009 A 
ATOM     19  C   UNL A   1      39.044  23.168  26.501  1.00  0.00     0.001 A 
ATOM     20  C   UNL A   1      38.323  21.083  25.529  1.00  0.00     0.001 A 
ATOM     21  C   UNL A   1      39.320  21.857  26.119  1.00  0.00     0.000 A 
ENDBRANCH  14  16
ENDBRANCH   7   9
ENDBRANCH   4   7
ENDBRANCH   2   3
ENDBRANCH   1   2
BRANCH   1  22
ATOM     22  C   UNL A   1      33.978  28.685  25.949  1.00  0.00     0.118 C 
BRANCH  22  23
ATOM     23  N   UNL A   1      33.776  30.055  26.391  1.00  0.00    -0.352 N 
ATOM     24  C   UNL A   1      34.453  30.804  27.316  1.00  0.00     0.251 C 
ATOM     25  H   UNL A   1      33.029  30.521  25.950  1.00  0.00     0.163 HD
ATOM     26  O   UNL A   1      34.003  31.910  27.626  1.00  0.00    -0.269 OA
BRANCH  24  27
ATOM     27  C   UNL A   1      35.690  30.317  27.970  1.00  0.00     0.039 A 
ATOM     28  C   UNL A   1      36.892  30.426  27.262  1.00  0.00     0.014 A 
ATOM     29  C   UNL A   1      35.683  29.703  29.226  1.00  0.00     0.014 A 
ATOM     30  C   UNL A   1      38.085  29.968  27.828  1.00  0.00     0.010 A 
ATOM     31  C   UNL A   1      36.884  29.300  29.817  1.00  0.00     0.010 A 
ATOM     32  C   UNL A   1      38.096  29.425  29.123  1.00  0.00    -0.014 A 
BRANCH  32  33
ATOM     33  C   UNL A   1      39.376  29.000  29.745  1.00  0.00     0.031 A 
ATOM     34  C   UNL A   1      39.905  29.689  30.971  1.00  0.00     0.074 A 
ATOM     35  C   UNL A   1      40.080  27.996  29.187  1.00  0.00     0.049 A 
ATOM     36  N   UNL A   1      40.990  29.431  31.662  1.00  0.00    -0.248 NA
ATOM     37  C   UNL A   1      39.127  30.828  31.481  1.00  0.00     0.031 C 
ATOM     38  C   UNL A   1      39.706  27.282  27.964  1.00  0.00     0.029 A 
ATOM     39  N   UNL A   1      41.254  27.399  29.573  1.00  0.00    -0.354 N 
ATOM     40  C   UNL A   1      41.027  30.379  32.677  1.00  0.00     0.074 A 
ATOM     41  C   UNL A   1      39.882  31.244  32.488  1.00  0.00     0.031 C 
ATOM     42  C   UNL A   1      40.616  26.327  27.717  1.00  0.00     0.029 A 
ATOM     43  C   UNL A   1      41.647  26.373  28.751  1.00  0.00     0.049 A 
ATOM     44  H   UNL A   1      41.766  27.682  30.366  1.00  0.00     0.167 HD
ATOM     45  C   UNL A   1      41.921  30.502  33.687  1.00  0.00     0.037 A 
ATOM     46  C   UNL A   1      42.711  25.553  28.826  1.00  0.00     0.037 A 
ATOM     47  C   UNL A   1      43.047  29.628  33.893  1.00  0.00     0.049 A 
ATOM     48  C   UNL A   1      43.671  25.691  29.975  1.00  0.00     0.074 A 
ATOM     49  C   UNL A   1      43.972  29.636  34.924  1.00  0.00     0.029 A 
ATOM     50  N   UNL A   1      43.401  28.586  33.049  1.00  0.00    -0.354 N 
ATOM     51  N   UNL A   1      43.653  26.544  30.969  1.00  0.00    -0.248 NA
ATOM     52  C   UNL A   1      44.794  24.743  30.015  1.00  0.00     0.031 C 
ATOM     53  C   UNL A   1      44.905  28.619  34.685  1.00  0.00     0.029 A 
ATOM     54  C   UNL A   1      44.540  27.956  33.526  1.00  0.00     0.049 A 
ATOM     55  H   UNL A   1      42.915  28.331  32.231  1.00  0.00     0.167 HD
ATOM     56  C   UNL A   1      44.747  26.227  31.763  1.00  0.00     0.074 A 
ATOM     57  C   UNL A   1      45.396  25.089  31.144  1.00  0.00     0.031 C 
ATOM     58  C   UNL A   1      45.178  26.828  32.898  1.00  0.00     0.037 A 
BRANCH  45  59
ATOM     59  C   UNL A   1      41.713  31.623  34.661  1.00  0.00     0.064 A 
ATOM     60  C   UNL A   1      42.386  32.847  34.524  1.00  0.00     0.173 A 
ATOM     61  C   UNL A   1      40.803  31.490  35.720  1.00  0.00     0.173 A 
ATOM     62  F   UNL A   1      43.275  33.020  33.533  1.00  0.00    -0.203 F 
ATOM     63  C   UNL A   1      42.173  33.887  35.424  1.00  0.00     0.198 A 
ATOM     64  C   UNL A   1      40.573  32.541  36.605  1.00  0.00     0.198 A 
ATOM     65  F   UNL A   1      40.130  30.342  35.893  1.00  0.00    -0.203 F 
ATOM     66  F   UNL A   1      42.856  35.033  35.296  1.00  0.00    -0.200 F 
ATOM     67  C   UNL A   1      41.263  33.736  36.460  1.00  0.00     0.200 A 
ATOM     68  F   UNL A   1      39.686  32.397  37.600  1.00  0.00    -0.200 F 
ATOM     69  F   UNL A   1      41.055  34.740  37.323  1.00  0.00    -0.200 F 
ENDBRANCH  45  59
BRANCH  46  70
ATOM     70  C   UNL A   1      42.900  24.495  27.803  1.00  0.00     0.064 A 
ATOM     71  C   UNL A   1      42.474  23.182  28.042  1.00  0.00     0.173 A 
ATOM     72  C   UNL A   1      43.501  24.775  26.568  1.00  0.00     0.173 A 
ATOM     73  F   UNL A   1      41.912  22.863  29.217  1.00  0.00    -0.203 F 
ATOM     74  C   UNL A   1      42.655  22.183  27.087  1.00  0.00     0.198 A 
ATOM     75  C   UNL A   1      43.661  23.781  25.606  1.00  0.00     0.198 A 
ATOM     76  F   UNL A   1      43.920  26.018  26.292  1.00  0.00    -0.203 F 
ATOM     77  F   UNL A   1      42.272  20.927  27.354  1.00  0.00    -0.200 F 
ATOM     78  C   UNL A   1      43.244  22.484  25.869  1.00  0.00     0.200 A 
ATOM     79  F   UNL A   1      44.219  24.078  24.424  1.00  0.00    -0.200 F 
ATOM     80  F   UNL A   1      43.414  21.525  24.949  1.00  0.00    -0.200 F 
ENDBRANCH  46  70
BRANCH  58  81
ATOM     81  C   UNL A   1      46.401  26.254  33.549  1.00  0.00     0.064 A 
ATOM     82  C   UNL A   1      47.684  26.725  33.234  1.00  0.00     0.173 A 
ATOM     83  C   UNL A   1      46.288  25.238  34.509  1.00  0.00     0.173 A 
ATOM     84  F   UNL A   1      47.844  27.684  32.311  1.00  0.00    -0.203 F 
ATOM     85  C   UNL A   1      48.813  26.177  33.837  1.00  0.00     0.198 A 
ATOM     86  C   UNL A   1      47.418  24.709  35.127  1.00  0.00     0.198 A 
ATOM     87  F   UNL A   1      45.082  24.758  34.846  1.00  0.00    -0.203 F 
ATOM     88  F   UNL A   1      50.033  26.608  33.486  1.00  0.00    -0.200 F 
ATOM     89  C   UNL A   1      48.679  25.174  34.785  1.00  0.00     0.200 A 
ATOM     90  F   UNL A   1      47.287  23.745  36.048  1.00  0.00    -0.200 F 
ATOM     91  F   UNL A   1      49.768  24.646  35.363  1.00  0.00    -0.200 F 
ENDBRANCH  58  81
ENDBRANCH  32  33
ENDBRANCH  24  27
ENDBRANCH  22  23
ENDBRANCH   1  22
TORSDOF 12
ENDMDL
