MODEL 1
REMARK VINA RESULT:     -10.2      0.000      0.000
REMARK SMILES C=CCN(CC(=O)NCCCNC(=O)c1ccc(-c2c3nc(c(-c4c(F)c(F)c(F)c(F)c4F)c4ccc([nH]4)c(-c4c(F)c(F)c(F)c(F)c4F)c4nc(c(-c5c(F)c(F)c(F)c(F)c5F)c5ccc2[nH]5)C=C4)C=C3)cc1)C(=O)[C@@H](C[NH3+])C(C)C
REMARK SMILES IDX 6 1 7 2 8 3 5 5 4 6 3 7 2 8 1 9 78 10 79 11 80 12 81 13
REMARK SMILES IDX 82 14 83 18 84 19 85 20 9 21 10 22 11 23 12 24 13 25 14 27
REMARK SMILES IDX 15 28 16 29 77 30 17 31 76 32 18 33 19 34 20 35 70 36 21 37
REMARK SMILES IDX 75 38 69 39 71 40 22 41 74 42 68 43 67 44 23 46 55 47 35 48
REMARK SMILES IDX 54 49 36 50 39 51 53 52 72 53 37 54 38 55 52 57 73 58 40 59
REMARK SMILES IDX 24 60 25 61 33 62 26 63 27 64 31 65 34 66 28 67 29 68 32 69
REMARK SMILES IDX 30 70 56 71 57 72 65 73 58 74 59 75 63 76 66 77 60 78 61 79
REMARK SMILES IDX 64 80 62 81 41 82 42 83 50 84 43 85 44 86 48 87 51 88 45 89
REMARK SMILES IDX 46 90 49 91 47 92
REMARK H PARENT 8 4 82 15 82 16 82 17 12 26 71 45 39 56
REMARK Flexibility Score: inf
ROOT
ATOM      1  C   UNL A   1      35.675  22.990  25.516  1.00  0.00     0.239 C 
ATOM      2  O   UNL A   1      36.075  24.155  25.413  1.00  0.00    -0.273 OA
ATOM      3  N   UNL A   1      36.444  22.036  24.930  1.00  0.00    -0.354 N 
ATOM      4  H   UNL A   1      37.006  22.346  24.183  1.00  0.00     0.163 HD
ENDROOT
BRANCH   1   5
ATOM      5  C   UNL A   1      34.458  22.651  26.390  1.00  0.00     0.219 C 
BRANCH   5   6
ATOM      6  N   UNL A   1      33.099  23.006  25.937  1.00  0.00    -0.329 N 
BRANCH   6   7
ATOM      7  C   UNL A   1      32.595  22.271  24.772  1.00  0.00     0.147 C 
BRANCH   7   8
ATOM      8  C   UNL A   1      32.609  23.126  23.539  1.00  0.00    -0.014 C 
ATOM      9  C   UNL A   1      33.548  23.017  22.588  1.00  0.00     0.006 C 
ENDBRANCH   7   8
ENDBRANCH   6   7
BRANCH   6  10
ATOM     10  C   UNL A   1      32.230  23.936  26.502  1.00  0.00     0.232 C 
ATOM     11  O   UNL A   1      31.654  23.656  27.568  1.00  0.00    -0.274 OA
BRANCH  10  12
ATOM     12  C   UNL A   1      31.873  25.309  25.892  1.00  0.00     0.136 C 
BRANCH  12  13
ATOM     13  C   UNL A   1      30.388  25.482  25.506  1.00  0.00     0.272 C 
BRANCH  13  14
ATOM     14  N   UNL A   1      29.373  24.984  26.421  1.00  0.00    -0.357 N 
ATOM     15  H   UNL A   1      28.943  24.147  26.028  1.00  0.00     0.344 HD
ATOM     16  H   UNL A   1      28.660  25.699  26.561  1.00  0.00     0.344 HD
ATOM     17  H   UNL A   1      29.805  24.756  27.316  1.00  0.00     0.344 HD
ENDBRANCH  13  14
ENDBRANCH  12  13
BRANCH  12  18
ATOM     18  C   UNL A   1      32.631  26.507  26.512  1.00  0.00     0.001 C 
ATOM     19  C   UNL A   1      33.619  27.097  25.489  1.00  0.00     0.008 C 
ATOM     20  C   UNL A   1      31.718  27.636  26.996  1.00  0.00     0.008 C 
ENDBRANCH  12  18
ENDBRANCH  10  12
ENDBRANCH   6  10
ENDBRANCH   5   6
ENDBRANCH   1   5
BRANCH   3  21
ATOM     21  C   UNL A   1      36.555  20.632  25.247  1.00  0.00     0.117 C 
BRANCH  21  22
ATOM     22  C   UNL A   1      37.890  20.026  24.843  1.00  0.00     0.042 C 
BRANCH  22  23
ATOM     23  C   UNL A   1      39.043  20.408  25.765  1.00  0.00     0.118 C 
BRANCH  23  24
ATOM     24  N   UNL A   1      40.045  19.352  25.870  1.00  0.00    -0.352 N 
ATOM     25  C   UNL A   1      41.396  19.437  26.082  1.00  0.00     0.251 C 
ATOM     26  H   UNL A   1      39.695  18.436  25.775  1.00  0.00     0.163 HD
ATOM     27  O   UNL A   1      42.110  18.451  25.903  1.00  0.00    -0.269 OA
BRANCH  25  28
ATOM     28  C   UNL A   1      41.998  20.712  26.512  1.00  0.00     0.039 A 
ATOM     29  C   UNL A   1      42.440  21.621  25.547  1.00  0.00     0.014 A 
ATOM     30  C   UNL A   1      42.140  21.004  27.871  1.00  0.00     0.014 A 
ATOM     31  C   UNL A   1      42.952  22.859  25.945  1.00  0.00     0.010 A 
ATOM     32  C   UNL A   1      42.573  22.265  28.263  1.00  0.00     0.010 A 
ATOM     33  C   UNL A   1      42.982  23.206  27.305  1.00  0.00    -0.014 A 
BRANCH  33  34
ATOM     34  C   UNL A   1      43.433  24.543  27.763  1.00  0.00     0.031 A 
ATOM     35  C   UNL A   1      42.418  25.601  28.092  1.00  0.00     0.074 A 
ATOM     36  C   UNL A   1      44.747  24.834  27.783  1.00  0.00     0.049 A 
ATOM     37  N   UNL A   1      42.599  26.870  28.360  1.00  0.00    -0.248 NA
ATOM     38  C   UNL A   1      41.007  25.183  28.090  1.00  0.00     0.031 C 
ATOM     39  C   UNL A   1      45.825  23.901  27.450  1.00  0.00     0.029 A 
ATOM     40  N   UNL A   1      45.401  26.006  28.071  1.00  0.00    -0.354 N 
ATOM     41  C   UNL A   1      41.329  27.403  28.534  1.00  0.00     0.074 A 
ATOM     42  C   UNL A   1      40.384  26.334  28.295  1.00  0.00     0.031 C 
ATOM     43  C   UNL A   1      47.005  24.534  27.561  1.00  0.00     0.029 A 
ATOM     44  C   UNL A   1      46.765  25.928  27.922  1.00  0.00     0.049 A 
ATOM     45  H   UNL A   1      44.936  26.826  28.359  1.00  0.00     0.167 HD
ATOM     46  C   UNL A   1      40.985  28.665  28.881  1.00  0.00     0.037 A 
ATOM     47  C   UNL A   1      47.711  26.879  28.038  1.00  0.00     0.037 A 
ATOM     48  C   UNL A   1      41.933  29.717  29.139  1.00  0.00     0.049 A 
ATOM     49  C   UNL A   1      47.301  28.281  28.398  1.00  0.00     0.074 A 
ATOM     50  C   UNL A   1      41.690  31.014  29.554  1.00  0.00     0.029 A 
ATOM     51  N   UNL A   1      43.308  29.592  28.999  1.00  0.00    -0.354 N 
ATOM     52  N   UNL A   1      46.101  28.761  28.624  1.00  0.00    -0.248 NA
ATOM     53  C   UNL A   1      48.375  29.277  28.521  1.00  0.00     0.031 C 
ATOM     54  C   UNL A   1      42.912  31.691  29.612  1.00  0.00     0.029 A 
ATOM     55  C   UNL A   1      43.924  30.797  29.295  1.00  0.00     0.049 A 
ATOM     56  H   UNL A   1      43.777  28.769  28.731  1.00  0.00     0.167 HD
ATOM     57  C   UNL A   1      46.278  30.099  28.948  1.00  0.00     0.074 A 
ATOM     58  C   UNL A   1      47.702  30.355  28.899  1.00  0.00     0.031 C 
ATOM     59  C   UNL A   1      45.345  31.032  29.260  1.00  0.00     0.037 A 
BRANCH  46  60
ATOM     60  C   UNL A   1      39.522  28.984  28.997  1.00  0.00     0.064 A 
ATOM     61  C   UNL A   1      38.763  29.379  27.885  1.00  0.00     0.173 A 
ATOM     62  C   UNL A   1      38.860  28.849  30.227  1.00  0.00     0.173 A 
ATOM     63  F   UNL A   1      39.348  29.533  26.687  1.00  0.00    -0.203 F 
ATOM     64  C   UNL A   1      37.404  29.659  28.007  1.00  0.00     0.198 A 
ATOM     65  C   UNL A   1      37.495  29.097  30.338  1.00  0.00     0.198 A 
ATOM     66  F   UNL A   1      39.536  28.467  31.321  1.00  0.00    -0.203 F 
ATOM     67  F   UNL A   1      36.710  30.085  26.942  1.00  0.00    -0.200 F 
ATOM     68  C   UNL A   1      36.769  29.509  29.231  1.00  0.00     0.200 A 
ATOM     69  F   UNL A   1      36.880  28.935  31.519  1.00  0.00    -0.200 F 
ATOM     70  F   UNL A   1      35.460  29.768  29.345  1.00  0.00    -0.200 F 
ENDBRANCH  46  60
BRANCH  47  71
ATOM     71  C   UNL A   1      49.142  26.537  27.818  1.00  0.00     0.064 A 
ATOM     72  C   UNL A   1      49.663  26.423  26.522  1.00  0.00     0.173 A 
ATOM     73  C   UNL A   1      50.013  26.306  28.893  1.00  0.00     0.173 A 
ATOM     74  F   UNL A   1      48.866  26.614  25.461  1.00  0.00    -0.203 F 
ATOM     75  C   UNL A   1      50.993  26.067  26.308  1.00  0.00     0.198 A 
ATOM     76  C   UNL A   1      51.352  25.982  28.678  1.00  0.00     0.198 A 
ATOM     77  F   UNL A   1      49.567  26.407  30.153  1.00  0.00    -0.203 F 
ATOM     78  F   UNL A   1      51.451  25.914  25.059  1.00  0.00    -0.200 F 
ATOM     79  C   UNL A   1      51.838  25.853  27.387  1.00  0.00     0.200 A 
ATOM     80  F   UNL A   1      52.169  25.792  29.724  1.00  0.00    -0.200 F 
ATOM     81  F   UNL A   1      53.118  25.513  27.182  1.00  0.00    -0.200 F 
ENDBRANCH  47  71
BRANCH  59  82
ATOM     82  C   UNL A   1      45.830  32.405  29.625  1.00  0.00     0.064 A 
ATOM     83  C   UNL A   1      46.203  32.733  30.935  1.00  0.00     0.173 A 
ATOM     84  C   UNL A   1      45.985  33.385  28.632  1.00  0.00     0.173 A 
ATOM     85  F   UNL A   1      46.060  31.837  31.924  1.00  0.00    -0.203 F 
ATOM     86  C   UNL A   1      46.698  33.998  31.242  1.00  0.00     0.198 A 
ATOM     87  C   UNL A   1      46.511  34.637  28.936  1.00  0.00     0.198 A 
ATOM     88  F   UNL A   1      45.649  33.119  27.360  1.00  0.00    -0.203 F 
ATOM     89  F   UNL A   1      47.010  34.304  32.509  1.00  0.00    -0.200 F 
ATOM     90  C   UNL A   1      46.861  34.945  30.240  1.00  0.00     0.200 A 
ATOM     91  F   UNL A   1      46.684  35.542  27.964  1.00  0.00    -0.200 F 
ATOM     92  F   UNL A   1      47.354  36.155  30.535  1.00  0.00    -0.200 F 
ENDBRANCH  59  82
ENDBRANCH  33  34
ENDBRANCH  25  28
ENDBRANCH  23  24
ENDBRANCH  22  23
ENDBRANCH  21  22
ENDBRANCH   3  21
TORSDOF 18
ENDMDL
MODEL 2
REMARK VINA RESULT:     -10.2      4.851      9.705
REMARK SMILES C=CCN(CC(=O)NCCCNC(=O)c1ccc(-c2c3nc(c(-c4c(F)c(F)c(F)c(F)c4F)c4ccc([nH]4)c(-c4c(F)c(F)c(F)c(F)c4F)c4nc(c(-c5c(F)c(F)c(F)c(F)c5F)c5ccc2[nH]5)C=C4)C=C3)cc1)C(=O)[C@@H](C[NH3+])C(C)C
REMARK SMILES IDX 6 1 7 2 8 3 5 5 4 6 3 7 2 8 1 9 78 10 79 11 80 12 81 13
REMARK SMILES IDX 82 14 83 18 84 19 85 20 9 21 10 22 11 23 12 24 13 25 14 27
REMARK SMILES IDX 15 28 16 29 77 30 17 31 76 32 18 33 19 34 20 35 70 36 21 37
REMARK SMILES IDX 75 38 69 39 71 40 22 41 74 42 68 43 67 44 23 46 55 47 35 48
REMARK SMILES IDX 54 49 36 50 39 51 53 52 72 53 37 54 38 55 52 57 73 58 40 59
REMARK SMILES IDX 24 60 25 61 33 62 26 63 27 64 31 65 34 66 28 67 29 68 32 69
REMARK SMILES IDX 30 70 56 71 57 72 65 73 58 74 59 75 63 76 66 77 60 78 61 79
REMARK SMILES IDX 64 80 62 81 41 82 42 83 50 84 43 85 44 86 48 87 51 88 45 89
REMARK SMILES IDX 46 90 49 91 47 92
REMARK H PARENT 8 4 82 15 82 16 82 17 12 26 71 45 39 56
REMARK Flexibility Score: inf
ROOT
ATOM      1  C   UNL A   1      33.207  25.838  25.598  1.00  0.00     0.239 C 
ATOM      2  O   UNL A   1      34.133  25.152  26.044  1.00  0.00    -0.273 OA
ATOM      3  N   UNL A   1      32.234  26.182  26.481  1.00  0.00    -0.354 N 
ATOM      4  H   UNL A   1      32.130  25.578  27.252  1.00  0.00     0.163 HD
ENDROOT
BRANCH   1   5
ATOM      5  C   UNL A   1      33.254  26.386  24.164  1.00  0.00     0.219 C 
BRANCH   5   6
ATOM      6  N   UNL A   1      32.244  25.960  23.175  1.00  0.00    -0.329 N 
BRANCH   6   7
ATOM      7  C   UNL A   1      32.184  24.522  22.893  1.00  0.00     0.147 C 
BRANCH   7   8
ATOM      8  C   UNL A   1      30.950  23.901  23.481  1.00  0.00    -0.014 C 
ATOM      9  C   UNL A   1      30.948  23.264  24.662  1.00  0.00     0.006 C 
ENDBRANCH   7   8
ENDBRANCH   6   7
BRANCH   6  10
ATOM     10  C   UNL A   1      31.325  26.759  22.500  1.00  0.00     0.232 C 
ATOM     11  O   UNL A   1      31.219  26.652  21.267  1.00  0.00    -0.274 OA
BRANCH  10  12
ATOM     12  C   UNL A   1      30.422  27.829  23.155  1.00  0.00     0.136 C 
BRANCH  12  13
ATOM     13  C   UNL A   1      30.955  29.274  23.062  1.00  0.00     0.272 C 
BRANCH  13  14
ATOM     14  N   UNL A   1      31.267  29.813  21.747  1.00  0.00    -0.357 N 
ATOM     15  H   UNL A   1      30.955  30.783  21.695  1.00  0.00     0.344 HD
ATOM     16  H   UNL A   1      30.792  29.263  21.032  1.00  0.00     0.344 HD
ATOM     17  H   UNL A   1      32.275  29.772  21.595  1.00  0.00     0.344 HD
ENDBRANCH  13  14
ENDBRANCH  12  13
BRANCH  12  18
ATOM     18  C   UNL A   1      28.904  27.577  22.994  1.00  0.00     0.001 C 
ATOM     19  C   UNL A   1      28.423  26.545  24.030  1.00  0.00     0.008 C 
ATOM     20  C   UNL A   1      28.047  28.837  23.145  1.00  0.00     0.008 C 
ENDBRANCH  12  18
ENDBRANCH  10  12
ENDBRANCH   6  10
ENDBRANCH   5   6
ENDBRANCH   1   5
BRANCH   3  21
ATOM     21  C   UNL A   1      31.329  27.306  26.450  1.00  0.00     0.117 C 
BRANCH  21  22
ATOM     22  C   UNL A   1      31.868  28.536  27.164  1.00  0.00     0.042 C 
BRANCH  22  23
ATOM     23  C   UNL A   1      32.824  29.368  26.317  1.00  0.00     0.118 C 
BRANCH  23  24
ATOM     24  N   UNL A   1      32.607  30.802  26.481  1.00  0.00    -0.352 N 
ATOM     25  C   UNL A   1      33.287  31.715  27.245  1.00  0.00     0.251 C 
ATOM     26  H   UNL A   1      31.856  31.171  25.960  1.00  0.00     0.163 HD
ATOM     27  O   UNL A   1      32.809  32.833  27.437  1.00  0.00    -0.269 OA
BRANCH  25  28
ATOM     28  C   UNL A   1      34.584  31.356  27.847  1.00  0.00     0.039 A 
ATOM     29  C   UNL A   1      35.589  32.322  27.934  1.00  0.00     0.014 A 
ATOM     30  C   UNL A   1      34.812  30.058  28.313  1.00  0.00     0.014 A 
ATOM     31  C   UNL A   1      36.797  32.009  28.561  1.00  0.00     0.010 A 
ATOM     32  C   UNL A   1      35.980  29.772  29.007  1.00  0.00     0.010 A 
ATOM     33  C   UNL A   1      36.985  30.744  29.140  1.00  0.00    -0.014 A 
BRANCH  33  34
ATOM     34  C   UNL A   1      38.216  30.401  29.894  1.00  0.00     0.031 A 
ATOM     35  C   UNL A   1      39.197  29.421  29.316  1.00  0.00     0.074 A 
ATOM     36  C   UNL A   1      38.398  30.891  31.135  1.00  0.00     0.049 A 
ATOM     37  N   UNL A   1      40.248  28.872  29.872  1.00  0.00    -0.248 NA
ATOM     38  C   UNL A   1      38.945  28.973  27.937  1.00  0.00     0.031 C 
ATOM     39  C   UNL A   1      37.497  31.822  31.816  1.00  0.00     0.029 A 
ATOM     40  N   UNL A   1      39.388  30.653  32.056  1.00  0.00    -0.354 N 
ATOM     41  C   UNL A   1      40.766  28.002  28.922  1.00  0.00     0.074 A 
ATOM     42  C   UNL A   1      39.889  28.057  27.773  1.00  0.00     0.031 C 
ATOM     43  C   UNL A   1      37.980  32.083  33.042  1.00  0.00     0.029 A 
ATOM     44  C   UNL A   1      39.193  31.300  33.253  1.00  0.00     0.049 A 
ATOM     45  H   UNL A   1      40.164  30.075  31.875  1.00  0.00     0.167 HD
ATOM     46  C   UNL A   1      41.882  27.241  28.997  1.00  0.00     0.037 A 
ATOM     47  C   UNL A   1      39.900  31.246  34.398  1.00  0.00     0.037 A 
ATOM     48  C   UNL A   1      42.762  27.209  30.136  1.00  0.00     0.049 A 
ATOM     49  C   UNL A   1      41.123  30.371  34.464  1.00  0.00     0.074 A 
ATOM     50  C   UNL A   1      43.950  26.517  30.288  1.00  0.00     0.029 A 
ATOM     51  N   UNL A   1      42.543  27.896  31.321  1.00  0.00    -0.354 N 
ATOM     52  N   UNL A   1      41.641  29.600  33.538  1.00  0.00    -0.248 NA
ATOM     53  C   UNL A   1      41.863  30.358  35.734  1.00  0.00     0.031 C 
ATOM     54  C   UNL A   1      44.423  26.740  31.585  1.00  0.00     0.029 A 
ATOM     55  C   UNL A   1      43.562  27.623  32.220  1.00  0.00     0.049 A 
ATOM     56  H   UNL A   1      41.778  28.490  31.498  1.00  0.00     0.167 HD
ATOM     57  C   UNL A   1      42.780  29.040  34.099  1.00  0.00     0.074 A 
ATOM     58  C   UNL A   1      42.885  29.566  35.444  1.00  0.00     0.031 C 
ATOM     59  C   UNL A   1      43.662  28.169  33.549  1.00  0.00     0.037 A 
BRANCH  46  60
ATOM     60  C   UNL A   1      42.217  26.374  27.817  1.00  0.00     0.064 A 
ATOM     61  C   UNL A   1      43.144  26.778  26.844  1.00  0.00     0.173 A 
ATOM     62  C   UNL A   1      41.637  25.104  27.680  1.00  0.00     0.173 A 
ATOM     63  F   UNL A   1      43.721  27.987  26.921  1.00  0.00    -0.203 F 
ATOM     64  C   UNL A   1      43.453  25.956  25.762  1.00  0.00     0.198 A 
ATOM     65  C   UNL A   1      41.973  24.271  26.616  1.00  0.00     0.198 A 
ATOM     66  F   UNL A   1      40.750  24.663  28.585  1.00  0.00    -0.203 F 
ATOM     67  F   UNL A   1      44.302  26.386  24.818  1.00  0.00    -0.200 F 
ATOM     68  C   UNL A   1      42.874  24.701  25.654  1.00  0.00     0.200 A 
ATOM     69  F   UNL A   1      41.425  23.051  26.522  1.00  0.00    -0.200 F 
ATOM     70  F   UNL A   1      43.181  23.908  24.618  1.00  0.00    -0.200 F 
ENDBRANCH  46  60
BRANCH  47  71
ATOM     71  C   UNL A   1      39.474  32.050  35.574  1.00  0.00     0.064 A 
ATOM     72  C   UNL A   1      38.555  31.538  36.500  1.00  0.00     0.173 A 
ATOM     73  C   UNL A   1      39.966  33.346  35.792  1.00  0.00     0.173 A 
ATOM     74  F   UNL A   1      38.041  30.312  36.325  1.00  0.00    -0.203 F 
ATOM     75  C   UNL A   1      38.124  32.300  37.585  1.00  0.00     0.198 A 
ATOM     76  C   UNL A   1      39.558  34.094  36.895  1.00  0.00     0.198 A 
ATOM     77  F   UNL A   1      40.851  33.881  34.940  1.00  0.00    -0.203 F 
ATOM     78  F   UNL A   1      37.205  31.805  38.425  1.00  0.00    -0.200 F 
ATOM     79  C   UNL A   1      38.631  33.575  37.785  1.00  0.00     0.200 A 
ATOM     80  F   UNL A   1      40.063  35.321  37.093  1.00  0.00    -0.200 F 
ATOM     81  F   UNL A   1      38.218  34.306  38.829  1.00  0.00    -0.200 F 
ENDBRANCH  47  71
BRANCH  59  82
ATOM     82  C   UNL A   1      44.848  27.766  34.376  1.00  0.00     0.064 A 
ATOM     83  C   UNL A   1      44.837  26.612  35.172  1.00  0.00     0.173 A 
ATOM     84  C   UNL A   1      46.035  28.513  34.316  1.00  0.00     0.173 A 
ATOM     85  F   UNL A   1      43.722  25.873  35.275  1.00  0.00    -0.203 F 
ATOM     86  C   UNL A   1      45.966  26.230  35.893  1.00  0.00     0.198 A 
ATOM     87  C   UNL A   1      47.172  28.109  35.011  1.00  0.00     0.198 A 
ATOM     88  F   UNL A   1      46.100  29.621  33.563  1.00  0.00    -0.203 F 
ATOM     89  F   UNL A   1      45.921  25.146  36.680  1.00  0.00    -0.200 F 
ATOM     90  C   UNL A   1      47.135  26.972  35.802  1.00  0.00     0.200 A 
ATOM     91  F   UNL A   1      48.304  28.818  34.909  1.00  0.00    -0.200 F 
ATOM     92  F   UNL A   1      48.225  26.593  36.483  1.00  0.00    -0.200 F 
ENDBRANCH  59  82
ENDBRANCH  33  34
ENDBRANCH  25  28
ENDBRANCH  23  24
ENDBRANCH  22  23
ENDBRANCH  21  22
ENDBRANCH   3  21
TORSDOF 18
ENDMDL
MODEL 3
REMARK VINA RESULT:     -10.0      1.335      2.772
REMARK SMILES C=CCN(CC(=O)NCCCNC(=O)c1ccc(-c2c3nc(c(-c4c(F)c(F)c(F)c(F)c4F)c4ccc([nH]4)c(-c4c(F)c(F)c(F)c(F)c4F)c4nc(c(-c5c(F)c(F)c(F)c(F)c5F)c5ccc2[nH]5)C=C4)C=C3)cc1)C(=O)[C@@H](C[NH3+])C(C)C
REMARK SMILES IDX 6 1 7 2 8 3 5 5 4 6 3 7 2 8 1 9 78 10 79 11 80 12 81 13
REMARK SMILES IDX 82 14 83 18 84 19 85 20 9 21 10 22 11 23 12 24 13 25 14 27
REMARK SMILES IDX 15 28 16 29 77 30 17 31 76 32 18 33 19 34 20 35 70 36 21 37
REMARK SMILES IDX 75 38 69 39 71 40 22 41 74 42 68 43 67 44 23 46 55 47 35 48
REMARK SMILES IDX 54 49 36 50 39 51 53 52 72 53 37 54 38 55 52 57 73 58 40 59
REMARK SMILES IDX 24 60 25 61 33 62 26 63 27 64 31 65 34 66 28 67 29 68 32 69
REMARK SMILES IDX 30 70 56 71 57 72 65 73 58 74 59 75 63 76 66 77 60 78 61 79
REMARK SMILES IDX 64 80 62 81 41 82 42 83 50 84 43 85 44 86 48 87 51 88 45 89
REMARK SMILES IDX 46 90 49 91 47 92
REMARK H PARENT 8 4 82 15 82 16 82 17 12 26 71 45 39 56
REMARK Flexibility Score: inf
ROOT
ATOM      1  C   UNL A   1      37.614  23.389  25.637  1.00  0.00     0.239 C 
ATOM      2  O   UNL A   1      38.109  23.995  26.593  1.00  0.00    -0.273 OA
ATOM      3  N   UNL A   1      38.160  22.180  25.343  1.00  0.00    -0.354 N 
ATOM      4  H   UNL A   1      39.094  22.057  25.629  1.00  0.00     0.163 HD
ENDROOT
BRANCH   1   5
ATOM      5  C   UNL A   1      36.356  23.921  24.934  1.00  0.00     0.219 C 
BRANCH   5   6
ATOM      6  N   UNL A   1      35.032  23.765  25.568  1.00  0.00    -0.329 N 
BRANCH   6   7
ATOM      7  C   UNL A   1      34.403  24.996  26.060  1.00  0.00     0.147 C 
BRANCH   7   8
ATOM      8  C   UNL A   1      33.047  25.197  25.449  1.00  0.00    -0.014 C 
ATOM      9  C   UNL A   1      32.115  25.995  25.993  1.00  0.00     0.006 C 
ENDBRANCH   7   8
ENDBRANCH   6   7
BRANCH   6  10
ATOM     10  C   UNL A   1      34.300  22.592  25.729  1.00  0.00     0.232 C 
ATOM     11  O   UNL A   1      33.877  22.293  26.859  1.00  0.00    -0.274 OA
BRANCH  10  12
ATOM     12  C   UNL A   1      33.986  21.575  24.610  1.00  0.00     0.136 C 
BRANCH  12  13
ATOM     13  C   UNL A   1      34.106  20.093  25.026  1.00  0.00     0.272 C 
BRANCH  13  14
ATOM     14  N   UNL A   1      33.278  19.613  26.122  1.00  0.00    -0.357 N 
ATOM     15  H   UNL A   1      33.346  18.597  26.179  1.00  0.00     0.344 HD
ATOM     16  H   UNL A   1      32.308  19.881  25.958  1.00  0.00     0.344 HD
ATOM     17  H   UNL A   1      33.601  20.026  26.996  1.00  0.00     0.344 HD
ENDBRANCH  13  14
ENDBRANCH  12  13
BRANCH  12  18
ATOM     18  C   UNL A   1      32.842  21.997  23.657  1.00  0.00     0.001 C 
ATOM     19  C   UNL A   1      33.376  22.952  22.575  1.00  0.00     0.008 C 
ATOM     20  C   UNL A   1      32.153  20.822  22.957  1.00  0.00     0.008 C 
ENDBRANCH  12  18
ENDBRANCH  10  12
ENDBRANCH   6  10
ENDBRANCH   5   6
ENDBRANCH   1   5
BRANCH   3  21
ATOM     21  C   UNL A   1      37.566  21.050  24.669  1.00  0.00     0.117 C 
BRANCH  21  22
ATOM     22  C   UNL A   1      38.297  19.741  24.925  1.00  0.00     0.042 C 
BRANCH  22  23
ATOM     23  C   UNL A   1      39.181  19.764  26.167  1.00  0.00     0.118 C 
BRANCH  23  24
ATOM     24  N   UNL A   1      40.407  18.992  25.992  1.00  0.00    -0.352 N 
ATOM     25  C   UNL A   1      41.711  19.410  25.934  1.00  0.00     0.251 C 
ATOM     26  H   UNL A   1      40.276  18.020  25.902  1.00  0.00     0.163 HD
ATOM     27  O   UNL A   1      42.587  18.638  25.544  1.00  0.00    -0.269 OA
BRANCH  25  28
ATOM     28  C   UNL A   1      42.065  20.786  26.327  1.00  0.00     0.039 A 
ATOM     29  C   UNL A   1      42.374  21.058  27.663  1.00  0.00     0.014 A 
ATOM     30  C   UNL A   1      42.078  21.811  25.378  1.00  0.00     0.014 A 
ATOM     31  C   UNL A   1      42.773  22.345  28.031  1.00  0.00     0.010 A 
ATOM     32  C   UNL A   1      42.553  23.068  25.729  1.00  0.00     0.010 A 
ATOM     33  C   UNL A   1      42.907  23.349  27.059  1.00  0.00    -0.014 A 
BRANCH  33  34
ATOM     34  C   UNL A   1      43.414  24.702  27.393  1.00  0.00     0.031 A 
ATOM     35  C   UNL A   1      42.478  25.733  27.957  1.00  0.00     0.074 A 
ATOM     36  C   UNL A   1      44.686  25.031  27.095  1.00  0.00     0.049 A 
ATOM     37  N   UNL A   1      42.680  27.009  28.172  1.00  0.00    -0.248 NA
ATOM     38  C   UNL A   1      41.121  25.275  28.296  1.00  0.00     0.031 C 
ATOM     39  C   UNL A   1      45.679  24.127  26.512  1.00  0.00     0.029 A 
ATOM     40  N   UNL A   1      45.354  26.224  27.216  1.00  0.00    -0.354 N 
ATOM     41  C   UNL A   1      41.474  27.506  28.648  1.00  0.00     0.074 A 
ATOM     42  C   UNL A   1      40.532  26.409  28.645  1.00  0.00     0.031 C 
ATOM     43  C   UNL A   1      46.830  24.794  26.335  1.00  0.00     0.029 A 
ATOM     44  C   UNL A   1      46.643  26.184  26.741  1.00  0.00     0.049 A 
ATOM     45  H   UNL A   1      44.948  27.032  27.606  1.00  0.00     0.167 HD
ATOM     46  C   UNL A   1      41.187  28.761  29.066  1.00  0.00     0.037 A 
ATOM     47  C   UNL A   1      47.561  27.163  26.624  1.00  0.00     0.037 A 
ATOM     48  C   UNL A   1      42.137  29.842  29.087  1.00  0.00     0.049 A 
ATOM     49  C   UNL A   1      47.207  28.556  27.072  1.00  0.00     0.074 A 
ATOM     50  C   UNL A   1      41.963  31.135  29.547  1.00  0.00     0.029 A 
ATOM     51  N   UNL A   1      43.440  29.755  28.619  1.00  0.00    -0.354 N 
ATOM     52  N   UNL A   1      46.084  29.002  27.580  1.00  0.00    -0.248 NA
ATOM     53  C   UNL A   1      48.249  29.583  26.931  1.00  0.00     0.031 C 
ATOM     54  C   UNL A   1      43.141  31.846  29.308  1.00  0.00     0.029 A 
ATOM     55  C   UNL A   1      44.073  30.980  28.756  1.00  0.00     0.049 A 
ATOM     56  H   UNL A   1      43.855  28.944  28.246  1.00  0.00     0.167 HD
ATOM     57  C   UNL A   1      46.294  30.347  27.851  1.00  0.00     0.074 A 
ATOM     58  C   UNL A   1      47.655  30.644  27.459  1.00  0.00     0.031 C 
ATOM     59  C   UNL A   1      45.436  31.255  28.378  1.00  0.00     0.037 A 
BRANCH  46  60
ATOM     60  C   UNL A   1      39.786  29.038  29.532  1.00  0.00     0.064 A 
ATOM     61  C   UNL A   1      38.786  29.471  28.647  1.00  0.00     0.173 A 
ATOM     62  C   UNL A   1      39.427  28.826  30.872  1.00  0.00     0.173 A 
ATOM     63  F   UNL A   1      39.077  29.698  27.357  1.00  0.00    -0.203 F 
ATOM     64  C   UNL A   1      37.489  29.711  29.093  1.00  0.00     0.198 A 
ATOM     65  C   UNL A   1      38.121  29.034  31.307  1.00  0.00     0.198 A 
ATOM     66  F   UNL A   1      40.341  28.405  31.759  1.00  0.00    -0.203 F 
ATOM     67  F   UNL A   1      36.564  30.174  28.240  1.00  0.00    -0.200 F 
ATOM     68  C   UNL A   1      37.155  29.484  30.420  1.00  0.00     0.200 A 
ATOM     69  F   UNL A   1      37.797  28.799  32.587  1.00  0.00    -0.200 F 
ATOM     70  F   UNL A   1      35.904  29.706  30.845  1.00  0.00    -0.200 F 
ENDBRANCH  46  60
BRANCH  47  71
ATOM     71  C   UNL A   1      48.905  26.861  26.066  1.00  0.00     0.064 A 
ATOM     72  C   UNL A   1      49.931  26.371  26.885  1.00  0.00     0.173 A 
ATOM     73  C   UNL A   1      49.196  27.065  24.708  1.00  0.00     0.173 A 
ATOM     74  F   UNL A   1      49.708  26.178  28.193  1.00  0.00    -0.203 F 
ATOM     75  C   UNL A   1      51.204  26.119  26.375  1.00  0.00     0.198 A 
ATOM     76  C   UNL A   1      50.461  26.782  24.193  1.00  0.00     0.198 A 
ATOM     77  F   UNL A   1      48.250  27.527  23.879  1.00  0.00    -0.203 F 
ATOM     78  F   UNL A   1      52.179  25.701  27.192  1.00  0.00    -0.200 F 
ATOM     79  C   UNL A   1      51.465  26.319  25.028  1.00  0.00     0.200 A 
ATOM     80  F   UNL A   1      50.705  26.962  22.887  1.00  0.00    -0.200 F 
ATOM     81  F   UNL A   1      52.688  26.076  24.537  1.00  0.00    -0.200 F 
ENDBRANCH  47  71
BRANCH  59  82
ATOM     82  C   UNL A   1      45.953  32.645  28.614  1.00  0.00     0.064 A 
ATOM     83  C   UNL A   1      45.806  33.660  27.660  1.00  0.00     0.173 A 
ATOM     84  C   UNL A   1      46.545  32.977  29.843  1.00  0.00     0.173 A 
ATOM     85  F   UNL A   1      45.262  33.391  26.464  1.00  0.00    -0.203 F 
ATOM     86  C   UNL A   1      46.250  34.955  27.920  1.00  0.00     0.198 A 
ATOM     87  C   UNL A   1      46.956  34.279  30.112  1.00  0.00     0.198 A 
ATOM     88  F   UNL A   1      46.702  32.043  30.793  1.00  0.00    -0.203 F 
ATOM     89  F   UNL A   1      46.137  35.902  26.978  1.00  0.00    -0.200 F 
ATOM     90  C   UNL A   1      46.814  35.265  29.149  1.00  0.00     0.200 A 
ATOM     91  F   UNL A   1      47.484  34.579  31.306  1.00  0.00    -0.200 F 
ATOM     92  F   UNL A   1      47.223  36.515  29.404  1.00  0.00    -0.200 F 
ENDBRANCH  59  82
ENDBRANCH  33  34
ENDBRANCH  25  28
ENDBRANCH  23  24
ENDBRANCH  22  23
ENDBRANCH  21  22
ENDBRANCH   3  21
TORSDOF 18
ENDMDL
