MODEL 1
REMARK VINA RESULT:     -12.9      0.000      0.000
REMARK SMILES CC(C)=CCc1cccc2c(C(=O)NCCCNC(=O)c3ccc(-c4c5nc(c(-c6c(F)c(F)c(F)c(F)c6F)c6ccc([nH]6)c(-c6c(F)c(F)c(F)c(F)c6F)c6nc(c(-c7c(F)c(F)c(F)c(F)c7F)c7ccc4[nH]7)C=C6)C=C5)cc3)c[nH]c12
REMARK SMILES IDX 16 1 15 2 14 3 12 4 13 5 11 7 6 8 7 9 86 10 8 11 10 12 85 13
REMARK SMILES IDX 9 14 84 15 5 17 4 18 1 19 2 20 3 21 17 22 18 23 19 24 20 26
REMARK SMILES IDX 21 27 22 28 83 29 23 30 82 31 24 32 25 33 26 34 76 35 27 36
REMARK SMILES IDX 81 37 75 38 77 39 28 40 80 41 74 42 73 43 29 45 61 46 41 47
REMARK SMILES IDX 60 48 42 49 45 50 59 51 78 52 43 53 44 54 58 56 79 57 46 58
REMARK SMILES IDX 30 59 31 60 39 61 32 62 33 63 37 64 40 65 34 66 35 67 38 68
REMARK SMILES IDX 36 69 62 70 63 71 71 72 64 73 65 74 69 75 72 76 66 77 67 78
REMARK SMILES IDX 70 79 68 80 47 81 48 82 56 83 49 84 50 85 54 86 57 87 51 88
REMARK SMILES IDX 52 89 55 90 53 91
REMARK H PARENT 14 6 85 16 18 25 77 44 45 55
REMARK Flexibility Score: inf
ROOT
ATOM      1  C   UNL A   1      41.752  21.627  26.037  1.00  0.00     0.042 C 
ENDROOT
BRANCH   1   2
ATOM      2  C   UNL A   1      43.003  21.728  26.878  1.00  0.00     0.118 C 
BRANCH   2   3
ATOM      3  N   UNL A   1      44.214  21.189  26.305  1.00  0.00    -0.352 N 
ATOM      4  C   UNL A   1      45.312  21.853  25.800  1.00  0.00     0.253 C 
ATOM      5  O   UNL A   1      46.238  21.150  25.387  1.00  0.00    -0.269 OA
ATOM      6  H   UNL A   1      44.264  20.207  26.272  1.00  0.00     0.163 HD
BRANCH   4   7
ATOM      7  C   UNL A   1      45.343  23.315  25.654  1.00  0.00     0.065 A 
ATOM      8  C   UNL A   1      45.672  26.836  26.575  1.00  0.00    -0.020 A 
ATOM      9  C   UNL A   1      46.387  26.772  27.791  1.00  0.00     0.006 A 
ATOM     10  C   UNL A   1      45.441  25.594  25.942  1.00  0.00     0.050 A 
ATOM     11  C   UNL A   1      47.018  25.614  28.213  1.00  0.00     0.001 A 
ATOM     12  C   UNL A   1      45.962  24.380  26.407  1.00  0.00     0.012 A 
ATOM     13  N   UNL A   1      44.736  25.298  24.799  1.00  0.00    -0.360 N 
ATOM     14  C   UNL A   1      46.884  24.442  27.475  1.00  0.00     0.011 A 
ATOM     15  C   UNL A   1      44.658  23.946  24.626  1.00  0.00     0.097 A 
ATOM     16  H   UNL A   1      44.341  25.966  24.191  1.00  0.00     0.166 HD
BRANCH   8  17
ATOM     17  C   UNL A   1      45.172  28.163  26.034  1.00  0.00     0.065 C 
BRANCH  17  18
ATOM     18  C   UNL A   1      44.999  29.204  27.116  1.00  0.00    -0.024 C 
ATOM     19  C   UNL A   1      42.578  29.704  26.686  1.00  0.00     0.039 C 
ATOM     20  C   UNL A   1      43.894  29.931  27.373  1.00  0.00    -0.080 C 
ATOM     21  C   UNL A   1      43.971  31.092  28.325  1.00  0.00     0.039 C 
ENDBRANCH  17  18
ENDBRANCH   8  17
ENDBRANCH   4   7
ENDBRANCH   2   3
ENDBRANCH   1   2
BRANCH   1  22
ATOM     22  C   UNL A   1      40.445  21.671  26.801  1.00  0.00     0.118 C 
BRANCH  22  23
ATOM     23  N   UNL A   1      39.324  22.210  26.039  1.00  0.00    -0.352 N 
ATOM     24  C   UNL A   1      38.709  23.440  26.050  1.00  0.00     0.251 C 
ATOM     25  H   UNL A   1      38.935  21.573  25.396  1.00  0.00     0.163 HD
ATOM     26  O   UNL A   1      37.695  23.608  25.374  1.00  0.00    -0.269 OA
BRANCH  24  27
ATOM     27  C   UNL A   1      39.216  24.556  26.884  1.00  0.00     0.039 A 
ATOM     28  C   UNL A   1      40.014  25.539  26.289  1.00  0.00     0.014 A 
ATOM     29  C   UNL A   1      38.935  24.641  28.245  1.00  0.00     0.014 A 
ATOM     30  C   UNL A   1      40.450  26.635  27.041  1.00  0.00     0.010 A 
ATOM     31  C   UNL A   1      39.238  25.799  28.951  1.00  0.00     0.010 A 
ATOM     32  C   UNL A   1      40.024  26.799  28.370  1.00  0.00    -0.014 A 
BRANCH  32  33
ATOM     33  C   UNL A   1      40.422  27.981  29.178  1.00  0.00     0.031 A 
ATOM     34  C   UNL A   1      41.802  28.055  29.779  1.00  0.00     0.074 A 
ATOM     35  C   UNL A   1      39.526  28.957  29.422  1.00  0.00     0.049 A 
ATOM     36  N   UNL A   1      42.323  28.978  30.549  1.00  0.00    -0.248 NA
ATOM     37  C   UNL A   1      42.708  26.925  29.512  1.00  0.00     0.031 C 
ATOM     38  C   UNL A   1      38.136  28.969  28.960  1.00  0.00     0.029 A 
ATOM     39  N   UNL A   1      39.649  30.131  30.125  1.00  0.00    -0.354 N 
ATOM     40  C   UNL A   1      43.599  28.527  30.869  1.00  0.00     0.074 A 
ATOM     41  C   UNL A   1      43.747  27.217  30.278  1.00  0.00     0.031 C 
ATOM     42  C   UNL A   1      37.551  30.111  29.352  1.00  0.00     0.029 A 
ATOM     43  C   UNL A   1      38.507  30.894  30.126  1.00  0.00     0.049 A 
ATOM     44  H   UNL A   1      40.478  30.399  30.584  1.00  0.00     0.167 HD
ATOM     45  C   UNL A   1      44.575  29.161  31.562  1.00  0.00     0.037 A 
ATOM     46  C   UNL A   1      38.262  32.094  30.686  1.00  0.00     0.037 A 
ATOM     47  C   UNL A   1      44.436  30.481  32.118  1.00  0.00     0.049 A 
ATOM     48  C   UNL A   1      39.368  32.788  31.433  1.00  0.00     0.074 A 
ATOM     49  C   UNL A   1      45.379  31.241  32.784  1.00  0.00     0.029 A 
ATOM     50  N   UNL A   1      43.273  31.237  32.070  1.00  0.00    -0.354 N 
ATOM     51  N   UNL A   1      40.595  32.386  31.661  1.00  0.00    -0.248 NA
ATOM     52  C   UNL A   1      39.059  34.113  31.989  1.00  0.00     0.031 C 
ATOM     53  C   UNL A   1      44.773  32.437  33.184  1.00  0.00     0.029 A 
ATOM     54  C   UNL A   1      43.470  32.448  32.711  1.00  0.00     0.049 A 
ATOM     55  H   UNL A   1      42.431  30.953  31.644  1.00  0.00     0.167 HD
ATOM     56  C   UNL A   1      41.214  33.419  32.353  1.00  0.00     0.074 A 
ATOM     57  C   UNL A   1      40.230  34.473  32.494  1.00  0.00     0.031 C 
ATOM     58  C   UNL A   1      42.482  33.490  32.830  1.00  0.00     0.037 A 
BRANCH  45  59
ATOM     59  C   UNL A   1      45.880  28.440  31.743  1.00  0.00     0.064 A 
ATOM     60  C   UNL A   1      46.084  27.534  32.797  1.00  0.00     0.173 A 
ATOM     61  C   UNL A   1      46.935  28.635  30.838  1.00  0.00     0.173 A 
ATOM     62  F   UNL A   1      45.114  27.318  33.699  1.00  0.00    -0.203 F 
ATOM     63  C   UNL A   1      47.303  26.880  32.958  1.00  0.00     0.198 A 
ATOM     64  C   UNL A   1      48.140  27.952  30.981  1.00  0.00     0.198 A 
ATOM     65  F   UNL A   1      46.796  29.485  29.811  1.00  0.00    -0.203 F 
ATOM     66  F   UNL A   1      47.491  26.066  34.006  1.00  0.00    -0.200 F 
ATOM     67  C   UNL A   1      48.327  27.083  32.046  1.00  0.00     0.200 A 
ATOM     68  F   UNL A   1      49.124  28.138  30.091  1.00  0.00    -0.200 F 
ATOM     69  F   UNL A   1      49.497  26.446  32.197  1.00  0.00    -0.200 F 
ENDBRANCH  45  59
BRANCH  46  70
ATOM     70  C   UNL A   1      36.930  32.735  30.523  1.00  0.00     0.064 A 
ATOM     71  C   UNL A   1      36.611  33.449  29.359  1.00  0.00     0.173 A 
ATOM     72  C   UNL A   1      35.952  32.654  31.525  1.00  0.00     0.173 A 
ATOM     73  F   UNL A   1      37.519  33.570  28.379  1.00  0.00    -0.203 F 
ATOM     74  C   UNL A   1      35.377  34.079  29.214  1.00  0.00     0.198 A 
ATOM     75  C   UNL A   1      34.706  33.258  31.365  1.00  0.00     0.198 A 
ATOM     76  F   UNL A   1      36.201  31.977  32.656  1.00  0.00    -0.203 F 
ATOM     77  F   UNL A   1      35.120  34.798  28.113  1.00  0.00    -0.200 F 
ATOM     78  C   UNL A   1      34.423  33.978  30.214  1.00  0.00     0.200 A 
ATOM     79  F   UNL A   1      33.780  33.143  32.327  1.00  0.00    -0.200 F 
ATOM     80  F   UNL A   1      33.234  34.581  30.074  1.00  0.00    -0.200 F 
ENDBRANCH  46  70
BRANCH  58  81
ATOM     81  C   UNL A   1      42.893  34.769  33.501  1.00  0.00     0.064 A 
ATOM     82  C   UNL A   1      42.820  34.934  34.892  1.00  0.00     0.173 A 
ATOM     83  C   UNL A   1      43.389  35.838  32.738  1.00  0.00     0.173 A 
ATOM     84  F   UNL A   1      42.341  33.947  35.665  1.00  0.00    -0.203 F 
ATOM     85  C   UNL A   1      43.192  36.135  35.490  1.00  0.00     0.198 A 
ATOM     86  C   UNL A   1      43.795  37.024  33.343  1.00  0.00     0.198 A 
ATOM     87  F   UNL A   1      43.489  35.729  31.405  1.00  0.00    -0.203 F 
ATOM     88  F   UNL A   1      43.055  36.292  36.814  1.00  0.00    -0.200 F 
ATOM     89  C   UNL A   1      43.686  37.175  34.717  1.00  0.00     0.200 A 
ATOM     90  F   UNL A   1      44.287  38.021  32.595  1.00  0.00    -0.200 F 
ATOM     91  F   UNL A   1      44.046  38.330  35.294  1.00  0.00    -0.200 F 
ENDBRANCH  58  81
ENDBRANCH  32  33
ENDBRANCH  24  27
ENDBRANCH  22  23
ENDBRANCH   1  22
TORSDOF 12
ENDMDL
MODEL 2
REMARK VINA RESULT:     -12.9      4.701     10.418
REMARK SMILES CC(C)=CCc1cccc2c(C(=O)NCCCNC(=O)c3ccc(-c4c5nc(c(-c6c(F)c(F)c(F)c(F)c6F)c6ccc([nH]6)c(-c6c(F)c(F)c(F)c(F)c6F)c6nc(c(-c7c(F)c(F)c(F)c(F)c7F)c7ccc4[nH]7)C=C6)C=C5)cc3)c[nH]c12
REMARK SMILES IDX 16 1 15 2 14 3 12 4 13 5 11 7 6 8 7 9 86 10 8 11 10 12 85 13
REMARK SMILES IDX 9 14 84 15 5 17 4 18 1 19 2 20 3 21 17 22 18 23 19 24 20 26
REMARK SMILES IDX 21 27 22 28 83 29 23 30 82 31 24 32 25 33 26 34 76 35 27 36
REMARK SMILES IDX 81 37 75 38 77 39 28 40 80 41 74 42 73 43 29 45 61 46 41 47
REMARK SMILES IDX 60 48 42 49 45 50 59 51 78 52 43 53 44 54 58 56 79 57 46 58
REMARK SMILES IDX 30 59 31 60 39 61 32 62 33 63 37 64 40 65 34 66 35 67 38 68
REMARK SMILES IDX 36 69 62 70 63 71 71 72 64 73 65 74 69 75 72 76 66 77 67 78
REMARK SMILES IDX 70 79 68 80 47 81 48 82 56 83 49 84 50 85 54 86 57 87 51 88
REMARK SMILES IDX 52 89 55 90 53 91
REMARK H PARENT 14 6 85 16 18 25 77 44 45 55
REMARK Flexibility Score: inf
ROOT
ATOM      1  C   UNL A   1      32.859  28.944  24.482  1.00  0.00     0.042 C 
ENDROOT
BRANCH   1   2
ATOM      2  C   UNL A   1      32.593  27.523  24.040  1.00  0.00     0.118 C 
BRANCH   2   3
ATOM      3  N   UNL A   1      32.935  27.193  22.677  1.00  0.00    -0.352 N 
ATOM      4  C   UNL A   1      32.975  25.960  22.061  1.00  0.00     0.253 C 
ATOM      5  O   UNL A   1      33.278  25.953  20.864  1.00  0.00    -0.269 OA
ATOM      6  H   UNL A   1      33.172  27.958  22.105  1.00  0.00     0.163 HD
BRANCH   4   7
ATOM      7  C   UNL A   1      32.779  24.708  22.803  1.00  0.00     0.065 A 
ATOM      8  C   UNL A   1      33.532  21.439  24.253  1.00  0.00    -0.020 A 
ATOM      9  C   UNL A   1      34.943  21.426  24.269  1.00  0.00     0.006 A 
ATOM     10  C   UNL A   1      32.942  22.633  23.782  1.00  0.00     0.050 A 
ATOM     11  C   UNL A   1      35.692  22.573  24.066  1.00  0.00     0.001 A 
ATOM     12  C   UNL A   1      33.677  23.779  23.449  1.00  0.00     0.012 A 
ATOM     13  N   UNL A   1      31.619  22.952  23.580  1.00  0.00    -0.360 N 
ATOM     14  C   UNL A   1      35.057  23.769  23.747  1.00  0.00     0.011 A 
ATOM     15  C   UNL A   1      31.511  24.175  22.986  1.00  0.00     0.097 A 
ATOM     16  H   UNL A   1      30.858  22.377  23.828  1.00  0.00     0.166 HD
BRANCH   8  17
ATOM     17  C   UNL A   1      32.736  20.220  24.685  1.00  0.00     0.065 C 
BRANCH  17  18
ATOM     18  C   UNL A   1      33.511  18.934  24.525  1.00  0.00    -0.024 C 
ATOM     19  C   UNL A   1      32.413  18.168  22.402  1.00  0.00     0.039 C 
ATOM     20  C   UNL A   1      33.340  17.997  23.571  1.00  0.00    -0.080 C 
ATOM     21  C   UNL A   1      34.028  16.666  23.702  1.00  0.00     0.039 C 
ENDBRANCH  17  18
ENDBRANCH   8  17
ENDBRANCH   4   7
ENDBRANCH   2   3
ENDBRANCH   1   2
BRANCH   1  22
ATOM     22  C   UNL A   1      32.708  29.206  25.965  1.00  0.00     0.118 C 
BRANCH  22  23
ATOM     23  N   UNL A   1      32.544  30.614  26.310  1.00  0.00    -0.352 N 
ATOM     24  C   UNL A   1      33.282  31.460  27.105  1.00  0.00     0.251 C 
ATOM     25  H   UNL A   1      31.758  31.038  25.896  1.00  0.00     0.163 HD
ATOM     26  O   UNL A   1      32.861  32.595  27.323  1.00  0.00    -0.269 OA
BRANCH  24  27
ATOM     27  C   UNL A   1      34.552  31.026  27.735  1.00  0.00     0.039 A 
ATOM     28  C   UNL A   1      35.539  31.980  28.001  1.00  0.00     0.014 A 
ATOM     29  C   UNL A   1      34.794  29.691  28.052  1.00  0.00     0.014 A 
ATOM     30  C   UNL A   1      36.718  31.604  28.654  1.00  0.00     0.010 A 
ATOM     31  C   UNL A   1      35.891  29.344  28.830  1.00  0.00     0.010 A 
ATOM     32  C   UNL A   1      36.883  30.288  29.118  1.00  0.00    -0.014 A 
BRANCH  32  33
ATOM     33  C   UNL A   1      38.098  29.870  29.865  1.00  0.00     0.031 A 
ATOM     34  C   UNL A   1      38.332  30.372  31.267  1.00  0.00     0.074 A 
ATOM     35  C   UNL A   1      39.016  29.089  29.266  1.00  0.00     0.049 A 
ATOM     36  N   UNL A   1      39.348  30.158  32.066  1.00  0.00    -0.248 NA
ATOM     37  C   UNL A   1      37.309  31.265  31.837  1.00  0.00     0.031 C 
ATOM     38  C   UNL A   1      38.943  28.596  27.888  1.00  0.00     0.029 A 
ATOM     39  N   UNL A   1      40.198  28.573  29.736  1.00  0.00    -0.354 N 
ATOM     40  C   UNL A   1      39.093  30.903  33.211  1.00  0.00     0.074 A 
ATOM     41  C   UNL A   1      37.869  31.635  32.977  1.00  0.00     0.031 C 
ATOM     42  C   UNL A   1      40.005  27.816  27.641  1.00  0.00     0.029 A 
ATOM     43  C   UNL A   1      40.857  27.784  28.825  1.00  0.00     0.049 A 
ATOM     44  H   UNL A   1      40.541  28.751  30.642  1.00  0.00     0.167 HD
ATOM     45  C   UNL A   1      39.793  30.946  34.370  1.00  0.00     0.037 A 
ATOM     46  C   UNL A   1      42.016  27.107  28.935  1.00  0.00     0.037 A 
ATOM     47  C   UNL A   1      40.991  30.188  34.612  1.00  0.00     0.049 A 
ATOM     48  C   UNL A   1      42.766  27.154  30.239  1.00  0.00     0.074 A 
ATOM     49  C   UNL A   1      41.745  30.110  35.768  1.00  0.00     0.029 A 
ATOM     50  N   UNL A   1      41.610  29.373  33.674  1.00  0.00    -0.354 N 
ATOM     51  N   UNL A   1      42.472  27.799  31.342  1.00  0.00    -0.248 NA
ATOM     52  C   UNL A   1      44.002  26.365  30.319  1.00  0.00     0.031 C 
ATOM     53  C   UNL A   1      42.849  29.288  35.516  1.00  0.00     0.029 A 
ATOM     54  C   UNL A   1      42.747  28.803  34.221  1.00  0.00     0.049 A 
ATOM     55  H   UNL A   1      41.288  29.223  32.755  1.00  0.00     0.167 HD
ATOM     56  C   UNL A   1      43.463  27.467  32.256  1.00  0.00     0.074 A 
ATOM     57  C   UNL A   1      44.359  26.550  31.581  1.00  0.00     0.031 C 
ATOM     58  C   UNL A   1      43.620  27.883  33.538  1.00  0.00     0.037 A 
BRANCH  45  59
ATOM     59  C   UNL A   1      39.271  31.833  35.465  1.00  0.00     0.064 A 
ATOM     60  C   UNL A   1      38.394  31.350  36.451  1.00  0.00     0.173 A 
ATOM     61  C   UNL A   1      39.671  33.175  35.549  1.00  0.00     0.173 A 
ATOM     62  F   UNL A   1      37.968  30.078  36.413  1.00  0.00    -0.203 F 
ATOM     63  C   UNL A   1      37.910  32.186  37.455  1.00  0.00     0.198 A 
ATOM     64  C   UNL A   1      39.214  33.998  36.575  1.00  0.00     0.198 A 
ATOM     65  F   UNL A   1      40.509  33.688  34.638  1.00  0.00    -0.203 F 
ATOM     66  F   UNL A   1      37.028  31.716  38.347  1.00  0.00    -0.200 F 
ATOM     67  C   UNL A   1      38.327  33.507  37.521  1.00  0.00     0.200 A 
ATOM     68  F   UNL A   1      39.628  35.270  36.646  1.00  0.00    -0.200 F 
ATOM     69  F   UNL A   1      37.867  34.307  38.492  1.00  0.00    -0.200 F 
ENDBRANCH  45  59
BRANCH  46  70
ATOM     70  C   UNL A   1      42.515  26.291  27.796  1.00  0.00     0.064 A 
ATOM     71  C   UNL A   1      43.478  26.801  26.913  1.00  0.00     0.173 A 
ATOM     72  C   UNL A   1      42.039  24.993  27.562  1.00  0.00     0.173 A 
ATOM     73  F   UNL A   1      43.952  28.044  27.085  1.00  0.00    -0.203 F 
ATOM     74  C   UNL A   1      43.926  26.054  25.825  1.00  0.00     0.198 A 
ATOM     75  C   UNL A   1      42.512  24.235  26.491  1.00  0.00     0.198 A 
ATOM     76  F   UNL A   1      41.124  24.454  28.380  1.00  0.00    -0.203 F 
ATOM     77  F   UNL A   1      44.808  26.586  24.968  1.00  0.00    -0.200 F 
ATOM     78  C   UNL A   1      43.447  24.770  25.619  1.00  0.00     0.200 A 
ATOM     79  F   UNL A   1      42.060  22.988  26.306  1.00  0.00    -0.200 F 
ATOM     80  F   UNL A   1      43.881  24.050  24.575  1.00  0.00    -0.200 F 
ENDBRANCH  46  70
BRANCH  58  81
ATOM     81  C   UNL A   1      44.773  27.308  34.310  1.00  0.00     0.064 A 
ATOM     82  C   UNL A   1      46.026  27.938  34.351  1.00  0.00     0.173 A 
ATOM     83  C   UNL A   1      44.611  26.119  35.038  1.00  0.00     0.173 A 
ATOM     84  F   UNL A   1      46.236  29.070  33.661  1.00  0.00    -0.203 F 
ATOM     85  C   UNL A   1      47.084  27.379  35.061  1.00  0.00     0.198 A 
ATOM     86  C   UNL A   1      45.661  25.583  35.778  1.00  0.00     0.198 A 
ATOM     87  F   UNL A   1      43.431  25.482  35.042  1.00  0.00    -0.203 F 
ATOM     88  F   UNL A   1      48.289  27.964  35.035  1.00  0.00    -0.200 F 
ATOM     89  C   UNL A   1      46.899  26.207  35.779  1.00  0.00     0.200 A 
ATOM     90  F   UNL A   1      45.475  24.460  36.485  1.00  0.00    -0.200 F 
ATOM     91  F   UNL A   1      47.919  25.671  36.465  1.00  0.00    -0.200 F 
ENDBRANCH  58  81
ENDBRANCH  32  33
ENDBRANCH  24  27
ENDBRANCH  22  23
ENDBRANCH   1  22
TORSDOF 12
ENDMDL
MODEL 3
REMARK VINA RESULT:     -12.9      4.731     10.474
REMARK SMILES CC(C)=CCc1cccc2c(C(=O)NCCCNC(=O)c3ccc(-c4c5nc(c(-c6c(F)c(F)c(F)c(F)c6F)c6ccc([nH]6)c(-c6c(F)c(F)c(F)c(F)c6F)c6nc(c(-c7c(F)c(F)c(F)c(F)c7F)c7ccc4[nH]7)C=C6)C=C5)cc3)c[nH]c12
REMARK SMILES IDX 16 1 15 2 14 3 12 4 13 5 11 7 6 8 7 9 86 10 8 11 10 12 85 13
REMARK SMILES IDX 9 14 84 15 5 17 4 18 1 19 2 20 3 21 17 22 18 23 19 24 20 26
REMARK SMILES IDX 21 27 22 28 83 29 23 30 82 31 24 32 25 33 26 34 76 35 27 36
REMARK SMILES IDX 81 37 75 38 77 39 28 40 80 41 74 42 73 43 29 45 61 46 41 47
REMARK SMILES IDX 60 48 42 49 45 50 59 51 78 52 43 53 44 54 58 56 79 57 46 58
REMARK SMILES IDX 30 59 31 60 39 61 32 62 33 63 37 64 40 65 34 66 35 67 38 68
REMARK SMILES IDX 36 69 62 70 63 71 71 72 64 73 65 74 69 75 72 76 66 77 67 78
REMARK SMILES IDX 70 79 68 80 47 81 48 82 56 83 49 84 50 85 54 86 57 87 51 88
REMARK SMILES IDX 52 89 55 90 53 91
REMARK H PARENT 14 6 85 16 18 25 77 44 45 55
REMARK Flexibility Score: inf
ROOT
ATOM      1  C   UNL A   1      31.594  29.157  25.474  1.00  0.00     0.042 C 
ENDROOT
BRANCH   1   2
ATOM      2  C   UNL A   1      31.495  28.547  24.095  1.00  0.00     0.118 C 
BRANCH   2   3
ATOM      3  N   UNL A   1      32.639  28.712  23.229  1.00  0.00    -0.352 N 
ATOM      4  C   UNL A   1      33.333  27.762  22.510  1.00  0.00     0.253 C 
ATOM      5  O   UNL A   1      34.270  28.171  21.819  1.00  0.00    -0.269 OA
ATOM      6  H   UNL A   1      32.970  29.634  23.139  1.00  0.00     0.163 HD
BRANCH   4   7
ATOM      7  C   UNL A   1      33.052  26.326  22.637  1.00  0.00     0.065 A 
ATOM      8  C   UNL A   1      33.255  22.901  23.897  1.00  0.00    -0.020 A 
ATOM      9  C   UNL A   1      33.827  23.076  25.176  1.00  0.00     0.006 A 
ATOM     10  C   UNL A   1      33.001  24.091  23.179  1.00  0.00     0.050 A 
ATOM     11  C   UNL A   1      33.915  24.319  25.779  1.00  0.00     0.001 A 
ATOM     12  C   UNL A   1      33.194  25.372  23.713  1.00  0.00     0.012 A 
ATOM     13  N   UNL A   1      32.519  24.274  21.904  1.00  0.00    -0.360 N 
ATOM     14  C   UNL A   1      33.514  25.457  25.085  1.00  0.00     0.011 A 
ATOM     15  C   UNL A   1      32.558  25.595  21.566  1.00  0.00     0.097 A 
ATOM     16  H   UNL A   1      32.192  23.552  21.317  1.00  0.00     0.166 HD
BRANCH   8  17
ATOM     17  C   UNL A   1      32.978  21.512  23.350  1.00  0.00     0.065 C 
BRANCH  17  18
ATOM     18  C   UNL A   1      33.094  20.438  24.406  1.00  0.00    -0.024 C 
ATOM     19  C   UNL A   1      32.327  18.518  22.984  1.00  0.00     0.039 C 
ATOM     20  C   UNL A   1      32.755  19.139  24.282  1.00  0.00    -0.080 C 
ATOM     21  C   UNL A   1      32.704  18.263  25.503  1.00  0.00     0.039 C 
ENDBRANCH  17  18
ENDBRANCH   8  17
ENDBRANCH   4   7
ENDBRANCH   2   3
ENDBRANCH   1   2
BRANCH   1  22
ATOM     22  C   UNL A   1      32.880  29.901  25.769  1.00  0.00     0.118 C 
BRANCH  22  23
ATOM     23  N   UNL A   1      32.685  31.246  26.301  1.00  0.00    -0.352 N 
ATOM     24  C   UNL A   1      33.385  31.980  27.229  1.00  0.00     0.251 C 
ATOM     25  H   UNL A   1      31.906  31.715  25.924  1.00  0.00     0.163 HD
ATOM     26  O   UNL A   1      32.942  33.069  27.589  1.00  0.00    -0.269 OA
BRANCH  24  27
ATOM     27  C   UNL A   1      34.641  31.474  27.834  1.00  0.00     0.039 A 
ATOM     28  C   UNL A   1      35.715  32.354  28.003  1.00  0.00     0.014 A 
ATOM     29  C   UNL A   1      34.786  30.144  28.220  1.00  0.00     0.014 A 
ATOM     30  C   UNL A   1      36.887  31.916  28.630  1.00  0.00     0.010 A 
ATOM     31  C   UNL A   1      35.883  29.749  28.975  1.00  0.00     0.010 A 
ATOM     32  C   UNL A   1      36.962  30.619  29.166  1.00  0.00    -0.014 A 
BRANCH  32  33
ATOM     33  C   UNL A   1      38.170  30.141  29.889  1.00  0.00     0.031 A 
ATOM     34  C   UNL A   1      38.437  30.601  31.299  1.00  0.00     0.074 A 
ATOM     35  C   UNL A   1      39.054  29.344  29.260  1.00  0.00     0.049 A 
ATOM     36  N   UNL A   1      39.453  30.333  32.081  1.00  0.00    -0.248 NA
ATOM     37  C   UNL A   1      37.451  31.514  31.902  1.00  0.00     0.031 C 
ATOM     38  C   UNL A   1      38.948  28.888  27.872  1.00  0.00     0.029 A 
ATOM     39  N   UNL A   1      40.223  28.776  29.704  1.00  0.00    -0.354 N 
ATOM     40  C   UNL A   1      39.236  31.058  33.247  1.00  0.00     0.074 A 
ATOM     41  C   UNL A   1      38.036  31.837  33.044  1.00  0.00     0.031 C 
ATOM     42  C   UNL A   1      39.981  28.078  27.594  1.00  0.00     0.029 A 
ATOM     43  C   UNL A   1      40.844  27.988  28.766  1.00  0.00     0.049 A 
ATOM     44  H   UNL A   1      40.581  28.921  30.610  1.00  0.00     0.167 HD
ATOM     45  C   UNL A   1      39.950  31.049  34.397  1.00  0.00     0.037 A 
ATOM     46  C   UNL A   1      41.980  27.269  28.847  1.00  0.00     0.037 A 
ATOM     47  C   UNL A   1      41.124  30.244  34.607  1.00  0.00     0.049 A 
ATOM     48  C   UNL A   1      42.744  27.258  30.143  1.00  0.00     0.074 A 
ATOM     49  C   UNL A   1      41.887  30.112  35.752  1.00  0.00     0.029 A 
ATOM     50  N   UNL A   1      41.704  29.431  33.643  1.00  0.00    -0.354 N 
ATOM     51  N   UNL A   1      42.485  27.886  31.264  1.00  0.00    -0.248 NA
ATOM     52  C   UNL A   1      43.954  26.426  30.189  1.00  0.00     0.031 C 
ATOM     53  C   UNL A   1      42.959  29.259  35.468  1.00  0.00     0.029 A 
ATOM     54  C   UNL A   1      42.827  28.810  34.163  1.00  0.00     0.049 A 
ATOM     55  H   UNL A   1      41.367  29.315  32.725  1.00  0.00     0.167 HD
ATOM     56  C   UNL A   1      43.474  27.498  32.158  1.00  0.00     0.074 A 
ATOM     57  C   UNL A   1      44.330  26.567  31.451  1.00  0.00     0.031 C 
ATOM     58  C   UNL A   1      43.659  27.877  33.448  1.00  0.00     0.037 A 
BRANCH  45  59
ATOM     59  C   UNL A   1      39.471  31.925  35.520  1.00  0.00     0.064 A 
ATOM     60  C   UNL A   1      38.543  31.468  36.471  1.00  0.00     0.173 A 
ATOM     61  C   UNL A   1      39.962  33.232  35.665  1.00  0.00     0.173 A 
ATOM     62  F   UNL A   1      38.030  30.231  36.374  1.00  0.00    -0.203 F 
ATOM     63  C   UNL A   1      38.101  32.295  37.500  1.00  0.00     0.198 A 
ATOM     64  C   UNL A   1      39.545  34.044  36.717  1.00  0.00     0.198 A 
ATOM     65  F   UNL A   1      40.852  33.720  34.789  1.00  0.00    -0.203 F 
ATOM     66  F   UNL A   1      37.171  31.854  38.358  1.00  0.00    -0.200 F 
ATOM     67  C   UNL A   1      38.608  33.579  37.627  1.00  0.00     0.200 A 
ATOM     68  F   UNL A   1      40.047  35.279  36.846  1.00  0.00    -0.200 F 
ATOM     69  F   UNL A   1      38.187  34.371  38.623  1.00  0.00    -0.200 F 
ENDBRANCH  45  59
BRANCH  46  70
ATOM     70  C   UNL A   1      42.438  26.464  27.682  1.00  0.00     0.064 A 
ATOM     71  C   UNL A   1      41.935  25.176  27.454  1.00  0.00     0.173 A 
ATOM     72  C   UNL A   1      43.389  26.961  26.779  1.00  0.00     0.173 A 
ATOM     73  F   UNL A   1      41.036  24.649  28.300  1.00  0.00    -0.203 F 
ATOM     74  C   UNL A   1      42.384  24.405  26.384  1.00  0.00     0.198 A 
ATOM     75  C   UNL A   1      43.813  26.201  25.690  1.00  0.00     0.198 A 
ATOM     76  F   UNL A   1      43.896  28.192  26.946  1.00  0.00    -0.203 F 
ATOM     77  F   UNL A   1      41.924  23.157  26.221  1.00  0.00    -0.200 F 
ATOM     78  C   UNL A   1      43.318  24.921  25.500  1.00  0.00     0.200 A 
ATOM     79  F   UNL A   1      44.703  26.711  24.828  1.00  0.00    -0.200 F 
ATOM     80  F   UNL A   1      43.747  24.181  24.467  1.00  0.00    -0.200 F 
ENDBRANCH  46  70
BRANCH  58  81
ATOM     81  C   UNL A   1      44.800  27.244  34.192  1.00  0.00     0.064 A 
ATOM     82  C   UNL A   1      46.072  27.834  34.241  1.00  0.00     0.173 A 
ATOM     83  C   UNL A   1      44.607  26.039  34.886  1.00  0.00     0.173 A 
ATOM     84  F   UNL A   1      46.311  28.979  33.583  1.00  0.00    -0.203 F 
ATOM     85  C   UNL A   1      47.117  27.222  34.925  1.00  0.00     0.198 A 
ATOM     86  C   UNL A   1      45.646  25.449  35.600  1.00  0.00     0.198 A 
ATOM     87  F   UNL A   1      43.408  25.439  34.881  1.00  0.00    -0.203 F 
ATOM     88  F   UNL A   1      48.340  27.771  34.907  1.00  0.00    -0.200 F 
ATOM     89  C   UNL A   1      46.903  26.035  35.610  1.00  0.00     0.200 A 
ATOM     90  F   UNL A   1      45.431  24.311  36.274  1.00  0.00    -0.200 F 
ATOM     91  F   UNL A   1      47.911  25.447  36.270  1.00  0.00    -0.200 F 
ENDBRANCH  58  81
ENDBRANCH  32  33
ENDBRANCH  24  27
ENDBRANCH  22  23
ENDBRANCH   1  22
TORSDOF 12
ENDMDL
