MODEL 1
REMARK VINA RESULT:     -13.7      0.000      0.000
REMARK SMILES Cc1c(Cc2nc(C(C)(C)C)cs2)cccc1C(=O)NCCCNC(=O)c1ccc(-c2c3nc(c(-c4c(F)c(F)c(F)c(F)c4F)c4ccc([nH]4)c(-c4c(F)c(F)c(F)c(F)c4F)c4nc(c(-c5c(F)c(F)c(F)c(F)c5F)c5ccc2[nH]5)C=C4)C=C3)cc1
REMARK SMILES IDX 21 1 20 2 18 3 19 4 17 6 1 7 2 8 3 9 14 10 16 11 15 12 4 13
REMARK SMILES IDX 5 14 6 15 13 16 7 17 12 18 8 19 9 20 10 21 11 22 22 23 23 24
REMARK SMILES IDX 24 25 25 26 26 28 27 29 28 30 89 31 29 32 88 33 30 34 31 35
REMARK SMILES IDX 32 36 82 37 33 38 87 39 81 40 83 41 34 42 86 43 80 44 79 45
REMARK SMILES IDX 35 47 67 48 47 49 66 50 48 51 51 52 65 53 84 54 49 55 50 56
REMARK SMILES IDX 64 58 85 59 52 60 36 61 37 62 45 63 38 64 39 65 43 66 46 67
REMARK SMILES IDX 40 68 41 69 44 70 42 71 68 72 69 73 77 74 70 75 71 76 75 77
REMARK SMILES IDX 78 78 72 79 73 80 76 81 74 82 53 83 54 84 62 85 55 86 56 87
REMARK SMILES IDX 60 88 63 89 57 90 58 91 61 92 59 93
REMARK H PARENT 20 5 24 27 83 46 51 57
REMARK Flexibility Score: inf
ROOT
ATOM      1  C   UNL A   1      31.852  30.107  26.497  1.00  0.00     0.118 C 
ENDROOT
BRANCH   1   2
ATOM      2  N   UNL A   1      32.236  30.016  25.097  1.00  0.00    -0.352 N 
ATOM      3  C   UNL A   1      32.244  28.981  24.192  1.00  0.00     0.251 C 
ATOM      4  O   UNL A   1      32.593  29.254  23.040  1.00  0.00    -0.269 OA
ATOM      5  H   UNL A   1      32.554  30.870  24.721  1.00  0.00     0.163 HD
BRANCH   3   6
ATOM      6  C   UNL A   1      31.768  27.592  24.481  1.00  0.00     0.043 A 
ATOM      7  C   UNL A   1      33.875  26.725  25.626  1.00  0.00     0.045 C 
ATOM      8  C   UNL A   1      32.433  26.610  25.246  1.00  0.00    -0.035 A 
ATOM      9  C   UNL A   1      31.766  25.401  25.561  1.00  0.00    -0.037 A 
ATOM     10  C   UNL A   1      30.594  25.070  24.861  1.00  0.00     0.004 A 
ATOM     11  C   UNL A   1      30.576  27.234  23.824  1.00  0.00     0.014 A 
ATOM     12  C   UNL A   1      30.021  25.966  23.971  1.00  0.00     0.001 A 
BRANCH   9  13
ATOM     13  C   UNL A   1      32.284  24.447  26.633  1.00  0.00     0.103 C 
BRANCH  13  14
ATOM     14  C   UNL A   1      33.124  23.352  26.039  1.00  0.00     0.097 A 
ATOM     15  N   UNL A   1      34.425  23.452  25.886  1.00  0.00    -0.245 NA
ATOM     16  S   UNL A   1      32.424  21.916  25.411  1.00  0.00    -0.127 S 
ATOM     17  C   UNL A   1      34.911  22.410  25.118  1.00  0.00     0.057 A 
ATOM     18  C   UNL A   1      33.963  21.449  24.810  1.00  0.00     0.091 A 
BRANCH  17  19
ATOM     19  C   UNL A   1      36.373  22.447  24.710  1.00  0.00     0.005 C 
ATOM     20  C   UNL A   1      37.014  21.068  24.929  1.00  0.00     0.017 C 
ATOM     21  C   UNL A   1      36.509  22.852  23.230  1.00  0.00     0.017 C 
ATOM     22  C   UNL A   1      37.148  23.487  25.552  1.00  0.00     0.017 C 
ENDBRANCH  17  19
ENDBRANCH  13  14
ENDBRANCH   9  13
ENDBRANCH   3   6
ENDBRANCH   1   2
BRANCH   1  23
ATOM     23  C   UNL A   1      32.805  31.011  27.286  1.00  0.00     0.042 C 
BRANCH  23  24
ATOM     24  C   UNL A   1      34.119  30.390  27.725  1.00  0.00     0.118 C 
BRANCH  24  25
ATOM     25  N   UNL A   1      34.831  31.250  28.681  1.00  0.00    -0.352 N 
ATOM     26  C   UNL A   1      35.982  30.986  29.410  1.00  0.00     0.251 C 
ATOM     27  H   UNL A   1      34.436  32.141  28.823  1.00  0.00     0.163 HD
ATOM     28  O   UNL A   1      36.522  31.830  30.093  1.00  0.00    -0.269 OA
BRANCH  26  29
ATOM     29  C   UNL A   1      36.588  29.653  29.219  1.00  0.00     0.039 A 
ATOM     30  C   UNL A   1      37.156  29.069  30.353  1.00  0.00     0.014 A 
ATOM     31  C   UNL A   1      36.973  29.289  27.933  1.00  0.00     0.014 A 
ATOM     32  C   UNL A   1      38.323  28.332  30.204  1.00  0.00     0.010 A 
ATOM     33  C   UNL A   1      38.178  28.627  27.795  1.00  0.00     0.010 A 
ATOM     34  C   UNL A   1      38.894  28.231  28.935  1.00  0.00    -0.014 A 
BRANCH  34  35
ATOM     35  C   UNL A   1      40.272  27.796  28.735  1.00  0.00     0.031 A 
ATOM     36  C   UNL A   1      40.536  26.388  28.387  1.00  0.00     0.074 A 
ATOM     37  C   UNL A   1      41.315  28.645  28.876  1.00  0.00     0.049 A 
ATOM     38  N   UNL A   1      41.617  25.758  28.701  1.00  0.00    -0.248 NA
ATOM     39  C   UNL A   1      39.561  25.560  27.694  1.00  0.00     0.031 C 
ATOM     40  C   UNL A   1      42.712  28.378  28.538  1.00  0.00     0.029 A 
ATOM     41  N   UNL A   1      41.356  29.872  29.562  1.00  0.00    -0.354 N 
ATOM     42  C   UNL A   1      41.599  24.548  28.051  1.00  0.00     0.074 A 
ATOM     43  C   UNL A   1      40.273  24.450  27.484  1.00  0.00     0.031 C 
ATOM     44  C   UNL A   1      43.497  29.187  29.264  1.00  0.00     0.029 A 
ATOM     45  C   UNL A   1      42.642  29.933  30.164  1.00  0.00     0.049 A 
ATOM     46  H   UNL A   1      40.643  30.548  29.613  1.00  0.00     0.167 HD
ATOM     47  C   UNL A   1      42.747  23.815  27.970  1.00  0.00     0.037 A 
ATOM     48  C   UNL A   1      42.790  30.024  31.517  1.00  0.00     0.037 A 
ATOM     49  C   UNL A   1      43.852  24.455  28.684  1.00  0.00     0.049 A 
ATOM     50  C   UNL A   1      43.496  28.846  32.151  1.00  0.00     0.074 A 
ATOM     51  C   UNL A   1      44.930  25.237  28.298  1.00  0.00     0.029 A 
ATOM     52  N   UNL A   1      43.779  24.571  30.061  1.00  0.00    -0.354 N 
ATOM     53  N   UNL A   1      43.981  27.830  31.493  1.00  0.00    -0.248 NA
ATOM     54  C   UNL A   1      43.593  28.670  33.601  1.00  0.00     0.031 C 
ATOM     55  C   UNL A   1      45.514  25.805  29.468  1.00  0.00     0.029 A 
ATOM     56  C   UNL A   1      44.792  25.369  30.563  1.00  0.00     0.049 A 
ATOM     57  H   UNL A   1      43.091  24.137  30.616  1.00  0.00     0.167 HD
ATOM     58  C   UNL A   1      44.367  26.861  32.382  1.00  0.00     0.074 A 
ATOM     59  C   UNL A   1      44.100  27.432  33.689  1.00  0.00     0.031 C 
ATOM     60  C   UNL A   1      44.830  25.637  31.991  1.00  0.00     0.037 A 
BRANCH  47  61
ATOM     61  C   UNL A   1      42.922  22.645  27.028  1.00  0.00     0.064 A 
ATOM     62  C   UNL A   1      42.236  21.432  27.247  1.00  0.00     0.173 A 
ATOM     63  C   UNL A   1      43.793  22.635  25.923  1.00  0.00     0.173 A 
ATOM     64  F   UNL A   1      41.277  21.328  28.176  1.00  0.00    -0.203 F 
ATOM     65  C   UNL A   1      42.511  20.273  26.517  1.00  0.00     0.198 A 
ATOM     66  C   UNL A   1      44.120  21.462  25.236  1.00  0.00     0.198 A 
ATOM     67  F   UNL A   1      44.305  23.770  25.430  1.00  0.00    -0.203 F 
ATOM     68  F   UNL A   1      41.830  19.148  26.776  1.00  0.00    -0.200 F 
ATOM     69  C   UNL A   1      43.489  20.276  25.544  1.00  0.00     0.200 A 
ATOM     70  F   UNL A   1      45.050  21.494  24.271  1.00  0.00    -0.200 F 
ATOM     71  F   UNL A   1      43.796  19.151  24.885  1.00  0.00    -0.200 F 
ENDBRANCH  47  61
BRANCH  48  72
ATOM     72  C   UNL A   1      41.696  30.811  32.141  1.00  0.00     0.064 A 
ATOM     73  C   UNL A   1      41.696  32.204  31.926  1.00  0.00     0.173 A 
ATOM     74  C   UNL A   1      40.490  30.207  32.508  1.00  0.00     0.173 A 
ATOM     75  F   UNL A   1      42.836  32.832  31.594  1.00  0.00    -0.203 F 
ATOM     76  C   UNL A   1      40.505  32.920  31.883  1.00  0.00     0.198 A 
ATOM     77  C   UNL A   1      39.305  30.940  32.506  1.00  0.00     0.198 A 
ATOM     78  F   UNL A   1      40.429  28.886  32.732  1.00  0.00    -0.203 F 
ATOM     79  F   UNL A   1      40.511  34.203  31.492  1.00  0.00    -0.200 F 
ATOM     80  C   UNL A   1      39.306  32.276  32.134  1.00  0.00     0.200 A 
ATOM     81  F   UNL A   1      38.144  30.319  32.760  1.00  0.00    -0.200 F 
ATOM     82  F   UNL A   1      38.148  32.930  31.965  1.00  0.00    -0.200 F 
ENDBRANCH  48  72
BRANCH  60  83
ATOM     83  C   UNL A   1      45.324  24.588  32.953  1.00  0.00     0.064 A 
ATOM     84  C   UNL A   1      44.535  23.494  33.348  1.00  0.00     0.173 A 
ATOM     85  C   UNL A   1      46.580  24.696  33.591  1.00  0.00     0.173 A 
ATOM     86  F   UNL A   1      43.277  23.355  32.904  1.00  0.00    -0.203 F 
ATOM     87  C   UNL A   1      45.007  22.523  34.233  1.00  0.00     0.198 A 
ATOM     88  C   UNL A   1      47.027  23.755  34.519  1.00  0.00     0.198 A 
ATOM     89  F   UNL A   1      47.423  25.702  33.322  1.00  0.00    -0.203 F 
ATOM     90  F   UNL A   1      44.247  21.456  34.517  1.00  0.00    -0.200 F 
ATOM     91  C   UNL A   1      46.252  22.655  34.821  1.00  0.00     0.200 A 
ATOM     92  F   UNL A   1      48.219  23.920  35.109  1.00  0.00    -0.200 F 
ATOM     93  F   UNL A   1      46.701  21.728  35.678  1.00  0.00    -0.200 F 
ENDBRANCH  60  83
ENDBRANCH  34  35
ENDBRANCH  26  29
ENDBRANCH  24  25
ENDBRANCH  23  24
ENDBRANCH   1  23
TORSDOF 13
ENDMDL
MODEL 2
REMARK VINA RESULT:     -13.5      1.245      2.117
REMARK SMILES Cc1c(Cc2nc(C(C)(C)C)cs2)cccc1C(=O)NCCCNC(=O)c1ccc(-c2c3nc(c(-c4c(F)c(F)c(F)c(F)c4F)c4ccc([nH]4)c(-c4c(F)c(F)c(F)c(F)c4F)c4nc(c(-c5c(F)c(F)c(F)c(F)c5F)c5ccc2[nH]5)C=C4)C=C3)cc1
REMARK SMILES IDX 21 1 20 2 18 3 19 4 17 6 1 7 2 8 3 9 14 10 16 11 15 12 4 13
REMARK SMILES IDX 5 14 6 15 13 16 7 17 12 18 8 19 9 20 10 21 11 22 22 23 23 24
REMARK SMILES IDX 24 25 25 26 26 28 27 29 28 30 89 31 29 32 88 33 30 34 31 35
REMARK SMILES IDX 32 36 82 37 33 38 87 39 81 40 83 41 34 42 86 43 80 44 79 45
REMARK SMILES IDX 35 47 67 48 47 49 66 50 48 51 51 52 65 53 84 54 49 55 50 56
REMARK SMILES IDX 64 58 85 59 52 60 36 61 37 62 45 63 38 64 39 65 43 66 46 67
REMARK SMILES IDX 40 68 41 69 44 70 42 71 68 72 69 73 77 74 70 75 71 76 75 77
REMARK SMILES IDX 78 78 72 79 73 80 76 81 74 82 53 83 54 84 62 85 55 86 56 87
REMARK SMILES IDX 60 88 63 89 57 90 58 91 61 92 59 93
REMARK H PARENT 20 5 24 27 83 46 51 57
REMARK Flexibility Score: inf
ROOT
ATOM      1  C   UNL A   1      31.471  29.803  25.636  1.00  0.00     0.118 C 
ENDROOT
BRANCH   1   2
ATOM      2  N   UNL A   1      32.167  29.710  24.361  1.00  0.00    -0.352 N 
ATOM      3  C   UNL A   1      32.552  28.646  23.578  1.00  0.00     0.251 C 
ATOM      4  O   UNL A   1      33.097  28.917  22.505  1.00  0.00    -0.269 OA
ATOM      5  H   UNL A   1      32.410  30.586  23.983  1.00  0.00     0.163 HD
BRANCH   3   6
ATOM      6  C   UNL A   1      32.267  27.211  23.890  1.00  0.00     0.043 A 
ATOM      7  C   UNL A   1      33.984  26.901  25.749  1.00  0.00     0.045 C 
ATOM      8  C   UNL A   1      32.801  26.452  24.952  1.00  0.00    -0.035 A 
ATOM      9  C   UNL A   1      32.298  25.152  25.203  1.00  0.00    -0.037 A 
ATOM     10  C   UNL A   1      31.512  24.527  24.221  1.00  0.00     0.004 A 
ATOM     11  C   UNL A   1      31.452  26.559  22.946  1.00  0.00     0.014 A 
ATOM     12  C   UNL A   1      31.119  25.214  23.082  1.00  0.00     0.001 A 
BRANCH   9  13
ATOM     13  C   UNL A   1      32.588  24.409  26.504  1.00  0.00     0.103 C 
BRANCH  13  14
ATOM     14  C   UNL A   1      33.588  23.306  26.299  1.00  0.00     0.097 A 
ATOM     15  N   UNL A   1      34.804  23.518  25.851  1.00  0.00    -0.245 NA
ATOM     16  S   UNL A   1      33.175  21.657  26.537  1.00  0.00    -0.127 S 
ATOM     17  C   UNL A   1      35.430  22.324  25.545  1.00  0.00     0.057 A 
ATOM     18  C   UNL A   1      34.703  21.201  25.901  1.00  0.00     0.091 A 
BRANCH  17  19
ATOM     19  C   UNL A   1      36.789  22.384  24.869  1.00  0.00     0.005 C 
ATOM     20  C   UNL A   1      37.416  20.982  24.823  1.00  0.00     0.017 C 
ATOM     21  C   UNL A   1      36.654  22.938  23.438  1.00  0.00     0.017 C 
ATOM     22  C   UNL A   1      37.742  23.323  25.645  1.00  0.00     0.017 C 
ENDBRANCH  17  19
ENDBRANCH  13  14
ENDBRANCH   9  13
ENDBRANCH   3   6
ENDBRANCH   1   2
BRANCH   1  23
ATOM     23  C   UNL A   1      32.144  30.810  26.573  1.00  0.00     0.042 C 
BRANCH  23  24
ATOM     24  C   UNL A   1      33.256  30.275  27.458  1.00  0.00     0.118 C 
BRANCH  24  25
ATOM     25  N   UNL A   1      33.932  31.355  28.190  1.00  0.00    -0.352 N 
ATOM     26  C   UNL A   1      35.200  31.372  28.755  1.00  0.00     0.251 C 
ATOM     27  H   UNL A   1      33.413  32.185  28.293  1.00  0.00     0.163 HD
ATOM     28  O   UNL A   1      35.674  32.372  29.247  1.00  0.00    -0.269 OA
BRANCH  26  29
ATOM     29  C   UNL A   1      35.994  30.134  28.620  1.00  0.00     0.039 A 
ATOM     30  C   UNL A   1      36.410  29.539  29.812  1.00  0.00     0.014 A 
ATOM     31  C   UNL A   1      36.654  29.910  27.417  1.00  0.00     0.014 A 
ATOM     32  C   UNL A   1      37.668  28.954  29.856  1.00  0.00     0.010 A 
ATOM     33  C   UNL A   1      37.938  29.403  27.482  1.00  0.00     0.010 A 
ATOM     34  C   UNL A   1      38.474  29.010  28.718  1.00  0.00    -0.014 A 
BRANCH  34  35
ATOM     35  C   UNL A   1      39.909  28.753  28.767  1.00  0.00     0.031 A 
ATOM     36  C   UNL A   1      40.409  27.413  28.407  1.00  0.00     0.074 A 
ATOM     37  C   UNL A   1      40.791  29.703  29.151  1.00  0.00     0.049 A 
ATOM     38  N   UNL A   1      41.483  26.890  28.891  1.00  0.00    -0.248 NA
ATOM     39  C   UNL A   1      39.692  26.532  27.496  1.00  0.00     0.031 C 
ATOM     40  C   UNL A   1      42.249  29.623  29.076  1.00  0.00     0.029 A 
ATOM     41  N   UNL A   1      40.548  30.872  29.893  1.00  0.00    -0.354 N 
ATOM     42  C   UNL A   1      41.740  25.737  28.190  1.00  0.00     0.074 A 
ATOM     43  C   UNL A   1      40.566  25.530  27.372  1.00  0.00     0.031 C 
ATOM     44  C   UNL A   1      42.777  30.461  29.981  1.00  0.00     0.029 A 
ATOM     45  C   UNL A   1      41.681  31.035  30.735  1.00  0.00     0.049 A 
ATOM     46  H   UNL A   1      39.758  31.456  29.839  1.00  0.00     0.167 HD
ATOM     47  C   UNL A   1      42.966  25.149  28.295  1.00  0.00     0.037 A 
ATOM     48  C   UNL A   1      41.562  31.042  32.094  1.00  0.00     0.037 A 
ATOM     49  C   UNL A   1      43.829  25.857  29.242  1.00  0.00     0.049 A 
ATOM     50  C   UNL A   1      42.281  29.909  32.792  1.00  0.00     0.074 A 
ATOM     51  C   UNL A   1      44.852  26.783  29.113  1.00  0.00     0.029 A 
ATOM     52  N   UNL A   1      43.487  25.861  30.583  1.00  0.00    -0.354 N 
ATOM     53  N   UNL A   1      43.004  29.007  32.190  1.00  0.00    -0.248 NA
ATOM     54  C   UNL A   1      42.127  29.639  34.222  1.00  0.00     0.031 C 
ATOM     55  C   UNL A   1      45.132  27.326  30.401  1.00  0.00     0.029 A 
ATOM     56  C   UNL A   1      44.279  26.730  31.312  1.00  0.00     0.049 A 
ATOM     57  H   UNL A   1      42.768  25.311  30.972  1.00  0.00     0.167 HD
ATOM     58  C   UNL A   1      43.338  28.026  33.087  1.00  0.00     0.074 A 
ATOM     59  C   UNL A   1      42.761  28.464  34.344  1.00  0.00     0.031 C 
ATOM     60  C   UNL A   1      44.017  26.895  32.731  1.00  0.00     0.037 A 
BRANCH  47  61
ATOM     61  C   UNL A   1      43.460  24.079  27.348  1.00  0.00     0.064 A 
ATOM     62  C   UNL A   1      44.300  24.407  26.262  1.00  0.00     0.173 A 
ATOM     63  C   UNL A   1      43.098  22.721  27.419  1.00  0.00     0.173 A 
ATOM     64  F   UNL A   1      44.836  25.627  26.135  1.00  0.00    -0.203 F 
ATOM     65  C   UNL A   1      44.623  23.488  25.261  1.00  0.00     0.198 A 
ATOM     66  C   UNL A   1      43.362  21.818  26.385  1.00  0.00     0.198 A 
ATOM     67  F   UNL A   1      42.535  22.209  28.521  1.00  0.00    -0.203 F 
ATOM     68  F   UNL A   1      45.421  23.860  24.251  1.00  0.00    -0.200 F 
ATOM     69  C   UNL A   1      44.113  22.206  25.297  1.00  0.00     0.200 A 
ATOM     70  F   UNL A   1      42.884  20.568  26.457  1.00  0.00    -0.200 F 
ATOM     71  F   UNL A   1      44.372  21.343  24.307  1.00  0.00    -0.200 F 
ENDBRANCH  47  61
BRANCH  48  72
ATOM     72  C   UNL A   1      40.280  31.651  32.533  1.00  0.00     0.064 A 
ATOM     73  C   UNL A   1      40.134  33.043  32.371  1.00  0.00     0.173 A 
ATOM     74  C   UNL A   1      39.118  30.882  32.650  1.00  0.00     0.173 A 
ATOM     75  F   UNL A   1      41.222  33.825  32.277  1.00  0.00    -0.203 F 
ATOM     76  C   UNL A   1      38.887  33.608  32.135  1.00  0.00     0.198 A 
ATOM     77  C   UNL A   1      37.866  31.462  32.455  1.00  0.00     0.198 A 
ATOM     78  F   UNL A   1      39.193  29.553  32.812  1.00  0.00    -0.203 F 
ATOM     79  F   UNL A   1      38.793  34.902  31.797  1.00  0.00    -0.200 F 
ATOM     80  C   UNL A   1      37.757  32.808  32.137  1.00  0.00     0.200 A 
ATOM     81  F   UNL A   1      36.771  30.689  32.469  1.00  0.00    -0.200 F 
ATOM     82  F   UNL A   1      36.573  33.323  31.781  1.00  0.00    -0.200 F 
ENDBRANCH  48  72
BRANCH  60  83
ATOM     83  C   UNL A   1      44.451  25.842  33.717  1.00  0.00     0.064 A 
ATOM     84  C   UNL A   1      45.801  25.505  33.917  1.00  0.00     0.173 A 
ATOM     85  C   UNL A   1      43.516  25.060  34.432  1.00  0.00     0.173 A 
ATOM     86  F   UNL A   1      46.772  26.093  33.201  1.00  0.00    -0.203 F 
ATOM     87  C   UNL A   1      46.192  24.533  34.841  1.00  0.00     0.198 A 
ATOM     88  C   UNL A   1      43.907  24.051  35.312  1.00  0.00     0.198 A 
ATOM     89  F   UNL A   1      42.197  25.263  34.319  1.00  0.00    -0.203 F 
ATOM     90  F   UNL A   1      47.496  24.305  35.052  1.00  0.00    -0.200 F 
ATOM     91  C   UNL A   1      45.245  23.805  35.536  1.00  0.00     0.200 A 
ATOM     92  F   UNL A   1      42.974  23.328  35.947  1.00  0.00    -0.200 F 
ATOM     93  F   UNL A   1      45.620  22.867  36.415  1.00  0.00    -0.200 F 
ENDBRANCH  60  83
ENDBRANCH  34  35
ENDBRANCH  26  29
ENDBRANCH  24  25
ENDBRANCH  23  24
ENDBRANCH   1  23
TORSDOF 13
ENDMDL
MODEL 3
REMARK VINA RESULT:     -13.4      3.601     10.063
REMARK SMILES Cc1c(Cc2nc(C(C)(C)C)cs2)cccc1C(=O)NCCCNC(=O)c1ccc(-c2c3nc(c(-c4c(F)c(F)c(F)c(F)c4F)c4ccc([nH]4)c(-c4c(F)c(F)c(F)c(F)c4F)c4nc(c(-c5c(F)c(F)c(F)c(F)c5F)c5ccc2[nH]5)C=C4)C=C3)cc1
REMARK SMILES IDX 21 1 20 2 18 3 19 4 17 6 1 7 2 8 3 9 14 10 16 11 15 12 4 13
REMARK SMILES IDX 5 14 6 15 13 16 7 17 12 18 8 19 9 20 10 21 11 22 22 23 23 24
REMARK SMILES IDX 24 25 25 26 26 28 27 29 28 30 89 31 29 32 88 33 30 34 31 35
REMARK SMILES IDX 32 36 82 37 33 38 87 39 81 40 83 41 34 42 86 43 80 44 79 45
REMARK SMILES IDX 35 47 67 48 47 49 66 50 48 51 51 52 65 53 84 54 49 55 50 56
REMARK SMILES IDX 64 58 85 59 52 60 36 61 37 62 45 63 38 64 39 65 43 66 46 67
REMARK SMILES IDX 40 68 41 69 44 70 42 71 68 72 69 73 77 74 70 75 71 76 75 77
REMARK SMILES IDX 78 78 72 79 73 80 76 81 74 82 53 83 54 84 62 85 55 86 56 87
REMARK SMILES IDX 60 88 63 89 57 90 58 91 61 92 59 93
REMARK H PARENT 20 5 24 27 83 46 51 57
REMARK Flexibility Score: inf
ROOT
ATOM      1  C   UNL A   1      37.430  22.068  25.094  1.00  0.00     0.118 C 
ENDROOT
BRANCH   1   2
ATOM      2  N   UNL A   1      36.688  20.837  24.863  1.00  0.00    -0.352 N 
ATOM      3  C   UNL A   1      35.381  20.473  25.090  1.00  0.00     0.251 C 
ATOM      4  O   UNL A   1      35.051  19.341  24.727  1.00  0.00    -0.269 OA
ATOM      5  H   UNL A   1      37.232  20.121  24.461  1.00  0.00     0.163 HD
BRANCH   3   6
ATOM      6  C   UNL A   1      34.329  21.379  25.645  1.00  0.00     0.043 A 
ATOM      7  C   UNL A   1      33.434  22.283  23.434  1.00  0.00     0.045 C 
ATOM      8  C   UNL A   1      33.354  22.094  24.915  1.00  0.00    -0.035 A 
ATOM      9  C   UNL A   1      32.326  22.777  25.609  1.00  0.00    -0.037 A 
ATOM     10  C   UNL A   1      32.465  22.993  26.990  1.00  0.00     0.004 A 
ATOM     11  C   UNL A   1      34.414  21.593  27.033  1.00  0.00     0.014 A 
ATOM     12  C   UNL A   1      33.522  22.434  27.693  1.00  0.00     0.001 A 
BRANCH   9  13
ATOM     13  C   UNL A   1      31.076  23.291  24.901  1.00  0.00     0.103 C 
BRANCH  13  14
ATOM     14  C   UNL A   1      31.095  24.787  24.759  1.00  0.00     0.097 A 
ATOM     15  N   UNL A   1      31.858  25.413  23.892  1.00  0.00    -0.245 NA
ATOM     16  S   UNL A   1      30.193  25.805  25.806  1.00  0.00    -0.127 S 
ATOM     17  C   UNL A   1      31.850  26.775  24.125  1.00  0.00     0.057 A 
ATOM     18  C   UNL A   1      30.956  27.173  25.105  1.00  0.00     0.091 A 
BRANCH  17  19
ATOM     19  C   UNL A   1      32.796  27.642  23.313  1.00  0.00     0.005 C 
ATOM     20  C   UNL A   1      33.912  28.190  24.216  1.00  0.00     0.017 C 
ATOM     21  C   UNL A   1      33.415  26.829  22.160  1.00  0.00     0.017 C 
ATOM     22  C   UNL A   1      32.040  28.837  22.688  1.00  0.00     0.017 C 
ENDBRANCH  17  19
ENDBRANCH  13  14
ENDBRANCH   9  13
ENDBRANCH   3   6
ENDBRANCH   1   2
BRANCH   1  23
ATOM     23  C   UNL A   1      38.797  21.791  25.728  1.00  0.00     0.042 C 
BRANCH  23  24
ATOM     24  C   UNL A   1      39.314  22.831  26.706  1.00  0.00     0.118 C 
BRANCH  24  25
ATOM     25  N   UNL A   1      40.720  23.168  26.444  1.00  0.00    -0.352 N 
ATOM     26  C   UNL A   1      41.321  24.416  26.357  1.00  0.00     0.251 C 
ATOM     27  H   UNL A   1      41.321  22.400  26.313  1.00  0.00     0.163 HD
ATOM     28  O   UNL A   1      42.520  24.548  26.233  1.00  0.00    -0.269 OA
BRANCH  26  29
ATOM     29  C   UNL A   1      40.438  25.585  26.542  1.00  0.00     0.039 A 
ATOM     30  C   UNL A   1      40.929  26.805  26.077  1.00  0.00     0.014 A 
ATOM     31  C   UNL A   1      39.459  25.512  27.527  1.00  0.00     0.014 A 
ATOM     32  C   UNL A   1      40.654  27.952  26.810  1.00  0.00     0.010 A 
ATOM     33  C   UNL A   1      39.255  26.639  28.302  1.00  0.00     0.010 A 
ATOM     34  C   UNL A   1      39.925  27.832  27.993  1.00  0.00    -0.014 A 
BRANCH  34  35
ATOM     35  C   UNL A   1      39.891  28.890  28.996  1.00  0.00     0.031 A 
ATOM     36  C   UNL A   1      38.849  29.930  28.906  1.00  0.00     0.074 A 
ATOM     37  C   UNL A   1      40.799  28.955  29.996  1.00  0.00     0.049 A 
ATOM     38  N   UNL A   1      38.997  31.138  29.331  1.00  0.00    -0.248 NA
ATOM     39  C   UNL A   1      37.560  29.690  28.273  1.00  0.00     0.031 C 
ATOM     40  C   UNL A   1      40.768  29.854  31.149  1.00  0.00     0.029 A 
ATOM     41  N   UNL A   1      42.067  28.350  30.065  1.00  0.00    -0.354 N 
ATOM     42  C   UNL A   1      37.773  31.758  29.265  1.00  0.00     0.074 A 
ATOM     43  C   UNL A   1      36.926  30.832  28.547  1.00  0.00     0.031 C 
ATOM     44  C   UNL A   1      42.017  30.007  31.614  1.00  0.00     0.029 A 
ATOM     45  C   UNL A   1      42.905  29.292  30.721  1.00  0.00     0.049 A 
ATOM     46  H   UNL A   1      42.319  27.460  29.730  1.00  0.00     0.167 HD
ATOM     47  C   UNL A   1      37.583  32.936  29.926  1.00  0.00     0.037 A 
ATOM     48  C   UNL A   1      44.010  29.807  30.109  1.00  0.00     0.037 A 
ATOM     49  C   UNL A   1      38.808  33.396  30.581  1.00  0.00     0.049 A 
ATOM     50  C   UNL A   1      43.961  31.302  29.883  1.00  0.00     0.074 A 
ATOM     51  C   UNL A   1      39.291  33.337  31.878  1.00  0.00     0.029 A 
ATOM     52  N   UNL A   1      39.884  33.771  29.796  1.00  0.00    -0.354 N 
ATOM     53  N   UNL A   1      42.986  32.079  30.268  1.00  0.00    -0.248 NA
ATOM     54  C   UNL A   1      44.961  32.013  29.086  1.00  0.00     0.031 C 
ATOM     55  C   UNL A   1      40.669  33.704  31.861  1.00  0.00     0.029 A 
ATOM     56  C   UNL A   1      41.021  33.985  30.554  1.00  0.00     0.049 A 
ATOM     57  H   UNL A   1      39.845  33.875  28.818  1.00  0.00     0.167 HD
ATOM     58  C   UNL A   1      43.167  33.326  29.730  1.00  0.00     0.074 A 
ATOM     59  C   UNL A   1      44.414  33.234  28.994  1.00  0.00     0.031 C 
ATOM     60  C   UNL A   1      42.259  34.336  29.878  1.00  0.00     0.037 A 
BRANCH  47  61
ATOM     61  C   UNL A   1      36.218  33.535  30.182  1.00  0.00     0.064 A 
ATOM     62  C   UNL A   1      35.440  34.041  29.120  1.00  0.00     0.173 A 
ATOM     63  C   UNL A   1      35.643  33.693  31.457  1.00  0.00     0.173 A 
ATOM     64  F   UNL A   1      35.789  33.847  27.842  1.00  0.00    -0.203 F 
ATOM     65  C   UNL A   1      34.266  34.768  29.331  1.00  0.00     0.198 A 
ATOM     66  C   UNL A   1      34.507  34.478  31.676  1.00  0.00     0.198 A 
ATOM     67  F   UNL A   1      36.124  33.039  32.522  1.00  0.00    -0.203 F 
ATOM     68  F   UNL A   1      33.572  35.229  28.281  1.00  0.00    -0.200 F 
ATOM     69  C   UNL A   1      33.826  35.029  30.613  1.00  0.00     0.200 A 
ATOM     70  F   UNL A   1      34.079  34.691  32.929  1.00  0.00    -0.200 F 
ATOM     71  F   UNL A   1      32.735  35.777  30.818  1.00  0.00    -0.200 F 
ENDBRANCH  47  61
BRANCH  48  72
ATOM     72  C   UNL A   1      44.652  28.819  29.204  1.00  0.00     0.064 A 
ATOM     73  C   UNL A   1      45.373  27.766  29.802  1.00  0.00     0.173 A 
ATOM     74  C   UNL A   1      44.201  28.639  27.893  1.00  0.00     0.173 A 
ATOM     75  F   UNL A   1      45.846  27.902  31.051  1.00  0.00    -0.203 F 
ATOM     76  C   UNL A   1      45.460  26.522  29.189  1.00  0.00     0.198 A 
ATOM     77  C   UNL A   1      44.329  27.402  27.266  1.00  0.00     0.198 A 
ATOM     78  F   UNL A   1      43.514  29.608  27.270  1.00  0.00    -0.203 F 
ATOM     79  F   UNL A   1      45.986  25.484  29.856  1.00  0.00    -0.200 F 
ATOM     80  C   UNL A   1      44.902  26.331  27.937  1.00  0.00     0.200 A 
ATOM     81  F   UNL A   1      43.799  27.220  26.049  1.00  0.00    -0.200 F 
ATOM     82  F   UNL A   1      44.867  25.103  27.401  1.00  0.00    -0.200 F 
ENDBRANCH  48  72
BRANCH  60  83
ATOM     83  C   UNL A   1      42.475  35.732  29.353  1.00  0.00     0.064 A 
ATOM     84  C   UNL A   1      41.914  36.179  28.145  1.00  0.00     0.173 A 
ATOM     85  C   UNL A   1      43.335  36.646  30.001  1.00  0.00     0.173 A 
ATOM     86  F   UNL A   1      41.180  35.358  27.379  1.00  0.00    -0.203 F 
ATOM     87  C   UNL A   1      42.113  37.479  27.673  1.00  0.00     0.198 A 
ATOM     88  C   UNL A   1      43.579  37.924  29.499  1.00  0.00     0.198 A 
ATOM     89  F   UNL A   1      43.951  36.339  31.151  1.00  0.00    -0.203 F 
ATOM     90  F   UNL A   1      41.492  37.883  26.556  1.00  0.00    -0.200 F 
ATOM     91  C   UNL A   1      42.948  38.350  28.349  1.00  0.00     0.200 A 
ATOM     92  F   UNL A   1      44.422  38.741  30.145  1.00  0.00    -0.200 F 
ATOM     93  F   UNL A   1      43.146  39.593  27.891  1.00  0.00    -0.200 F 
ENDBRANCH  60  83
ENDBRANCH  34  35
ENDBRANCH  26  29
ENDBRANCH  24  25
ENDBRANCH  23  24
ENDBRANCH   1  23
TORSDOF 13
ENDMDL
