MODEL 1
REMARK VINA RESULT:     -12.4      0.000      0.000
REMARK SMILES [NH3+][C@H]1C=C[C@@H](C(=O)NC2(CC(=O)NCCCNC(=O)c3ccc(-c4c5nc(c(-c6c(F)c(F)c(F)c(F)c6F)c6ccc([nH]6)c(-c6c(F)c(F)c(F)c(F)c6F)c6nc(c(-c7c(F)c(F)c(F)c(F)c7F)c7ccc4[nH]7)C=C6)C=C5)cc3)CCCCC2)C1
REMARK SMILES IDX 14 1 13 2 11 3 12 4 10 6 9 7 83 8 87 9 84 10 86 11 85 12
REMARK SMILES IDX 8 13 6 14 7 15 5 17 2 18 3 19 88 20 4 21 1 22 15 26 16 27
REMARK SMILES IDX 17 28 18 29 19 31 20 32 21 33 82 34 22 35 81 36 23 37 24 38
REMARK SMILES IDX 25 39 75 40 26 41 80 42 74 43 76 44 27 45 79 46 73 47 72 48
REMARK SMILES IDX 28 50 60 51 40 52 59 53 41 54 44 55 58 56 77 57 42 58 43 59
REMARK SMILES IDX 57 61 78 62 45 63 29 64 30 65 38 66 31 67 32 68 36 69 39 70
REMARK SMILES IDX 33 71 34 72 37 73 35 74 61 75 62 76 70 77 63 78 64 79 68 80
REMARK SMILES IDX 71 81 65 82 66 83 69 84 67 85 46 86 47 87 55 88 48 89 49 90
REMARK SMILES IDX 53 91 56 92 50 93 51 94 54 95 52 96
REMARK H PARENT 13 5 8 16 1 23 1 24 1 25 17 30 76 49 44 60
REMARK Flexibility Score: inf
ROOT
ATOM      1  C   UNL A   1      36.519  20.448  24.995  1.00  0.00     0.117 C 
ENDROOT
BRANCH   1   2
ATOM      2  N   UNL A   1      36.717  21.697  24.286  1.00  0.00    -0.356 N 
ATOM      3  C   UNL A   1      35.817  22.506  23.669  1.00  0.00     0.222 C 
ATOM      4  O   UNL A   1      36.252  23.412  22.953  1.00  0.00    -0.275 OA
ATOM      5  H   UNL A   1      37.651  22.007  24.244  1.00  0.00     0.163 HD
BRANCH   3   6
ATOM      6  C   UNL A   1      34.319  22.348  23.862  1.00  0.00     0.128 C 
BRANCH   6   7
ATOM      7  C   UNL A   1      33.489  23.659  24.087  1.00  0.00     0.049 C 
ATOM      8  C   UNL A   1      34.053  24.354  25.357  1.00  0.00     0.029 C 
ATOM      9  C   UNL A   1      32.015  23.321  24.330  1.00  0.00     0.029 C 
ATOM     10  C   UNL A   1      33.715  23.638  26.670  1.00  0.00     0.002 C 
ATOM     11  C   UNL A   1      31.713  22.553  25.610  1.00  0.00     0.002 C 
ATOM     12  C   UNL A   1      32.227  23.331  26.810  1.00  0.00     0.000 C 
BRANCH   7  13
ATOM     13  N   UNL A   1      33.648  24.548  22.896  1.00  0.00    -0.350 N 
ATOM     14  C   UNL A   1      33.276  25.782  22.471  1.00  0.00     0.227 C 
ATOM     15  O   UNL A   1      33.684  26.077  21.335  1.00  0.00    -0.274 OA
ATOM     16  H   UNL A   1      34.190  24.101  22.208  1.00  0.00     0.164 HD
BRANCH  14  17
ATOM     17  C   UNL A   1      32.388  26.812  23.191  1.00  0.00     0.107 C 
ATOM     18  C   UNL A   1      31.251  28.962  22.821  1.00  0.00     0.205 C 
ATOM     19  C   UNL A   1      30.293  27.816  22.854  1.00  0.00     0.033 C 
ATOM     20  C   UNL A   1      32.637  28.283  22.823  1.00  0.00     0.087 C 
ATOM     21  C   UNL A   1      30.910  26.650  23.079  1.00  0.00    -0.012 C 
BRANCH  18  22
ATOM     22  N   UNL A   1      31.046  29.842  21.682  1.00  0.00    -0.352 N 
ATOM     23  H   UNL A   1      30.545  30.678  21.984  1.00  0.00     0.345 HD
ATOM     24  H   UNL A   1      30.499  29.356  20.972  1.00  0.00     0.345 HD
ATOM     25  H   UNL A   1      31.949  30.110  21.292  1.00  0.00     0.345 HD
ENDBRANCH  18  22
ENDBRANCH  14  17
ENDBRANCH   7  13
ENDBRANCH   6   7
ENDBRANCH   3   6
ENDBRANCH   1   2
BRANCH   1  26
ATOM     26  C   UNL A   1      37.788  19.601  24.953  1.00  0.00     0.042 C 
BRANCH  26  27
ATOM     27  C   UNL A   1      38.947  20.185  25.741  1.00  0.00     0.118 C 
BRANCH  27  28
ATOM     28  N   UNL A   1      40.043  19.239  25.884  1.00  0.00    -0.352 N 
ATOM     29  C   UNL A   1      41.380  19.464  26.095  1.00  0.00     0.251 C 
ATOM     30  H   UNL A   1      39.785  18.292  25.820  1.00  0.00     0.163 HD
ATOM     31  O   UNL A   1      42.169  18.522  25.982  1.00  0.00    -0.269 OA
BRANCH  29  32
ATOM     32  C   UNL A   1      41.897  20.811  26.435  1.00  0.00     0.039 A 
ATOM     33  C   UNL A   1      42.084  21.739  25.403  1.00  0.00     0.014 A 
ATOM     34  C   UNL A   1      42.249  21.158  27.741  1.00  0.00     0.014 A 
ATOM     35  C   UNL A   1      42.576  23.017  25.689  1.00  0.00     0.010 A 
ATOM     36  C   UNL A   1      42.648  22.460  28.039  1.00  0.00     0.010 A 
ATOM     37  C   UNL A   1      42.837  23.397  27.015  1.00  0.00    -0.014 A 
BRANCH  37  38
ATOM     38  C   UNL A   1      43.349  24.753  27.344  1.00  0.00     0.031 A 
ATOM     39  C   UNL A   1      42.425  25.783  27.942  1.00  0.00     0.074 A 
ATOM     40  C   UNL A   1      44.624  25.080  27.056  1.00  0.00     0.049 A 
ATOM     41  N   UNL A   1      42.655  27.041  28.225  1.00  0.00    -0.248 NA
ATOM     42  C   UNL A   1      41.050  25.347  28.230  1.00  0.00     0.031 C 
ATOM     43  C   UNL A   1      45.605  24.191  26.432  1.00  0.00     0.029 A 
ATOM     44  N   UNL A   1      45.310  26.255  27.238  1.00  0.00    -0.354 N 
ATOM     45  C   UNL A   1      41.451  27.547  28.698  1.00  0.00     0.074 A 
ATOM     46  C   UNL A   1      40.480  26.480  28.617  1.00  0.00     0.031 C 
ATOM     47  C   UNL A   1      46.771  24.843  26.304  1.00  0.00     0.029 A 
ATOM     48  C   UNL A   1      46.612  26.206  26.801  1.00  0.00     0.049 A 
ATOM     49  H   UNL A   1      44.908  27.057  27.643  1.00  0.00     0.167 HD
ATOM     50  C   UNL A   1      41.185  28.784  29.182  1.00  0.00     0.037 A 
ATOM     51  C   UNL A   1      47.566  27.156  26.797  1.00  0.00     0.037 A 
ATOM     52  C   UNL A   1      42.164  29.832  29.303  1.00  0.00     0.049 A 
ATOM     53  C   UNL A   1      47.250  28.518  27.356  1.00  0.00     0.074 A 
ATOM     54  C   UNL A   1      42.012  31.097  29.844  1.00  0.00     0.029 A 
ATOM     55  N   UNL A   1      43.481  29.733  28.879  1.00  0.00    -0.354 N 
ATOM     56  N   UNL A   1      46.126  28.964  27.862  1.00  0.00    -0.248 NA
ATOM     57  C   UNL A   1      48.338  29.506  27.350  1.00  0.00     0.031 C 
ATOM     58  C   UNL A   1      43.227  31.778  29.710  1.00  0.00     0.029 A 
ATOM     59  C   UNL A   1      44.148  30.921  29.131  1.00  0.00     0.049 A 
ATOM     60  H   UNL A   1      43.882  28.937  28.461  1.00  0.00     0.167 HD
ATOM     61  C   UNL A   1      46.378  30.270  28.259  1.00  0.00     0.074 A 
ATOM     62  C   UNL A   1      47.766  30.541  27.948  1.00  0.00     0.031 C 
ATOM     63  C   UNL A   1      45.534  31.167  28.826  1.00  0.00     0.037 A 
BRANCH  50  64
ATOM     64  C   UNL A   1      39.780  29.071  29.629  1.00  0.00     0.064 A 
ATOM     65  C   UNL A   1      38.801  29.523  28.731  1.00  0.00     0.173 A 
ATOM     66  C   UNL A   1      39.398  28.854  30.961  1.00  0.00     0.173 A 
ATOM     67  F   UNL A   1      39.118  29.758  27.448  1.00  0.00    -0.203 F 
ATOM     68  C   UNL A   1      37.500  29.776  29.157  1.00  0.00     0.198 A 
ATOM     69  C   UNL A   1      38.088  29.078  31.376  1.00  0.00     0.198 A 
ATOM     70  F   UNL A   1      40.292  28.415  31.860  1.00  0.00    -0.203 F 
ATOM     71  F   UNL A   1      36.595  30.254  28.291  1.00  0.00    -0.200 F 
ATOM     72  C   UNL A   1      37.141  29.545  30.476  1.00  0.00     0.200 A 
ATOM     73  F   UNL A   1      37.739  28.843  32.649  1.00  0.00    -0.200 F 
ATOM     74  F   UNL A   1      35.887  29.781  30.882  1.00  0.00    -0.200 F 
ENDBRANCH  50  64
BRANCH  51  75
ATOM     75  C   UNL A   1      48.921  26.846  26.272  1.00  0.00     0.064 A 
ATOM     76  C   UNL A   1      49.258  27.127  24.939  1.00  0.00     0.173 A 
ATOM     77  C   UNL A   1      49.904  26.258  27.082  1.00  0.00     0.173 A 
ATOM     78  F   UNL A   1      48.345  27.668  24.119  1.00  0.00    -0.203 F 
ATOM     79  C   UNL A   1      50.517  26.813  24.433  1.00  0.00     0.198 A 
ATOM     80  C   UNL A   1      51.172  25.971  26.582  1.00  0.00     0.198 A 
ATOM     81  F   UNL A   1      49.634  25.973  28.364  1.00  0.00    -0.203 F 
ATOM     82  F   UNL A   1      50.796  27.049  23.144  1.00  0.00    -0.200 F 
ATOM     83  C   UNL A   1      51.474  26.241  25.256  1.00  0.00     0.200 A 
ATOM     84  F   UNL A   1      52.099  25.429  27.383  1.00  0.00    -0.200 F 
ATOM     85  F   UNL A   1      52.686  25.941  24.769  1.00  0.00    -0.200 F 
ENDBRANCH  51  75
BRANCH  63  86
ATOM     86  C   UNL A   1      46.097  32.510  29.184  1.00  0.00     0.064 A 
ATOM     87  C   UNL A   1      46.705  32.747  30.425  1.00  0.00     0.173 A 
ATOM     88  C   UNL A   1      46.066  33.562  28.255  1.00  0.00     0.173 A 
ATOM     89  F   UNL A   1      46.745  31.779  31.352  1.00  0.00    -0.203 F 
ATOM     90  C   UNL A   1      47.239  33.995  30.733  1.00  0.00     0.198 A 
ATOM     91  C   UNL A   1      46.629  34.799  28.554  1.00  0.00     0.198 A 
ATOM     92  F   UNL A   1      45.503  33.384  27.050  1.00  0.00    -0.203 F 
ATOM     93  F   UNL A   1      47.775  34.213  31.942  1.00  0.00    -0.200 F 
ATOM     94  C   UNL A   1      47.208  35.016  29.795  1.00  0.00     0.200 A 
ATOM     95  F   UNL A   1      46.609  35.781  27.643  1.00  0.00    -0.200 F 
ATOM     96  F   UNL A   1      47.731  36.215  30.090  1.00  0.00    -0.200 F 
ENDBRANCH  63  86
ENDBRANCH  37  38
ENDBRANCH  29  32
ENDBRANCH  27  28
ENDBRANCH  26  27
ENDBRANCH   1  26
TORSDOF 14
ENDMDL
MODEL 2
REMARK VINA RESULT:     -12.3      0.259      1.619
REMARK SMILES [NH3+][C@H]1C=C[C@@H](C(=O)NC2(CC(=O)NCCCNC(=O)c3ccc(-c4c5nc(c(-c6c(F)c(F)c(F)c(F)c6F)c6ccc([nH]6)c(-c6c(F)c(F)c(F)c(F)c6F)c6nc(c(-c7c(F)c(F)c(F)c(F)c7F)c7ccc4[nH]7)C=C6)C=C5)cc3)CCCCC2)C1
REMARK SMILES IDX 14 1 13 2 11 3 12 4 10 6 9 7 83 8 87 9 84 10 86 11 85 12
REMARK SMILES IDX 8 13 6 14 7 15 5 17 2 18 3 19 88 20 4 21 1 22 15 26 16 27
REMARK SMILES IDX 17 28 18 29 19 31 20 32 21 33 82 34 22 35 81 36 23 37 24 38
REMARK SMILES IDX 25 39 75 40 26 41 80 42 74 43 76 44 27 45 79 46 73 47 72 48
REMARK SMILES IDX 28 50 60 51 40 52 59 53 41 54 44 55 58 56 77 57 42 58 43 59
REMARK SMILES IDX 57 61 78 62 45 63 29 64 30 65 38 66 31 67 32 68 36 69 39 70
REMARK SMILES IDX 33 71 34 72 37 73 35 74 61 75 62 76 70 77 63 78 64 79 68 80
REMARK SMILES IDX 71 81 65 82 66 83 69 84 67 85 46 86 47 87 55 88 48 89 49 90
REMARK SMILES IDX 53 91 56 92 50 93 51 94 54 95 52 96
REMARK H PARENT 13 5 8 16 1 23 1 24 1 25 17 30 76 49 44 60
REMARK Flexibility Score: inf
ROOT
ATOM      1  C   UNL A   1      36.658  20.491  25.001  1.00  0.00     0.117 C 
ENDROOT
BRANCH   1   2
ATOM      2  N   UNL A   1      36.837  21.735  24.278  1.00  0.00    -0.356 N 
ATOM      3  C   UNL A   1      35.926  22.521  23.648  1.00  0.00     0.222 C 
ATOM      4  O   UNL A   1      36.349  23.426  22.924  1.00  0.00    -0.275 OA
ATOM      5  H   UNL A   1      37.765  22.061  24.237  1.00  0.00     0.163 HD
BRANCH   3   6
ATOM      6  C   UNL A   1      34.430  22.339  23.836  1.00  0.00     0.128 C 
BRANCH   6   7
ATOM      7  C   UNL A   1      33.578  23.636  24.060  1.00  0.00     0.049 C 
ATOM      8  C   UNL A   1      34.160  24.365  25.303  1.00  0.00     0.029 C 
ATOM      9  C   UNL A   1      32.119  23.273  24.347  1.00  0.00     0.029 C 
ATOM     10  C   UNL A   1      33.871  23.665  26.637  1.00  0.00     0.002 C 
ATOM     11  C   UNL A   1      31.866  22.521  25.648  1.00  0.00     0.002 C 
ATOM     12  C   UNL A   1      32.393  23.331  26.820  1.00  0.00     0.000 C 
BRANCH   7  13
ATOM     13  N   UNL A   1      33.689  24.508  22.851  1.00  0.00    -0.350 N 
ATOM     14  C   UNL A   1      33.270  25.720  22.410  1.00  0.00     0.227 C 
ATOM     15  O   UNL A   1      33.649  26.007  21.262  1.00  0.00    -0.274 OA
ATOM     16  H   UNL A   1      34.233  24.064  22.161  1.00  0.00     0.164 HD
BRANCH  14  17
ATOM     17  C   UNL A   1      32.363  26.736  23.127  1.00  0.00     0.107 C 
ATOM     18  C   UNL A   1      31.216  28.882  22.763  1.00  0.00     0.205 C 
ATOM     19  C   UNL A   1      30.267  27.729  22.766  1.00  0.00     0.033 C 
ATOM     20  C   UNL A   1      32.607  28.213  22.781  1.00  0.00     0.087 C 
ATOM     21  C   UNL A   1      30.888  26.565  22.988  1.00  0.00    -0.012 C 
BRANCH  18  22
ATOM     22  N   UNL A   1      31.024  29.774  21.632  1.00  0.00    -0.352 N 
ATOM     23  H   UNL A   1      31.932  30.071  21.275  1.00  0.00     0.345 HD
ATOM     24  H   UNL A   1      30.492  30.592  21.930  1.00  0.00     0.345 HD
ATOM     25  H   UNL A   1      30.513  29.286  20.896  1.00  0.00     0.345 HD
ENDBRANCH  18  22
ENDBRANCH  14  17
ENDBRANCH   7  13
ENDBRANCH   6   7
ENDBRANCH   3   6
ENDBRANCH   1   2
BRANCH   1  26
ATOM     26  C   UNL A   1      37.938  19.660  24.964  1.00  0.00     0.042 C 
BRANCH  26  27
ATOM     27  C   UNL A   1      39.007  20.131  25.933  1.00  0.00     0.118 C 
BRANCH  27  28
ATOM     28  N   UNL A   1      40.129  19.207  26.001  1.00  0.00    -0.352 N 
ATOM     29  C   UNL A   1      41.472  19.457  26.125  1.00  0.00     0.251 C 
ATOM     30  H   UNL A   1      39.886  18.255  25.951  1.00  0.00     0.163 HD
ATOM     31  O   UNL A   1      42.270  18.532  25.958  1.00  0.00    -0.269 OA
BRANCH  29  32
ATOM     32  C   UNL A   1      41.984  20.814  26.435  1.00  0.00     0.039 A 
ATOM     33  C   UNL A   1      42.212  21.704  25.379  1.00  0.00     0.014 A 
ATOM     34  C   UNL A   1      42.291  21.206  27.740  1.00  0.00     0.014 A 
ATOM     35  C   UNL A   1      42.699  22.989  25.636  1.00  0.00     0.010 A 
ATOM     36  C   UNL A   1      42.685  22.517  28.005  1.00  0.00     0.010 A 
ATOM     37  C   UNL A   1      42.915  23.416  26.955  1.00  0.00    -0.014 A 
BRANCH  37  38
ATOM     38  C   UNL A   1      43.423  24.781  27.255  1.00  0.00     0.031 A 
ATOM     39  C   UNL A   1      42.486  25.832  27.791  1.00  0.00     0.074 A 
ATOM     40  C   UNL A   1      44.706  25.095  26.992  1.00  0.00     0.049 A 
ATOM     41  N   UNL A   1      42.711  27.098  28.039  1.00  0.00    -0.248 NA
ATOM     42  C   UNL A   1      41.100  25.409  28.054  1.00  0.00     0.031 C 
ATOM     43  C   UNL A   1      45.702  24.183  26.427  1.00  0.00     0.029 A 
ATOM     44  N   UNL A   1      45.391  26.273  27.155  1.00  0.00    -0.354 N 
ATOM     45  C   UNL A   1      41.496  27.622  28.460  1.00  0.00     0.074 A 
ATOM     46  C   UNL A   1      40.524  26.555  28.386  1.00  0.00     0.031 C 
ATOM     47  C   UNL A   1      46.873  24.828  26.311  1.00  0.00     0.029 A 
ATOM     48  C   UNL A   1      46.704  26.207  26.758  1.00  0.00     0.049 A 
ATOM     49  H   UNL A   1      44.980  27.090  27.521  1.00  0.00     0.167 HD
ATOM     50  C   UNL A   1      41.220  28.875  28.895  1.00  0.00     0.037 A 
ATOM     51  C   UNL A   1      47.661  27.154  26.750  1.00  0.00     0.037 A 
ATOM     52  C   UNL A   1      42.198  29.925  29.009  1.00  0.00     0.049 A 
ATOM     53  C   UNL A   1      47.334  28.534  27.253  1.00  0.00     0.074 A 
ATOM     54  C   UNL A   1      42.035  31.207  29.503  1.00  0.00     0.029 A 
ATOM     55  N   UNL A   1      43.527  29.808  28.627  1.00  0.00    -0.354 N 
ATOM     56  N   UNL A   1      46.197  29.000  27.712  1.00  0.00    -0.248 NA
ATOM     57  C   UNL A   1      48.425  29.519  27.246  1.00  0.00     0.031 C 
ATOM     58  C   UNL A   1      43.256  31.880  29.382  1.00  0.00     0.029 A 
ATOM     59  C   UNL A   1      44.191  31.002  28.858  1.00  0.00     0.049 A 
ATOM     60  H   UNL A   1      43.937  28.998  28.247  1.00  0.00     0.167 HD
ATOM     61  C   UNL A   1      46.442  30.318  28.073  1.00  0.00     0.074 A 
ATOM     62  C   UNL A   1      47.840  30.575  27.793  1.00  0.00     0.031 C 
ATOM     63  C   UNL A   1      45.585  31.235  28.585  1.00  0.00     0.037 A 
BRANCH  50  64
ATOM     64  C   UNL A   1      39.804  29.180  29.292  1.00  0.00     0.064 A 
ATOM     65  C   UNL A   1      39.379  29.094  30.627  1.00  0.00     0.173 A 
ATOM     66  C   UNL A   1      38.871  29.601  28.332  1.00  0.00     0.173 A 
ATOM     67  F   UNL A   1      40.229  28.685  31.581  1.00  0.00    -0.203 F 
ATOM     68  C   UNL A   1      38.066  29.389  30.981  1.00  0.00     0.198 A 
ATOM     69  C   UNL A   1      37.567  29.926  28.696  1.00  0.00     0.198 A 
ATOM     70  F   UNL A   1      39.226  29.707  27.043  1.00  0.00    -0.203 F 
ATOM     71  F   UNL A   1      37.671  29.252  32.254  1.00  0.00    -0.200 F 
ATOM     72  C   UNL A   1      37.163  29.813  30.018  1.00  0.00     0.200 A 
ATOM     73  F   UNL A   1      36.697  30.347  27.766  1.00  0.00    -0.200 F 
ATOM     74  F   UNL A   1      35.901  30.105  30.363  1.00  0.00    -0.200 F 
ENDBRANCH  50  64
BRANCH  51  75
ATOM     75  C   UNL A   1      49.030  26.824  26.274  1.00  0.00     0.064 A 
ATOM     76  C   UNL A   1      50.002  26.338  27.160  1.00  0.00     0.173 A 
ATOM     77  C   UNL A   1      49.399  26.992  24.931  1.00  0.00     0.173 A 
ATOM     78  F   UNL A   1      49.704  26.180  28.459  1.00  0.00    -0.203 F 
ATOM     79  C   UNL A   1      51.295  26.053  26.727  1.00  0.00     0.198 A 
ATOM     80  C   UNL A   1      50.684  26.680  24.493  1.00  0.00     0.198 A 
ATOM     81  F   UNL A   1      48.505  27.451  24.042  1.00  0.00    -0.203 F 
ATOM     82  F   UNL A   1      52.217  25.635  27.604  1.00  0.00    -0.200 F 
ATOM     83  C   UNL A   1      51.633  26.219  25.393  1.00  0.00     0.200 A 
ATOM     84  F   UNL A   1      51.004  26.830  23.201  1.00  0.00    -0.200 F 
ATOM     85  F   UNL A   1      52.876  25.943  24.975  1.00  0.00    -0.200 F 
ENDBRANCH  51  75
BRANCH  63  86
ATOM     86  C   UNL A   1      46.143  32.588  28.914  1.00  0.00     0.064 A 
ATOM     87  C   UNL A   1      46.716  32.864  30.164  1.00  0.00     0.173 A 
ATOM     88  C   UNL A   1      46.140  33.609  27.951  1.00  0.00     0.173 A 
ATOM     89  F   UNL A   1      46.729  31.926  31.122  1.00  0.00    -0.203 F 
ATOM     90  C   UNL A   1      47.246  34.120  30.445  1.00  0.00     0.198 A 
ATOM     91  C   UNL A   1      46.698  34.854  28.225  1.00  0.00     0.198 A 
ATOM     92  F   UNL A   1      45.610  33.393  26.738  1.00  0.00    -0.203 F 
ATOM     93  F   UNL A   1      47.749  34.377  31.660  1.00  0.00    -0.200 F 
ATOM     94  C   UNL A   1      47.244  35.111  29.473  1.00  0.00     0.200 A 
ATOM     95  F   UNL A   1      46.707  35.806  27.282  1.00  0.00    -0.200 F 
ATOM     96  F   UNL A   1      47.762  36.317  29.744  1.00  0.00    -0.200 F 
ENDBRANCH  63  86
ENDBRANCH  37  38
ENDBRANCH  29  32
ENDBRANCH  27  28
ENDBRANCH  26  27
ENDBRANCH   1  26
TORSDOF 14
ENDMDL
MODEL 3
REMARK VINA RESULT:     -12.3      5.378     11.006
REMARK SMILES [NH3+][C@H]1C=C[C@@H](C(=O)NC2(CC(=O)NCCCNC(=O)c3ccc(-c4c5nc(c(-c6c(F)c(F)c(F)c(F)c6F)c6ccc([nH]6)c(-c6c(F)c(F)c(F)c(F)c6F)c6nc(c(-c7c(F)c(F)c(F)c(F)c7F)c7ccc4[nH]7)C=C6)C=C5)cc3)CCCCC2)C1
REMARK SMILES IDX 14 1 13 2 11 3 12 4 10 6 9 7 83 8 87 9 84 10 86 11 85 12
REMARK SMILES IDX 8 13 6 14 7 15 5 17 2 18 3 19 88 20 4 21 1 22 15 26 16 27
REMARK SMILES IDX 17 28 18 29 19 31 20 32 21 33 82 34 22 35 81 36 23 37 24 38
REMARK SMILES IDX 25 39 75 40 26 41 80 42 74 43 76 44 27 45 79 46 73 47 72 48
REMARK SMILES IDX 28 50 60 51 40 52 59 53 41 54 44 55 58 56 77 57 42 58 43 59
REMARK SMILES IDX 57 61 78 62 45 63 29 64 30 65 38 66 31 67 32 68 36 69 39 70
REMARK SMILES IDX 33 71 34 72 37 73 35 74 61 75 62 76 70 77 63 78 64 79 68 80
REMARK SMILES IDX 71 81 65 82 66 83 69 84 67 85 46 86 47 87 55 88 48 89 49 90
REMARK SMILES IDX 53 91 56 92 50 93 51 94 54 95 52 96
REMARK H PARENT 13 5 8 16 1 23 1 24 1 25 17 30 76 49 44 60
REMARK Flexibility Score: inf
ROOT
ATOM      1  C   UNL A   1      31.348  30.689  26.302  1.00  0.00     0.117 C 
ENDROOT
BRANCH   1   2
ATOM      2  N   UNL A   1      32.403  30.288  25.392  1.00  0.00    -0.356 N 
ATOM      3  C   UNL A   1      32.539  29.157  24.652  1.00  0.00     0.222 C 
ATOM      4  O   UNL A   1      33.628  28.951  24.110  1.00  0.00    -0.275 OA
ATOM      5  H   UNL A   1      33.137  30.938  25.296  1.00  0.00     0.163 HD
BRANCH   3   6
ATOM      6  C   UNL A   1      31.396  28.177  24.453  1.00  0.00     0.128 C 
BRANCH   6   7
ATOM      7  C   UNL A   1      30.904  27.948  22.982  1.00  0.00     0.049 C 
ATOM      8  C   UNL A   1      30.476  29.330  22.415  1.00  0.00     0.029 C 
ATOM      9  C   UNL A   1      29.690  27.016  22.965  1.00  0.00     0.029 C 
ATOM     10  C   UNL A   1      29.173  29.879  23.012  1.00  0.00     0.002 C 
ATOM     11  C   UNL A   1      28.427  27.560  23.620  1.00  0.00     0.002 C 
ATOM     12  C   UNL A   1      28.030  28.871  22.963  1.00  0.00     0.000 C 
BRANCH   7  13
ATOM     13  N   UNL A   1      32.028  27.384  22.173  1.00  0.00    -0.350 N 
ATOM     14  C   UNL A   1      32.818  26.282  22.131  1.00  0.00     0.227 C 
ATOM     15  O   UNL A   1      33.656  26.287  21.214  1.00  0.00    -0.274 OA
ATOM     16  H   UNL A   1      32.270  28.004  21.448  1.00  0.00     0.164 HD
BRANCH  14  17
ATOM     17  C   UNL A   1      32.831  25.079  23.091  1.00  0.00     0.107 C 
ATOM     18  C   UNL A   1      32.329  22.671  23.164  1.00  0.00     0.205 C 
ATOM     19  C   UNL A   1      33.798  22.942  23.162  1.00  0.00     0.033 C 
ATOM     20  C   UNL A   1      31.701  24.056  22.898  1.00  0.00     0.087 C 
ATOM     21  C   UNL A   1      34.070  24.251  23.147  1.00  0.00    -0.012 C 
BRANCH  18  22
ATOM     22  N   UNL A   1      31.934  21.666  22.191  1.00  0.00    -0.352 N 
ATOM     23  H   UNL A   1      32.153  20.738  22.552  1.00  0.00     0.345 HD
ATOM     24  H   UNL A   1      32.441  21.820  21.319  1.00  0.00     0.345 HD
ATOM     25  H   UNL A   1      30.931  21.736  22.018  1.00  0.00     0.345 HD
ENDBRANCH  18  22
ENDBRANCH  14  17
ENDBRANCH   7  13
ENDBRANCH   6   7
ENDBRANCH   3   6
ENDBRANCH   1   2
BRANCH   1  26
ATOM     26  C   UNL A   1      31.358  32.203  26.501  1.00  0.00     0.042 C 
BRANCH  26  27
ATOM     27  C   UNL A   1      32.627  32.733  27.143  1.00  0.00     0.118 C 
BRANCH  27  28
ATOM     28  N   UNL A   1      32.480  34.108  27.593  1.00  0.00    -0.352 N 
ATOM     29  C   UNL A   1      33.112  34.775  28.612  1.00  0.00     0.251 C 
ATOM     30  H   UNL A   1      31.827  34.643  27.087  1.00  0.00     0.163 HD
ATOM     31  O   UNL A   1      32.688  35.883  28.953  1.00  0.00    -0.269 OA
BRANCH  29  32
ATOM     32  C   UNL A   1      34.274  34.189  29.322  1.00  0.00     0.039 A 
ATOM     33  C   UNL A   1      34.040  33.381  30.441  1.00  0.00     0.014 A 
ATOM     34  C   UNL A   1      35.588  34.461  28.936  1.00  0.00     0.014 A 
ATOM     35  C   UNL A   1      35.114  32.817  31.137  1.00  0.00     0.010 A 
ATOM     36  C   UNL A   1      36.653  33.824  29.570  1.00  0.00     0.010 A 
ATOM     37  C   UNL A   1      36.430  33.012  30.691  1.00  0.00    -0.014 A 
BRANCH  37  38
ATOM     38  C   UNL A   1      37.587  32.414  31.407  1.00  0.00     0.031 A 
ATOM     39  C   UNL A   1      38.350  31.274  30.784  1.00  0.00     0.074 A 
ATOM     40  C   UNL A   1      37.917  32.852  32.637  1.00  0.00     0.049 A 
ATOM     41  N   UNL A   1      39.334  30.564  31.278  1.00  0.00    -0.248 NA
ATOM     42  C   UNL A   1      37.930  30.855  29.437  1.00  0.00     0.031 C 
ATOM     43  C   UNL A   1      37.228  33.915  33.370  1.00  0.00     0.029 A 
ATOM     44  N   UNL A   1      38.910  32.448  33.495  1.00  0.00    -0.354 N 
ATOM     45  C   UNL A   1      39.629  29.607  30.316  1.00  0.00     0.074 A 
ATOM     46  C   UNL A   1      38.691  29.789  29.233  1.00  0.00     0.031 C 
ATOM     47  C   UNL A   1      37.831  34.094  34.556  1.00  0.00     0.029 A 
ATOM     48  C   UNL A   1      38.925  33.137  34.684  1.00  0.00     0.049 A 
ATOM     49  H   UNL A   1      39.551  31.733  33.279  1.00  0.00     0.167 HD
ATOM     50  C   UNL A   1      40.612  28.675  30.324  1.00  0.00     0.037 A 
ATOM     51  C   UNL A   1      39.727  33.005  35.757  1.00  0.00     0.037 A 
ATOM     52  C   UNL A   1      41.573  28.522  31.384  1.00  0.00     0.049 A 
ATOM     53  C   UNL A   1      40.823  31.973  35.734  1.00  0.00     0.074 A 
ATOM     54  C   UNL A   1      42.650  27.655  31.456  1.00  0.00     0.029 A 
ATOM     55  N   UNL A   1      41.575  29.261  32.558  1.00  0.00    -0.354 N 
ATOM     56  N   UNL A   1      41.134  31.117  34.790  1.00  0.00    -0.248 NA
ATOM     57  C   UNL A   1      41.684  31.893  36.922  1.00  0.00     0.031 C 
ATOM     58  C   UNL A   1      43.278  27.841  32.692  1.00  0.00     0.029 A 
ATOM     59  C   UNL A   1      42.624  28.857  33.369  1.00  0.00     0.049 A 
ATOM     60  H   UNL A   1      40.927  29.967  32.783  1.00  0.00     0.167 HD
ATOM     61  C   UNL A   1      42.240  30.419  35.257  1.00  0.00     0.074 A 
ATOM     62  C   UNL A   1      42.555  30.961  36.563  1.00  0.00     0.031 C 
ATOM     63  C   UNL A   1      42.929  29.416  34.660  1.00  0.00     0.037 A 
BRANCH  50  64
ATOM     64  C   UNL A   1      40.706  27.751  29.144  1.00  0.00     0.064 A 
ATOM     65  C   UNL A   1      39.855  26.644  29.007  1.00  0.00     0.173 A 
ATOM     66  C   UNL A   1      41.632  27.997  28.118  1.00  0.00     0.173 A 
ATOM     67  F   UNL A   1      38.960  26.357  29.965  1.00  0.00    -0.203 F 
ATOM     68  C   UNL A   1      39.947  25.801  27.902  1.00  0.00     0.198 A 
ATOM     69  C   UNL A   1      41.699  27.169  27.000  1.00  0.00     0.198 A 
ATOM     70  F   UNL A   1      42.465  29.045  28.195  1.00  0.00    -0.203 F 
ATOM     71  F   UNL A   1      39.156  24.722  27.818  1.00  0.00    -0.200 F 
ATOM     72  C   UNL A   1      40.862  26.068  26.896  1.00  0.00     0.200 A 
ATOM     73  F   UNL A   1      42.576  27.436  26.022  1.00  0.00    -0.200 F 
ATOM     74  F   UNL A   1      40.943  25.261  25.830  1.00  0.00    -0.200 F 
ENDBRANCH  50  64
BRANCH  51  75
ATOM     75  C   UNL A   1      39.545  33.892  36.935  1.00  0.00     0.064 A 
ATOM     76  C   UNL A   1      40.143  35.160  36.981  1.00  0.00     0.173 A 
ATOM     77  C   UNL A   1      38.778  33.494  38.040  1.00  0.00     0.173 A 
ATOM     78  F   UNL A   1      40.904  35.578  35.957  1.00  0.00    -0.203 F 
ATOM     79  C   UNL A   1      39.999  35.986  38.094  1.00  0.00     0.198 A 
ATOM     80  C   UNL A   1      38.612  34.331  39.141  1.00  0.00     0.198 A 
ATOM     81  F   UNL A   1      38.183  32.292  38.045  1.00  0.00    -0.203 F 
ATOM     82  F   UNL A   1      40.620  37.172  38.130  1.00  0.00    -0.200 F 
ATOM     83  C   UNL A   1      39.229  35.573  39.170  1.00  0.00     0.200 A 
ATOM     84  F   UNL A   1      37.857  33.935  40.174  1.00  0.00    -0.200 F 
ATOM     85  F   UNL A   1      39.089  36.368  40.239  1.00  0.00    -0.200 F 
ENDBRANCH  51  75
BRANCH  63  86
ATOM     86  C   UNL A   1      44.116  28.866  35.394  1.00  0.00     0.064 A 
ATOM     87  C   UNL A   1      45.402  29.399  35.218  1.00  0.00     0.173 A 
ATOM     88  C   UNL A   1      43.957  27.821  36.317  1.00  0.00     0.173 A 
ATOM     89  F   UNL A   1      45.608  30.388  34.337  1.00  0.00    -0.203 F 
ATOM     90  C   UNL A   1      46.489  28.888  35.922  1.00  0.00     0.198 A 
ATOM     91  C   UNL A   1      45.040  27.333  37.041  1.00  0.00     0.198 A 
ATOM     92  F   UNL A   1      42.746  27.282  36.526  1.00  0.00    -0.203 F 
ATOM     93  F   UNL A   1      47.716  29.381  35.706  1.00  0.00    -0.200 F 
ATOM     94  C   UNL A   1      46.306  27.862  36.838  1.00  0.00     0.200 A 
ATOM     95  F   UNL A   1      44.860  26.351  37.934  1.00  0.00    -0.200 F 
ATOM     96  F   UNL A   1      47.352  27.377  37.521  1.00  0.00    -0.200 F 
ENDBRANCH  63  86
ENDBRANCH  37  38
ENDBRANCH  29  32
ENDBRANCH  27  28
ENDBRANCH  26  27
ENDBRANCH   1  26
TORSDOF 14
ENDMDL
