MODEL 1
REMARK VINA RESULT:     -14.8      0.000      0.000
REMARK SMILES O=C(NCCCNC(=O)c1ccc(-c2c3nc(c(-c4c(F)c(F)c(F)c(F)c4F)c4ccc([nH]4)c(-c4c(F)c(F)c(F)c(F)c4F)c4nc(c(-c5c(F)c(F)c(F)c(F)c5F)c5ccc2[nH]5)C=C4)C=C3)cc1)C1=Cc2cc(Cl)cc(-c3ccc(CO)cc3)c2O[C@@H]1C(F)(F)F
REMARK SMILES IDX 4 1 3 2 1 3 2 4 73 6 74 7 91 8 75 9 90 10 76 11 89 12 77 13
REMARK SMILES IDX 80 14 78 15 79 16 92 17 93 18 94 19 95 20 81 21 82 22 88 23
REMARK SMILES IDX 83 24 87 25 84 26 85 27 86 28 5 30 6 31 7 32 8 33 9 35 10 36
REMARK SMILES IDX 11 37 72 38 12 39 71 40 13 41 14 42 15 43 65 44 16 45 70 46
REMARK SMILES IDX 64 47 66 48 17 49 69 50 63 51 62 52 18 54 50 55 30 56 49 57
REMARK SMILES IDX 31 58 34 59 48 60 67 61 32 62 33 63 47 65 68 66 35 67 19 68
REMARK SMILES IDX 20 69 28 70 21 71 22 72 26 73 29 74 23 75 24 76 27 77 25 78
REMARK SMILES IDX 51 79 52 80 60 81 53 82 54 83 58 84 61 85 55 86 56 87 59 88
REMARK SMILES IDX 57 89 36 90 37 91 45 92 38 93 39 94 43 95 46 96 40 97 41 98
REMARK SMILES IDX 44 99 42 100
REMARK H PARENT 3 5 86 29 7 34 66 53 34 64
REMARK Flexibility Score: inf
ROOT
ATOM      1  C   UNL A   1      32.002  26.700  26.081  1.00  0.00     0.118 C 
ENDROOT
BRANCH   1   2
ATOM      2  N   UNL A   1      31.491  25.566  26.857  1.00  0.00    -0.352 N 
ATOM      3  O   UNL A   1      31.421  23.428  27.616  1.00  0.00    -0.270 OA
ATOM      4  C   UNL A   1      31.790  24.230  26.770  1.00  0.00     0.251 C 
ATOM      5  H   UNL A   1      30.830  25.800  27.549  1.00  0.00     0.163 HD
BRANCH   4   6
ATOM      6  C   UNL A   1      32.633  23.818  25.641  1.00  0.00     0.067 C 
ATOM      7  C   UNL A   1      33.948  24.052  25.726  1.00  0.00     0.025 C 
ATOM      8  C   UNL A   1      32.044  22.870  24.649  1.00  0.00     0.314 C 
ATOM      9  C   UNL A   1      34.788  22.986  25.174  1.00  0.00     0.019 A 
ATOM     10  O   UNL A   1      32.825  21.653  24.574  1.00  0.00    -0.475 OA
ATOM     11  C   UNL A   1      36.163  23.048  25.410  1.00  0.00     0.032 A 
ATOM     12  C   UNL A   1      34.179  21.765  24.806  1.00  0.00     0.135 A 
ATOM     13  C   UNL A   1      36.912  21.878  25.381  1.00  0.00     0.042 A 
ATOM     14  C   UNL A   1      34.919  20.572  24.848  1.00  0.00     0.026 A 
ATOM     15  Cl  UNL A   1      38.572  21.928  25.829  1.00  0.00    -0.084 Cl
ATOM     16  C   UNL A   1      36.297  20.651  25.130  1.00  0.00     0.033 A 
BRANCH   8  17
ATOM     17  C   UNL A   1      31.843  23.528  23.272  1.00  0.00     0.429 C 
ATOM     18  F   UNL A   1      32.432  22.801  22.291  1.00  0.00    -0.167 F 
ATOM     19  F   UNL A   1      30.531  23.623  22.951  1.00  0.00    -0.167 F 
ATOM     20  F   UNL A   1      32.362  24.776  23.210  1.00  0.00    -0.167 F 
ENDBRANCH   8  17
BRANCH  14  21
ATOM     21  C   UNL A   1      34.276  19.248  24.847  1.00  0.00    -0.015 A 
ATOM     22  C   UNL A   1      33.072  19.074  25.549  1.00  0.00     0.009 A 
ATOM     23  C   UNL A   1      34.848  18.129  24.241  1.00  0.00     0.009 A 
ATOM     24  C   UNL A   1      32.502  17.818  25.731  1.00  0.00     0.007 A 
ATOM     25  C   UNL A   1      34.269  16.861  24.405  1.00  0.00     0.007 A 
ATOM     26  C   UNL A   1      33.110  16.693  25.176  1.00  0.00    -0.023 A 
BRANCH  26  27
ATOM     27  C   UNL A   1      32.558  15.330  25.490  1.00  0.00     0.191 C 
BRANCH  27  28
ATOM     28  O   UNL A   1      33.576  14.343  25.362  1.00  0.00    -0.392 OA
ATOM     29  H   UNL A   1      33.185  13.460  25.461  1.00  0.00     0.211 HD
ENDBRANCH  27  28
ENDBRANCH  26  27
ENDBRANCH  14  21
ENDBRANCH   4   6
ENDBRANCH   1   2
BRANCH   1  30
ATOM     30  C   UNL A   1      31.784  28.041  26.788  1.00  0.00     0.042 C 
BRANCH  30  31
ATOM     31  C   UNL A   1      32.468  29.203  26.070  1.00  0.00     0.118 C 
BRANCH  31  32
ATOM     32  N   UNL A   1      32.254  30.507  26.672  1.00  0.00    -0.352 N 
ATOM     33  C   UNL A   1      33.154  31.364  27.275  1.00  0.00     0.251 C 
ATOM     34  H   UNL A   1      31.324  30.830  26.646  1.00  0.00     0.163 HD
ATOM     35  O   UNL A   1      32.757  32.440  27.716  1.00  0.00    -0.269 OA
BRANCH  33  36
ATOM     36  C   UNL A   1      34.562  30.958  27.519  1.00  0.00     0.039 A 
ATOM     37  C   UNL A   1      35.504  31.976  27.719  1.00  0.00     0.014 A 
ATOM     38  C   UNL A   1      34.951  29.630  27.670  1.00  0.00     0.014 A 
ATOM     39  C   UNL A   1      36.765  31.670  28.231  1.00  0.00     0.010 A 
ATOM     40  C   UNL A   1      36.162  29.331  28.284  1.00  0.00     0.010 A 
ATOM     41  C   UNL A   1      37.061  30.354  28.611  1.00  0.00    -0.014 A 
BRANCH  41  42
ATOM     42  C   UNL A   1      38.251  30.034  29.435  1.00  0.00     0.031 A 
ATOM     43  C   UNL A   1      39.280  29.062  28.939  1.00  0.00     0.074 A 
ATOM     44  C   UNL A   1      38.321  30.528  30.689  1.00  0.00     0.049 A 
ATOM     45  N   UNL A   1      40.313  28.561  29.564  1.00  0.00    -0.248 NA
ATOM     46  C   UNL A   1      39.093  28.545  27.574  1.00  0.00     0.031 C 
ATOM     47  C   UNL A   1      37.321  31.400  31.312  1.00  0.00     0.029 A 
ATOM     48  N   UNL A   1      39.263  30.356  31.670  1.00  0.00    -0.354 N 
ATOM     49  C   UNL A   1      40.875  27.644  28.685  1.00  0.00     0.074 A 
ATOM     50  C   UNL A   1      40.040  27.622  27.504  1.00  0.00     0.031 C 
ATOM     51  C   UNL A   1      37.721  31.718  32.553  1.00  0.00     0.029 A 
ATOM     52  C   UNL A   1      38.985  31.044  32.827  1.00  0.00     0.049 A 
ATOM     53  H   UNL A   1      40.064  29.794  31.557  1.00  0.00     0.167 HD
ATOM     54  C   UNL A   1      42.000  26.908  28.845  1.00  0.00     0.037 A 
ATOM     55  C   UNL A   1      39.676  31.124  33.979  1.00  0.00     0.037 A 
ATOM     56  C   UNL A   1      42.848  26.983  30.005  1.00  0.00     0.049 A 
ATOM     57  C   UNL A   1      40.972  30.373  34.092  1.00  0.00     0.074 A 
ATOM     58  C   UNL A   1      44.051  26.343  30.241  1.00  0.00     0.029 A 
ATOM     59  N   UNL A   1      42.581  27.762  31.123  1.00  0.00    -0.354 N 
ATOM     60  N   UNL A   1      41.535  29.565  33.225  1.00  0.00    -0.248 NA
ATOM     61  C   UNL A   1      41.735  30.552  35.333  1.00  0.00     0.031 C 
ATOM     62  C   UNL A   1      44.502  26.720  31.512  1.00  0.00     0.029 A 
ATOM     63  C   UNL A   1      43.597  27.619  32.052  1.00  0.00     0.049 A 
ATOM     64  H   UNL A   1      41.787  28.332  31.236  1.00  0.00     0.167 HD
ATOM     65  C   UNL A   1      42.725  29.154  33.805  1.00  0.00     0.074 A 
ATOM     66  C   UNL A   1      42.812  29.816  35.091  1.00  0.00     0.031 C 
ATOM     67  C   UNL A   1      43.659  28.300  33.320  1.00  0.00     0.037 A 
BRANCH  54  68
ATOM     68  C   UNL A   1      42.373  25.971  27.732  1.00  0.00     0.064 A 
ATOM     69  C   UNL A   1      41.828  24.680  27.646  1.00  0.00     0.173 A 
ATOM     70  C   UNL A   1      43.287  26.363  26.744  1.00  0.00     0.173 A 
ATOM     71  F   UNL A   1      40.960  24.251  28.574  1.00  0.00    -0.203 F 
ATOM     72  C   UNL A   1      42.217  23.804  26.637  1.00  0.00     0.198 A 
ATOM     73  C   UNL A   1      43.651  25.494  25.718  1.00  0.00     0.198 A 
ATOM     74  F   UNL A   1      43.835  27.588  26.776  1.00  0.00    -0.203 F 
ATOM     75  F   UNL A   1      41.733  22.553  26.614  1.00  0.00    -0.200 F 
ATOM     76  C   UNL A   1      43.125  24.211  25.672  1.00  0.00     0.200 A 
ATOM     77  F   UNL A   1      44.523  25.893  24.781  1.00  0.00    -0.200 F 
ATOM     78  F   UNL A   1      43.503  23.364  24.704  1.00  0.00    -0.200 F 
ENDBRANCH  54  68
BRANCH  55  79
ATOM     79  C   UNL A   1      39.183  31.989  35.082  1.00  0.00     0.064 A 
ATOM     80  C   UNL A   1      38.454  31.442  36.146  1.00  0.00     0.173 A 
ATOM     81  C   UNL A   1      39.446  33.366  35.111  1.00  0.00     0.173 A 
ATOM     82  F   UNL A   1      38.165  30.132  36.157  1.00  0.00    -0.203 F 
ATOM     83  C   UNL A   1      37.990  32.242  37.190  1.00  0.00     0.198 A 
ATOM     84  C   UNL A   1      39.003  34.161  36.167  1.00  0.00     0.198 A 
ATOM     85  F   UNL A   1      40.150  33.936  34.123  1.00  0.00    -0.203 F 
ATOM     86  F   UNL A   1      37.264  31.698  38.176  1.00  0.00    -0.200 F 
ATOM     87  C   UNL A   1      38.269  33.599  37.202  1.00  0.00     0.200 A 
ATOM     88  F   UNL A   1      39.289  35.470  36.183  1.00  0.00    -0.200 F 
ATOM     89  F   UNL A   1      37.830  34.367  38.208  1.00  0.00    -0.200 F 
ENDBRANCH  55  79
BRANCH  67  90
ATOM     90  C   UNL A   1      44.865  28.059  34.176  1.00  0.00     0.064 A 
ATOM     91  C   UNL A   1      45.996  28.883  34.094  1.00  0.00     0.173 A 
ATOM     92  C   UNL A   1      44.868  27.019  35.117  1.00  0.00     0.173 A 
ATOM     93  F   UNL A   1      46.042  29.879  33.197  1.00  0.00    -0.203 F 
ATOM     94  C   UNL A   1      47.099  28.662  34.914  1.00  0.00     0.198 A 
ATOM     95  C   UNL A   1      45.963  26.816  35.951  1.00  0.00     0.198 A 
ATOM     96  F   UNL A   1      43.806  26.208  35.232  1.00  0.00    -0.203 F 
ATOM     97  F   UNL A   1      48.185  29.436  34.794  1.00  0.00    -0.200 F 
ATOM     98  C   UNL A   1      47.078  27.635  35.846  1.00  0.00     0.200 A 
ATOM     99  F   UNL A   1      45.939  25.830  36.857  1.00  0.00    -0.200 F 
ATOM    100  F   UNL A   1      48.137  27.427  36.639  1.00  0.00    -0.200 F 
ENDBRANCH  67  90
ENDBRANCH  41  42
ENDBRANCH  33  36
ENDBRANCH  31  32
ENDBRANCH  30  31
ENDBRANCH   1  30
TORSDOF 14
ENDMDL
MODEL 2
REMARK VINA RESULT:     -14.8      0.171      1.161
REMARK SMILES O=C(NCCCNC(=O)c1ccc(-c2c3nc(c(-c4c(F)c(F)c(F)c(F)c4F)c4ccc([nH]4)c(-c4c(F)c(F)c(F)c(F)c4F)c4nc(c(-c5c(F)c(F)c(F)c(F)c5F)c5ccc2[nH]5)C=C4)C=C3)cc1)C1=Cc2cc(Cl)cc(-c3ccc(CO)cc3)c2O[C@@H]1C(F)(F)F
REMARK SMILES IDX 4 1 3 2 1 3 2 4 73 6 74 7 91 8 75 9 90 10 76 11 89 12 77 13
REMARK SMILES IDX 80 14 78 15 79 16 92 17 93 18 94 19 95 20 81 21 82 22 88 23
REMARK SMILES IDX 83 24 87 25 84 26 85 27 86 28 5 30 6 31 7 32 8 33 9 35 10 36
REMARK SMILES IDX 11 37 72 38 12 39 71 40 13 41 14 42 15 43 65 44 16 45 70 46
REMARK SMILES IDX 64 47 66 48 17 49 69 50 63 51 62 52 18 54 50 55 30 56 49 57
REMARK SMILES IDX 31 58 34 59 48 60 67 61 32 62 33 63 47 65 68 66 35 67 19 68
REMARK SMILES IDX 20 69 28 70 21 71 22 72 26 73 29 74 23 75 24 76 27 77 25 78
REMARK SMILES IDX 51 79 52 80 60 81 53 82 54 83 58 84 61 85 55 86 56 87 59 88
REMARK SMILES IDX 57 89 36 90 37 91 45 92 38 93 39 94 43 95 46 96 40 97 41 98
REMARK SMILES IDX 44 99 42 100
REMARK H PARENT 3 5 86 29 7 34 66 53 34 64
REMARK Flexibility Score: inf
ROOT
ATOM      1  C   UNL A   1      31.852  26.655  26.114  1.00  0.00     0.118 C 
ENDROOT
BRANCH   1   2
ATOM      2  N   UNL A   1      31.363  25.507  26.883  1.00  0.00    -0.352 N 
ATOM      3  O   UNL A   1      31.337  23.365  27.633  1.00  0.00    -0.270 OA
ATOM      4  C   UNL A   1      31.692  24.179  26.792  1.00  0.00     0.251 C 
ATOM      5  H   UNL A   1      30.694  25.724  27.573  1.00  0.00     0.163 HD
BRANCH   4   6
ATOM      6  C   UNL A   1      32.549  23.790  25.665  1.00  0.00     0.067 C 
ATOM      7  C   UNL A   1      33.858  24.045  25.759  1.00  0.00     0.025 C 
ATOM      8  C   UNL A   1      31.981  22.840  24.662  1.00  0.00     0.314 C 
ATOM      9  C   UNL A   1      34.720  22.998  25.204  1.00  0.00     0.019 A 
ATOM     10  O   UNL A   1      32.784  21.637  24.582  1.00  0.00    -0.475 OA
ATOM     11  C   UNL A   1      36.093  23.082  25.449  1.00  0.00     0.032 A 
ATOM     12  C   UNL A   1      34.134  21.770  24.823  1.00  0.00     0.135 A 
ATOM     13  C   UNL A   1      36.862  21.925  25.415  1.00  0.00     0.042 A 
ATOM     14  C   UNL A   1      34.895  20.590  24.860  1.00  0.00     0.026 A 
ATOM     15  Cl  UNL A   1      38.518  22.000  25.874  1.00  0.00    -0.084 Cl
ATOM     16  C   UNL A   1      36.269  20.690  25.151  1.00  0.00     0.033 A 
BRANCH   8  17
ATOM     17  C   UNL A   1      31.778  23.505  23.289  1.00  0.00     0.429 C 
ATOM     18  F   UNL A   1      30.484  23.423  22.891  1.00  0.00    -0.167 F 
ATOM     19  F   UNL A   1      32.092  24.822  23.321  1.00  0.00    -0.167 F 
ATOM     20  F   UNL A   1      32.531  22.938  22.318  1.00  0.00    -0.167 F 
ENDBRANCH   8  17
BRANCH  14  21
ATOM     21  C   UNL A   1      34.274  19.255  24.845  1.00  0.00    -0.015 A 
ATOM     22  C   UNL A   1      33.035  19.071  25.482  1.00  0.00     0.009 A 
ATOM     23  C   UNL A   1      34.897  18.136  24.290  1.00  0.00     0.009 A 
ATOM     24  C   UNL A   1      32.477  17.808  25.652  1.00  0.00     0.007 A 
ATOM     25  C   UNL A   1      34.331  16.862  24.442  1.00  0.00     0.007 A 
ATOM     26  C   UNL A   1      33.134  16.686  25.150  1.00  0.00    -0.023 A 
BRANCH  26  27
ATOM     27  C   UNL A   1      32.588  15.318  25.456  1.00  0.00     0.191 C 
BRANCH  27  28
ATOM     28  O   UNL A   1      33.629  14.348  25.408  1.00  0.00    -0.392 OA
ATOM     29  H   UNL A   1      34.489  14.796  25.433  1.00  0.00     0.211 HD
ENDBRANCH  27  28
ENDBRANCH  26  27
ENDBRANCH  14  21
ENDBRANCH   4   6
ENDBRANCH   1   2
BRANCH   1  30
ATOM     30  C   UNL A   1      31.950  27.929  26.958  1.00  0.00     0.042 C 
BRANCH  30  31
ATOM     31  C   UNL A   1      32.646  29.072  26.222  1.00  0.00     0.118 C 
BRANCH  31  32
ATOM     32  N   UNL A   1      32.413  30.393  26.779  1.00  0.00    -0.352 N 
ATOM     33  C   UNL A   1      33.302  31.287  27.342  1.00  0.00     0.251 C 
ATOM     34  H   UNL A   1      31.477  30.698  26.750  1.00  0.00     0.163 HD
ATOM     35  O   UNL A   1      32.888  32.371  27.748  1.00  0.00    -0.269 OA
BRANCH  33  36
ATOM     36  C   UNL A   1      34.719  30.916  27.588  1.00  0.00     0.039 A 
ATOM     37  C   UNL A   1      35.624  31.954  27.849  1.00  0.00     0.014 A 
ATOM     38  C   UNL A   1      35.150  29.596  27.682  1.00  0.00     0.014 A 
ATOM     39  C   UNL A   1      36.888  31.665  28.365  1.00  0.00     0.010 A 
ATOM     40  C   UNL A   1      36.361  29.308  28.298  1.00  0.00     0.010 A 
ATOM     41  C   UNL A   1      37.222  30.342  28.687  1.00  0.00    -0.014 A 
BRANCH  41  42
ATOM     42  C   UNL A   1      38.411  30.023  29.513  1.00  0.00     0.031 A 
ATOM     43  C   UNL A   1      39.451  29.068  29.008  1.00  0.00     0.074 A 
ATOM     44  C   UNL A   1      38.470  30.500  30.773  1.00  0.00     0.049 A 
ATOM     45  N   UNL A   1      40.486  28.568  29.632  1.00  0.00    -0.248 NA
ATOM     46  C   UNL A   1      39.276  28.568  27.636  1.00  0.00     0.031 C 
ATOM     47  C   UNL A   1      37.458  31.354  31.403  1.00  0.00     0.029 A 
ATOM     48  N   UNL A   1      39.408  30.324  31.758  1.00  0.00    -0.354 N 
ATOM     49  C   UNL A   1      41.061  27.669  28.744  1.00  0.00     0.074 A 
ATOM     50  C   UNL A   1      40.232  27.655  27.558  1.00  0.00     0.031 C 
ATOM     51  C   UNL A   1      37.849  31.659  32.651  1.00  0.00     0.029 A 
ATOM     52  C   UNL A   1      39.117  30.993  32.922  1.00  0.00     0.049 A 
ATOM     53  H   UNL A   1      40.215  29.771  31.640  1.00  0.00     0.167 HD
ATOM     54  C   UNL A   1      42.192  26.941  28.899  1.00  0.00     0.037 A 
ATOM     55  C   UNL A   1      39.802  31.064  34.079  1.00  0.00     0.037 A 
ATOM     56  C   UNL A   1      43.034  27.008  30.064  1.00  0.00     0.049 A 
ATOM     57  C   UNL A   1      41.105  30.324  34.188  1.00  0.00     0.074 A 
ATOM     58  C   UNL A   1      44.242  26.377  30.298  1.00  0.00     0.029 A 
ATOM     59  N   UNL A   1      42.753  27.769  31.191  1.00  0.00    -0.354 N 
ATOM     60  N   UNL A   1      41.680  29.533  33.313  1.00  0.00    -0.248 NA
ATOM     61  C   UNL A   1      41.860  30.492  35.435  1.00  0.00     0.031 C 
ATOM     62  C   UNL A   1      44.683  26.740  31.577  1.00  0.00     0.029 A 
ATOM     63  C   UNL A   1      43.766  27.623  32.124  1.00  0.00     0.049 A 
ATOM     64  H   UNL A   1      41.953  28.330  31.309  1.00  0.00     0.167 HD
ATOM     65  C   UNL A   1      42.871  29.126  33.893  1.00  0.00     0.074 A 
ATOM     66  C   UNL A   1      42.945  29.771  35.189  1.00  0.00     0.031 C 
ATOM     67  C   UNL A   1      43.816  28.288  33.401  1.00  0.00     0.037 A 
BRANCH  54  68
ATOM     68  C   UNL A   1      42.580  26.023  27.776  1.00  0.00     0.064 A 
ATOM     69  C   UNL A   1      42.053  24.726  27.672  1.00  0.00     0.173 A 
ATOM     70  C   UNL A   1      43.490  26.440  26.794  1.00  0.00     0.173 A 
ATOM     71  F   UNL A   1      41.190  24.273  28.593  1.00  0.00    -0.203 F 
ATOM     72  C   UNL A   1      42.456  23.868  26.653  1.00  0.00     0.198 A 
ATOM     73  C   UNL A   1      43.868  25.589  25.758  1.00  0.00     0.198 A 
ATOM     74  F   UNL A   1      44.022  27.672  26.842  1.00  0.00    -0.203 F 
ATOM     75  F   UNL A   1      41.989  22.611  26.614  1.00  0.00    -0.200 F 
ATOM     76  C   UNL A   1      43.359  24.300  25.695  1.00  0.00     0.200 A 
ATOM     77  F   UNL A   1      44.736  26.011  24.827  1.00  0.00    -0.200 F 
ATOM     78  F   UNL A   1      43.751  23.470  24.718  1.00  0.00    -0.200 F 
ENDBRANCH  54  68
BRANCH  55  79
ATOM     79  C   UNL A   1      39.295  31.908  35.191  1.00  0.00     0.064 A 
ATOM     80  C   UNL A   1      39.565  33.283  35.224  1.00  0.00     0.173 A 
ATOM     81  C   UNL A   1      38.517  31.370  36.226  1.00  0.00     0.173 A 
ATOM     82  F   UNL A   1      40.316  33.841  34.263  1.00  0.00    -0.203 F 
ATOM     83  C   UNL A   1      39.090  34.087  36.260  1.00  0.00     0.198 A 
ATOM     84  C   UNL A   1      38.022  32.180  37.249  1.00  0.00     0.198 A 
ATOM     85  F   UNL A   1      38.221  30.063  36.235  1.00  0.00    -0.203 F 
ATOM     86  F   UNL A   1      39.393  35.392  36.285  1.00  0.00    -0.200 F 
ATOM     87  C   UNL A   1      38.315  33.535  37.268  1.00  0.00     0.200 A 
ATOM     88  F   UNL A   1      37.261  31.645  38.214  1.00  0.00    -0.200 F 
ATOM     89  F   UNL A   1      37.854  34.309  38.260  1.00  0.00    -0.200 F 
ENDBRANCH  55  79
BRANCH  67  90
ATOM     90  C   UNL A   1      45.019  28.046  34.260  1.00  0.00     0.064 A 
ATOM     91  C   UNL A   1      46.145  28.878  34.191  1.00  0.00     0.173 A 
ATOM     92  C   UNL A   1      45.025  26.997  35.191  1.00  0.00     0.173 A 
ATOM     93  F   UNL A   1      46.188  29.883  33.303  1.00  0.00    -0.203 F 
ATOM     94  C   UNL A   1      47.246  28.656  35.013  1.00  0.00     0.198 A 
ATOM     95  C   UNL A   1      46.118  26.794  36.028  1.00  0.00     0.198 A 
ATOM     96  F   UNL A   1      43.968  26.178  35.294  1.00  0.00    -0.203 F 
ATOM     97  F   UNL A   1      48.328  29.440  34.906  1.00  0.00    -0.200 F 
ATOM     98  C   UNL A   1      47.228  27.620  35.935  1.00  0.00     0.200 A 
ATOM     99  F   UNL A   1      46.097  25.798  36.925  1.00  0.00    -0.200 F 
ATOM    100  F   UNL A   1      48.285  27.413  36.731  1.00  0.00    -0.200 F 
ENDBRANCH  67  90
ENDBRANCH  41  42
ENDBRANCH  33  36
ENDBRANCH  31  32
ENDBRANCH  30  31
ENDBRANCH   1  30
TORSDOF 14
ENDMDL
MODEL 3
REMARK VINA RESULT:     -14.7      0.505      7.188
REMARK SMILES O=C(NCCCNC(=O)c1ccc(-c2c3nc(c(-c4c(F)c(F)c(F)c(F)c4F)c4ccc([nH]4)c(-c4c(F)c(F)c(F)c(F)c4F)c4nc(c(-c5c(F)c(F)c(F)c(F)c5F)c5ccc2[nH]5)C=C4)C=C3)cc1)C1=Cc2cc(Cl)cc(-c3ccc(CO)cc3)c2O[C@@H]1C(F)(F)F
REMARK SMILES IDX 4 1 3 2 1 3 2 4 73 6 74 7 91 8 75 9 90 10 76 11 89 12 77 13
REMARK SMILES IDX 80 14 78 15 79 16 92 17 93 18 94 19 95 20 81 21 82 22 88 23
REMARK SMILES IDX 83 24 87 25 84 26 85 27 86 28 5 30 6 31 7 32 8 33 9 35 10 36
REMARK SMILES IDX 11 37 72 38 12 39 71 40 13 41 14 42 15 43 65 44 16 45 70 46
REMARK SMILES IDX 64 47 66 48 17 49 69 50 63 51 62 52 18 54 50 55 30 56 49 57
REMARK SMILES IDX 31 58 34 59 48 60 67 61 32 62 33 63 47 65 68 66 35 67 19 68
REMARK SMILES IDX 20 69 28 70 21 71 22 72 26 73 29 74 23 75 24 76 27 77 25 78
REMARK SMILES IDX 51 79 52 80 60 81 53 82 54 83 58 84 61 85 55 86 56 87 59 88
REMARK SMILES IDX 57 89 36 90 37 91 45 92 38 93 39 94 43 95 46 96 40 97 41 98
REMARK SMILES IDX 44 99 42 100
REMARK H PARENT 3 5 86 29 7 34 66 53 34 64
REMARK Flexibility Score: inf
ROOT
ATOM      1  C   UNL A   1      31.844  26.800  26.022  1.00  0.00     0.118 C 
ENDROOT
BRANCH   1   2
ATOM      2  N   UNL A   1      31.378  25.662  26.820  1.00  0.00    -0.352 N 
ATOM      3  O   UNL A   1      31.398  23.540  27.626  1.00  0.00    -0.270 OA
ATOM      4  C   UNL A   1      31.737  24.340  26.764  1.00  0.00     0.251 C 
ATOM      5  H   UNL A   1      30.702  25.882  27.501  1.00  0.00     0.163 HD
BRANCH   4   6
ATOM      6  C   UNL A   1      32.607  23.941  25.651  1.00  0.00     0.067 C 
ATOM      7  C   UNL A   1      33.917  24.183  25.765  1.00  0.00     0.025 C 
ATOM      8  C   UNL A   1      32.045  22.994  24.641  1.00  0.00     0.314 C 
ATOM      9  C   UNL A   1      34.777  23.127  25.224  1.00  0.00     0.019 A 
ATOM     10  O   UNL A   1      32.838  21.784  24.575  1.00  0.00    -0.475 OA
ATOM     11  C   UNL A   1      36.147  23.199  25.489  1.00  0.00     0.032 A 
ATOM     12  C   UNL A   1      34.185  21.905  24.836  1.00  0.00     0.135 A 
ATOM     13  C   UNL A   1      36.905  22.034  25.469  1.00  0.00     0.042 A 
ATOM     14  C   UNL A   1      34.934  20.717  24.886  1.00  0.00     0.026 A 
ATOM     15  Cl  UNL A   1      38.555  22.094  25.952  1.00  0.00    -0.084 Cl
ATOM     16  C   UNL A   1      36.305  20.804  25.198  1.00  0.00     0.033 A 
BRANCH   8  17
ATOM     17  C   UNL A   1      31.868  23.659  23.264  1.00  0.00     0.429 C 
ATOM     18  F   UNL A   1      32.524  22.969  22.299  1.00  0.00    -0.167 F 
ATOM     19  F   UNL A   1      30.566  23.703  22.895  1.00  0.00    -0.167 F 
ATOM     20  F   UNL A   1      32.335  24.929  23.235  1.00  0.00    -0.167 F 
ENDBRANCH   8  17
BRANCH  14  21
ATOM     21  C   UNL A   1      34.300  19.388  24.864  1.00  0.00    -0.015 A 
ATOM     22  C   UNL A   1      33.090  19.197  25.551  1.00  0.00     0.009 A 
ATOM     23  C   UNL A   1      34.887  18.280  24.251  1.00  0.00     0.009 A 
ATOM     24  C   UNL A   1      32.529  17.935  25.713  1.00  0.00     0.007 A 
ATOM     25  C   UNL A   1      34.317  17.006  24.395  1.00  0.00     0.007 A 
ATOM     26  C   UNL A   1      33.151  16.821  25.152  1.00  0.00    -0.023 A 
BRANCH  26  27
ATOM     27  C   UNL A   1      32.607  15.450  25.445  1.00  0.00     0.191 C 
BRANCH  27  28
ATOM     28  O   UNL A   1      33.647  14.480  25.376  1.00  0.00    -0.392 OA
ATOM     29  H   UNL A   1      34.477  14.913  25.124  1.00  0.00     0.211 HD
ENDBRANCH  27  28
ENDBRANCH  26  27
ENDBRANCH  14  21
ENDBRANCH   4   6
ENDBRANCH   1   2
BRANCH   1  30
ATOM     30  C   UNL A   1      31.779  28.122  26.791  1.00  0.00     0.042 C 
BRANCH  30  31
ATOM     31  C   UNL A   1      32.641  29.214  26.161  1.00  0.00     0.118 C 
BRANCH  31  32
ATOM     32  N   UNL A   1      32.470  30.538  26.733  1.00  0.00    -0.352 N 
ATOM     33  C   UNL A   1      33.394  31.371  27.334  1.00  0.00     0.251 C 
ATOM     34  H   UNL A   1      31.554  30.898  26.684  1.00  0.00     0.163 HD
ATOM     35  O   UNL A   1      33.032  32.471  27.746  1.00  0.00    -0.269 OA
BRANCH  33  36
ATOM     36  C   UNL A   1      34.779  30.915  27.610  1.00  0.00     0.039 A 
ATOM     37  C   UNL A   1      35.714  31.883  28.001  1.00  0.00     0.014 A 
ATOM     38  C   UNL A   1      35.148  29.572  27.610  1.00  0.00     0.014 A 
ATOM     39  C   UNL A   1      36.937  31.492  28.547  1.00  0.00     0.010 A 
ATOM     40  C   UNL A   1      36.314  29.176  28.254  1.00  0.00     0.010 A 
ATOM     41  C   UNL A   1      37.198  30.133  28.769  1.00  0.00    -0.014 A 
BRANCH  41  42
ATOM     42  C   UNL A   1      38.330  29.690  29.617  1.00  0.00     0.031 A 
ATOM     43  C   UNL A   1      38.484  30.216  31.013  1.00  0.00     0.074 A 
ATOM     44  C   UNL A   1      39.287  28.915  29.066  1.00  0.00     0.049 A 
ATOM     45  N   UNL A   1      39.469  30.048  31.856  1.00  0.00    -0.248 NA
ATOM     46  C   UNL A   1      37.410  31.089  31.510  1.00  0.00     0.031 C 
ATOM     47  C   UNL A   1      39.292  28.432  27.682  1.00  0.00     0.029 A 
ATOM     48  N   UNL A   1      40.449  28.411  29.592  1.00  0.00    -0.354 N 
ATOM     49  C   UNL A   1      39.152  30.823  32.964  1.00  0.00     0.074 A 
ATOM     50  C   UNL A   1      37.909  31.500  32.666  1.00  0.00     0.031 C 
ATOM     51  C   UNL A   1      40.379  27.670  27.481  1.00  0.00     0.029 A 
ATOM     52  C   UNL A   1      41.166  27.642  28.708  1.00  0.00     0.049 A 
ATOM     53  H   UNL A   1      40.740  28.582  30.518  1.00  0.00     0.167 HD
ATOM     54  C   UNL A   1      39.828  30.937  34.131  1.00  0.00     0.037 A 
ATOM     55  C   UNL A   1      42.329  26.984  28.872  1.00  0.00     0.037 A 
ATOM     56  C   UNL A   1      41.036  30.214  34.431  1.00  0.00     0.049 A 
ATOM     57  C   UNL A   1      43.008  27.049  30.211  1.00  0.00     0.074 A 
ATOM     58  C   UNL A   1      41.762  30.192  35.608  1.00  0.00     0.029 A 
ATOM     59  N   UNL A   1      41.687  29.371  33.540  1.00  0.00    -0.354 N 
ATOM     60  N   UNL A   1      42.660  27.727  31.279  1.00  0.00    -0.248 NA
ATOM     61  C   UNL A   1      44.230  26.252  30.373  1.00  0.00     0.031 C 
ATOM     62  C   UNL A   1      42.866  29.350  35.421  1.00  0.00     0.029 A 
ATOM     63  C   UNL A   1      42.807  28.823  34.141  1.00  0.00     0.049 A 
ATOM     64  H   UNL A   1      41.394  29.190  32.618  1.00  0.00     0.167 HD
ATOM     65  C   UNL A   1      43.607  27.425  32.245  1.00  0.00     0.074 A 
ATOM     66  C   UNL A   1      44.534  26.488  31.642  1.00  0.00     0.031 C 
ATOM     67  C   UNL A   1      43.705  27.885  33.516  1.00  0.00     0.037 A 
BRANCH  54  68
ATOM     68  C   UNL A   1      39.265  31.870  35.164  1.00  0.00     0.064 A 
ATOM     69  C   UNL A   1      39.539  33.247  35.138  1.00  0.00     0.173 A 
ATOM     70  C   UNL A   1      38.447  31.385  36.195  1.00  0.00     0.173 A 
ATOM     71  F   UNL A   1      40.327  33.759  34.181  1.00  0.00    -0.203 F 
ATOM     72  C   UNL A   1      39.050  34.094  36.127  1.00  0.00     0.198 A 
ATOM     73  C   UNL A   1      37.936  32.241  37.167  1.00  0.00     0.198 A 
ATOM     74  F   UNL A   1      38.151  30.078  36.267  1.00  0.00    -0.203 F 
ATOM     75  F   UNL A   1      39.380  35.394  36.117  1.00  0.00    -0.200 F 
ATOM     76  C   UNL A   1      38.246  33.593  37.139  1.00  0.00     0.200 A 
ATOM     77  F   UNL A   1      37.152  31.756  38.141  1.00  0.00    -0.200 F 
ATOM     78  F   UNL A   1      37.781  34.409  38.095  1.00  0.00    -0.200 F 
ENDBRANCH  54  68
BRANCH  55  79
ATOM     79  C   UNL A   1      42.883  26.168  27.761  1.00  0.00     0.064 A 
ATOM     80  C   UNL A   1      43.816  26.715  26.870  1.00  0.00     0.173 A 
ATOM     81  C   UNL A   1      42.514  24.827  27.579  1.00  0.00     0.173 A 
ATOM     82  F   UNL A   1      44.189  27.997  26.995  1.00  0.00    -0.203 F 
ATOM     83  C   UNL A   1      44.347  25.958  25.826  1.00  0.00     0.198 A 
ATOM     84  C   UNL A   1      43.065  24.063  26.550  1.00  0.00     0.198 A 
ATOM     85  F   UNL A   1      41.635  24.253  28.412  1.00  0.00    -0.203 F 
ATOM     86  F   UNL A   1      45.210  26.517  24.968  1.00  0.00    -0.200 F 
ATOM     87  C   UNL A   1      43.975  24.631  25.671  1.00  0.00     0.200 A 
ATOM     88  F   UNL A   1      42.714  22.777  26.412  1.00  0.00    -0.200 F 
ATOM     89  F   UNL A   1      44.491  23.902  24.672  1.00  0.00    -0.200 F 
ENDBRANCH  55  79
BRANCH  67  90
ATOM     90  C   UNL A   1      44.839  27.360  34.341  1.00  0.00     0.064 A 
ATOM     91  C   UNL A   1      46.072  28.023  34.396  1.00  0.00     0.173 A 
ATOM     92  C   UNL A   1      44.673  26.203  35.118  1.00  0.00     0.173 A 
ATOM     93  F   UNL A   1      46.279  29.123  33.656  1.00  0.00    -0.203 F 
ATOM     94  C   UNL A   1      47.109  27.536  35.186  1.00  0.00     0.198 A 
ATOM     95  C   UNL A   1      45.704  25.734  35.926  1.00  0.00     0.198 A 
ATOM     96  F   UNL A   1      43.509  25.537  35.100  1.00  0.00    -0.203 F 
ATOM     97  F   UNL A   1      48.293  28.164  35.196  1.00  0.00    -0.200 F 
ATOM     98  C   UNL A   1      46.921  26.398  35.956  1.00  0.00     0.200 A 
ATOM     99  F   UNL A   1      45.519  24.638  36.676  1.00  0.00    -0.200 F 
ATOM    100  F   UNL A   1      47.918  25.935  36.722  1.00  0.00    -0.200 F 
ENDBRANCH  67  90
ENDBRANCH  41  42
ENDBRANCH  33  36
ENDBRANCH  31  32
ENDBRANCH  30  31
ENDBRANCH   1  30
TORSDOF 14
ENDMDL
