MODEL 1
REMARK VINA RESULT:     -13.6      0.000      0.000
REMARK SMILES CS(=O)(=O)c1ccc(-c2cc(Cl)cc3c2O[C@H](C(F)(F)F)C(C(=O)NCCCNC(=O)c2ccc(-c4c5nc(c(-c6c(F)c(F)c(F)c(F)c6F)c6ccc([nH]6)c(-c6c(F)c(F)c(F)c(F)c6F)c6nc(c(-c7c(F)c(F)c(F)c(F)c7F)c7ccc4[nH]7)C=C6)C=C5)cc2)=C3)cc1
REMARK SMILES IDX 27 1 26 2 25 3 23 4 24 5 22 7 9 8 10 9 15 10 11 11 14 12
REMARK SMILES IDX 16 13 12 14 13 15 95 16 17 17 8 18 5 19 6 20 97 21 7 22
REMARK SMILES IDX 96 23 2 24 1 25 3 26 4 27 18 28 19 29 20 30 21 31 28 32
REMARK SMILES IDX 29 33 30 34 31 36 32 37 33 38 94 39 34 40 93 41 35 42 36 43
REMARK SMILES IDX 37 44 87 45 38 46 92 47 86 48 88 49 39 50 91 51 85 52 84 53
REMARK SMILES IDX 40 55 72 56 52 57 71 58 53 59 56 60 70 61 89 62 54 63 55 64
REMARK SMILES IDX 69 66 90 67 57 68 41 69 42 70 50 71 43 72 44 73 48 74 51 75
REMARK SMILES IDX 45 76 46 77 49 78 47 79 73 80 74 81 82 82 75 83 76 84 80 85
REMARK SMILES IDX 83 86 77 87 78 88 81 89 79 90 58 91 59 92 67 93 60 94 61 95
REMARK SMILES IDX 65 96 68 97 62 98 63 99 66 100 64 101
REMARK H PARENT 25 6 29 35 88 54 56 65
REMARK Flexibility Score: inf
ROOT
ATOM      1  C   UNL A   1      36.641  20.966  25.235  1.00  0.00     0.042 C 
ENDROOT
BRANCH   1   2
ATOM      2  C   UNL A   1      35.729  21.864  26.074  1.00  0.00     0.118 C 
BRANCH   2   3
ATOM      3  N   UNL A   1      35.719  23.208  25.532  1.00  0.00    -0.352 N 
ATOM      4  C   UNL A   1      34.929  23.677  24.534  1.00  0.00     0.251 C 
ATOM      5  O   UNL A   1      35.398  24.437  23.695  1.00  0.00    -0.270 OA
ATOM      6  H   UNL A   1      36.352  23.848  25.930  1.00  0.00     0.163 HD
BRANCH   4   7
ATOM      7  C   UNL A   1      33.477  23.347  24.611  1.00  0.00     0.067 C 
ATOM      8  C   UNL A   1      31.931  27.085  24.140  1.00  0.00     0.026 A 
ATOM      9  C   UNL A   1      32.647  27.944  25.016  1.00  0.00     0.033 A 
ATOM     10  C   UNL A   1      32.101  25.702  24.351  1.00  0.00     0.135 A 
ATOM     11  C   UNL A   1      33.365  27.477  26.114  1.00  0.00     0.042 A 
ATOM     12  C   UNL A   1      32.734  25.258  25.542  1.00  0.00     0.019 A 
ATOM     13  O   UNL A   1      31.728  24.735  23.426  1.00  0.00    -0.475 OA
ATOM     14  Cl  UNL A   1      34.246  28.582  27.093  1.00  0.00    -0.084 Cl
ATOM     15  C   UNL A   1      33.355  26.134  26.426  1.00  0.00     0.032 A 
ATOM     16  C   UNL A   1      32.903  23.802  25.740  1.00  0.00     0.025 C 
ATOM     17  C   UNL A   1      32.681  23.585  23.336  1.00  0.00     0.314 C 
BRANCH   8  18
ATOM     18  C   UNL A   1      30.959  27.782  23.249  1.00  0.00    -0.015 A 
ATOM     19  C   UNL A   1      29.143  29.795  22.394  1.00  0.00     0.067 A 
ATOM     20  C   UNL A   1      30.485  29.884  22.040  1.00  0.00     0.021 A 
ATOM     21  C   UNL A   1      28.683  28.665  23.083  1.00  0.00     0.021 A 
ATOM     22  C   UNL A   1      31.375  28.872  22.445  1.00  0.00     0.010 A 
ATOM     23  C   UNL A   1      29.581  27.664  23.494  1.00  0.00     0.010 A 
BRANCH  19  24
ATOM     24  S   UNL A   1      27.977  31.110  22.085  1.00  0.00     0.175 S 
ATOM     25  C   UNL A   1      28.793  32.662  22.335  1.00  0.00     0.163 C 
ATOM     26  O   UNL A   1      26.960  31.009  23.115  1.00  0.00    -0.224 OA
ATOM     27  O   UNL A   1      27.629  31.020  20.678  1.00  0.00    -0.224 OA
ENDBRANCH  19  24
ENDBRANCH   8  18
BRANCH  17  28
ATOM     28  C   UNL A   1      31.975  22.258  22.970  1.00  0.00     0.429 C 
ATOM     29  F   UNL A   1      32.113  21.309  23.920  1.00  0.00    -0.167 F 
ATOM     30  F   UNL A   1      30.650  22.449  22.764  1.00  0.00    -0.167 F 
ATOM     31  F   UNL A   1      32.455  21.717  21.816  1.00  0.00    -0.167 F 
ENDBRANCH  17  28
ENDBRANCH   4   7
ENDBRANCH   2   3
ENDBRANCH   1   2
BRANCH   1  32
ATOM     32  C   UNL A   1      38.116  21.365  25.244  1.00  0.00     0.118 C 
BRANCH  32  33
ATOM     33  N   UNL A   1      38.964  20.413  25.944  1.00  0.00    -0.352 N 
ATOM     34  C   UNL A   1      40.091  20.639  26.695  1.00  0.00     0.251 C 
ATOM     35  H   UNL A   1      38.689  19.471  25.869  1.00  0.00     0.163 HD
ATOM     36  O   UNL A   1      40.767  19.694  27.089  1.00  0.00    -0.269 OA
BRANCH  34  37
ATOM     37  C   UNL A   1      40.508  22.024  27.003  1.00  0.00     0.039 A 
ATOM     38  C   UNL A   1      41.455  22.233  28.008  1.00  0.00     0.014 A 
ATOM     39  C   UNL A   1      39.973  23.111  26.306  1.00  0.00     0.014 A 
ATOM     40  C   UNL A   1      41.907  23.527  28.272  1.00  0.00     0.010 A 
ATOM     41  C   UNL A   1      40.493  24.386  26.507  1.00  0.00     0.010 A 
ATOM     42  C   UNL A   1      41.457  24.611  27.501  1.00  0.00    -0.014 A 
BRANCH  42  43
ATOM     43  C   UNL A   1      41.973  25.986  27.735  1.00  0.00     0.031 A 
ATOM     44  C   UNL A   1      43.331  26.382  27.221  1.00  0.00     0.074 A 
ATOM     45  C   UNL A   1      41.240  26.863  28.449  1.00  0.00     0.049 A 
ATOM     46  N   UNL A   1      43.967  27.520  27.351  1.00  0.00    -0.248 NA
ATOM     47  C   UNL A   1      44.089  25.354  26.489  1.00  0.00     0.031 C 
ATOM     48  C   UNL A   1      39.934  26.582  29.049  1.00  0.00     0.029 A 
ATOM     49  N   UNL A   1      41.489  28.168  28.794  1.00  0.00    -0.354 N 
ATOM     50  C   UNL A   1      45.198  27.337  26.733  1.00  0.00     0.074 A 
ATOM     51  C   UNL A   1      45.247  25.962  26.288  1.00  0.00     0.031 C 
ATOM     52  C   UNL A   1      39.482  27.690  29.658  1.00  0.00     0.029 A 
ATOM     53  C   UNL A   1      40.481  28.746  29.525  1.00  0.00     0.049 A 
ATOM     54  H   UNL A   1      42.313  28.644  28.541  1.00  0.00     0.167 HD
ATOM     55  C   UNL A   1      46.184  28.242  26.526  1.00  0.00     0.037 A 
ATOM     56  C   UNL A   1      40.374  29.990  30.033  1.00  0.00     0.037 A 
ATOM     57  C   UNL A   1      46.120  29.617  26.949  1.00  0.00     0.049 A 
ATOM     58  C   UNL A   1      41.485  30.976  29.792  1.00  0.00     0.074 A 
ATOM     59  C   UNL A   1      47.039  30.629  26.738  1.00  0.00     0.029 A 
ATOM     60  N   UNL A   1      45.074  30.170  27.675  1.00  0.00    -0.354 N 
ATOM     61  N   UNL A   1      42.611  30.813  29.138  1.00  0.00    -0.248 NA
ATOM     62  C   UNL A   1      41.307  32.323  30.350  1.00  0.00     0.031 C 
ATOM     63  C   UNL A   1      46.577  31.781  27.384  1.00  0.00     0.029 A 
ATOM     64  C   UNL A   1      45.338  31.505  27.941  1.00  0.00     0.049 A 
ATOM     65  H   UNL A   1      44.265  29.687  27.958  1.00  0.00     0.167 HD
ATOM     66  C   UNL A   1      43.257  32.043  29.178  1.00  0.00     0.074 A 
ATOM     67  C   UNL A   1      42.388  32.945  29.906  1.00  0.00     0.031 C 
ATOM     68  C   UNL A   1      44.459  32.393  28.661  1.00  0.00     0.037 A 
BRANCH  55  69
ATOM     69  C   UNL A   1      47.418  27.774  25.805  1.00  0.00     0.064 A 
ATOM     70  C   UNL A   1      48.563  27.352  26.499  1.00  0.00     0.173 A 
ATOM     71  C   UNL A   1      47.445  27.717  24.404  1.00  0.00     0.173 A 
ATOM     72  F   UNL A   1      48.595  27.397  27.840  1.00  0.00    -0.203 F 
ATOM     73  C   UNL A   1      49.699  26.927  25.817  1.00  0.00     0.198 A 
ATOM     74  C   UNL A   1      48.572  27.256  23.726  1.00  0.00     0.198 A 
ATOM     75  F   UNL A   1      46.377  28.102  23.689  1.00  0.00    -0.203 F 
ATOM     76  F   UNL A   1      50.801  26.585  26.501  1.00  0.00    -0.200 F 
ATOM     77  C   UNL A   1      49.700  26.872  24.432  1.00  0.00     0.200 A 
ATOM     78  F   UNL A   1      48.565  27.190  22.387  1.00  0.00    -0.200 F 
ATOM     79  F   UNL A   1      50.793  26.455  23.776  1.00  0.00    -0.200 F 
ENDBRANCH  55  69
BRANCH  56  80
ATOM     80  C   UNL A   1      39.158  30.383  30.796  1.00  0.00     0.064 A 
ATOM     81  C   UNL A   1      39.109  30.250  32.191  1.00  0.00     0.173 A 
ATOM     82  C   UNL A   1      38.021  30.888  30.149  1.00  0.00     0.173 A 
ATOM     83  F   UNL A   1      40.164  29.756  32.855  1.00  0.00    -0.203 F 
ATOM     84  C   UNL A   1      37.959  30.580  32.906  1.00  0.00     0.198 A 
ATOM     85  C   UNL A   1      36.884  31.248  30.868  1.00  0.00     0.198 A 
ATOM     86  F   UNL A   1      38.018  31.041  28.817  1.00  0.00    -0.203 F 
ATOM     87  F   UNL A   1      37.920  30.392  34.232  1.00  0.00    -0.200 F 
ATOM     88  C   UNL A   1      36.849  31.085  32.245  1.00  0.00     0.200 A 
ATOM     89  F   UNL A   1      35.820  31.752  30.228  1.00  0.00    -0.200 F 
ATOM     90  F   UNL A   1      35.746  31.405  32.933  1.00  0.00    -0.200 F 
ENDBRANCH  56  80
BRANCH  68  91
ATOM     91  C   UNL A   1      44.889  33.824  28.823  1.00  0.00     0.064 A 
ATOM     92  C   UNL A   1      45.662  34.246  29.916  1.00  0.00     0.173 A 
ATOM     93  C   UNL A   1      44.549  34.780  27.852  1.00  0.00     0.173 A 
ATOM     94  F   UNL A   1      46.002  33.375  30.878  1.00  0.00    -0.203 F 
ATOM     95  C   UNL A   1      46.045  35.577  30.049  1.00  0.00     0.198 A 
ATOM     96  C   UNL A   1      44.966  36.102  27.971  1.00  0.00     0.198 A 
ATOM     97  F   UNL A   1      43.820  34.427  26.782  1.00  0.00    -0.203 F 
ATOM     98  F   UNL A   1      46.731  35.969  31.132  1.00  0.00    -0.200 F 
ATOM     99  C   UNL A   1      45.704  36.502  29.073  1.00  0.00     0.200 A 
ATOM    100  F   UNL A   1      44.650  36.990  27.018  1.00  0.00    -0.200 F 
ATOM    101  F   UNL A   1      46.080  37.782  29.201  1.00  0.00    -0.200 F 
ENDBRANCH  68  91
ENDBRANCH  42  43
ENDBRANCH  34  37
ENDBRANCH  32  33
ENDBRANCH   1  32
TORSDOF 13
ENDMDL
MODEL 2
REMARK VINA RESULT:     -13.4      5.818      9.664
REMARK SMILES CS(=O)(=O)c1ccc(-c2cc(Cl)cc3c2O[C@H](C(F)(F)F)C(C(=O)NCCCNC(=O)c2ccc(-c4c5nc(c(-c6c(F)c(F)c(F)c(F)c6F)c6ccc([nH]6)c(-c6c(F)c(F)c(F)c(F)c6F)c6nc(c(-c7c(F)c(F)c(F)c(F)c7F)c7ccc4[nH]7)C=C6)C=C5)cc2)=C3)cc1
REMARK SMILES IDX 27 1 26 2 25 3 23 4 24 5 22 7 9 8 10 9 15 10 11 11 14 12
REMARK SMILES IDX 16 13 12 14 13 15 95 16 17 17 8 18 5 19 6 20 97 21 7 22
REMARK SMILES IDX 96 23 2 24 1 25 3 26 4 27 18 28 19 29 20 30 21 31 28 32
REMARK SMILES IDX 29 33 30 34 31 36 32 37 33 38 94 39 34 40 93 41 35 42 36 43
REMARK SMILES IDX 37 44 87 45 38 46 92 47 86 48 88 49 39 50 91 51 85 52 84 53
REMARK SMILES IDX 40 55 72 56 52 57 71 58 53 59 56 60 70 61 89 62 54 63 55 64
REMARK SMILES IDX 69 66 90 67 57 68 41 69 42 70 50 71 43 72 44 73 48 74 51 75
REMARK SMILES IDX 45 76 46 77 49 78 47 79 73 80 74 81 82 82 75 83 76 84 80 85
REMARK SMILES IDX 83 86 77 87 78 88 81 89 79 90 58 91 59 92 67 93 60 94 61 95
REMARK SMILES IDX 65 96 68 97 62 98 63 99 66 100 64 101
REMARK H PARENT 25 6 29 35 88 54 56 65
REMARK Flexibility Score: inf
ROOT
ATOM      1  C   UNL A   1      40.939  21.834  27.641  1.00  0.00     0.042 C 
ENDROOT
BRANCH   1   2
ATOM      2  C   UNL A   1      42.398  21.703  28.087  1.00  0.00     0.118 C 
BRANCH   2   3
ATOM      3  N   UNL A   1      43.014  23.013  28.160  1.00  0.00    -0.352 N 
ATOM      4  C   UNL A   1      44.163  23.406  27.555  1.00  0.00     0.251 C 
ATOM      5  O   UNL A   1      44.950  24.127  28.158  1.00  0.00    -0.270 OA
ATOM      6  H   UNL A   1      42.550  23.688  28.705  1.00  0.00     0.163 HD
BRANCH   4   7
ATOM      7  C   UNL A   1      44.324  23.052  26.116  1.00  0.00     0.067 C 
ATOM      8  C   UNL A   1      46.877  26.019  24.993  1.00  0.00     0.026 A 
ATOM      9  C   UNL A   1      46.353  27.236  25.508  1.00  0.00     0.033 A 
ATOM     10  C   UNL A   1      46.007  24.912  25.011  1.00  0.00     0.135 A 
ATOM     11  C   UNL A   1      45.019  27.387  25.880  1.00  0.00     0.042 A 
ATOM     12  C   UNL A   1      44.628  25.121  25.279  1.00  0.00     0.019 A 
ATOM     13  O   UNL A   1      46.432  23.601  24.833  1.00  0.00    -0.475 OA
ATOM     14  Cl  UNL A   1      44.480  28.879  26.542  1.00  0.00    -0.084 Cl
ATOM     15  C   UNL A   1      44.130  26.348  25.701  1.00  0.00     0.032 A 
ATOM     16  C   UNL A   1      43.734  23.942  25.295  1.00  0.00     0.025 C 
ATOM     17  C   UNL A   1      45.720  22.611  25.701  1.00  0.00     0.314 C 
BRANCH   8  18
ATOM     18  C   UNL A   1      48.210  26.150  24.337  1.00  0.00    -0.015 A 
ATOM     19  C   UNL A   1      50.660  27.369  23.568  1.00  0.00     0.067 A 
ATOM     20  C   UNL A   1      50.609  26.596  24.723  1.00  0.00     0.021 A 
ATOM     21  C   UNL A   1      49.531  27.457  22.744  1.00  0.00     0.021 A 
ATOM     22  C   UNL A   1      49.400  25.975  25.086  1.00  0.00     0.010 A 
ATOM     23  C   UNL A   1      48.323  26.843  23.120  1.00  0.00     0.010 A 
BRANCH  19  24
ATOM     24  S   UNL A   1      52.090  28.339  23.122  1.00  0.00     0.175 S 
ATOM     25  C   UNL A   1      53.271  28.247  24.439  1.00  0.00     0.163 C 
ATOM     26  O   UNL A   1      51.648  29.720  23.060  1.00  0.00    -0.224 OA
ATOM     27  O   UNL A   1      52.675  27.689  21.963  1.00  0.00    -0.224 OA
ENDBRANCH  19  24
ENDBRANCH   8  18
BRANCH  17  28
ATOM     28  C   UNL A   1      45.592  21.222  25.031  1.00  0.00     0.429 C 
ATOM     29  F   UNL A   1      46.775  20.577  24.928  1.00  0.00    -0.167 F 
ATOM     30  F   UNL A   1      44.743  20.423  25.720  1.00  0.00    -0.167 F 
ATOM     31  F   UNL A   1      45.088  21.299  23.769  1.00  0.00    -0.167 F 
ENDBRANCH  17  28
ENDBRANCH   4   7
ENDBRANCH   2   3
ENDBRANCH   1   2
BRANCH   1  32
ATOM     32  C   UNL A   1      40.733  21.860  26.128  1.00  0.00     0.118 C 
BRANCH  32  33
ATOM     33  N   UNL A   1      39.357  22.128  25.740  1.00  0.00    -0.352 N 
ATOM     34  C   UNL A   1      38.551  23.189  26.070  1.00  0.00     0.251 C 
ATOM     35  H   UNL A   1      38.945  21.450  25.157  1.00  0.00     0.163 HD
ATOM     36  O   UNL A   1      37.361  23.173  25.772  1.00  0.00    -0.269 OA
BRANCH  34  37
ATOM     37  C   UNL A   1      39.110  24.340  26.812  1.00  0.00     0.039 A 
ATOM     38  C   UNL A   1      39.923  25.248  26.130  1.00  0.00     0.014 A 
ATOM     39  C   UNL A   1      38.836  24.524  28.169  1.00  0.00     0.014 A 
ATOM     40  C   UNL A   1      40.411  26.374  26.797  1.00  0.00     0.010 A 
ATOM     41  C   UNL A   1      39.246  25.692  28.806  1.00  0.00     0.010 A 
ATOM     42  C   UNL A   1      40.048  26.625  28.131  1.00  0.00    -0.014 A 
BRANCH  42  43
ATOM     43  C   UNL A   1      40.515  27.848  28.835  1.00  0.00     0.031 A 
ATOM     44  C   UNL A   1      41.948  27.966  29.279  1.00  0.00     0.074 A 
ATOM     45  C   UNL A   1      39.639  28.833  29.116  1.00  0.00     0.049 A 
ATOM     46  N   UNL A   1      42.536  28.937  29.933  1.00  0.00    -0.248 NA
ATOM     47  C   UNL A   1      42.832  26.830  28.974  1.00  0.00     0.031 C 
ATOM     48  C   UNL A   1      38.211  28.813  28.790  1.00  0.00     0.029 A 
ATOM     49  N   UNL A   1      39.819  30.041  29.743  1.00  0.00    -0.354 N 
ATOM     50  C   UNL A   1      43.847  28.521  30.128  1.00  0.00     0.074 A 
ATOM     51  C   UNL A   1      43.952  27.185  29.584  1.00  0.00     0.031 C 
ATOM     52  C   UNL A   1      37.653  29.968  29.188  1.00  0.00     0.029 A 
ATOM     53  C   UNL A   1      38.672  30.792  29.831  1.00  0.00     0.049 A 
ATOM     54  H   UNL A   1      40.687  30.340  30.096  1.00  0.00     0.167 HD
ATOM     55  C   UNL A   1      44.879  29.203  30.680  1.00  0.00     0.037 A 
ATOM     56  C   UNL A   1      38.465  32.009  30.370  1.00  0.00     0.037 A 
ATOM     57  C   UNL A   1      44.776  30.542  31.198  1.00  0.00     0.049 A 
ATOM     58  C   UNL A   1      39.627  32.745  30.981  1.00  0.00     0.074 A 
ATOM     59  C   UNL A   1      45.773  31.343  31.724  1.00  0.00     0.029 A 
ATOM     60  N   UNL A   1      43.600  31.277  31.255  1.00  0.00    -0.354 N 
ATOM     61  N   UNL A   1      40.880  32.372  31.089  1.00  0.00    -0.248 NA
ATOM     62  C   UNL A   1      39.349  34.077  31.535  1.00  0.00     0.031 C 
ATOM     63  C   UNL A   1      45.191  32.542  32.152  1.00  0.00     0.029 A 
ATOM     64  C   UNL A   1      43.843  32.514  31.832  1.00  0.00     0.049 A 
ATOM     65  H   UNL A   1      42.724  30.967  30.933  1.00  0.00     0.167 HD
ATOM     66  C   UNL A   1      41.544  33.434  31.692  1.00  0.00     0.074 A 
ATOM     67  C   UNL A   1      40.557  34.471  31.909  1.00  0.00     0.031 C 
ATOM     68  C   UNL A   1      42.851  33.540  32.034  1.00  0.00     0.037 A 
BRANCH  55  69
ATOM     69  C   UNL A   1      46.212  28.511  30.750  1.00  0.00     0.064 A 
ATOM     70  C   UNL A   1      46.580  27.727  31.854  1.00  0.00     0.173 A 
ATOM     71  C   UNL A   1      47.122  28.609  29.686  1.00  0.00     0.173 A 
ATOM     72  F   UNL A   1      45.754  27.608  32.904  1.00  0.00    -0.203 F 
ATOM     73  C   UNL A   1      47.821  27.097  31.906  1.00  0.00     0.198 A 
ATOM     74  C   UNL A   1      48.347  27.948  29.726  1.00  0.00     0.198 A 
ATOM     75  F   UNL A   1      46.820  29.340  28.602  1.00  0.00    -0.203 F 
ATOM     76  F   UNL A   1      48.173  26.402  32.997  1.00  0.00    -0.200 F 
ATOM     77  C   UNL A   1      48.700  27.202  30.839  1.00  0.00     0.200 A 
ATOM     78  F   UNL A   1      49.189  28.038  28.686  1.00  0.00    -0.200 F 
ATOM     79  F   UNL A   1      49.891  26.589  30.887  1.00  0.00    -0.200 F 
ENDBRANCH  55  69
BRANCH  56  80
ATOM     80  C   UNL A   1      37.110  32.622  30.332  1.00  0.00     0.064 A 
ATOM     81  C   UNL A   1      36.732  33.470  29.281  1.00  0.00     0.173 A 
ATOM     82  C   UNL A   1      36.171  32.384  31.347  1.00  0.00     0.173 A 
ATOM     83  F   UNL A   1      37.600  33.743  28.296  1.00  0.00    -0.203 F 
ATOM     84  C   UNL A   1      35.478  34.078  29.261  1.00  0.00     0.198 A 
ATOM     85  C   UNL A   1      34.906  32.967  31.308  1.00  0.00     0.198 A 
ATOM     86  F   UNL A   1      36.479  31.576  32.371  1.00  0.00    -0.203 F 
ATOM     87  F   UNL A   1      35.164  34.926  28.272  1.00  0.00    -0.200 F 
ATOM     88  C   UNL A   1      34.564  33.821  30.271  1.00  0.00     0.200 A 
ATOM     89  F   UNL A   1      34.020  32.703  32.278  1.00  0.00    -0.200 F 
ATOM     90  F   UNL A   1      33.358  34.403  30.250  1.00  0.00    -0.200 F 
ENDBRANCH  56  80
BRANCH  68  91
ATOM     91  C   UNL A   1      43.301  34.839  32.640  1.00  0.00     0.064 A 
ATOM     92  C   UNL A   1      43.668  35.938  31.848  1.00  0.00     0.173 A 
ATOM     93  C   UNL A   1      43.335  34.997  34.035  1.00  0.00     0.173 A 
ATOM     94  F   UNL A   1      43.666  35.836  30.510  1.00  0.00    -0.203 F 
ATOM     95  C   UNL A   1      44.087  37.132  32.429  1.00  0.00     0.198 A 
ATOM     96  C   UNL A   1      43.718  36.204  34.612  1.00  0.00     0.198 A 
ATOM     97  F   UNL A   1      42.984  33.981  34.839  1.00  0.00    -0.203 F 
ATOM     98  F   UNL A   1      44.490  38.147  31.654  1.00  0.00    -0.200 F 
ATOM     99  C   UNL A   1      44.104  37.265  33.810  1.00  0.00     0.200 A 
ATOM    100  F   UNL A   1      43.718  36.337  35.946  1.00  0.00    -0.200 F 
ATOM    101  F   UNL A   1      44.501  38.418  34.367  1.00  0.00    -0.200 F 
ENDBRANCH  68  91
ENDBRANCH  42  43
ENDBRANCH  34  37
ENDBRANCH  32  33
ENDBRANCH   1  32
TORSDOF 13
ENDMDL
MODEL 3
REMARK VINA RESULT:     -13.3      5.856      9.501
REMARK SMILES CS(=O)(=O)c1ccc(-c2cc(Cl)cc3c2O[C@H](C(F)(F)F)C(C(=O)NCCCNC(=O)c2ccc(-c4c5nc(c(-c6c(F)c(F)c(F)c(F)c6F)c6ccc([nH]6)c(-c6c(F)c(F)c(F)c(F)c6F)c6nc(c(-c7c(F)c(F)c(F)c(F)c7F)c7ccc4[nH]7)C=C6)C=C5)cc2)=C3)cc1
REMARK SMILES IDX 27 1 26 2 25 3 23 4 24 5 22 7 9 8 10 9 15 10 11 11 14 12
REMARK SMILES IDX 16 13 12 14 13 15 95 16 17 17 8 18 5 19 6 20 97 21 7 22
REMARK SMILES IDX 96 23 2 24 1 25 3 26 4 27 18 28 19 29 20 30 21 31 28 32
REMARK SMILES IDX 29 33 30 34 31 36 32 37 33 38 94 39 34 40 93 41 35 42 36 43
REMARK SMILES IDX 37 44 87 45 38 46 92 47 86 48 88 49 39 50 91 51 85 52 84 53
REMARK SMILES IDX 40 55 72 56 52 57 71 58 53 59 56 60 70 61 89 62 54 63 55 64
REMARK SMILES IDX 69 66 90 67 57 68 41 69 42 70 50 71 43 72 44 73 48 74 51 75
REMARK SMILES IDX 45 76 46 77 49 78 47 79 73 80 74 81 82 82 75 83 76 84 80 85
REMARK SMILES IDX 83 86 77 87 78 88 81 89 79 90 58 91 59 92 67 93 60 94 61 95
REMARK SMILES IDX 65 96 68 97 62 98 63 99 66 100 64 101
REMARK H PARENT 25 6 29 35 88 54 56 65
REMARK Flexibility Score: inf
ROOT
ATOM      1  C   UNL A   1      41.749  22.227  26.794  1.00  0.00     0.042 C 
ENDROOT
BRANCH   1   2
ATOM      2  C   UNL A   1      42.735  22.212  27.965  1.00  0.00     0.118 C 
BRANCH   2   3
ATOM      3  N   UNL A   1      43.324  23.524  28.136  1.00  0.00    -0.352 N 
ATOM      4  C   UNL A   1      44.349  24.056  27.423  1.00  0.00     0.251 C 
ATOM      5  O   UNL A   1      45.206  24.718  27.995  1.00  0.00    -0.270 OA
ATOM      6  H   UNL A   1      42.939  24.091  28.843  1.00  0.00     0.163 HD
BRANCH   4   7
ATOM      7  C   UNL A   1      44.281  23.921  25.939  1.00  0.00     0.067 C 
ATOM      8  C   UNL A   1      46.406  27.231  24.884  1.00  0.00     0.026 A 
ATOM      9  C   UNL A   1      45.901  28.312  25.656  1.00  0.00     0.033 A 
ATOM     10  C   UNL A   1      45.624  26.059  24.874  1.00  0.00     0.135 A 
ATOM     11  C   UNL A   1      44.645  28.291  26.257  1.00  0.00     0.042 A 
ATOM     12  C   UNL A   1      44.301  26.105  25.390  1.00  0.00     0.019 A 
ATOM     13  O   UNL A   1      46.095  24.829  24.431  1.00  0.00    -0.475 OA
ATOM     14  Cl  UNL A   1      44.135  29.623  27.217  1.00  0.00    -0.084 Cl
ATOM     15  C   UNL A   1      43.807  27.213  26.069  1.00  0.00     0.032 A 
ATOM     16  C   UNL A   1      43.502  24.861  25.371  1.00  0.00     0.025 C 
ATOM     17  C   UNL A   1      45.609  23.669  25.242  1.00  0.00     0.314 C 
BRANCH   8  18
ATOM     18  C   UNL A   1      47.594  27.570  24.048  1.00  0.00    -0.015 A 
ATOM     19  C   UNL A   1      49.546  27.278  22.003  1.00  0.00     0.067 A 
ATOM     20  C   UNL A   1      48.380  27.992  21.744  1.00  0.00     0.021 A 
ATOM     21  C   UNL A   1      49.790  26.796  23.295  1.00  0.00     0.021 A 
ATOM     22  C   UNL A   1      47.429  28.154  22.768  1.00  0.00     0.010 A 
ATOM     23  C   UNL A   1      48.828  26.953  24.309  1.00  0.00     0.010 A 
BRANCH  19  24
ATOM     24  S   UNL A   1      50.724  26.866  20.727  1.00  0.00     0.175 S 
ATOM     25  C   UNL A   1      51.083  28.327  19.793  1.00  0.00     0.163 C 
ATOM     26  O   UNL A   1      50.049  25.954  19.823  1.00  0.00    -0.224 OA
ATOM     27  O   UNL A   1      51.943  26.475  21.413  1.00  0.00    -0.224 OA
ENDBRANCH  19  24
ENDBRANCH   8  18
BRANCH  17  28
ATOM     28  C   UNL A   1      45.457  22.380  24.398  1.00  0.00     0.429 C 
ATOM     29  F   UNL A   1      46.633  21.753  24.179  1.00  0.00    -0.167 F 
ATOM     30  F   UNL A   1      44.622  21.498  24.998  1.00  0.00    -0.167 F 
ATOM     31  F   UNL A   1      44.920  22.624  23.171  1.00  0.00    -0.167 F 
ENDBRANCH  17  28
ENDBRANCH   4   7
ENDBRANCH   2   3
ENDBRANCH   1   2
BRANCH   1  32
ATOM     32  C   UNL A   1      40.343  21.736  27.137  1.00  0.00     0.118 C 
BRANCH  32  33
ATOM     33  N   UNL A   1      39.329  22.203  26.205  1.00  0.00    -0.352 N 
ATOM     34  C   UNL A   1      38.752  23.444  26.096  1.00  0.00     0.251 C 
ATOM     35  H   UNL A   1      39.012  21.531  25.559  1.00  0.00     0.163 HD
ATOM     36  O   UNL A   1      37.799  23.615  25.343  1.00  0.00    -0.269 OA
BRANCH  34  37
ATOM     37  C   UNL A   1      39.259  24.569  26.911  1.00  0.00     0.039 A 
ATOM     38  C   UNL A   1      40.048  25.543  26.295  1.00  0.00     0.014 A 
ATOM     39  C   UNL A   1      38.960  24.665  28.273  1.00  0.00     0.014 A 
ATOM     40  C   UNL A   1      40.486  26.645  27.033  1.00  0.00     0.010 A 
ATOM     41  C   UNL A   1      39.319  25.809  28.981  1.00  0.00     0.010 A 
ATOM     42  C   UNL A   1      40.096  26.806  28.373  1.00  0.00    -0.014 A 
BRANCH  42  43
ATOM     43  C   UNL A   1      40.509  28.002  29.153  1.00  0.00     0.031 A 
ATOM     44  C   UNL A   1      41.906  28.103  29.702  1.00  0.00     0.074 A 
ATOM     45  C   UNL A   1      39.612  28.977  29.405  1.00  0.00     0.049 A 
ATOM     46  N   UNL A   1      42.444  29.049  30.432  1.00  0.00    -0.248 NA
ATOM     47  C   UNL A   1      42.812  26.978  29.421  1.00  0.00     0.031 C 
ATOM     48  C   UNL A   1      38.212  28.970  28.977  1.00  0.00     0.029 A 
ATOM     49  N   UNL A   1      39.745  30.161  30.087  1.00  0.00    -0.354 N 
ATOM     50  C   UNL A   1      43.738  28.625  30.705  1.00  0.00     0.074 A 
ATOM     51  C   UNL A   1      43.884  27.310  30.123  1.00  0.00     0.031 C 
ATOM     52  C   UNL A   1      37.625  30.110  29.376  1.00  0.00     0.029 A 
ATOM     53  C   UNL A   1      38.593  30.909  30.120  1.00  0.00     0.049 A 
ATOM     54  H   UNL A   1      40.585  30.447  30.513  1.00  0.00     0.167 HD
ATOM     55  C   UNL A   1      44.726  29.286  31.355  1.00  0.00     0.037 A 
ATOM     56  C   UNL A   1      38.345  32.106  30.687  1.00  0.00     0.037 A 
ATOM     57  C   UNL A   1      44.583  30.606  31.912  1.00  0.00     0.049 A 
ATOM     58  C   UNL A   1      39.460  32.819  31.406  1.00  0.00     0.074 A 
ATOM     59  C   UNL A   1      45.539  31.386  32.538  1.00  0.00     0.029 A 
ATOM     60  N   UNL A   1      43.405  31.339  31.912  1.00  0.00    -0.354 N 
ATOM     61  N   UNL A   1      40.703  32.442  31.590  1.00  0.00    -0.248 NA
ATOM     62  C   UNL A   1      39.140  34.130  31.987  1.00  0.00     0.031 C 
ATOM     63  C   UNL A   1      44.926  32.569  32.966  1.00  0.00     0.029 A 
ATOM     64  C   UNL A   1      43.604  32.554  32.548  1.00  0.00     0.049 A 
ATOM     65  H   UNL A   1      42.555  31.041  31.516  1.00  0.00     0.167 HD
ATOM     66  C   UNL A   1      41.319  33.480  32.277  1.00  0.00     0.074 A 
ATOM     67  C   UNL A   1      40.317  34.510  32.460  1.00  0.00     0.031 C 
ATOM     68  C   UNL A   1      42.598  33.572  32.716  1.00  0.00     0.037 A 
BRANCH  55  69
ATOM     69  C   UNL A   1      46.052  28.591  31.495  1.00  0.00     0.064 A 
ATOM     70  C   UNL A   1      46.363  27.814  32.622  1.00  0.00     0.173 A 
ATOM     71  C   UNL A   1      47.013  28.678  30.476  1.00  0.00     0.173 A 
ATOM     72  F   UNL A   1      45.486  27.706  33.631  1.00  0.00    -0.203 F 
ATOM     73  C   UNL A   1      47.598  27.182  32.739  1.00  0.00     0.198 A 
ATOM     74  C   UNL A   1      48.233  28.014  30.581  1.00  0.00     0.198 A 
ATOM     75  F   UNL A   1      46.767  29.402  29.373  1.00  0.00    -0.203 F 
ATOM     76  F   UNL A   1      47.894  26.494  33.851  1.00  0.00    -0.200 F 
ATOM     77  C   UNL A   1      48.528  27.276  31.716  1.00  0.00     0.200 A 
ATOM     78  F   UNL A   1      49.125  28.094  29.583  1.00  0.00    -0.200 F 
ATOM     79  F   UNL A   1      49.714  26.660  31.827  1.00  0.00    -0.200 F 
ENDBRANCH  55  69
BRANCH  56  80
ATOM     80  C   UNL A   1      36.996  32.721  30.574  1.00  0.00     0.064 A 
ATOM     81  C   UNL A   1      36.647  33.493  29.457  1.00  0.00     0.173 A 
ATOM     82  C   UNL A   1      36.032  32.561  31.581  1.00  0.00     0.173 A 
ATOM     83  F   UNL A   1      37.539  33.691  28.474  1.00  0.00    -0.203 F 
ATOM     84  C   UNL A   1      35.398  34.104  29.363  1.00  0.00     0.198 A 
ATOM     85  C   UNL A   1      34.772  33.146  31.471  1.00  0.00     0.198 A 
ATOM     86  F   UNL A   1      36.312  31.827  32.667  1.00  0.00    -0.203 F 
ATOM     87  F   UNL A   1      35.111  34.881  28.310  1.00  0.00    -0.200 F 
ATOM     88  C   UNL A   1      34.459  33.925  30.368  1.00  0.00     0.200 A 
ATOM     89  F   UNL A   1      33.863  32.955  32.436  1.00  0.00    -0.200 F 
ATOM     90  F   UNL A   1      33.258  34.510  30.277  1.00  0.00    -0.200 F 
ENDBRANCH  56  80
BRANCH  68  91
ATOM     91  C   UNL A   1      43.001  34.849  33.400  1.00  0.00     0.064 A 
ATOM     92  C   UNL A   1      42.975  34.981  34.797  1.00  0.00     0.173 A 
ATOM     93  C   UNL A   1      43.449  35.945  32.646  1.00  0.00     0.173 A 
ATOM     94  F   UNL A   1      42.543  33.968  35.563  1.00  0.00    -0.203 F 
ATOM     95  C   UNL A   1      43.348  36.174  35.410  1.00  0.00     0.198 A 
ATOM     96  C   UNL A   1      43.856  37.123  33.265  1.00  0.00     0.198 A 
ATOM     97  F   UNL A   1      43.502  35.869  31.307  1.00  0.00    -0.203 F 
ATOM     98  F   UNL A   1      43.258  36.297  36.741  1.00  0.00    -0.200 F 
ATOM     99  C   UNL A   1      43.795  37.240  34.644  1.00  0.00     0.200 A 
ATOM    100  F   UNL A   1      44.305  38.146  32.524  1.00  0.00    -0.200 F 
ATOM    101  F   UNL A   1      44.161  38.386  35.237  1.00  0.00    -0.200 F 
ENDBRANCH  68  91
ENDBRANCH  42  43
ENDBRANCH  34  37
ENDBRANCH  32  33
ENDBRANCH   1  32
TORSDOF 13
ENDMDL
