MODEL 1
REMARK VINA RESULT:     -13.2      0.000      0.000
REMARK SMILES COC(=O)[C@H]1C(C)=NC2=C(C(=O)CCC2)[C@H]1c1ccc(C(=O)NCCCNC(=O)c2ccc(-c3c4nc(c(-c5c(F)c(F)c(F)c(F)c5F)c5ccc([nH]5)c(-c5c(F)c(F)c(F)c(F)c5F)c5nc(c(-c6c(F)c(F)c(F)c(F)c6F)c6ccc3[nH]6)C=C5)C=C4)cc2)cc1
REMARK SMILES IDX 24 1 23 2 21 3 22 4 20 6 17 7 18 8 94 9 19 10 93 11 16 12
REMARK SMILES IDX 5 13 6 14 7 15 8 16 10 17 9 18 11 19 15 20 12 21 13 22 14 23
REMARK SMILES IDX 3 24 4 25 2 26 1 27 25 28 26 29 27 30 28 31 29 33 30 34
REMARK SMILES IDX 31 35 92 36 32 37 91 38 33 39 34 40 35 41 85 42 36 43 90 44
REMARK SMILES IDX 84 45 86 46 37 47 89 48 83 49 82 50 38 52 70 53 50 54 69 55
REMARK SMILES IDX 51 56 54 57 68 58 87 59 52 60 53 61 67 63 88 64 55 65 39 66
REMARK SMILES IDX 40 67 48 68 41 69 42 70 46 71 49 72 43 73 44 74 47 75 45 76
REMARK SMILES IDX 71 77 72 78 80 79 73 80 74 81 78 82 81 83 75 84 76 85 79 86
REMARK SMILES IDX 77 87 56 88 57 89 65 90 58 91 59 92 63 93 66 94 60 95 61 96
REMARK SMILES IDX 64 97 62 98
REMARK H PARENT 23 5 27 32 86 51 54 62
REMARK Flexibility Score: inf
ROOT
ATOM      1  C   UNL A   1      31.680  30.848  26.840  1.00  0.00     0.118 C 
ENDROOT
BRANCH   1   2
ATOM      2  N   UNL A   1      32.948  30.492  27.454  1.00  0.00    -0.352 N 
ATOM      3  C   UNL A   1      33.690  29.337  27.422  1.00  0.00     0.251 C 
ATOM      4  O   UNL A   1      34.774  29.336  28.005  1.00  0.00    -0.269 OA
ATOM      5  H   UNL A   1      33.349  31.212  27.991  1.00  0.00     0.163 HD
BRANCH   3   6
ATOM      6  C   UNL A   1      33.269  28.130  26.664  1.00  0.00     0.039 A 
ATOM      7  C   UNL A   1      32.352  25.762  25.438  1.00  0.00    -0.039 A 
ATOM      8  C   UNL A   1      31.445  26.648  26.038  1.00  0.00     0.005 A 
ATOM      9  C   UNL A   1      33.700  26.134  25.363  1.00  0.00     0.005 A 
ATOM     10  C   UNL A   1      31.905  27.809  26.664  1.00  0.00     0.014 A 
ATOM     11  C   UNL A   1      34.145  27.320  25.944  1.00  0.00     0.014 A 
BRANCH   7  12
ATOM     12  C   UNL A   1      31.923  24.408  24.871  1.00  0.00     0.075 C 
ATOM     13  C   UNL A   1      31.943  24.316  23.322  1.00  0.00     0.155 C 
ATOM     14  C   UNL A   1      32.845  23.211  22.798  1.00  0.00     0.030 C 
ATOM     15  C   UNL A   1      32.904  22.997  21.300  1.00  0.00     0.063 C 
ATOM     16  N   UNL A   1      33.546  22.397  23.524  1.00  0.00    -0.261 NA
ATOM     17  C   UNL A   1      32.668  23.294  25.557  1.00  0.00     0.025 C 
ATOM     18  C   UNL A   1      33.450  22.434  24.888  1.00  0.00     0.048 C 
ATOM     19  C   UNL A   1      32.453  23.101  27.027  1.00  0.00     0.161 C 
ATOM     20  C   UNL A   1      34.294  21.394  25.589  1.00  0.00     0.057 C 
ATOM     21  O   UNL A   1      31.544  23.697  27.605  1.00  0.00    -0.294 OA
ATOM     22  C   UNL A   1      33.277  22.070  27.763  1.00  0.00     0.081 C 
ATOM     23  C   UNL A   1      34.573  21.769  27.038  1.00  0.00     0.015 C 
BRANCH  13  24
ATOM     24  C   UNL A   1      32.241  25.633  22.625  1.00  0.00     0.315 C 
ATOM     25  O   UNL A   1      33.358  25.997  22.281  1.00  0.00    -0.251 OA
BRANCH  24  26
ATOM     26  O   UNL A   1      31.102  26.357  22.434  1.00  0.00    -0.468 OA
ATOM     27  C   UNL A   1      31.309  27.772  22.499  1.00  0.00     0.282 C 
ENDBRANCH  24  26
ENDBRANCH  13  24
ENDBRANCH   7  12
ENDBRANCH   3   6
ENDBRANCH   1   2
BRANCH   1  28
ATOM     28  C   UNL A   1      31.453  32.360  26.876  1.00  0.00     0.042 C 
BRANCH  28  29
ATOM     29  C   UNL A   1      32.738  33.165  27.032  1.00  0.00     0.118 C 
BRANCH  29  30
ATOM     30  N   UNL A   1      32.495  34.469  27.626  1.00  0.00    -0.352 N 
ATOM     31  C   UNL A   1      33.026  35.033  28.757  1.00  0.00     0.251 C 
ATOM     32  H   UNL A   1      31.850  35.035  27.142  1.00  0.00     0.163 HD
ATOM     33  O   UNL A   1      32.531  36.062  29.209  1.00  0.00    -0.269 OA
BRANCH  31  34
ATOM     34  C   UNL A   1      34.181  34.413  29.448  1.00  0.00     0.039 A 
ATOM     35  C   UNL A   1      33.945  33.695  30.624  1.00  0.00     0.014 A 
ATOM     36  C   UNL A   1      35.489  34.579  28.984  1.00  0.00     0.014 A 
ATOM     37  C   UNL A   1      35.011  33.110  31.309  1.00  0.00     0.010 A 
ATOM     38  C   UNL A   1      36.546  33.941  29.631  1.00  0.00     0.010 A 
ATOM     39  C   UNL A   1      36.319  33.208  30.806  1.00  0.00    -0.014 A 
BRANCH  39  40
ATOM     40  C   UNL A   1      37.454  32.554  31.503  1.00  0.00     0.031 A 
ATOM     41  C   UNL A   1      38.175  31.400  30.865  1.00  0.00     0.074 A 
ATOM     42  C   UNL A   1      37.801  32.969  32.736  1.00  0.00     0.049 A 
ATOM     43  N   UNL A   1      39.158  30.675  31.335  1.00  0.00    -0.248 NA
ATOM     44  C   UNL A   1      37.715  30.989  29.529  1.00  0.00     0.031 C 
ATOM     45  C   UNL A   1      37.142  34.042  33.482  1.00  0.00     0.029 A 
ATOM     46  N   UNL A   1      38.785  32.531  33.585  1.00  0.00    -0.354 N 
ATOM     47  C   UNL A   1      39.421  29.716  30.366  1.00  0.00     0.074 A 
ATOM     48  C   UNL A   1      38.469  29.922  29.297  1.00  0.00     0.031 C 
ATOM     49  C   UNL A   1      37.749  34.190  34.669  1.00  0.00     0.029 A 
ATOM     50  C   UNL A   1      38.820  33.204  34.782  1.00  0.00     0.049 A 
ATOM     51  H   UNL A   1      39.409  31.803  33.358  1.00  0.00     0.167 HD
ATOM     52  C   UNL A   1      40.384  28.763  30.360  1.00  0.00     0.037 A 
ATOM     53  C   UNL A   1      39.622  33.040  35.851  1.00  0.00     0.037 A 
ATOM     54  C   UNL A   1      41.352  28.583  31.410  1.00  0.00     0.049 A 
ATOM     55  C   UNL A   1      40.699  31.990  35.807  1.00  0.00     0.074 A 
ATOM     56  C   UNL A   1      42.413  27.696  31.464  1.00  0.00     0.029 A 
ATOM     57  N   UNL A   1      41.376  29.306  32.594  1.00  0.00    -0.354 N 
ATOM     58  N   UNL A   1      40.986  31.141  34.851  1.00  0.00    -0.248 NA
ATOM     59  C   UNL A   1      41.567  31.883  36.987  1.00  0.00     0.031 C 
ATOM     60  C   UNL A   1      43.055  27.855  32.695  1.00  0.00     0.029 A 
ATOM     61  C   UNL A   1      42.422  28.871  33.393  1.00  0.00     0.049 A 
ATOM     62  H   UNL A   1      40.743  30.022  32.832  1.00  0.00     0.167 HD
ATOM     63  C   UNL A   1      42.079  30.415  35.303  1.00  0.00     0.074 A 
ATOM     64  C   UNL A   1      42.415  30.935  36.611  1.00  0.00     0.031 C 
ATOM     65  C   UNL A   1      42.744  29.404  34.691  1.00  0.00     0.037 A 
BRANCH  52  66
ATOM     66  C   UNL A   1      40.446  27.840  29.179  1.00  0.00     0.064 A 
ATOM     67  C   UNL A   1      39.672  26.671  29.118  1.00  0.00     0.173 A 
ATOM     68  C   UNL A   1      41.246  28.156  28.071  1.00  0.00     0.173 A 
ATOM     69  F   UNL A   1      38.899  26.319  30.156  1.00  0.00    -0.203 F 
ATOM     70  C   UNL A   1      39.714  25.843  28.000  1.00  0.00     0.198 A 
ATOM     71  C   UNL A   1      41.265  27.339  26.943  1.00  0.00     0.198 A 
ATOM     72  F   UNL A   1      42.000  29.266  28.076  1.00  0.00    -0.203 F 
ATOM     73  F   UNL A   1      38.995  24.711  27.980  1.00  0.00    -0.200 F 
ATOM     74  C   UNL A   1      40.503  26.181  26.911  1.00  0.00     0.200 A 
ATOM     75  F   UNL A   1      42.018  27.674  25.886  1.00  0.00    -0.200 F 
ATOM     76  F   UNL A   1      40.533  25.388  25.832  1.00  0.00    -0.200 F 
ENDBRANCH  52  66
BRANCH  53  77
ATOM     77  C   UNL A   1      39.453  33.908  37.044  1.00  0.00     0.064 A 
ATOM     78  C   UNL A   1      40.057  35.170  37.108  1.00  0.00     0.173 A 
ATOM     79  C   UNL A   1      38.687  33.493  38.144  1.00  0.00     0.173 A 
ATOM     80  F   UNL A   1      40.816  35.602  36.090  1.00  0.00    -0.203 F 
ATOM     81  C   UNL A   1      39.920  35.977  38.236  1.00  0.00     0.198 A 
ATOM     82  C   UNL A   1      38.529  34.312  39.260  1.00  0.00     0.198 A 
ATOM     83  F   UNL A   1      38.084  32.295  38.129  1.00  0.00    -0.203 F 
ATOM     84  F   UNL A   1      40.546  37.160  38.290  1.00  0.00    -0.200 F 
ATOM     85  C   UNL A   1      39.152  35.549  39.308  1.00  0.00     0.200 A 
ATOM     86  F   UNL A   1      37.775  33.901  40.288  1.00  0.00    -0.200 F 
ATOM     87  F   UNL A   1      39.019  36.326  40.392  1.00  0.00    -0.200 F 
ENDBRANCH  53  77
BRANCH  65  88
ATOM     88  C   UNL A   1      43.914  28.814  35.419  1.00  0.00     0.064 A 
ATOM     89  C   UNL A   1      45.216  29.300  35.228  1.00  0.00     0.173 A 
ATOM     90  C   UNL A   1      43.727  27.774  36.340  1.00  0.00     0.173 A 
ATOM     91  F   UNL A   1      45.447  30.283  34.344  1.00  0.00    -0.203 F 
ATOM     92  C   UNL A   1      46.292  28.748  35.916  1.00  0.00     0.198 A 
ATOM     93  C   UNL A   1      44.802  27.243  37.047  1.00  0.00     0.198 A 
ATOM     94  F   UNL A   1      42.501  27.279  36.562  1.00  0.00    -0.203 F 
ATOM     95  F   UNL A   1      47.534  29.196  35.684  1.00  0.00    -0.200 F 
ATOM     96  C   UNL A   1      46.084  27.725  36.830  1.00  0.00     0.200 A 
ATOM     97  F   UNL A   1      44.598  26.262  37.938  1.00  0.00    -0.200 F 
ATOM     98  F   UNL A   1      47.121  27.197  37.495  1.00  0.00    -0.200 F 
ENDBRANCH  65  88
ENDBRANCH  39  40
ENDBRANCH  31  34
ENDBRANCH  29  30
ENDBRANCH  28  29
ENDBRANCH   1  28
TORSDOF 13
ENDMDL
MODEL 2
REMARK VINA RESULT:     -13.1      0.765      7.312
REMARK SMILES COC(=O)[C@H]1C(C)=NC2=C(C(=O)CCC2)[C@H]1c1ccc(C(=O)NCCCNC(=O)c2ccc(-c3c4nc(c(-c5c(F)c(F)c(F)c(F)c5F)c5ccc([nH]5)c(-c5c(F)c(F)c(F)c(F)c5F)c5nc(c(-c6c(F)c(F)c(F)c(F)c6F)c6ccc3[nH]6)C=C5)C=C4)cc2)cc1
REMARK SMILES IDX 24 1 23 2 21 3 22 4 20 6 17 7 18 8 94 9 19 10 93 11 16 12
REMARK SMILES IDX 5 13 6 14 7 15 8 16 10 17 9 18 11 19 15 20 12 21 13 22 14 23
REMARK SMILES IDX 3 24 4 25 2 26 1 27 25 28 26 29 27 30 28 31 29 33 30 34
REMARK SMILES IDX 31 35 92 36 32 37 91 38 33 39 34 40 35 41 85 42 36 43 90 44
REMARK SMILES IDX 84 45 86 46 37 47 89 48 83 49 82 50 38 52 70 53 50 54 69 55
REMARK SMILES IDX 51 56 54 57 68 58 87 59 52 60 53 61 67 63 88 64 55 65 39 66
REMARK SMILES IDX 40 67 48 68 41 69 42 70 46 71 49 72 43 73 44 74 47 75 45 76
REMARK SMILES IDX 71 77 72 78 80 79 73 80 74 81 78 82 81 83 75 84 76 85 79 86
REMARK SMILES IDX 77 87 56 88 57 89 65 90 58 91 59 92 63 93 66 94 60 95 61 96
REMARK SMILES IDX 64 97 62 98
REMARK H PARENT 23 5 27 32 86 51 54 62
REMARK Flexibility Score: inf
ROOT
ATOM      1  C   UNL A   1      31.699  30.798  26.799  1.00  0.00     0.118 C 
ENDROOT
BRANCH   1   2
ATOM      2  N   UNL A   1      32.947  30.436  27.447  1.00  0.00    -0.352 N 
ATOM      3  C   UNL A   1      33.681  29.276  27.440  1.00  0.00     0.251 C 
ATOM      4  O   UNL A   1      34.749  29.269  28.051  1.00  0.00    -0.269 OA
ATOM      5  H   UNL A   1      33.339  31.155  27.992  1.00  0.00     0.163 HD
BRANCH   3   6
ATOM      6  C   UNL A   1      33.272  28.068  26.676  1.00  0.00     0.039 A 
ATOM      7  C   UNL A   1      32.373  25.700  25.436  1.00  0.00    -0.039 A 
ATOM      8  C   UNL A   1      31.457  26.588  26.019  1.00  0.00     0.005 A 
ATOM      9  C   UNL A   1      33.723  26.070  25.385  1.00  0.00     0.005 A 
ATOM     10  C   UNL A   1      31.908  27.749  26.651  1.00  0.00     0.014 A 
ATOM     11  C   UNL A   1      34.160  27.256  25.972  1.00  0.00     0.014 A 
BRANCH   7  12
ATOM     12  C   UNL A   1      31.953  24.346  24.864  1.00  0.00     0.075 C 
ATOM     13  C   UNL A   1      31.971  24.262  23.314  1.00  0.00     0.155 C 
ATOM     14  C   UNL A   1      32.880  23.165  22.784  1.00  0.00     0.030 C 
ATOM     15  C   UNL A   1      32.939  22.958  21.285  1.00  0.00     0.063 C 
ATOM     16  N   UNL A   1      33.586  22.352  23.506  1.00  0.00    -0.261 NA
ATOM     17  C   UNL A   1      32.705  23.234  25.543  1.00  0.00     0.025 C 
ATOM     18  C   UNL A   1      33.492  22.381  24.870  1.00  0.00     0.048 C 
ATOM     19  C   UNL A   1      32.492  23.032  27.012  1.00  0.00     0.161 C 
ATOM     20  C   UNL A   1      34.343  21.344  25.565  1.00  0.00     0.057 C 
ATOM     21  O   UNL A   1      31.580  23.620  27.595  1.00  0.00    -0.294 OA
ATOM     22  C   UNL A   1      33.324  22.003  27.743  1.00  0.00     0.081 C 
ATOM     23  C   UNL A   1      34.621  21.713  27.016  1.00  0.00     0.015 C 
BRANCH  13  24
ATOM     24  C   UNL A   1      32.260  25.583  22.623  1.00  0.00     0.315 C 
ATOM     25  O   UNL A   1      33.372  25.949  22.264  1.00  0.00    -0.251 OA
BRANCH  24  26
ATOM     26  O   UNL A   1      31.120  26.311  22.457  1.00  0.00    -0.468 OA
ATOM     27  C   UNL A   1      31.343  27.725  22.444  1.00  0.00     0.282 C 
ENDBRANCH  24  26
ENDBRANCH  13  24
ENDBRANCH   7  12
ENDBRANCH   3   6
ENDBRANCH   1   2
BRANCH   1  28
ATOM     28  C   UNL A   1      31.453  32.305  26.874  1.00  0.00     0.042 C 
BRANCH  28  29
ATOM     29  C   UNL A   1      32.734  33.127  26.970  1.00  0.00     0.118 C 
BRANCH  29  30
ATOM     30  N   UNL A   1      32.525  34.381  27.674  1.00  0.00    -0.352 N 
ATOM     31  C   UNL A   1      33.106  34.850  28.824  1.00  0.00     0.251 C 
ATOM     32  H   UNL A   1      31.865  34.986  27.264  1.00  0.00     0.163 HD
ATOM     33  O   UNL A   1      32.638  35.843  29.375  1.00  0.00    -0.269 OA
BRANCH  31  34
ATOM     34  C   UNL A   1      34.283  34.172  29.415  1.00  0.00     0.039 A 
ATOM     35  C   UNL A   1      34.068  33.208  30.404  1.00  0.00     0.014 A 
ATOM     36  C   UNL A   1      35.588  34.515  29.049  1.00  0.00     0.014 A 
ATOM     37  C   UNL A   1      35.155  32.560  30.994  1.00  0.00     0.010 A 
ATOM     38  C   UNL A   1      36.670  33.823  29.590  1.00  0.00     0.010 A 
ATOM     39  C   UNL A   1      36.464  32.845  30.576  1.00  0.00    -0.014 A 
BRANCH  39  40
ATOM     40  C   UNL A   1      37.624  32.132  31.165  1.00  0.00     0.031 A 
ATOM     41  C   UNL A   1      38.123  32.494  32.536  1.00  0.00     0.074 A 
ATOM     42  C   UNL A   1      38.261  31.192  30.440  1.00  0.00     0.049 A 
ATOM     43  N   UNL A   1      39.146  32.014  33.199  1.00  0.00    -0.248 NA
ATOM     44  C   UNL A   1      37.391  33.552  33.250  1.00  0.00     0.031 C 
ATOM     45  C   UNL A   1      37.905  30.792  29.078  1.00  0.00     0.029 A 
ATOM     46  N   UNL A   1      39.347  30.411  30.742  1.00  0.00    -0.354 N 
ATOM     47  C   UNL A   1      39.190  32.721  34.393  1.00  0.00     0.074 A 
ATOM     48  C   UNL A   1      38.117  33.691  34.351  1.00  0.00     0.031 C 
ATOM     49  C   UNL A   1      38.746  29.830  28.668  1.00  0.00     0.029 A 
ATOM     50  C   UNL A   1      39.718  29.566  29.725  1.00  0.00     0.049 A 
ATOM     51  H   UNL A   1      39.817  30.451  31.607  1.00  0.00     0.167 HD
ATOM     52  C   UNL A   1      40.036  32.561  35.439  1.00  0.00     0.037 A 
ATOM     53  C   UNL A   1      40.732  28.683  29.651  1.00  0.00     0.037 A 
ATOM     54  C   UNL A   1      41.079  31.571  35.492  1.00  0.00     0.049 A 
ATOM     55  C   UNL A   1      41.641  28.508  30.837  1.00  0.00     0.074 A 
ATOM     56  C   UNL A   1      41.940  31.279  36.536  1.00  0.00     0.029 A 
ATOM     57  N   UNL A   1      41.405  30.710  34.454  1.00  0.00    -0.354 N 
ATOM     58  N   UNL A   1      41.622  29.129  31.991  1.00  0.00    -0.248 NA
ATOM     59  C   UNL A   1      42.705  27.503  30.713  1.00  0.00     0.031 C 
ATOM     60  C   UNL A   1      42.811  30.269  36.116  1.00  0.00     0.029 A 
ATOM     61  C   UNL A   1      42.466  29.901  34.825  1.00  0.00     0.049 A 
ATOM     62  H   UNL A   1      40.949  30.680  33.582  1.00  0.00     0.167 HD
ATOM     63  C   UNL A   1      42.654  28.577  32.737  1.00  0.00     0.074 A 
ATOM     64  C   UNL A   1      43.268  27.557  31.912  1.00  0.00     0.031 C 
ATOM     65  C   UNL A   1      43.061  28.889  33.992  1.00  0.00     0.037 A 
BRANCH  52  66
ATOM     66  C   UNL A   1      39.867  33.471  36.619  1.00  0.00     0.064 A 
ATOM     67  C   UNL A   1      40.538  34.701  36.700  1.00  0.00     0.173 A 
ATOM     68  C   UNL A   1      38.983  33.137  37.655  1.00  0.00     0.173 A 
ATOM     69  F   UNL A   1      41.402  35.063  35.740  1.00  0.00    -0.203 F 
ATOM     70  C   UNL A   1      40.345  35.552  37.785  1.00  0.00     0.198 A 
ATOM     71  C   UNL A   1      38.772  34.002  38.726  1.00  0.00     0.198 A 
ATOM     72  F   UNL A   1      38.312  31.975  37.623  1.00  0.00    -0.203 F 
ATOM     73  F   UNL A   1      41.025  36.705  37.860  1.00  0.00    -0.200 F 
ATOM     74  C   UNL A   1      39.457  35.206  38.792  1.00  0.00     0.200 A 
ATOM     75  F   UNL A   1      37.904  33.673  39.693  1.00  0.00    -0.200 F 
ATOM     76  F   UNL A   1      39.265  36.031  39.831  1.00  0.00    -0.200 F 
ENDBRANCH  52  66
BRANCH  53  77
ATOM     77  C   UNL A   1      40.925  27.878  28.418  1.00  0.00     0.064 A 
ATOM     78  C   UNL A   1      40.298  26.635  28.264  1.00  0.00     0.173 A 
ATOM     79  C   UNL A   1      41.741  28.334  27.372  1.00  0.00     0.173 A 
ATOM     80  F   UNL A   1      39.525  26.148  29.246  1.00  0.00    -0.203 F 
ATOM     81  C   UNL A   1      40.496  25.866  27.118  1.00  0.00     0.198 A 
ATOM     82  C   UNL A   1      41.916  27.576  26.215  1.00  0.00     0.198 A 
ATOM     83  F   UNL A   1      42.358  29.520  27.469  1.00  0.00    -0.203 F 
ATOM     84  F   UNL A   1      39.921  24.660  27.016  1.00  0.00    -0.200 F 
ATOM     85  C   UNL A   1      41.301  26.340  26.094  1.00  0.00     0.200 A 
ATOM     86  F   UNL A   1      42.684  28.044  25.222  1.00  0.00    -0.200 F 
ATOM     87  F   UNL A   1      41.489  25.602  24.991  1.00  0.00    -0.200 F 
ENDBRANCH  53  77
BRANCH  65  88
ATOM     88  C   UNL A   1      44.205  28.101  34.557  1.00  0.00     0.064 A 
ATOM     89  C   UNL A   1      43.998  26.889  35.231  1.00  0.00     0.173 A 
ATOM     90  C   UNL A   1      45.525  28.548  34.393  1.00  0.00     0.173 A 
ATOM     91  F   UNL A   1      42.753  26.430  35.427  1.00  0.00    -0.203 F 
ATOM     92  C   UNL A   1      45.070  26.164  35.743  1.00  0.00     0.198 A 
ATOM     93  C   UNL A   1      46.596  27.807  34.883  1.00  0.00     0.198 A 
ATOM     94  F   UNL A   1      45.774  29.698  33.750  1.00  0.00    -0.203 F 
ATOM     95  F   UNL A   1      44.847  25.032  36.425  1.00  0.00    -0.200 F 
ATOM     96  C   UNL A   1      46.368  26.620  35.564  1.00  0.00     0.200 A 
ATOM     97  F   UNL A   1      47.850  28.242  34.698  1.00  0.00    -0.200 F 
ATOM     98  F   UNL A   1      47.400  25.919  36.054  1.00  0.00    -0.200 F 
ENDBRANCH  65  88
ENDBRANCH  39  40
ENDBRANCH  31  34
ENDBRANCH  29  30
ENDBRANCH  28  29
ENDBRANCH   1  28
TORSDOF 13
ENDMDL
MODEL 3
REMARK VINA RESULT:     -13.0      5.568     10.843
REMARK SMILES COC(=O)[C@H]1C(C)=NC2=C(C(=O)CCC2)[C@H]1c1ccc(C(=O)NCCCNC(=O)c2ccc(-c3c4nc(c(-c5c(F)c(F)c(F)c(F)c5F)c5ccc([nH]5)c(-c5c(F)c(F)c(F)c(F)c5F)c5nc(c(-c6c(F)c(F)c(F)c(F)c6F)c6ccc3[nH]6)C=C5)C=C4)cc2)cc1
REMARK SMILES IDX 24 1 23 2 21 3 22 4 20 6 17 7 18 8 94 9 19 10 93 11 16 12
REMARK SMILES IDX 5 13 6 14 7 15 8 16 10 17 9 18 11 19 15 20 12 21 13 22 14 23
REMARK SMILES IDX 3 24 4 25 2 26 1 27 25 28 26 29 27 30 28 31 29 33 30 34
REMARK SMILES IDX 31 35 92 36 32 37 91 38 33 39 34 40 35 41 85 42 36 43 90 44
REMARK SMILES IDX 84 45 86 46 37 47 89 48 83 49 82 50 38 52 70 53 50 54 69 55
REMARK SMILES IDX 51 56 54 57 68 58 87 59 52 60 53 61 67 63 88 64 55 65 39 66
REMARK SMILES IDX 40 67 48 68 41 69 42 70 46 71 49 72 43 73 44 74 47 75 45 76
REMARK SMILES IDX 71 77 72 78 80 79 73 80 74 81 78 82 81 83 75 84 76 85 79 86
REMARK SMILES IDX 77 87 56 88 57 89 65 90 58 91 59 92 63 93 66 94 60 95 61 96
REMARK SMILES IDX 64 97 62 98
REMARK H PARENT 23 5 27 32 86 51 54 62
REMARK Flexibility Score: inf
ROOT
ATOM      1  C   UNL A   1      37.543  20.737  24.713  1.00  0.00     0.118 C 
ENDROOT
BRANCH   1   2
ATOM      2  N   UNL A   1      38.176  21.962  25.168  1.00  0.00    -0.352 N 
ATOM      3  C   UNL A   1      37.695  23.238  25.330  1.00  0.00     0.251 C 
ATOM      4  O   UNL A   1      38.459  24.085  25.793  1.00  0.00    -0.269 OA
ATOM      5  H   UNL A   1      39.125  21.859  25.405  1.00  0.00     0.163 HD
BRANCH   3   6
ATOM      6  C   UNL A   1      36.287  23.611  25.036  1.00  0.00     0.039 A 
ATOM      7  C   UNL A   1      33.694  24.391  24.247  1.00  0.00    -0.039 A 
ATOM      8  C   UNL A   1      34.419  23.465  23.484  1.00  0.00     0.005 A 
ATOM      9  C   UNL A   1      34.238  24.830  25.460  1.00  0.00     0.005 A 
ATOM     10  C   UNL A   1      35.712  23.097  23.866  1.00  0.00     0.014 A 
ATOM     11  C   UNL A   1      35.508  24.418  25.863  1.00  0.00     0.014 A 
BRANCH   7  12
ATOM     12  C   UNL A   1      32.340  24.942  23.799  1.00  0.00     0.075 C 
ATOM     13  C   UNL A   1      31.130  24.454  24.639  1.00  0.00     0.155 C 
ATOM     14  C   UNL A   1      30.343  25.589  25.273  1.00  0.00     0.030 C 
ATOM     15  C   UNL A   1      29.109  25.233  26.077  1.00  0.00     0.063 C 
ATOM     16  N   UNL A   1      30.608  26.853  25.154  1.00  0.00    -0.261 NA
ATOM     17  C   UNL A   1      32.408  26.437  23.642  1.00  0.00     0.025 C 
ATOM     18  C   UNL A   1      31.624  27.271  24.340  1.00  0.00     0.048 C 
ATOM     19  C   UNL A   1      33.333  26.996  22.603  1.00  0.00     0.161 C 
ATOM     20  C   UNL A   1      31.777  28.773  24.275  1.00  0.00     0.057 C 
ATOM     21  O   UNL A   1      33.856  26.254  21.773  1.00  0.00    -0.294 OA
ATOM     22  C   UNL A   1      33.512  28.494  22.506  1.00  0.00     0.081 C 
ATOM     23  C   UNL A   1      33.167  29.184  23.809  1.00  0.00     0.015 C 
BRANCH  13  24
ATOM     24  C   UNL A   1      31.476  23.395  25.671  1.00  0.00     0.315 C 
ATOM     25  O   UNL A   1      31.699  23.626  26.853  1.00  0.00    -0.251 OA
BRANCH  24  26
ATOM     26  O   UNL A   1      31.509  22.153  25.110  1.00  0.00    -0.468 OA
ATOM     27  C   UNL A   1      32.431  21.264  25.749  1.00  0.00     0.282 C 
ENDBRANCH  24  26
ENDBRANCH  13  24
ENDBRANCH   7  12
ENDBRANCH   3   6
ENDBRANCH   1   2
BRANCH   1  28
ATOM     28  C   UNL A   1      38.443  19.526  24.956  1.00  0.00     0.042 C 
BRANCH  28  29
ATOM     29  C   UNL A   1      39.394  19.700  26.135  1.00  0.00     0.118 C 
BRANCH  29  30
ATOM     30  N   UNL A   1      40.566  18.847  26.021  1.00  0.00    -0.352 N 
ATOM     31  C   UNL A   1      41.896  19.180  26.006  1.00  0.00     0.251 C 
ATOM     32  H   UNL A   1      40.376  17.884  25.942  1.00  0.00     0.163 HD
ATOM     33  O   UNL A   1      42.726  18.333  25.686  1.00  0.00    -0.269 OA
BRANCH  31  34
ATOM     34  C   UNL A   1      42.345  20.546  26.360  1.00  0.00     0.039 A 
ATOM     35  C   UNL A   1      42.682  21.424  25.326  1.00  0.00     0.014 A 
ATOM     36  C   UNL A   1      42.490  20.949  27.691  1.00  0.00     0.014 A 
ATOM     37  C   UNL A   1      43.123  22.715  25.622  1.00  0.00     0.010 A 
ATOM     38  C   UNL A   1      42.868  22.258  27.986  1.00  0.00     0.010 A 
ATOM     39  C   UNL A   1      43.198  23.151  26.955  1.00  0.00    -0.014 A 
BRANCH  39  40
ATOM     40  C   UNL A   1      43.625  24.534  27.281  1.00  0.00     0.031 A 
ATOM     41  C   UNL A   1      42.614  25.559  27.714  1.00  0.00     0.074 A 
ATOM     42  C   UNL A   1      44.918  24.879  27.135  1.00  0.00     0.049 A 
ATOM     43  N   UNL A   1      42.788  26.826  27.998  1.00  0.00    -0.248 NA
ATOM     44  C   UNL A   1      41.217  25.109  27.819  1.00  0.00     0.031 C 
ATOM     45  C   UNL A   1      45.982  23.988  26.670  1.00  0.00     0.029 A 
ATOM     46  N   UNL A   1      45.556  26.074  27.352  1.00  0.00    -0.354 N 
ATOM     47  C   UNL A   1      41.528  27.325  28.297  1.00  0.00     0.074 A 
ATOM     48  C   UNL A   1      40.589  26.238  28.121  1.00  0.00     0.031 C 
ATOM     49  C   UNL A   1      47.143  24.662  26.651  1.00  0.00     0.029 A 
ATOM     50  C   UNL A   1      46.901  26.038  27.073  1.00  0.00     0.049 A 
ATOM     51  H   UNL A   1      45.095  26.881  27.677  1.00  0.00     0.167 HD
ATOM     52  C   UNL A   1      41.187  28.572  28.702  1.00  0.00     0.037 A 
ATOM     53  C   UNL A   1      47.832  27.008  27.146  1.00  0.00     0.037 A 
ATOM     54  C   UNL A   1      42.128  29.641  28.910  1.00  0.00     0.049 A 
ATOM     55  C   UNL A   1      47.430  28.378  27.622  1.00  0.00     0.074 A 
ATOM     56  C   UNL A   1      41.893  30.918  29.390  1.00  0.00     0.029 A 
ATOM     57  N   UNL A   1      43.488  29.558  28.648  1.00  0.00    -0.354 N 
ATOM     58  N   UNL A   1      46.247  28.815  27.977  1.00  0.00    -0.248 NA
ATOM     59  C   UNL A   1      48.496  29.385  27.717  1.00  0.00     0.031 C 
ATOM     60  C   UNL A   1      43.102  31.619  29.382  1.00  0.00     0.029 A 
ATOM     61  C   UNL A   1      44.100  30.767  28.938  1.00  0.00     0.049 A 
ATOM     62  H   UNL A   1      43.949  28.758  28.306  1.00  0.00     0.167 HD
ATOM     63  C   UNL A   1      46.427  30.138  28.356  1.00  0.00     0.074 A 
ATOM     64  C   UNL A   1      47.838  30.426  28.207  1.00  0.00     0.031 C 
ATOM     65  C   UNL A   1      45.507  31.035  28.787  1.00  0.00     0.037 A 
BRANCH  52  66
ATOM     66  C   UNL A   1      39.736  28.852  28.955  1.00  0.00     0.064 A 
ATOM     67  C   UNL A   1      39.163  28.676  30.224  1.00  0.00     0.173 A 
ATOM     68  C   UNL A   1      38.919  29.356  27.931  1.00  0.00     0.173 A 
ATOM     69  F   UNL A   1      39.899  28.187  31.233  1.00  0.00    -0.203 F 
ATOM     70  C   UNL A   1      37.823  28.973  30.452  1.00  0.00     0.198 A 
ATOM     71  C   UNL A   1      37.585  29.677  28.170  1.00  0.00     0.198 A 
ATOM     72  F   UNL A   1      39.418  29.549  26.701  1.00  0.00    -0.203 F 
ATOM     73  F   UNL A   1      37.288  28.761  31.663  1.00  0.00    -0.200 F 
ATOM     74  C   UNL A   1      37.037  29.481  29.428  1.00  0.00     0.200 A 
ATOM     75  F   UNL A   1      36.830  30.179  27.183  1.00  0.00    -0.200 F 
ATOM     76  F   UNL A   1      35.750  29.776  29.653  1.00  0.00    -0.200 F 
ENDBRANCH  52  66
BRANCH  53  77
ATOM     77  C   UNL A   1      49.241  26.712  26.781  1.00  0.00     0.064 A 
ATOM     78  C   UNL A   1      50.153  26.255  27.742  1.00  0.00     0.173 A 
ATOM     79  C   UNL A   1      49.704  26.881  25.468  1.00  0.00     0.173 A 
ATOM     80  F   UNL A   1      49.761  26.098  29.015  1.00  0.00    -0.203 F 
ATOM     81  C   UNL A   1      51.481  25.999  27.409  1.00  0.00     0.198 A 
ATOM     82  C   UNL A   1      51.026  26.598  25.130  1.00  0.00     0.198 A 
ATOM     83  F   UNL A   1      48.869  27.310  24.511  1.00  0.00    -0.203 F 
ATOM     84  F   UNL A   1      52.343  25.606  28.356  1.00  0.00    -0.200 F 
ATOM     85  C   UNL A   1      51.915  26.166  26.102  1.00  0.00     0.200 A 
ATOM     86  F   UNL A   1      51.438  26.748  23.865  1.00  0.00    -0.200 F 
ATOM     87  F   UNL A   1      53.192  25.917  25.782  1.00  0.00    -0.200 F 
ENDBRANCH  53  77
BRANCH  65  88
ATOM     88  C   UNL A   1      46.002  32.402  29.151  1.00  0.00     0.064 A 
ATOM     89  C   UNL A   1      46.039  33.442  28.211  1.00  0.00     0.173 A 
ATOM     90  C   UNL A   1      46.413  32.684  30.462  1.00  0.00     0.173 A 
ATOM     91  F   UNL A   1      45.671  33.217  26.940  1.00  0.00    -0.203 F 
ATOM     92  C   UNL A   1      46.494  34.709  28.564  1.00  0.00     0.198 A 
ATOM     93  C   UNL A   1      46.842  33.959  30.819  1.00  0.00     0.198 A 
ATOM     94  F   UNL A   1      46.390  31.724  31.399  1.00  0.00    -0.203 F 
ATOM     95  F   UNL A   1      46.565  35.676  27.638  1.00  0.00    -0.200 F 
ATOM     96  C   UNL A   1      46.889  34.969  29.869  1.00  0.00     0.200 A 
ATOM     97  F   UNL A   1      47.211  34.211  32.082  1.00  0.00    -0.200 F 
ATOM     98  F   UNL A   1      47.322  36.190  30.209  1.00  0.00    -0.200 F 
ENDBRANCH  65  88
ENDBRANCH  39  40
ENDBRANCH  31  34
ENDBRANCH  29  30
ENDBRANCH  28  29
ENDBRANCH   1  28
TORSDOF 13
ENDMDL
