MODEL 1
REMARK VINA RESULT:     -13.5      0.000      0.000
REMARK SMILES CC(C)c1ccc2c(c1)C(=O)C[C@@H]1[C@@]2(C)CCC[C@]1(C)C(=O)NCCCNC(=O)c1ccc(-c2c3nc(c(-c4c(F)c(F)c(F)c(F)c4F)c4ccc([nH]4)c(-c4c(F)c(F)c(F)c(F)c4F)c4nc(c(-c5c(F)c(F)c(F)c(F)c5F)c5ccc2[nH]5)C=C4)C=C3)cc1
REMARK SMILES IDX 25 1 24 2 23 3 21 4 22 5 19 7 4 8 5 9 9 10 6 11 8 12 7 13
REMARK SMILES IDX 10 14 14 15 12 16 11 17 13 18 16 19 15 20 17 21 18 22 20 23
REMARK SMILES IDX 2 24 1 25 3 26 26 27 27 28 28 29 29 31 30 32 31 33 92 34
REMARK SMILES IDX 32 35 91 36 33 37 34 38 35 39 85 40 36 41 90 42 84 43 86 44
REMARK SMILES IDX 37 45 89 46 83 47 82 48 38 50 70 51 50 52 69 53 51 54 54 55
REMARK SMILES IDX 68 56 87 57 52 58 53 59 67 61 88 62 55 63 39 64 40 65 48 66
REMARK SMILES IDX 41 67 42 68 46 69 49 70 43 71 44 72 47 73 45 74 71 75 72 76
REMARK SMILES IDX 80 77 73 78 74 79 78 80 81 81 75 82 76 83 79 84 77 85 56 86
REMARK SMILES IDX 57 87 65 88 58 89 59 90 63 91 66 92 60 93 61 94 64 95 62 96
REMARK H PARENT 23 6 27 30 86 49 54 60
REMARK Flexibility Score: inf
ROOT
ATOM      1  C   UNL A   1      31.800  29.570  27.160  1.00  0.00     0.042 C 
ENDROOT
BRANCH   1   2
ATOM      2  C   UNL A   1      31.543  28.238  26.465  1.00  0.00     0.117 C 
BRANCH   2   3
ATOM      3  N   UNL A   1      31.272  28.364  25.045  1.00  0.00    -0.356 N 
ATOM      4  C   UNL A   1      31.978  27.630  24.133  1.00  0.00     0.226 C 
ATOM      5  O   UNL A   1      33.083  28.025  23.770  1.00  0.00    -0.274 OA
ATOM      6  H   UNL A   1      30.574  28.985  24.735  1.00  0.00     0.163 HD
BRANCH   4   7
ATOM      7  C   UNL A   1      31.271  26.394  23.531  1.00  0.00     0.050 C 
ATOM      8  C   UNL A   1      36.898  23.400  24.848  1.00  0.00    -0.045 A 
ATOM      9  C   UNL A   1      36.498  22.869  23.615  1.00  0.00     0.004 A 
ATOM     10  C   UNL A   1      35.995  24.243  25.510  1.00  0.00     0.016 A 
ATOM     11  C   UNL A   1      35.247  23.162  23.068  1.00  0.00     0.005 A 
ATOM     12  C   UNL A   1      34.724  24.514  24.962  1.00  0.00     0.022 A 
ATOM     13  C   UNL A   1      34.319  23.981  23.735  1.00  0.00    -0.031 A 
ATOM     14  C   UNL A   1      33.784  25.367  25.703  1.00  0.00     0.163 C 
ATOM     15  C   UNL A   1      32.979  24.353  23.073  1.00  0.00    -0.003 C 
ATOM     16  C   UNL A   1      32.327  25.050  25.506  1.00  0.00     0.086 C 
ATOM     17  O   UNL A   1      34.187  26.258  26.442  1.00  0.00    -0.294 OA
ATOM     18  C   UNL A   1      31.913  25.040  24.022  1.00  0.00     0.022 C 
ATOM     19  C   UNL A   1      33.359  25.250  21.872  1.00  0.00     0.012 C 
ATOM     20  C   UNL A   1      32.307  23.049  22.549  1.00  0.00     0.017 C 
ATOM     21  C   UNL A   1      32.184  25.834  21.124  1.00  0.00     0.002 C 
ATOM     22  C   UNL A   1      31.137  26.511  21.994  1.00  0.00     0.017 C 
ATOM     23  C   UNL A   1      29.802  26.470  24.061  1.00  0.00     0.022 C 
BRANCH   8  24
ATOM     24  C   UNL A   1      38.256  22.989  25.408  1.00  0.00     0.013 C 
ATOM     25  C   UNL A   1      38.624  23.788  26.666  1.00  0.00     0.012 C 
ATOM     26  C   UNL A   1      38.426  21.494  25.696  1.00  0.00     0.012 C 
ENDBRANCH   8  24
ENDBRANCH   4   7
ENDBRANCH   2   3
ENDBRANCH   1   2
BRANCH   1  27
ATOM     27  C   UNL A   1      32.746  30.494  26.402  1.00  0.00     0.118 C 
BRANCH  27  28
ATOM     28  N   UNL A   1      32.624  31.889  26.809  1.00  0.00    -0.352 N 
ATOM     29  C   UNL A   1      33.470  32.649  27.586  1.00  0.00     0.251 C 
ATOM     30  H   UNL A   1      31.821  32.356  26.482  1.00  0.00     0.163 HD
ATOM     31  O   UNL A   1      33.149  33.768  27.961  1.00  0.00    -0.269 OA
BRANCH  29  32
ATOM     32  C   UNL A   1      34.763  32.068  27.998  1.00  0.00     0.039 A 
ATOM     33  C   UNL A   1      34.831  30.733  28.399  1.00  0.00     0.014 A 
ATOM     34  C   UNL A   1      35.891  32.889  28.062  1.00  0.00     0.014 A 
ATOM     35  C   UNL A   1      35.970  30.277  29.052  1.00  0.00     0.010 A 
ATOM     36  C   UNL A   1      37.065  32.397  28.637  1.00  0.00     0.010 A 
ATOM     37  C   UNL A   1      37.092  31.109  29.194  1.00  0.00    -0.014 A 
BRANCH  37  38
ATOM     38  C   UNL A   1      38.268  30.624  29.962  1.00  0.00     0.031 A 
ATOM     39  C   UNL A   1      38.448  31.000  31.409  1.00  0.00     0.074 A 
ATOM     40  C   UNL A   1      39.140  29.786  29.370  1.00  0.00     0.049 A 
ATOM     41  N   UNL A   1      39.414  30.676  32.233  1.00  0.00    -0.248 NA
ATOM     42  C   UNL A   1      37.412  31.852  32.013  1.00  0.00     0.031 C 
ATOM     43  C   UNL A   1      39.054  29.327  27.984  1.00  0.00     0.029 A 
ATOM     44  N   UNL A   1      40.250  29.149  29.865  1.00  0.00    -0.354 N 
ATOM     45  C   UNL A   1      39.115  31.299  33.437  1.00  0.00     0.074 A 
ATOM     46  C   UNL A   1      37.891  32.043  33.235  1.00  0.00     0.031 C 
ATOM     47  C   UNL A   1      40.033  28.440  27.754  1.00  0.00     0.029 A 
ATOM     48  C   UNL A   1      40.856  28.321  28.953  1.00  0.00     0.049 A 
ATOM     49  H   UNL A   1      40.580  29.274  30.783  1.00  0.00     0.167 HD
ATOM     50  C   UNL A   1      39.793  31.242  34.609  1.00  0.00     0.037 A 
ATOM     51  C   UNL A   1      41.962  27.561  29.063  1.00  0.00     0.037 A 
ATOM     52  C   UNL A   1      40.993  30.473  34.816  1.00  0.00     0.049 A 
ATOM     53  C   UNL A   1      42.720  27.555  30.359  1.00  0.00     0.074 A 
ATOM     54  C   UNL A   1      41.743  30.341  35.972  1.00  0.00     0.029 A 
ATOM     55  N   UNL A   1      41.610  29.696  33.847  1.00  0.00    -0.354 N 
ATOM     56  N   UNL A   1      42.437  28.163  31.484  1.00  0.00    -0.248 NA
ATOM     57  C   UNL A   1      43.959  26.767  30.396  1.00  0.00     0.031 C 
ATOM     58  C   UNL A   1      42.838  29.517  35.692  1.00  0.00     0.029 A 
ATOM     59  C   UNL A   1      42.744  29.098  34.375  1.00  0.00     0.049 A 
ATOM     60  H   UNL A   1      41.291  29.586  32.923  1.00  0.00     0.167 HD
ATOM     61  C   UNL A   1      43.452  27.826  32.366  1.00  0.00     0.074 A 
ATOM     62  C   UNL A   1      44.350  26.942  31.652  1.00  0.00     0.031 C 
ATOM     63  C   UNL A   1      43.628  28.221  33.650  1.00  0.00     0.037 A 
BRANCH  50  64
ATOM     64  C   UNL A   1      39.266  32.037  35.768  1.00  0.00     0.064 A 
ATOM     65  C   UNL A   1      38.365  31.485  36.690  1.00  0.00     0.173 A 
ATOM     66  C   UNL A   1      39.730  33.341  36.005  1.00  0.00     0.173 A 
ATOM     67  F   UNL A   1      37.882  30.247  36.503  1.00  0.00    -0.203 F 
ATOM     68  C   UNL A   1      37.939  32.211  37.800  1.00  0.00     0.198 A 
ATOM     69  C   UNL A   1      39.322  34.055  37.129  1.00  0.00     0.198 A 
ATOM     70  F   UNL A   1      40.599  33.913  35.158  1.00  0.00    -0.203 F 
ATOM     71  F   UNL A   1      37.056  31.675  38.652  1.00  0.00    -0.200 F 
ATOM     72  C   UNL A   1      38.425  33.491  38.024  1.00  0.00     0.200 A 
ATOM     73  F   UNL A   1      39.805  35.285  37.351  1.00  0.00    -0.200 F 
ATOM     74  F   UNL A   1      38.029  34.182  39.101  1.00  0.00    -0.200 F 
ENDBRANCH  50  64
BRANCH  51  75
ATOM     75  C   UNL A   1      42.408  26.748  27.904  1.00  0.00     0.064 A 
ATOM     76  C   UNL A   1      41.934  25.443  27.716  1.00  0.00     0.173 A 
ATOM     77  C   UNL A   1      43.282  27.271  26.940  1.00  0.00     0.173 A 
ATOM     78  F   UNL A   1      41.113  24.892  28.622  1.00  0.00    -0.203 F 
ATOM     79  C   UNL A   1      42.321  24.691  26.609  1.00  0.00     0.198 A 
ATOM     80  C   UNL A   1      43.645  26.530  25.819  1.00  0.00     0.198 A 
ATOM     81  F   UNL A   1      43.761  28.517  27.073  1.00  0.00    -0.203 F 
ATOM     82  F   UNL A   1      41.877  23.434  26.467  1.00  0.00    -0.200 F 
ATOM     83  C   UNL A   1      43.167  25.238  25.656  1.00  0.00     0.200 A 
ATOM     84  F   UNL A   1      44.449  27.069  24.893  1.00  0.00    -0.200 F 
ATOM     85  F   UNL A   1      43.525  24.521  24.583  1.00  0.00    -0.200 F 
ENDBRANCH  51  75
BRANCH  63  86
ATOM     86  C   UNL A   1      44.829  27.693  34.376  1.00  0.00     0.064 A 
ATOM     87  C   UNL A   1      46.037  28.404  34.401  1.00  0.00     0.173 A 
ATOM     88  C   UNL A   1      44.752  26.496  35.104  1.00  0.00     0.173 A 
ATOM     89  F   UNL A   1      46.163  29.545  33.709  1.00  0.00    -0.203 F 
ATOM     90  C   UNL A   1      47.130  27.928  35.120  1.00  0.00     0.198 A 
ATOM     91  C   UNL A   1      45.838  26.037  35.842  1.00  0.00     0.198 A 
ATOM     92  F   UNL A   1      43.615  25.783  35.116  1.00  0.00    -0.203 F 
ATOM     93  F   UNL A   1      48.286  28.606  35.105  1.00  0.00    -0.200 F 
ATOM     94  C   UNL A   1      47.027  26.751  35.847  1.00  0.00     0.200 A 
ATOM     95  F   UNL A   1      45.733  24.906  36.555  1.00  0.00    -0.200 F 
ATOM     96  F   UNL A   1      48.077  26.302  36.549  1.00  0.00    -0.200 F 
ENDBRANCH  63  86
ENDBRANCH  37  38
ENDBRANCH  29  32
ENDBRANCH  27  28
ENDBRANCH   1  27
TORSDOF 11
ENDMDL
MODEL 2
REMARK VINA RESULT:     -13.5      4.307      9.848
REMARK SMILES CC(C)c1ccc2c(c1)C(=O)C[C@@H]1[C@@]2(C)CCC[C@]1(C)C(=O)NCCCNC(=O)c1ccc(-c2c3nc(c(-c4c(F)c(F)c(F)c(F)c4F)c4ccc([nH]4)c(-c4c(F)c(F)c(F)c(F)c4F)c4nc(c(-c5c(F)c(F)c(F)c(F)c5F)c5ccc2[nH]5)C=C4)C=C3)cc1
REMARK SMILES IDX 25 1 24 2 23 3 21 4 22 5 19 7 4 8 5 9 9 10 6 11 8 12 7 13
REMARK SMILES IDX 10 14 14 15 12 16 11 17 13 18 16 19 15 20 17 21 18 22 20 23
REMARK SMILES IDX 2 24 1 25 3 26 26 27 27 28 28 29 29 31 30 32 31 33 92 34
REMARK SMILES IDX 32 35 91 36 33 37 34 38 35 39 85 40 36 41 90 42 84 43 86 44
REMARK SMILES IDX 37 45 89 46 83 47 82 48 38 50 70 51 50 52 69 53 51 54 54 55
REMARK SMILES IDX 68 56 87 57 52 58 53 59 67 61 88 62 55 63 39 64 40 65 48 66
REMARK SMILES IDX 41 67 42 68 46 69 49 70 43 71 44 72 47 73 45 74 71 75 72 76
REMARK SMILES IDX 80 77 73 78 74 79 78 80 81 81 75 82 76 83 79 84 77 85 56 86
REMARK SMILES IDX 57 87 65 88 58 89 59 90 63 91 66 92 60 93 61 94 64 95 62 96
REMARK H PARENT 23 6 27 30 86 49 54 60
REMARK Flexibility Score: inf
ROOT
ATOM      1  C   UNL A   1      36.875  20.471  24.991  1.00  0.00     0.042 C 
ENDROOT
BRANCH   1   2
ATOM      2  C   UNL A   1      35.718  21.429  24.734  1.00  0.00     0.117 C 
BRANCH   2   3
ATOM      3  N   UNL A   1      34.472  21.017  25.351  1.00  0.00    -0.356 N 
ATOM      4  C   UNL A   1      33.586  21.947  25.820  1.00  0.00     0.226 C 
ATOM      5  O   UNL A   1      33.762  22.436  26.933  1.00  0.00    -0.274 OA
ATOM      6  H   UNL A   1      34.263  20.059  25.434  1.00  0.00     0.163 HD
BRANCH   4   7
ATOM      7  C   UNL A   1      32.344  22.235  24.946  1.00  0.00     0.050 C 
ATOM      8  C   UNL A   1      33.572  28.442  26.470  1.00  0.00    -0.045 A 
ATOM      9  C   UNL A   1      32.174  28.343  26.498  1.00  0.00     0.004 A 
ATOM     10  C   UNL A   1      34.287  27.329  26.005  1.00  0.00     0.016 A 
ATOM     11  C   UNL A   1      31.518  27.185  26.075  1.00  0.00     0.005 A 
ATOM     12  C   UNL A   1      33.614  26.174  25.557  1.00  0.00     0.022 A 
ATOM     13  C   UNL A   1      32.221  26.074  25.578  1.00  0.00    -0.031 A 
ATOM     14  C   UNL A   1      34.393  25.041  25.035  1.00  0.00     0.163 C 
ATOM     15  C   UNL A   1      31.478  24.780  25.194  1.00  0.00    -0.003 C 
ATOM     16  C   UNL A   1      33.717  24.228  23.965  1.00  0.00     0.086 C 
ATOM     17  O   UNL A   1      35.525  24.809  25.446  1.00  0.00    -0.294 OA
ATOM     18  C   UNL A   1      32.331  23.712  24.395  1.00  0.00     0.022 C 
ATOM     19  C   UNL A   1      30.935  24.217  26.528  1.00  0.00     0.012 C 
ATOM     20  C   UNL A   1      30.282  25.153  24.269  1.00  0.00     0.017 C 
ATOM     21  C   UNL A   1      30.253  22.874  26.415  1.00  0.00     0.002 C 
ATOM     22  C   UNL A   1      31.038  21.813  25.661  1.00  0.00     0.017 C 
ATOM     23  C   UNL A   1      32.465  21.252  23.735  1.00  0.00     0.022 C 
BRANCH   8  24
ATOM     24  C   UNL A   1      34.214  29.759  26.893  1.00  0.00     0.013 C 
ATOM     25  C   UNL A   1      33.170  30.780  27.368  1.00  0.00     0.012 C 
ATOM     26  C   UNL A   1      35.320  29.646  27.947  1.00  0.00     0.012 C 
ENDBRANCH   8  24
ENDBRANCH   4   7
ENDBRANCH   2   3
ENDBRANCH   1   2
BRANCH   1  27
ATOM     27  C   UNL A   1      38.173  21.158  25.399  1.00  0.00     0.118 C 
BRANCH  27  28
ATOM     28  N   UNL A   1      39.194  20.221  25.853  1.00  0.00    -0.352 N 
ATOM     29  C   UNL A   1      40.364  20.469  26.537  1.00  0.00     0.251 C 
ATOM     30  H   UNL A   1      39.023  19.274  25.642  1.00  0.00     0.163 HD
ATOM     31  O   UNL A   1      41.190  19.585  26.716  1.00  0.00    -0.269 OA
BRANCH  29  32
ATOM     32  C   UNL A   1      40.626  21.840  27.015  1.00  0.00     0.039 A 
ATOM     33  C   UNL A   1      40.098  22.932  26.324  1.00  0.00     0.014 A 
ATOM     34  C   UNL A   1      41.472  22.032  28.109  1.00  0.00     0.014 A 
ATOM     35  C   UNL A   1      40.576  24.207  26.600  1.00  0.00     0.010 A 
ATOM     36  C   UNL A   1      41.880  23.326  28.442  1.00  0.00     0.010 A 
ATOM     37  C   UNL A   1      41.486  24.416  27.649  1.00  0.00    -0.014 A 
BRANCH  37  38
ATOM     38  C   UNL A   1      42.041  25.776  27.875  1.00  0.00     0.031 A 
ATOM     39  C   UNL A   1      43.365  26.174  27.278  1.00  0.00     0.074 A 
ATOM     40  C   UNL A   1      41.315  26.676  28.564  1.00  0.00     0.049 A 
ATOM     41  N   UNL A   1      44.006  27.312  27.375  1.00  0.00    -0.248 NA
ATOM     42  C   UNL A   1      44.064  25.164  26.467  1.00  0.00     0.031 C 
ATOM     43  C   UNL A   1      40.006  26.417  29.165  1.00  0.00     0.029 A 
ATOM     44  N   UNL A   1      41.559  27.995  28.852  1.00  0.00    -0.354 N 
ATOM     45  C   UNL A   1      45.186  27.148  26.661  1.00  0.00     0.074 A 
ATOM     46  C   UNL A   1      45.189  25.793  26.156  1.00  0.00     0.031 C 
ATOM     47  C   UNL A   1      39.536  27.553  29.700  1.00  0.00     0.029 A 
ATOM     48  C   UNL A   1      40.539  28.601  29.542  1.00  0.00     0.049 A 
ATOM     49  H   UNL A   1      42.384  28.461  28.589  1.00  0.00     0.167 HD
ATOM     50  C   UNL A   1      46.170  28.053  26.437  1.00  0.00     0.037 A 
ATOM     51  C   UNL A   1      40.427  29.858  30.011  1.00  0.00     0.037 A 
ATOM     52  C   UNL A   1      46.148  29.412  26.913  1.00  0.00     0.049 A 
ATOM     53  C   UNL A   1      41.554  30.825  29.789  1.00  0.00     0.074 A 
ATOM     54  C   UNL A   1      47.091  30.407  26.724  1.00  0.00     0.029 A 
ATOM     55  N   UNL A   1      45.122  29.969  27.664  1.00  0.00    -0.354 N 
ATOM     56  N   UNL A   1      42.672  30.652  29.129  1.00  0.00    -0.248 NA
ATOM     57  C   UNL A   1      41.410  32.158  30.389  1.00  0.00     0.031 C 
ATOM     58  C   UNL A   1      46.657  31.554  27.396  1.00  0.00     0.029 A 
ATOM     59  C   UNL A   1      45.422  31.289  27.963  1.00  0.00     0.049 A 
ATOM     60  H   UNL A   1      44.305  29.498  27.943  1.00  0.00     0.167 HD
ATOM     61  C   UNL A   1      43.360  31.852  29.223  1.00  0.00     0.074 A 
ATOM     62  C   UNL A   1      42.524  32.754  29.987  1.00  0.00     0.031 C 
ATOM     63  C   UNL A   1      44.579  32.174  28.726  1.00  0.00     0.037 A 
BRANCH  50  64
ATOM     64  C   UNL A   1      47.367  27.612  25.645  1.00  0.00     0.064 A 
ATOM     65  C   UNL A   1      47.399  27.706  24.247  1.00  0.00     0.173 A 
ATOM     66  C   UNL A   1      48.526  27.164  26.300  1.00  0.00     0.173 A 
ATOM     67  F   UNL A   1      46.314  28.117  23.573  1.00  0.00    -0.203 F 
ATOM     68  C   UNL A   1      48.543  27.359  23.531  1.00  0.00     0.198 A 
ATOM     69  C   UNL A   1      49.675  26.841  25.583  1.00  0.00     0.198 A 
ATOM     70  F   UNL A   1      48.550  27.062  27.637  1.00  0.00    -0.203 F 
ATOM     71  F   UNL A   1      48.542  27.429  22.193  1.00  0.00    -0.200 F 
ATOM     72  C   UNL A   1      49.682  26.936  24.200  1.00  0.00     0.200 A 
ATOM     73  F   UNL A   1      50.779  26.449  26.233  1.00  0.00    -0.200 F 
ATOM     74  F   UNL A   1      50.787  26.619  23.511  1.00  0.00    -0.200 F 
ENDBRANCH  50  64
BRANCH  51  75
ATOM     75  C   UNL A   1      39.197  30.260  30.738  1.00  0.00     0.064 A 
ATOM     76  C   UNL A   1      39.063  30.019  32.112  1.00  0.00     0.173 A 
ATOM     77  C   UNL A   1      38.149  30.926  30.086  1.00  0.00     0.173 A 
ATOM     78  F   UNL A   1      40.029  29.365  32.774  1.00  0.00    -0.203 F 
ATOM     79  C   UNL A   1      37.926  30.428  32.805  1.00  0.00     0.198 A 
ATOM     80  C   UNL A   1      37.027  31.361  30.785  1.00  0.00     0.198 A 
ATOM     81  F   UNL A   1      38.231  31.182  28.772  1.00  0.00    -0.203 F 
ATOM     82  F   UNL A   1      37.809  30.161  34.113  1.00  0.00    -0.200 F 
ATOM     83  C   UNL A   1      36.914  31.108  32.144  1.00  0.00     0.200 A 
ATOM     84  F   UNL A   1      36.059  32.032  30.146  1.00  0.00    -0.200 F 
ATOM     85  F   UNL A   1      35.829  31.516  32.815  1.00  0.00    -0.200 F 
ENDBRANCH  51  75
BRANCH  63  86
ATOM     86  C   UNL A   1      45.083  33.563  28.980  1.00  0.00     0.064 A 
ATOM     87  C   UNL A   1      45.921  33.848  30.067  1.00  0.00     0.173 A 
ATOM     88  C   UNL A   1      44.775  34.606  28.093  1.00  0.00     0.173 A 
ATOM     89  F   UNL A   1      46.231  32.887  30.950  1.00  0.00    -0.203 F 
ATOM     90  C   UNL A   1      46.423  35.131  30.264  1.00  0.00     0.198 A 
ATOM     91  C   UNL A   1      45.299  35.881  28.278  1.00  0.00     0.198 A 
ATOM     92  F   UNL A   1      43.982  34.382  27.034  1.00  0.00    -0.203 F 
ATOM     93  F   UNL A   1      47.196  35.390  31.328  1.00  0.00    -0.200 F 
ATOM     94  C   UNL A   1      46.119  36.143  29.366  1.00  0.00     0.200 A 
ATOM     95  F   UNL A   1      45.016  36.855  27.402  1.00  0.00    -0.200 F 
ATOM     96  F   UNL A   1      46.615  37.375  29.551  1.00  0.00    -0.200 F 
ENDBRANCH  63  86
ENDBRANCH  37  38
ENDBRANCH  29  32
ENDBRANCH  27  28
ENDBRANCH   1  27
TORSDOF 11
ENDMDL
MODEL 3
REMARK VINA RESULT:     -13.5      0.686      1.747
REMARK SMILES CC(C)c1ccc2c(c1)C(=O)C[C@@H]1[C@@]2(C)CCC[C@]1(C)C(=O)NCCCNC(=O)c1ccc(-c2c3nc(c(-c4c(F)c(F)c(F)c(F)c4F)c4ccc([nH]4)c(-c4c(F)c(F)c(F)c(F)c4F)c4nc(c(-c5c(F)c(F)c(F)c(F)c5F)c5ccc2[nH]5)C=C4)C=C3)cc1
REMARK SMILES IDX 25 1 24 2 23 3 21 4 22 5 19 7 4 8 5 9 9 10 6 11 8 12 7 13
REMARK SMILES IDX 10 14 14 15 12 16 11 17 13 18 16 19 15 20 17 21 18 22 20 23
REMARK SMILES IDX 2 24 1 25 3 26 26 27 27 28 28 29 29 31 30 32 31 33 92 34
REMARK SMILES IDX 32 35 91 36 33 37 34 38 35 39 85 40 36 41 90 42 84 43 86 44
REMARK SMILES IDX 37 45 89 46 83 47 82 48 38 50 70 51 50 52 69 53 51 54 54 55
REMARK SMILES IDX 68 56 87 57 52 58 53 59 67 61 88 62 55 63 39 64 40 65 48 66
REMARK SMILES IDX 41 67 42 68 46 69 49 70 43 71 44 72 47 73 45 74 71 75 72 76
REMARK SMILES IDX 80 77 73 78 74 79 78 80 81 81 75 82 76 83 79 84 77 85 56 86
REMARK SMILES IDX 57 87 65 88 58 89 59 90 63 91 66 92 60 93 61 94 64 95 62 96
REMARK H PARENT 23 6 27 30 86 49 54 60
REMARK Flexibility Score: inf
ROOT
ATOM      1  C   UNL A   1      31.677  31.096  26.129  1.00  0.00     0.042 C 
ENDROOT
BRANCH   1   2
ATOM      2  C   UNL A   1      31.739  29.635  25.698  1.00  0.00     0.117 C 
BRANCH   2   3
ATOM      3  N   UNL A   1      31.565  29.441  24.271  1.00  0.00    -0.356 N 
ATOM      4  C   UNL A   1      32.114  28.357  23.643  1.00  0.00     0.226 C 
ATOM      5  O   UNL A   1      33.295  28.393  23.308  1.00  0.00    -0.274 OA
ATOM      6  H   UNL A   1      31.047  30.095  23.749  1.00  0.00     0.163 HD
BRANCH   4   7
ATOM      7  C   UNL A   1      31.161  27.191  23.295  1.00  0.00     0.050 C 
ATOM      8  C   UNL A   1      36.087  23.467  25.350  1.00  0.00    -0.045 A 
ATOM      9  C   UNL A   1      35.565  22.781  24.246  1.00  0.00     0.004 A 
ATOM     10  C   UNL A   1      35.385  24.595  25.798  1.00  0.00     0.016 A 
ATOM     11  C   UNL A   1      34.390  23.199  23.618  1.00  0.00     0.005 A 
ATOM     12  C   UNL A   1      34.186  24.995  25.174  1.00  0.00     0.022 A 
ATOM     13  C   UNL A   1      33.659  24.310  24.076  1.00  0.00    -0.031 A 
ATOM     14  C   UNL A   1      33.452  26.157  25.696  1.00  0.00     0.163 C 
ATOM     15  C   UNL A   1      32.411  24.798  23.317  1.00  0.00    -0.003 C 
ATOM     16  C   UNL A   1      31.957  26.106  25.534  1.00  0.00     0.086 C 
ATOM     17  O   UNL A   1      34.040  27.083  26.243  1.00  0.00    -0.294 OA
ATOM     18  C   UNL A   1      31.524  25.870  24.074  1.00  0.00     0.022 C 
ATOM     19  C   UNL A   1      32.943  25.327  21.965  1.00  0.00     0.012 C 
ATOM     20  C   UNL A   1      31.480  23.576  23.060  1.00  0.00     0.017 C 
ATOM     21  C   UNL A   1      31.898  25.966  21.082  1.00  0.00     0.002 C 
ATOM     22  C   UNL A   1      31.026  27.008  21.764  1.00  0.00     0.017 C 
ATOM     23  C   UNL A   1      29.747  27.672  23.760  1.00  0.00     0.022 C 
BRANCH   8  24
ATOM     24  C   UNL A   1      37.343  22.917  26.018  1.00  0.00     0.013 C 
ATOM     25  C   UNL A   1      37.974  21.779  25.204  1.00  0.00     0.012 C 
ATOM     26  C   UNL A   1      38.421  23.953  26.352  1.00  0.00     0.012 C 
ENDBRANCH   8  24
ENDBRANCH   4   7
ENDBRANCH   2   3
ENDBRANCH   1   2
BRANCH   1  27
ATOM     27  C   UNL A   1      32.629  31.449  27.266  1.00  0.00     0.118 C 
BRANCH  27  28
ATOM     28  N   UNL A   1      32.809  32.887  27.431  1.00  0.00    -0.352 N 
ATOM     29  C   UNL A   1      33.871  33.577  27.972  1.00  0.00     0.251 C 
ATOM     30  H   UNL A   1      32.064  33.445  27.110  1.00  0.00     0.163 HD
ATOM     31  O   UNL A   1      33.804  34.781  28.174  1.00  0.00    -0.269 OA
BRANCH  29  32
ATOM     32  C   UNL A   1      35.085  32.826  28.346  1.00  0.00     0.039 A 
ATOM     33  C   UNL A   1      34.979  31.506  28.789  1.00  0.00     0.014 A 
ATOM     34  C   UNL A   1      36.321  33.475  28.333  1.00  0.00     0.014 A 
ATOM     35  C   UNL A   1      36.070  30.906  29.405  1.00  0.00     0.010 A 
ATOM     36  C   UNL A   1      37.438  32.833  28.873  1.00  0.00     0.010 A 
ATOM     37  C   UNL A   1      37.306  31.570  29.471  1.00  0.00    -0.014 A 
BRANCH  37  38
ATOM     38  C   UNL A   1      38.435  30.940  30.203  1.00  0.00     0.031 A 
ATOM     39  C   UNL A   1      38.662  31.231  31.663  1.00  0.00     0.074 A 
ATOM     40  C   UNL A   1      39.218  30.050  29.564  1.00  0.00     0.049 A 
ATOM     41  N   UNL A   1      39.598  30.779  32.460  1.00  0.00    -0.248 NA
ATOM     42  C   UNL A   1      37.718  32.150  32.317  1.00  0.00     0.031 C 
ATOM     43  C   UNL A   1      39.078  29.665  28.159  1.00  0.00     0.029 A 
ATOM     44  N   UNL A   1      40.265  29.287  30.016  1.00  0.00    -0.354 N 
ATOM     45  C   UNL A   1      39.369  31.372  33.694  1.00  0.00     0.074 A 
ATOM     46  C   UNL A   1      38.222  32.239  33.539  1.00  0.00     0.031 C 
ATOM     47  C   UNL A   1      39.965  28.699  27.879  1.00  0.00     0.029 A 
ATOM     48  C   UNL A   1      40.781  28.447  29.061  1.00  0.00     0.049 A 
ATOM     49  H   UNL A   1      40.612  29.339  30.935  1.00  0.00     0.167 HD
ATOM     50  C   UNL A   1      40.048  31.197  34.854  1.00  0.00     0.037 A 
ATOM     51  C   UNL A   1      41.809  27.580  29.125  1.00  0.00     0.037 A 
ATOM     52  C   UNL A   1      41.169  30.307  35.013  1.00  0.00     0.049 A 
ATOM     53  C   UNL A   1      42.574  27.442  30.410  1.00  0.00     0.074 A 
ATOM     54  C   UNL A   1      41.912  30.052  36.153  1.00  0.00     0.029 A 
ATOM     55  N   UNL A   1      41.702  29.519  34.002  1.00  0.00    -0.354 N 
ATOM     56  N   UNL A   1      42.358  28.023  31.564  1.00  0.00    -0.248 NA
ATOM     57  C   UNL A   1      43.731  26.539  30.398  1.00  0.00     0.031 C 
ATOM     58  C   UNL A   1      42.920  29.141  35.823  1.00  0.00     0.029 A 
ATOM     59  C   UNL A   1      42.776  28.792  34.490  1.00  0.00     0.049 A 
ATOM     60  H   UNL A   1      41.367  29.483  33.078  1.00  0.00     0.167 HD
ATOM     61  C   UNL A   1      43.343  27.551  32.418  1.00  0.00     0.074 A 
ATOM     62  C   UNL A   1      44.146  26.618  31.655  1.00  0.00     0.031 C 
ATOM     63  C   UNL A   1      43.566  27.868  33.716  1.00  0.00     0.037 A 
BRANCH  50  64
ATOM     64  C   UNL A   1      39.609  31.986  36.054  1.00  0.00     0.064 A 
ATOM     65  C   UNL A   1      40.213  33.204  36.394  1.00  0.00     0.173 A 
ATOM     66  C   UNL A   1      38.517  31.557  36.826  1.00  0.00     0.173 A 
ATOM     67  F   UNL A   1      41.267  33.653  35.695  1.00  0.00    -0.203 F 
ATOM     68  C   UNL A   1      39.749  33.960  37.468  1.00  0.00     0.198 A 
ATOM     69  C   UNL A   1      38.040  32.326  37.884  1.00  0.00     0.198 A 
ATOM     70  F   UNL A   1      37.899  30.402  36.539  1.00  0.00    -0.203 F 
ATOM     71  F   UNL A   1      40.359  35.107  37.793  1.00  0.00    -0.200 F 
ATOM     72  C   UNL A   1      38.657  33.525  38.206  1.00  0.00     0.200 A 
ATOM     73  F   UNL A   1      36.976  31.912  38.585  1.00  0.00    -0.200 F 
ATOM     74  F   UNL A   1      38.201  34.262  39.228  1.00  0.00    -0.200 F 
ENDBRANCH  50  64
BRANCH  51  75
ATOM     75  C   UNL A   1      42.166  26.782  27.925  1.00  0.00     0.064 A 
ATOM     76  C   UNL A   1      43.043  27.292  26.957  1.00  0.00     0.173 A 
ATOM     77  C   UNL A   1      41.672  25.482  27.740  1.00  0.00     0.173 A 
ATOM     78  F   UNL A   1      43.523  28.538  27.080  1.00  0.00    -0.203 F 
ATOM     79  C   UNL A   1      43.409  26.531  25.850  1.00  0.00     0.198 A 
ATOM     80  C   UNL A   1      42.063  24.713  26.648  1.00  0.00     0.198 A 
ATOM     81  F   UNL A   1      40.832  24.949  28.639  1.00  0.00    -0.203 F 
ATOM     82  F   UNL A   1      44.226  27.052  24.923  1.00  0.00    -0.200 F 
ATOM     83  C   UNL A   1      42.928  25.239  25.701  1.00  0.00     0.200 A 
ATOM     84  F   UNL A   1      41.608  23.459  26.518  1.00  0.00    -0.200 F 
ATOM     85  F   UNL A   1      43.295  24.502  24.644  1.00  0.00    -0.200 F 
ENDBRANCH  51  75
BRANCH  63  86
ATOM     86  C   UNL A   1      44.716  27.195  34.404  1.00  0.00     0.064 A 
ATOM     87  C   UNL A   1      45.985  27.788  34.453  1.00  0.00     0.173 A 
ATOM     88  C   UNL A   1      44.531  25.975  35.073  1.00  0.00     0.173 A 
ATOM     89  F   UNL A   1      46.214  28.946  33.816  1.00  0.00    -0.203 F 
ATOM     90  C   UNL A   1      47.033  27.177  35.137  1.00  0.00     0.198 A 
ATOM     91  C   UNL A   1      45.573  25.380  35.777  1.00  0.00     0.198 A 
ATOM     92  F   UNL A   1      43.332  25.372  35.061  1.00  0.00    -0.203 F 
ATOM     93  F   UNL A   1      48.246  27.744  35.144  1.00  0.00    -0.200 F 
ATOM     94  C   UNL A   1      46.823  25.980  35.805  1.00  0.00     0.200 A 
ATOM     95  F   UNL A   1      45.366  24.231  36.434  1.00  0.00    -0.200 F 
ATOM     96  F   UNL A   1      47.830  25.400  36.474  1.00  0.00    -0.200 F 
ENDBRANCH  63  86
ENDBRANCH  37  38
ENDBRANCH  29  32
ENDBRANCH  27  28
ENDBRANCH   1  27
TORSDOF 11
ENDMDL
