MODEL 1
REMARK VINA RESULT:     -12.4      0.000      0.000
REMARK SMILES O=C(CSCc1nnnn1-c1ccc([N+](=O)[O-])cc1)NCCCNC(=O)c1ccc(-c2c3nc(c(-c4c(F)c(F)c(F)c(F)c4F)c4ccc([nH]4)c(-c4c(F)c(F)c(F)c(F)c4F)c4nc(c(-c5c(F)c(F)c(F)c(F)c5F)c5ccc2[nH]5)C=C4)C=C3)cc1
REMARK SMILES IDX 1 1 2 2 20 3 3 5 4 6 5 7 6 8 7 9 10 10 8 11 9 12 11 13 12 14
REMARK SMILES IDX 19 15 13 16 18 17 14 18 15 19 16 20 17 21 21 22 22 23 23 24
REMARK SMILES IDX 24 25 25 26 26 28 27 29 28 30 89 31 29 32 88 33 30 34 31 35
REMARK SMILES IDX 32 36 82 37 33 38 87 39 81 40 83 41 34 42 86 43 80 44 79 45
REMARK SMILES IDX 35 47 67 48 47 49 66 50 48 51 51 52 65 53 84 54 49 55 50 56
REMARK SMILES IDX 64 58 85 59 52 60 36 61 37 62 45 63 38 64 39 65 43 66 46 67
REMARK SMILES IDX 40 68 41 69 44 70 42 71 68 72 69 73 77 74 70 75 71 76 75 77
REMARK SMILES IDX 78 78 72 79 73 80 76 81 74 82 53 83 54 84 62 85 55 86 56 87
REMARK SMILES IDX 60 88 63 89 57 90 58 91 61 92 59 93
REMARK H PARENT 20 4 24 27 83 46 51 57
REMARK Flexibility Score: inf
ROOT
ATOM      1  O   UNL A   1      38.659  23.785  26.447  1.00  0.00    -0.274 OA
ATOM      2  C   UNL A   1      38.206  22.762  25.937  1.00  0.00     0.230 C 
ATOM      3  N   UNL A   1      38.840  21.548  26.067  1.00  0.00    -0.355 N 
ATOM      4  H   UNL A   1      38.348  20.731  25.827  1.00  0.00     0.163 HD
ENDROOT
BRANCH   2   5
ATOM      5  C   UNL A   1      36.891  22.787  25.166  1.00  0.00     0.169 C 
BRANCH   5   6
ATOM      6  S   UNL A   1      36.039  21.178  25.024  1.00  0.00    -0.144 SA
BRANCH   6   7
ATOM      7  C   UNL A   1      34.334  21.578  25.553  1.00  0.00     0.149 C 
BRANCH   7   8
ATOM      8  C   UNL A   1      33.330  21.596  24.458  1.00  0.00     0.166 A 
ATOM      9  N   UNL A   1      32.876  22.673  23.843  1.00  0.00    -0.113 NA
ATOM     10  N   UNL A   1      32.772  20.489  23.835  1.00  0.00    -0.196 N 
ATOM     11  N   UNL A   1      32.133  22.230  22.783  1.00  0.00    -0.023 NA
ATOM     12  N   UNL A   1      32.131  20.909  22.724  1.00  0.00    -0.040 NA
BRANCH  10  13
ATOM     13  C   UNL A   1      32.878  19.119  24.150  1.00  0.00     0.069 A 
ATOM     14  C   UNL A   1      33.298  18.228  23.151  1.00  0.00     0.035 A 
ATOM     15  C   UNL A   1      32.627  18.663  25.449  1.00  0.00     0.035 A 
ATOM     16  C   UNL A   1      33.607  16.907  23.488  1.00  0.00     0.088 A 
ATOM     17  C   UNL A   1      32.894  17.332  25.778  1.00  0.00     0.088 A 
ATOM     18  C   UNL A   1      33.441  16.476  24.811  1.00  0.00     0.269 A 
BRANCH  18  19
ATOM     19  N   UNL A   1      33.918  15.147  25.213  1.00  0.00     0.062 N 
ATOM     20  O   UNL A   1      33.073  14.274  25.454  1.00  0.00    -0.258 OA
ATOM     21  O   UNL A   1      35.145  14.974  25.275  1.00  0.00    -0.258 OA
ENDBRANCH  18  19
ENDBRANCH  10  13
ENDBRANCH   7   8
ENDBRANCH   6   7
ENDBRANCH   5   6
ENDBRANCH   2   5
BRANCH   3  22
ATOM     22  C   UNL A   1      40.210  21.421  26.546  1.00  0.00     0.117 C 
BRANCH  22  23
ATOM     23  C   UNL A   1      40.974  20.168  26.109  1.00  0.00     0.042 C 
BRANCH  23  24
ATOM     24  C   UNL A   1      42.281  19.982  26.852  1.00  0.00     0.118 C 
BRANCH  24  25
ATOM     25  N   UNL A   1      43.456  19.799  25.977  1.00  0.00    -0.352 N 
ATOM     26  C   UNL A   1      44.153  20.751  25.249  1.00  0.00     0.251 C 
ATOM     27  H   UNL A   1      43.790  18.876  25.900  1.00  0.00     0.163 HD
ATOM     28  O   UNL A   1      44.895  20.418  24.317  1.00  0.00    -0.269 OA
BRANCH  26  29
ATOM     29  C   UNL A   1      44.004  22.171  25.600  1.00  0.00     0.039 A 
ATOM     30  C   UNL A   1      43.157  23.066  24.938  1.00  0.00     0.014 A 
ATOM     31  C   UNL A   1      44.714  22.587  26.711  1.00  0.00     0.014 A 
ATOM     32  C   UNL A   1      43.018  24.354  25.460  1.00  0.00     0.010 A 
ATOM     33  C   UNL A   1      44.267  23.658  27.410  1.00  0.00     0.010 A 
ATOM     34  C   UNL A   1      43.586  24.632  26.712  1.00  0.00    -0.014 A 
BRANCH  34  35
ATOM     35  C   UNL A   1      43.462  25.900  27.412  1.00  0.00     0.031 A 
ATOM     36  C   UNL A   1      44.468  26.892  26.987  1.00  0.00     0.074 A 
ATOM     37  C   UNL A   1      42.358  26.210  28.136  1.00  0.00     0.049 A 
ATOM     38  N   UNL A   1      45.476  27.318  27.667  1.00  0.00    -0.248 NA
ATOM     39  C   UNL A   1      44.467  27.334  25.581  1.00  0.00     0.031 C 
ATOM     40  C   UNL A   1      41.142  25.397  28.326  1.00  0.00     0.029 A 
ATOM     41  N   UNL A   1      42.031  27.369  28.778  1.00  0.00    -0.354 N 
ATOM     42  C   UNL A   1      46.088  28.272  26.862  1.00  0.00     0.074 A 
ATOM     43  C   UNL A   1      45.588  28.058  25.532  1.00  0.00     0.031 C 
ATOM     44  C   UNL A   1      40.149  26.157  28.837  1.00  0.00     0.029 A 
ATOM     45  C   UNL A   1      40.697  27.455  29.177  1.00  0.00     0.049 A 
ATOM     46  H   UNL A   1      42.684  28.086  28.947  1.00  0.00     0.167 HD
ATOM     47  C   UNL A   1      46.674  29.361  27.430  1.00  0.00     0.037 A 
ATOM     48  C   UNL A   1      40.087  28.518  29.759  1.00  0.00     0.037 A 
ATOM     49  C   UNL A   1      46.777  29.183  28.858  1.00  0.00     0.049 A 
ATOM     50  C   UNL A   1      41.153  29.360  30.343  1.00  0.00     0.074 A 
ATOM     51  C   UNL A   1      47.543  28.425  29.716  1.00  0.00     0.029 A 
ATOM     52  N   UNL A   1      45.652  29.567  29.542  1.00  0.00    -0.354 N 
ATOM     53  N   UNL A   1      41.891  28.979  31.348  1.00  0.00    -0.248 NA
ATOM     54  C   UNL A   1      41.679  30.478  29.569  1.00  0.00     0.031 C 
ATOM     55  C   UNL A   1      46.739  28.209  30.875  1.00  0.00     0.029 A 
ATOM     56  C   UNL A   1      45.530  28.884  30.721  1.00  0.00     0.049 A 
ATOM     57  H   UNL A   1      45.014  30.246  29.225  1.00  0.00     0.167 HD
ATOM     58  C   UNL A   1      43.142  29.493  31.066  1.00  0.00     0.074 A 
ATOM     59  C   UNL A   1      42.913  30.541  30.079  1.00  0.00     0.031 C 
ATOM     60  C   UNL A   1      44.262  28.796  31.408  1.00  0.00     0.037 A 
BRANCH  47  61
ATOM     61  C   UNL A   1      46.689  30.754  26.835  1.00  0.00     0.064 A 
ATOM     62  C   UNL A   1      47.899  31.480  26.854  1.00  0.00     0.173 A 
ATOM     63  C   UNL A   1      45.534  31.513  26.550  1.00  0.00     0.173 A 
ATOM     64  F   UNL A   1      49.059  30.866  27.134  1.00  0.00    -0.203 F 
ATOM     65  C   UNL A   1      47.934  32.866  26.675  1.00  0.00     0.198 A 
ATOM     66  C   UNL A   1      45.579  32.887  26.319  1.00  0.00     0.198 A 
ATOM     67  F   UNL A   1      44.303  30.992  26.599  1.00  0.00    -0.203 F 
ATOM     68  F   UNL A   1      49.088  33.528  26.824  1.00  0.00    -0.200 F 
ATOM     69  C   UNL A   1      46.773  33.569  26.413  1.00  0.00     0.200 A 
ATOM     70  F   UNL A   1      44.438  33.553  26.092  1.00  0.00    -0.200 F 
ATOM     71  F   UNL A   1      46.792  34.903  26.300  1.00  0.00    -0.200 F 
ENDBRANCH  47  61
BRANCH  48  72
ATOM     72  C   UNL A   1      38.679  28.970  29.687  1.00  0.00     0.064 A 
ATOM     73  C   UNL A   1      37.905  29.162  30.845  1.00  0.00     0.173 A 
ATOM     74  C   UNL A   1      38.167  29.513  28.494  1.00  0.00     0.173 A 
ATOM     75  F   UNL A   1      38.340  28.709  32.030  1.00  0.00    -0.203 F 
ATOM     76  C   UNL A   1      36.708  29.887  30.816  1.00  0.00     0.198 A 
ATOM     77  C   UNL A   1      36.974  30.238  28.466  1.00  0.00     0.198 A 
ATOM     78  F   UNL A   1      38.870  29.433  27.355  1.00  0.00    -0.203 F 
ATOM     79  F   UNL A   1      36.029  30.106  31.951  1.00  0.00    -0.200 F 
ATOM     80  C   UNL A   1      36.252  30.438  29.629  1.00  0.00     0.200 A 
ATOM     81  F   UNL A   1      36.565  30.801  27.320  1.00  0.00    -0.200 F 
ATOM     82  F   UNL A   1      35.146  31.196  29.614  1.00  0.00    -0.200 F 
ENDBRANCH  48  72
BRANCH  60  83
ATOM     83  C   UNL A   1      44.111  27.758  32.479  1.00  0.00     0.064 A 
ATOM     84  C   UNL A   1      44.040  26.375  32.247  1.00  0.00     0.173 A 
ATOM     85  C   UNL A   1      44.100  28.192  33.810  1.00  0.00     0.173 A 
ATOM     86  F   UNL A   1      44.123  25.878  31.008  1.00  0.00    -0.203 F 
ATOM     87  C   UNL A   1      43.921  25.472  33.301  1.00  0.00     0.198 A 
ATOM     88  C   UNL A   1      44.016  27.288  34.862  1.00  0.00     0.198 A 
ATOM     89  F   UNL A   1      44.208  29.501  34.088  1.00  0.00    -0.203 F 
ATOM     90  F   UNL A   1      43.833  24.157  33.054  1.00  0.00    -0.200 F 
ATOM     91  C   UNL A   1      43.913  25.930  34.608  1.00  0.00     0.200 A 
ATOM     92  F   UNL A   1      44.053  27.734  36.125  1.00  0.00    -0.200 F 
ATOM     93  F   UNL A   1      43.827  25.062  35.626  1.00  0.00    -0.200 F 
ENDBRANCH  60  83
ENDBRANCH  34  35
ENDBRANCH  26  29
ENDBRANCH  24  25
ENDBRANCH  23  24
ENDBRANCH  22  23
ENDBRANCH   3  22
TORSDOF 15
ENDMDL
MODEL 2
REMARK VINA RESULT:     -12.0      2.561      3.880
REMARK SMILES O=C(CSCc1nnnn1-c1ccc([N+](=O)[O-])cc1)NCCCNC(=O)c1ccc(-c2c3nc(c(-c4c(F)c(F)c(F)c(F)c4F)c4ccc([nH]4)c(-c4c(F)c(F)c(F)c(F)c4F)c4nc(c(-c5c(F)c(F)c(F)c(F)c5F)c5ccc2[nH]5)C=C4)C=C3)cc1
REMARK SMILES IDX 1 1 2 2 20 3 3 5 4 6 5 7 6 8 7 9 10 10 8 11 9 12 11 13 12 14
REMARK SMILES IDX 19 15 13 16 18 17 14 18 15 19 16 20 17 21 21 22 22 23 23 24
REMARK SMILES IDX 24 25 25 26 26 28 27 29 28 30 89 31 29 32 88 33 30 34 31 35
REMARK SMILES IDX 32 36 82 37 33 38 87 39 81 40 83 41 34 42 86 43 80 44 79 45
REMARK SMILES IDX 35 47 67 48 47 49 66 50 48 51 51 52 65 53 84 54 49 55 50 56
REMARK SMILES IDX 64 58 85 59 52 60 36 61 37 62 45 63 38 64 39 65 43 66 46 67
REMARK SMILES IDX 40 68 41 69 44 70 42 71 68 72 69 73 77 74 70 75 71 76 75 77
REMARK SMILES IDX 78 78 72 79 73 80 76 81 74 82 53 83 54 84 62 85 55 86 56 87
REMARK SMILES IDX 60 88 63 89 57 90 58 91 61 92 59 93
REMARK H PARENT 20 4 24 27 83 46 51 57
REMARK Flexibility Score: inf
ROOT
ATOM      1  O   UNL A   1      39.025  23.071  26.551  1.00  0.00    -0.274 OA
ATOM      2  C   UNL A   1      38.956  21.938  26.079  1.00  0.00     0.230 C 
ATOM      3  N   UNL A   1      39.862  20.958  26.413  1.00  0.00    -0.355 N 
ATOM      4  H   UNL A   1      39.655  20.025  26.181  1.00  0.00     0.163 HD
ENDROOT
BRANCH   2   5
ATOM      5  C   UNL A   1      37.829  21.554  25.125  1.00  0.00     0.169 C 
BRANCH   5   6
ATOM      6  S   UNL A   1      36.207  22.308  25.493  1.00  0.00    -0.144 SA
BRANCH   6   7
ATOM      7  C   UNL A   1      36.213  23.807  24.443  1.00  0.00     0.149 C 
BRANCH   7   8
ATOM      8  C   UNL A   1      35.062  23.920  23.512  1.00  0.00     0.166 A 
ATOM      9  N   UNL A   1      34.777  23.085  22.529  1.00  0.00    -0.113 NA
ATOM     10  N   UNL A   1      34.044  24.861  23.572  1.00  0.00    -0.196 N 
ATOM     11  N   UNL A   1      33.542  23.444  22.061  1.00  0.00    -0.023 NA
ATOM     12  N   UNL A   1      33.056  24.468  22.741  1.00  0.00    -0.040 NA
BRANCH  10  13
ATOM     13  C   UNL A   1      33.907  26.000  24.392  1.00  0.00     0.069 A 
ATOM     14  C   UNL A   1      34.042  27.270  23.811  1.00  0.00     0.035 A 
ATOM     15  C   UNL A   1      33.582  25.870  25.747  1.00  0.00     0.035 A 
ATOM     16  C   UNL A   1      33.709  28.408  24.550  1.00  0.00     0.088 A 
ATOM     17  C   UNL A   1      33.290  27.009  26.500  1.00  0.00     0.088 A 
ATOM     18  C   UNL A   1      33.296  28.269  25.882  1.00  0.00     0.269 A 
BRANCH  18  19
ATOM     19  N   UNL A   1      32.785  29.433  26.616  1.00  0.00     0.062 N 
ATOM     20  O   UNL A   1      31.708  29.315  27.216  1.00  0.00    -0.258 OA
ATOM     21  O   UNL A   1      33.472  30.466  26.600  1.00  0.00    -0.258 OA
ENDBRANCH  18  19
ENDBRANCH  10  13
ENDBRANCH   7   8
ENDBRANCH   6   7
ENDBRANCH   5   6
ENDBRANCH   2   5
BRANCH   3  22
ATOM     22  C   UNL A   1      41.117  21.244  27.096  1.00  0.00     0.117 C 
BRANCH  22  23
ATOM     23  C   UNL A   1      42.235  20.212  26.932  1.00  0.00     0.042 C 
BRANCH  23  24
ATOM     24  C   UNL A   1      42.413  19.752  25.500  1.00  0.00     0.118 C 
BRANCH  24  25
ATOM     25  N   UNL A   1      43.818  19.543  25.099  1.00  0.00    -0.352 N 
ATOM     26  C   UNL A   1      44.777  20.489  24.772  1.00  0.00     0.251 C 
ATOM     27  H   UNL A   1      44.114  18.605  25.058  1.00  0.00     0.163 HD
ATOM     28  O   UNL A   1      45.795  20.168  24.146  1.00  0.00    -0.269 OA
BRANCH  26  29
ATOM     29  C   UNL A   1      44.575  21.886  25.183  1.00  0.00     0.039 A 
ATOM     30  C   UNL A   1      43.692  22.774  24.560  1.00  0.00     0.014 A 
ATOM     31  C   UNL A   1      45.272  22.282  26.309  1.00  0.00     0.014 A 
ATOM     32  C   UNL A   1      43.504  24.033  25.137  1.00  0.00     0.010 A 
ATOM     33  C   UNL A   1      44.787  23.304  27.053  1.00  0.00     0.010 A 
ATOM     34  C   UNL A   1      44.066  24.280  26.399  1.00  0.00    -0.014 A 
BRANCH  34  35
ATOM     35  C   UNL A   1      43.896  25.511  27.151  1.00  0.00     0.031 A 
ATOM     36  C   UNL A   1      44.892  26.542  26.802  1.00  0.00     0.074 A 
ATOM     37  C   UNL A   1      42.765  25.766  27.856  1.00  0.00     0.049 A 
ATOM     38  N   UNL A   1      45.871  26.955  27.530  1.00  0.00    -0.248 NA
ATOM     39  C   UNL A   1      44.922  27.048  25.419  1.00  0.00     0.031 C 
ATOM     40  C   UNL A   1      41.561  24.921  27.972  1.00  0.00     0.029 A 
ATOM     41  N   UNL A   1      42.395  26.887  28.540  1.00  0.00    -0.354 N 
ATOM     42  C   UNL A   1      46.485  27.957  26.789  1.00  0.00     0.074 A 
ATOM     43  C   UNL A   1      46.029  27.795  25.435  1.00  0.00     0.031 C 
ATOM     44  C   UNL A   1      40.538  25.638  28.488  1.00  0.00     0.029 A 
ATOM     45  C   UNL A   1      41.049  26.929  28.903  1.00  0.00     0.049 A 
ATOM     46  H   UNL A   1      43.028  27.608  28.761  1.00  0.00     0.167 HD
ATOM     47  C   UNL A   1      47.032  29.030  27.423  1.00  0.00     0.037 A 
ATOM     48  C   UNL A   1      40.400  27.951  29.514  1.00  0.00     0.037 A 
ATOM     49  C   UNL A   1      47.098  28.788  28.843  1.00  0.00     0.049 A 
ATOM     50  C   UNL A   1      41.431  28.786  30.167  1.00  0.00     0.074 A 
ATOM     51  C   UNL A   1      47.854  28.006  29.688  1.00  0.00     0.029 A 
ATOM     52  N   UNL A   1      45.946  29.119  29.511  1.00  0.00    -0.354 N 
ATOM     53  N   UNL A   1      42.147  28.374  31.176  1.00  0.00    -0.248 NA
ATOM     54  C   UNL A   1      41.956  29.949  29.461  1.00  0.00     0.031 C 
ATOM     55  C   UNL A   1      47.023  27.721  30.812  1.00  0.00     0.029 A 
ATOM     56  C   UNL A   1      45.805  28.379  30.653  1.00  0.00     0.049 A 
ATOM     57  H   UNL A   1      45.303  29.799  29.206  1.00  0.00     0.167 HD
ATOM     58  C   UNL A   1      43.395  28.924  30.954  1.00  0.00     0.074 A 
ATOM     59  C   UNL A   1      43.173  30.013  30.010  1.00  0.00     0.031 C 
ATOM     60  C   UNL A   1      44.519  28.234  31.298  1.00  0.00     0.037 A 
BRANCH  47  61
ATOM     61  C   UNL A   1      47.035  30.449  26.893  1.00  0.00     0.064 A 
ATOM     62  C   UNL A   1      48.229  31.196  26.980  1.00  0.00     0.173 A 
ATOM     63  C   UNL A   1      45.873  31.198  26.610  1.00  0.00     0.173 A 
ATOM     64  F   UNL A   1      49.393  30.593  27.265  1.00  0.00    -0.203 F 
ATOM     65  C   UNL A   1      48.240  32.590  26.865  1.00  0.00     0.198 A 
ATOM     66  C   UNL A   1      45.896  32.582  26.443  1.00  0.00     0.198 A 
ATOM     67  F   UNL A   1      44.653  30.652  26.599  1.00  0.00    -0.203 F 
ATOM     68  F   UNL A   1      49.376  33.267  27.078  1.00  0.00    -0.200 F 
ATOM     69  C   UNL A   1      47.073  33.281  26.602  1.00  0.00     0.200 A 
ATOM     70  F   UNL A   1      44.748  33.236  26.213  1.00  0.00    -0.200 F 
ATOM     71  F   UNL A   1      47.068  34.619  26.551  1.00  0.00    -0.200 F 
ENDBRANCH  47  61
BRANCH  48  72
ATOM     72  C   UNL A   1      38.986  28.378  29.422  1.00  0.00     0.064 A 
ATOM     73  C   UNL A   1      38.199  28.582  30.569  1.00  0.00     0.173 A 
ATOM     74  C   UNL A   1      38.475  28.887  28.213  1.00  0.00     0.173 A 
ATOM     75  F   UNL A   1      38.631  28.161  31.766  1.00  0.00    -0.203 F 
ATOM     76  C   UNL A   1      36.990  29.287  30.515  1.00  0.00     0.198 A 
ATOM     77  C   UNL A   1      37.270  29.593  28.160  1.00  0.00     0.198 A 
ATOM     78  F   UNL A   1      39.189  28.796  27.082  1.00  0.00    -0.203 F 
ATOM     79  F   UNL A   1      36.298  29.518  31.639  1.00  0.00    -0.200 F 
ATOM     80  C   UNL A   1      36.535  29.805  29.313  1.00  0.00     0.200 A 
ATOM     81  F   UNL A   1      36.862  30.124  26.999  1.00  0.00    -0.200 F 
ATOM     82  F   UNL A   1      35.418  30.544  29.273  1.00  0.00    -0.200 F 
ENDBRANCH  48  72
BRANCH  60  83
ATOM     83  C   UNL A   1      44.359  27.145  32.315  1.00  0.00     0.064 A 
ATOM     84  C   UNL A   1      44.266  25.778  32.013  1.00  0.00     0.173 A 
ATOM     85  C   UNL A   1      44.364  27.511  33.667  1.00  0.00     0.173 A 
ATOM     86  F   UNL A   1      44.333  25.343  30.750  1.00  0.00    -0.203 F 
ATOM     87  C   UNL A   1      44.139  24.823  33.021  1.00  0.00     0.198 A 
ATOM     88  C   UNL A   1      44.273  26.556  34.671  1.00  0.00     0.198 A 
ATOM     89  F   UNL A   1      44.494  28.802  34.011  1.00  0.00    -0.203 F 
ATOM     90  F   UNL A   1      44.030  23.524  32.707  1.00  0.00    -0.200 F 
ATOM     91  C   UNL A   1      44.147  25.214  34.349  1.00  0.00     0.200 A 
ATOM     92  F   UNL A   1      44.325  26.936  35.955  1.00  0.00    -0.200 F 
ATOM     93  F   UNL A   1      44.054  24.296  35.322  1.00  0.00    -0.200 F 
ENDBRANCH  60  83
ENDBRANCH  34  35
ENDBRANCH  26  29
ENDBRANCH  24  25
ENDBRANCH  23  24
ENDBRANCH  22  23
ENDBRANCH   3  22
TORSDOF 15
ENDMDL
MODEL 3
REMARK VINA RESULT:     -11.9      3.407      7.832
REMARK SMILES O=C(CSCc1nnnn1-c1ccc([N+](=O)[O-])cc1)NCCCNC(=O)c1ccc(-c2c3nc(c(-c4c(F)c(F)c(F)c(F)c4F)c4ccc([nH]4)c(-c4c(F)c(F)c(F)c(F)c4F)c4nc(c(-c5c(F)c(F)c(F)c(F)c5F)c5ccc2[nH]5)C=C4)C=C3)cc1
REMARK SMILES IDX 1 1 2 2 20 3 3 5 4 6 5 7 6 8 7 9 10 10 8 11 9 12 11 13 12 14
REMARK SMILES IDX 19 15 13 16 18 17 14 18 15 19 16 20 17 21 21 22 22 23 23 24
REMARK SMILES IDX 24 25 25 26 26 28 27 29 28 30 89 31 29 32 88 33 30 34 31 35
REMARK SMILES IDX 32 36 82 37 33 38 87 39 81 40 83 41 34 42 86 43 80 44 79 45
REMARK SMILES IDX 35 47 67 48 47 49 66 50 48 51 51 52 65 53 84 54 49 55 50 56
REMARK SMILES IDX 64 58 85 59 52 60 36 61 37 62 45 63 38 64 39 65 43 66 46 67
REMARK SMILES IDX 40 68 41 69 44 70 42 71 68 72 69 73 77 74 70 75 71 76 75 77
REMARK SMILES IDX 78 78 72 79 73 80 76 81 74 82 53 83 54 84 62 85 55 86 56 87
REMARK SMILES IDX 60 88 63 89 57 90 58 91 61 92 59 93
REMARK H PARENT 20 4 24 27 83 46 51 57
REMARK Flexibility Score: inf
ROOT
ATOM      1  O   UNL A   1      35.940  23.666  24.086  1.00  0.00    -0.274 OA
ATOM      2  C   UNL A   1      35.087  22.803  23.888  1.00  0.00     0.230 C 
ATOM      3  N   UNL A   1      35.015  21.668  24.661  1.00  0.00    -0.355 N 
ATOM      4  H   UNL A   1      34.205  21.111  24.607  1.00  0.00     0.163 HD
ENDROOT
BRANCH   2   5
ATOM      5  C   UNL A   1      34.039  22.974  22.793  1.00  0.00     0.169 C 
BRANCH   5   6
ATOM      6  S   UNL A   1      32.464  22.096  23.078  1.00  0.00    -0.144 SA
BRANCH   6   7
ATOM      7  C   UNL A   1      31.311  23.459  23.481  1.00  0.00     0.149 C 
BRANCH   7   8
ATOM      8  C   UNL A   1      31.032  23.631  24.929  1.00  0.00     0.166 A 
ATOM      9  N   UNL A   1      31.179  22.705  25.860  1.00  0.00    -0.113 NA
ATOM     10  N   UNL A   1      30.660  24.808  25.562  1.00  0.00    -0.196 N 
ATOM     11  N   UNL A   1      31.007  23.334  27.063  1.00  0.00    -0.023 NA
ATOM     12  N   UNL A   1      30.772  24.625  26.894  1.00  0.00    -0.040 NA
BRANCH  10  13
ATOM     13  C   UNL A   1      30.315  26.062  25.019  1.00  0.00     0.069 A 
ATOM     14  C   UNL A   1      31.127  27.169  25.308  1.00  0.00     0.035 A 
ATOM     15  C   UNL A   1      29.218  26.191  24.159  1.00  0.00     0.035 A 
ATOM     16  C   UNL A   1      30.927  28.371  24.623  1.00  0.00     0.088 A 
ATOM     17  C   UNL A   1      28.991  27.404  23.505  1.00  0.00     0.088 A 
ATOM     18  C   UNL A   1      29.883  28.470  23.694  1.00  0.00     0.269 A 
BRANCH  18  19
ATOM     19  N   UNL A   1      29.767  29.664  22.848  1.00  0.00     0.062 N 
ATOM     20  O   UNL A   1      29.900  29.526  21.625  1.00  0.00    -0.258 OA
ATOM     21  O   UNL A   1      29.528  30.744  23.412  1.00  0.00    -0.258 OA
ENDBRANCH  18  19
ENDBRANCH  10  13
ENDBRANCH   7   8
ENDBRANCH   6   7
ENDBRANCH   5   6
ENDBRANCH   2   5
BRANCH   3  22
ATOM     22  C   UNL A   1      36.087  21.254  25.557  1.00  0.00     0.117 C 
BRANCH  22  23
ATOM     23  C   UNL A   1      37.099  20.253  24.996  1.00  0.00     0.042 C 
BRANCH  23  24
ATOM     24  C   UNL A   1      38.535  20.625  25.304  1.00  0.00     0.118 C 
BRANCH  24  25
ATOM     25  N   UNL A   1      39.423  19.472  25.549  1.00  0.00    -0.352 N 
ATOM     26  C   UNL A   1      40.763  19.467  25.902  1.00  0.00     0.251 C 
ATOM     27  H   UNL A   1      39.006  18.586  25.448  1.00  0.00     0.163 HD
ATOM     28  O   UNL A   1      41.454  18.453  25.753  1.00  0.00    -0.269 OA
BRANCH  26  29
ATOM     29  C   UNL A   1      41.360  20.688  26.463  1.00  0.00     0.039 A 
ATOM     30  C   UNL A   1      42.150  21.589  25.740  1.00  0.00     0.014 A 
ATOM     31  C   UNL A   1      41.031  20.960  27.778  1.00  0.00     0.014 A 
ATOM     32  C   UNL A   1      42.543  22.774  26.367  1.00  0.00     0.010 A 
ATOM     33  C   UNL A   1      41.070  22.244  28.211  1.00  0.00     0.010 A 
ATOM     34  C   UNL A   1      41.984  23.086  27.615  1.00  0.00    -0.014 A 
BRANCH  34  35
ATOM     35  C   UNL A   1      42.242  24.313  28.351  1.00  0.00     0.031 A 
ATOM     36  C   UNL A   1      41.214  25.347  28.123  1.00  0.00     0.074 A 
ATOM     37  C   UNL A   1      43.151  24.365  29.356  1.00  0.00     0.049 A 
ATOM     38  N   UNL A   1      41.348  26.443  27.458  1.00  0.00    -0.248 NA
ATOM     39  C   UNL A   1      39.825  25.056  28.520  1.00  0.00     0.031 C 
ATOM     40  C   UNL A   1      43.982  23.266  29.882  1.00  0.00     0.029 A 
ATOM     41  N   UNL A   1      43.459  25.389  30.204  1.00  0.00    -0.354 N 
ATOM     42  C   UNL A   1      40.126  27.096  27.574  1.00  0.00     0.074 A 
ATOM     43  C   UNL A   1      39.179  26.105  28.006  1.00  0.00     0.031 C 
ATOM     44  C   UNL A   1      44.522  23.619  31.070  1.00  0.00     0.029 A 
ATOM     45  C   UNL A   1      44.228  25.017  31.307  1.00  0.00     0.049 A 
ATOM     46  H   UNL A   1      43.164  26.315  30.049  1.00  0.00     0.167 HD
ATOM     47  C   UNL A   1      40.089  28.455  27.638  1.00  0.00     0.037 A 
ATOM     48  C   UNL A   1      44.607  25.810  32.341  1.00  0.00     0.037 A 
ATOM     49  C   UNL A   1      41.379  29.005  27.303  1.00  0.00     0.049 A 
ATOM     50  C   UNL A   1      44.504  27.208  31.872  1.00  0.00     0.074 A 
ATOM     51  C   UNL A   1      42.129  29.162  26.158  1.00  0.00     0.029 A 
ATOM     52  N   UNL A   1      42.236  29.086  28.370  1.00  0.00    -0.354 N 
ATOM     53  N   UNL A   1      45.274  27.708  30.945  1.00  0.00    -0.248 NA
ATOM     54  C   UNL A   1      43.285  27.961  32.145  1.00  0.00     0.031 C 
ATOM     55  C   UNL A   1      43.494  29.145  26.576  1.00  0.00     0.029 A 
ATOM     56  C   UNL A   1      43.542  29.034  27.964  1.00  0.00     0.049 A 
ATOM     57  H   UNL A   1      41.950  29.170  29.309  1.00  0.00     0.167 HD
ATOM     58  C   UNL A   1      44.445  28.552  30.233  1.00  0.00     0.074 A 
ATOM     59  C   UNL A   1      43.309  28.808  31.111  1.00  0.00     0.031 C 
ATOM     60  C   UNL A   1      44.600  28.689  28.885  1.00  0.00     0.037 A 
BRANCH  47  61
ATOM     61  C   UNL A   1      39.111  29.262  28.467  1.00  0.00     0.064 A 
ATOM     62  C   UNL A   1      39.117  29.092  29.868  1.00  0.00     0.173 A 
ATOM     63  C   UNL A   1      37.983  29.930  27.945  1.00  0.00     0.173 A 
ATOM     64  F   UNL A   1      40.129  28.453  30.473  1.00  0.00    -0.203 F 
ATOM     65  C   UNL A   1      38.043  29.495  30.667  1.00  0.00     0.198 A 
ATOM     66  C   UNL A   1      36.937  30.378  28.751  1.00  0.00     0.198 A 
ATOM     67  F   UNL A   1      37.780  30.075  26.631  1.00  0.00    -0.203 F 
ATOM     68  F   UNL A   1      38.038  29.202  31.974  1.00  0.00    -0.200 F 
ATOM     69  C   UNL A   1      36.952  30.133  30.107  1.00  0.00     0.200 A 
ATOM     70  F   UNL A   1      35.877  30.972  28.184  1.00  0.00    -0.200 F 
ATOM     71  F   UNL A   1      35.895  30.466  30.858  1.00  0.00    -0.200 F 
ENDBRANCH  47  61
BRANCH  48  72
ATOM     72  C   UNL A   1      44.866  25.474  33.759  1.00  0.00     0.064 A 
ATOM     73  C   UNL A   1      43.822  25.354  34.692  1.00  0.00     0.173 A 
ATOM     74  C   UNL A   1      46.118  24.966  34.152  1.00  0.00     0.173 A 
ATOM     75  F   UNL A   1      42.588  25.779  34.382  1.00  0.00    -0.203 F 
ATOM     76  C   UNL A   1      44.011  24.729  35.931  1.00  0.00     0.198 A 
ATOM     77  C   UNL A   1      46.306  24.340  35.387  1.00  0.00     0.198 A 
ATOM     78  F   UNL A   1      47.155  24.980  33.301  1.00  0.00    -0.203 F 
ATOM     79  F   UNL A   1      42.976  24.574  36.769  1.00  0.00    -0.200 F 
ATOM     80  C   UNL A   1      45.250  24.209  36.270  1.00  0.00     0.200 A 
ATOM     81  F   UNL A   1      47.498  23.805  35.686  1.00  0.00    -0.200 F 
ATOM     82  F   UNL A   1      45.413  23.543  37.422  1.00  0.00    -0.200 F 
ENDBRANCH  48  72
BRANCH  60  83
ATOM     83  C   UNL A   1      45.932  28.304  28.317  1.00  0.00     0.064 A 
ATOM     84  C   UNL A   1      47.099  29.078  28.420  1.00  0.00     0.173 A 
ATOM     85  C   UNL A   1      46.037  27.056  27.691  1.00  0.00     0.173 A 
ATOM     86  F   UNL A   1      47.097  30.246  29.071  1.00  0.00    -0.203 F 
ATOM     87  C   UNL A   1      48.307  28.638  27.880  1.00  0.00     0.198 A 
ATOM     88  C   UNL A   1      47.249  26.603  27.185  1.00  0.00     0.198 A 
ATOM     89  F   UNL A   1      44.961  26.258  27.604  1.00  0.00    -0.203 F 
ATOM     90  F   UNL A   1      49.403  29.405  27.971  1.00  0.00    -0.200 F 
ATOM     91  C   UNL A   1      48.380  27.399  27.267  1.00  0.00     0.200 A 
ATOM     92  F   UNL A   1      47.324  25.385  26.631  1.00  0.00    -0.200 F 
ATOM     93  F   UNL A   1      49.547  26.960  26.772  1.00  0.00    -0.200 F 
ENDBRANCH  60  83
ENDBRANCH  34  35
ENDBRANCH  26  29
ENDBRANCH  24  25
ENDBRANCH  23  24
ENDBRANCH  22  23
ENDBRANCH   3  22
TORSDOF 15
ENDMDL
