MODEL 1
REMARK VINA RESULT:     -11.4      0.000      0.000
REMARK SMILES C[C@H](Oc1ccc(-c2ccccc2)cc1)C(=O)N[C@H](C)C(=O)NCCCNC(=O)c1ccc(-c2c3nc(c(-c4c(F)c(F)c(F)c(F)c4F)c4ccc([nH]4)c(-c4c(F)c(F)c(F)c(F)c4F)c4nc(c(-c5c(F)c(F)c(F)c(F)c5F)c5ccc2[nH]5)C=C4)C=C3)cc1
REMARK SMILES IDX 21 1 22 2 23 3 19 5 20 6 18 7 16 8 17 9 2 11 1 12 3 13 4 14
REMARK SMILES IDX 5 15 15 16 6 17 14 18 7 19 8 20 9 21 13 22 10 23 12 24 11 25
REMARK SMILES IDX 24 26 25 27 26 28 27 29 28 30 29 32 30 33 31 34 92 35 32 36
REMARK SMILES IDX 91 37 33 38 34 39 35 40 85 41 36 42 90 43 84 44 86 45 37 46
REMARK SMILES IDX 89 47 83 48 82 49 38 51 70 52 50 53 69 54 51 55 54 56 68 57
REMARK SMILES IDX 87 58 52 59 53 60 67 62 88 63 55 64 39 65 40 66 48 67 41 68
REMARK SMILES IDX 42 69 46 70 49 71 43 72 44 73 47 74 45 75 71 76 72 77 80 78
REMARK SMILES IDX 73 79 74 80 78 81 81 82 75 83 76 84 79 85 77 86 56 87 57 88
REMARK SMILES IDX 65 89 58 90 59 91 63 92 66 93 60 94 61 95 64 96 62 97
REMARK H PARENT 23 4 18 10 27 31 86 50 54 61
REMARK Flexibility Score: inf
ROOT
ATOM      1  C   UNL A   1      32.671  35.671  31.814  1.00  0.00     0.242 C 
ATOM      2  O   UNL A   1      31.634  35.530  32.473  1.00  0.00    -0.273 OA
ATOM      3  N   UNL A   1      32.620  35.271  30.514  1.00  0.00    -0.354 N 
ATOM      4  H   UNL A   1      31.734  34.958  30.217  1.00  0.00     0.163 HD
ENDROOT
BRANCH   1   5
ATOM      5  C   UNL A   1      33.987  36.098  32.512  1.00  0.00     0.168 C 
ATOM      6  C   UNL A   1      33.893  37.578  32.833  1.00  0.00     0.041 C 
BRANCH   5   7
ATOM      7  N   UNL A   1      34.454  35.124  33.517  1.00  0.00    -0.341 N 
ATOM      8  C   UNL A   1      34.903  33.845  33.594  1.00  0.00     0.261 C 
ATOM      9  O   UNL A   1      35.189  33.453  34.734  1.00  0.00    -0.271 OA
ATOM     10  H   UNL A   1      34.434  35.530  34.414  1.00  0.00     0.164 HD
BRANCH   8  11
ATOM     11  C   UNL A   1      35.184  32.925  32.396  1.00  0.00     0.258 C 
ATOM     12  C   UNL A   1      36.041  31.754  32.881  1.00  0.00     0.064 C 
BRANCH  11  13
ATOM     13  O   UNL A   1      35.680  33.750  31.356  1.00  0.00    -0.481 OA
BRANCH  13  14
ATOM     14  C   UNL A   1      36.998  33.866  31.057  1.00  0.00     0.120 A 
ATOM     15  C   UNL A   1      37.997  34.388  31.862  1.00  0.00     0.047 A 
ATOM     16  C   UNL A   1      37.321  33.465  29.759  1.00  0.00     0.047 A 
ATOM     17  C   UNL A   1      39.271  34.619  31.335  1.00  0.00     0.012 A 
ATOM     18  C   UNL A   1      38.604  33.661  29.241  1.00  0.00     0.012 A 
ATOM     19  C   UNL A   1      39.598  34.277  30.013  1.00  0.00    -0.018 A 
BRANCH  19  20
ATOM     20  C   UNL A   1      40.932  34.579  29.469  1.00  0.00    -0.018 A 
ATOM     21  C   UNL A   1      42.058  33.846  29.878  1.00  0.00     0.009 A 
ATOM     22  C   UNL A   1      41.131  35.635  28.563  1.00  0.00     0.009 A 
ATOM     23  C   UNL A   1      43.338  34.167  29.421  1.00  0.00     0.001 A 
ATOM     24  C   UNL A   1      42.410  35.955  28.099  1.00  0.00     0.001 A 
ATOM     25  C   UNL A   1      43.512  35.225  28.535  1.00  0.00     0.000 A 
ENDBRANCH  19  20
ENDBRANCH  13  14
ENDBRANCH  11  13
ENDBRANCH   8  11
ENDBRANCH   5   7
ENDBRANCH   1   5
BRANCH   3  26
ATOM     26  C   UNL A   1      33.644  35.225  29.493  1.00  0.00     0.117 C 
BRANCH  26  27
ATOM     27  C   UNL A   1      33.348  34.199  28.406  1.00  0.00     0.042 C 
BRANCH  27  28
ATOM     28  C   UNL A   1      34.323  33.030  28.378  1.00  0.00     0.118 C 
BRANCH  28  29
ATOM     29  N   UNL A   1      33.756  31.849  27.741  1.00  0.00    -0.352 N 
ATOM     30  C   UNL A   1      34.299  30.618  27.476  1.00  0.00     0.251 C 
ATOM     31  H   UNL A   1      32.821  31.953  27.450  1.00  0.00     0.163 HD
ATOM     32  O   UNL A   1      33.694  29.844  26.740  1.00  0.00    -0.269 OA
BRANCH  30  33
ATOM     33  C   UNL A   1      35.599  30.213  28.052  1.00  0.00     0.039 A 
ATOM     34  C   UNL A   1      35.625  29.708  29.357  1.00  0.00     0.014 A 
ATOM     35  C   UNL A   1      36.796  30.379  27.351  1.00  0.00     0.014 A 
ATOM     36  C   UNL A   1      36.837  29.326  29.934  1.00  0.00     0.010 A 
ATOM     37  C   UNL A   1      37.991  29.912  27.891  1.00  0.00     0.010 A 
ATOM     38  C   UNL A   1      38.028  29.395  29.193  1.00  0.00    -0.014 A 
BRANCH  38  39
ATOM     39  C   UNL A   1      39.320  28.951  29.773  1.00  0.00     0.031 A 
ATOM     40  C   UNL A   1      39.939  29.708  30.916  1.00  0.00     0.074 A 
ATOM     41  C   UNL A   1      39.967  27.901  29.231  1.00  0.00     0.049 A 
ATOM     42  N   UNL A   1      41.089  29.519  31.511  1.00  0.00    -0.248 NA
ATOM     43  C   UNL A   1      39.175  30.851  31.441  1.00  0.00     0.031 C 
ATOM     44  C   UNL A   1      39.495  27.115  28.090  1.00  0.00     0.029 A 
ATOM     45  N   UNL A   1      41.165  27.318  29.561  1.00  0.00    -0.354 N 
ATOM     46  C   UNL A   1      41.191  30.521  32.467  1.00  0.00     0.074 A 
ATOM     47  C   UNL A   1      40.016  31.355  32.332  1.00  0.00     0.031 C 
ATOM     48  C   UNL A   1      40.381  26.143  27.828  1.00  0.00     0.029 A 
ATOM     49  C   UNL A   1      41.503  26.259  28.756  1.00  0.00     0.049 A 
ATOM     50  H   UNL A   1      41.729  27.630  30.305  1.00  0.00     0.167 HD
ATOM     51  C   UNL A   1      42.162  30.714  33.391  1.00  0.00     0.037 A 
ATOM     52  C   UNL A   1      42.597  25.475  28.759  1.00  0.00     0.037 A 
ATOM     53  C   UNL A   1      43.319  29.869  33.535  1.00  0.00     0.049 A 
ATOM     54  C   UNL A   1      43.663  25.710  29.793  1.00  0.00     0.074 A 
ATOM     55  C   UNL A   1      44.335  29.948  34.471  1.00  0.00     0.029 A 
ATOM     56  N   UNL A   1      43.615  28.790  32.715  1.00  0.00    -0.354 N 
ATOM     57  N   UNL A   1      43.718  26.622  30.734  1.00  0.00    -0.248 NA
ATOM     58  C   UNL A   1      44.817  24.802  29.772  1.00  0.00     0.031 C 
ATOM     59  C   UNL A   1      45.270  28.947  34.187  1.00  0.00     0.029 A 
ATOM     60  C   UNL A   1      44.809  28.207  33.110  1.00  0.00     0.049 A 
ATOM     61  H   UNL A   1      43.059  28.483  31.962  1.00  0.00     0.167 HD
ATOM     62  C   UNL A   1      44.892  26.380  31.435  1.00  0.00     0.074 A 
ATOM     63  C   UNL A   1      45.512  25.225  30.819  1.00  0.00     0.031 C 
ATOM     64  C   UNL A   1      45.410  27.053  32.491  1.00  0.00     0.037 A 
BRANCH  51  65
ATOM     65  C   UNL A   1      42.011  31.882  34.324  1.00  0.00     0.064 A 
ATOM     66  C   UNL A   1      42.554  33.141  34.022  1.00  0.00     0.173 A 
ATOM     67  C   UNL A   1      41.290  31.752  35.521  1.00  0.00     0.173 A 
ATOM     68  F   UNL A   1      43.262  33.318  32.896  1.00  0.00    -0.203 F 
ATOM     69  C   UNL A   1      42.410  34.214  34.897  1.00  0.00     0.198 A 
ATOM     70  C   UNL A   1      41.120  32.837  36.378  1.00  0.00     0.198 A 
ATOM     71  F   UNL A   1      40.744  30.574  35.859  1.00  0.00    -0.203 F 
ATOM     72  F   UNL A   1      42.987  35.390  34.612  1.00  0.00    -0.200 F 
ATOM     73  C   UNL A   1      41.688  34.064  36.070  1.00  0.00     0.200 A 
ATOM     74  F   UNL A   1      40.408  32.693  37.504  1.00  0.00    -0.200 F 
ATOM     75  F   UNL A   1      41.545  35.099  36.908  1.00  0.00    -0.200 F 
ENDBRANCH  51  65
BRANCH  52  76
ATOM     76  C   UNL A   1      42.726  24.380  27.762  1.00  0.00     0.064 A 
ATOM     77  C   UNL A   1      42.358  23.065  28.082  1.00  0.00     0.173 A 
ATOM     78  C   UNL A   1      43.219  24.623  26.472  1.00  0.00     0.173 A 
ATOM     79  F   UNL A   1      41.898  22.780  29.309  1.00  0.00    -0.203 F 
ATOM     80  C   UNL A   1      42.497  22.033  27.158  1.00  0.00     0.198 A 
ATOM     81  C   UNL A   1      43.329  23.595  25.538  1.00  0.00     0.198 A 
ATOM     82  F   UNL A   1      43.578  25.864  26.112  1.00  0.00    -0.203 F 
ATOM     83  F   UNL A   1      42.182  20.778  27.506  1.00  0.00    -0.200 F 
ATOM     84  C   UNL A   1      42.978  22.300  25.884  1.00  0.00     0.200 A 
ATOM     85  F   UNL A   1      43.776  23.860  24.303  1.00  0.00    -0.200 F 
ATOM     86  F   UNL A   1      43.106  21.307  24.993  1.00  0.00    -0.200 F 
ENDBRANCH  52  76
BRANCH  64  87
ATOM     87  C   UNL A   1      46.694  26.536  33.073  1.00  0.00     0.064 A 
ATOM     88  C   UNL A   1      46.710  25.512  34.033  1.00  0.00     0.173 A 
ATOM     89  C   UNL A   1      47.926  27.050  32.641  1.00  0.00     0.173 A 
ATOM     90  F   UNL A   1      45.559  24.998  34.491  1.00  0.00    -0.203 F 
ATOM     91  C   UNL A   1      47.911  25.044  34.558  1.00  0.00     0.198 A 
ATOM     92  C   UNL A   1      49.125  26.555  33.143  1.00  0.00     0.198 A 
ATOM     93  F   UNL A   1      47.966  28.024  31.718  1.00  0.00    -0.203 F 
ATOM     94  F   UNL A   1      47.901  24.104  35.513  1.00  0.00    -0.200 F 
ATOM     95  C   UNL A   1      49.118  25.559  34.108  1.00  0.00     0.200 A 
ATOM     96  F   UNL A   1      50.290  27.044  32.695  1.00  0.00    -0.200 F 
ATOM     97  F   UNL A   1      50.272  25.103  34.610  1.00  0.00    -0.200 F 
ENDBRANCH  64  87
ENDBRANCH  38  39
ENDBRANCH  30  33
ENDBRANCH  28  29
ENDBRANCH  27  28
ENDBRANCH  26  27
ENDBRANCH   3  26
TORSDOF 15
ENDMDL
MODEL 2
REMARK VINA RESULT:     -11.1      4.320     11.575
REMARK SMILES C[C@H](Oc1ccc(-c2ccccc2)cc1)C(=O)N[C@H](C)C(=O)NCCCNC(=O)c1ccc(-c2c3nc(c(-c4c(F)c(F)c(F)c(F)c4F)c4ccc([nH]4)c(-c4c(F)c(F)c(F)c(F)c4F)c4nc(c(-c5c(F)c(F)c(F)c(F)c5F)c5ccc2[nH]5)C=C4)C=C3)cc1
REMARK SMILES IDX 21 1 22 2 23 3 19 5 20 6 18 7 16 8 17 9 2 11 1 12 3 13 4 14
REMARK SMILES IDX 5 15 15 16 6 17 14 18 7 19 8 20 9 21 13 22 10 23 12 24 11 25
REMARK SMILES IDX 24 26 25 27 26 28 27 29 28 30 29 32 30 33 31 34 92 35 32 36
REMARK SMILES IDX 91 37 33 38 34 39 35 40 85 41 36 42 90 43 84 44 86 45 37 46
REMARK SMILES IDX 89 47 83 48 82 49 38 51 70 52 50 53 69 54 51 55 54 56 68 57
REMARK SMILES IDX 87 58 52 59 53 60 67 62 88 63 55 64 39 65 40 66 48 67 41 68
REMARK SMILES IDX 42 69 46 70 49 71 43 72 44 73 47 74 45 75 71 76 72 77 80 78
REMARK SMILES IDX 73 79 74 80 78 81 81 82 75 83 76 84 79 85 77 86 56 87 57 88
REMARK SMILES IDX 65 89 58 90 59 91 63 92 66 93 60 94 61 95 64 96 62 97
REMARK H PARENT 23 4 18 10 27 31 86 50 54 61
REMARK Flexibility Score: inf
ROOT
ATOM      1  C   UNL A   1      44.468  19.522  24.533  1.00  0.00     0.242 C 
ATOM      2  O   UNL A   1      44.517  18.874  23.481  1.00  0.00    -0.273 OA
ATOM      3  N   UNL A   1      43.226  19.820  25.003  1.00  0.00    -0.354 N 
ATOM      4  H   UNL A   1      42.487  19.436  24.476  1.00  0.00     0.163 HD
ENDROOT
BRANCH   1   5
ATOM      5  C   UNL A   1      45.764  20.108  25.148  1.00  0.00     0.168 C 
ATOM      6  C   UNL A   1      46.737  18.967  25.380  1.00  0.00     0.041 C 
BRANCH   5   7
ATOM      7  N   UNL A   1      46.195  21.365  24.507  1.00  0.00    -0.341 N 
ATOM      8  C   UNL A   1      45.993  22.704  24.606  1.00  0.00     0.261 C 
ATOM      9  O   UNL A   1      46.621  23.394  23.790  1.00  0.00    -0.271 OA
ATOM     10  H   UNL A   1      46.828  21.171  23.778  1.00  0.00     0.164 HD
BRANCH   8  11
ATOM     11  C   UNL A   1      45.164  23.404  25.694  1.00  0.00     0.258 C 
ATOM     12  C   UNL A   1      44.329  24.499  25.030  1.00  0.00     0.064 C 
BRANCH  11  13
ATOM     13  O   UNL A   1      46.067  23.763  26.726  1.00  0.00    -0.481 OA
BRANCH  13  14
ATOM     14  C   UNL A   1      45.675  24.077  27.986  1.00  0.00     0.120 A 
ATOM     15  C   UNL A   1      46.335  24.893  28.890  1.00  0.00     0.047 A 
ATOM     16  C   UNL A   1      44.507  23.429  28.394  1.00  0.00     0.047 A 
ATOM     17  C   UNL A   1      45.902  24.961  30.218  1.00  0.00     0.012 A 
ATOM     18  C   UNL A   1      44.051  23.524  29.711  1.00  0.00     0.012 A 
ATOM     19  C   UNL A   1      44.764  24.267  30.660  1.00  0.00    -0.018 A 
BRANCH  19  20
ATOM     20  C   UNL A   1      44.360  24.315  32.075  1.00  0.00    -0.018 A 
ATOM     21  C   UNL A   1      44.270  25.540  32.756  1.00  0.00     0.009 A 
ATOM     22  C   UNL A   1      44.100  23.141  32.802  1.00  0.00     0.009 A 
ATOM     23  C   UNL A   1      43.955  25.593  34.115  1.00  0.00     0.001 A 
ATOM     24  C   UNL A   1      43.778  23.190  34.161  1.00  0.00     0.001 A 
ATOM     25  C   UNL A   1      43.714  24.417  34.818  1.00  0.00     0.000 A 
ENDBRANCH  19  20
ENDBRANCH  13  14
ENDBRANCH  11  13
ENDBRANCH   8  11
ENDBRANCH   5   7
ENDBRANCH   1   5
BRANCH   3  26
ATOM     26  C   UNL A   1      42.804  20.604  26.142  1.00  0.00     0.117 C 
BRANCH  26  27
ATOM     27  C   UNL A   1      41.308  20.494  26.412  1.00  0.00     0.042 C 
BRANCH  27  28
ATOM     28  C   UNL A   1      40.674  21.783  26.914  1.00  0.00     0.118 C 
BRANCH  28  29
ATOM     29  N   UNL A   1      39.526  22.187  26.112  1.00  0.00    -0.352 N 
ATOM     30  C   UNL A   1      38.799  23.349  26.098  1.00  0.00     0.251 C 
ATOM     31  H   UNL A   1      39.219  21.506  25.470  1.00  0.00     0.163 HD
ATOM     32  O   UNL A   1      37.740  23.383  25.479  1.00  0.00    -0.269 OA
BRANCH  30  33
ATOM     33  C   UNL A   1      39.263  24.553  26.821  1.00  0.00     0.039 A 
ATOM     34  C   UNL A   1      40.049  25.484  26.133  1.00  0.00     0.014 A 
ATOM     35  C   UNL A   1      38.986  24.747  28.176  1.00  0.00     0.014 A 
ATOM     36  C   UNL A   1      40.511  26.627  26.788  1.00  0.00     0.010 A 
ATOM     37  C   UNL A   1      39.369  25.930  28.803  1.00  0.00     0.010 A 
ATOM     38  C   UNL A   1      40.148  26.875  28.122  1.00  0.00    -0.014 A 
BRANCH  38  39
ATOM     39  C   UNL A   1      40.591  28.106  28.823  1.00  0.00     0.031 A 
ATOM     40  C   UNL A   1      42.012  28.236  29.301  1.00  0.00     0.074 A 
ATOM     41  C   UNL A   1      39.700  29.083  29.082  1.00  0.00     0.049 A 
ATOM     42  N   UNL A   1      42.571  29.200  29.989  1.00  0.00    -0.248 NA
ATOM     43  C   UNL A   1      42.919  27.120  28.989  1.00  0.00     0.031 C 
ATOM     44  C   UNL A   1      38.284  29.053  28.714  1.00  0.00     0.029 A 
ATOM     45  N   UNL A   1      39.851  30.286  29.724  1.00  0.00    -0.354 N 
ATOM     46  C   UNL A   1      43.883  28.801  30.202  1.00  0.00     0.074 A 
ATOM     47  C   UNL A   1      44.023  27.481  29.625  1.00  0.00     0.031 C 
ATOM     48  C   UNL A   1      37.701  30.192  29.117  1.00  0.00     0.029 A 
ATOM     49  C   UNL A   1      38.690  31.015  29.806  1.00  0.00     0.049 A 
ATOM     50  H   UNL A   1      40.709  30.597  30.091  1.00  0.00     0.167 HD
ATOM     51  C   UNL A   1      44.890  29.483  30.800  1.00  0.00     0.037 A 
ATOM     52  C   UNL A   1      38.449  32.208  30.380  1.00  0.00     0.037 A 
ATOM     53  C   UNL A   1      44.751  30.804  31.354  1.00  0.00     0.049 A 
ATOM     54  C   UNL A   1      39.581  32.946  31.040  1.00  0.00     0.074 A 
ATOM     55  C   UNL A   1      45.720  31.603  31.936  1.00  0.00     0.029 A 
ATOM     56  N   UNL A   1      43.564  31.522  31.397  1.00  0.00    -0.354 N 
ATOM     57  N   UNL A   1      40.835  32.587  31.178  1.00  0.00    -0.248 NA
ATOM     58  C   UNL A   1      39.268  34.260  31.617  1.00  0.00     0.031 C 
ATOM     59  C   UNL A   1      45.109  32.783  32.374  1.00  0.00     0.029 A 
ATOM     60  C   UNL A   1      43.772  32.745  32.014  1.00  0.00     0.049 A 
ATOM     61  H   UNL A   1      42.701  31.208  31.041  1.00  0.00     0.167 HD
ATOM     62  C   UNL A   1      41.465  33.639  31.829  1.00  0.00     0.074 A 
ATOM     63  C   UNL A   1      40.458  34.657  32.044  1.00  0.00     0.031 C 
ATOM     64  C   UNL A   1      42.760  33.751  32.215  1.00  0.00     0.037 A 
BRANCH  51  65
ATOM     65  C   UNL A   1      46.232  28.812  30.881  1.00  0.00     0.064 A 
ATOM     66  C   UNL A   1      46.675  28.190  32.059  1.00  0.00     0.173 A 
ATOM     67  C   UNL A   1      47.075  28.764  29.760  1.00  0.00     0.173 A 
ATOM     68  F   UNL A   1      45.913  28.216  33.163  1.00  0.00    -0.203 F 
ATOM     69  C   UNL A   1      47.922  27.576  32.122  1.00  0.00     0.198 A 
ATOM     70  C   UNL A   1      48.308  28.118  29.817  1.00  0.00     0.198 A 
ATOM     71  F   UNL A   1      46.701  29.336  28.605  1.00  0.00    -0.203 F 
ATOM     72  F   UNL A   1      48.345  27.039  33.274  1.00  0.00    -0.200 F 
ATOM     73  C   UNL A   1      48.735  27.534  30.999  1.00  0.00     0.200 A 
ATOM     74  F   UNL A   1      49.085  28.067  28.726  1.00  0.00    -0.200 F 
ATOM     75  F   UNL A   1      49.932  26.937  31.059  1.00  0.00    -0.200 F 
ENDBRANCH  51  65
BRANCH  52  76
ATOM     76  C   UNL A   1      37.082  32.789  30.333  1.00  0.00     0.064 A 
ATOM     77  C   UNL A   1      36.199  32.645  31.414  1.00  0.00     0.173 A 
ATOM     78  C   UNL A   1      36.628  33.499  29.212  1.00  0.00     0.173 A 
ATOM     79  F   UNL A   1      36.580  31.959  32.502  1.00  0.00    -0.203 F 
ATOM     80  C   UNL A   1      34.909  33.170  31.366  1.00  0.00     0.198 A 
ATOM     81  C   UNL A   1      35.348  34.050  29.178  1.00  0.00     0.198 A 
ATOM     82  F   UNL A   1      37.435  33.673  28.155  1.00  0.00    -0.203 F 
ATOM     83  F   UNL A   1      34.071  32.976  32.394  1.00  0.00    -0.200 F 
ATOM     84  C   UNL A   1      34.487  33.877  30.250  1.00  0.00     0.200 A 
ATOM     85  F   UNL A   1      34.951  34.749  28.106  1.00  0.00    -0.200 F 
ATOM     86  F   UNL A   1      33.249  34.386  30.207  1.00  0.00    -0.200 F 
ENDBRANCH  52  76
BRANCH  64  87
ATOM     87  C   UNL A   1      43.172  35.035  32.875  1.00  0.00     0.064 A 
ATOM     88  C   UNL A   1      43.157  35.187  34.270  1.00  0.00     0.173 A 
ATOM     89  C   UNL A   1      43.618  36.118  32.102  1.00  0.00     0.173 A 
ATOM     90  F   UNL A   1      42.724  34.187  35.053  1.00  0.00    -0.203 F 
ATOM     91  C   UNL A   1      43.546  36.384  34.863  1.00  0.00     0.198 A 
ATOM     92  C   UNL A   1      44.039  37.302  32.700  1.00  0.00     0.198 A 
ATOM     93  F   UNL A   1      43.659  36.023  30.764  1.00  0.00    -0.203 F 
ATOM     94  F   UNL A   1      43.473  36.525  36.194  1.00  0.00    -0.200 F 
ATOM     95  C   UNL A   1      43.994  37.438  34.080  1.00  0.00     0.200 A 
ATOM     96  F   UNL A   1      44.485  38.313  31.942  1.00  0.00    -0.200 F 
ATOM     97  F   UNL A   1      44.374  38.587  34.653  1.00  0.00    -0.200 F 
ENDBRANCH  64  87
ENDBRANCH  38  39
ENDBRANCH  30  33
ENDBRANCH  28  29
ENDBRANCH  27  28
ENDBRANCH  26  27
ENDBRANCH   3  26
TORSDOF 15
ENDMDL
MODEL 3
REMARK VINA RESULT:     -11.0      1.456      2.102
REMARK SMILES C[C@H](Oc1ccc(-c2ccccc2)cc1)C(=O)N[C@H](C)C(=O)NCCCNC(=O)c1ccc(-c2c3nc(c(-c4c(F)c(F)c(F)c(F)c4F)c4ccc([nH]4)c(-c4c(F)c(F)c(F)c(F)c4F)c4nc(c(-c5c(F)c(F)c(F)c(F)c5F)c5ccc2[nH]5)C=C4)C=C3)cc1
REMARK SMILES IDX 21 1 22 2 23 3 19 5 20 6 18 7 16 8 17 9 2 11 1 12 3 13 4 14
REMARK SMILES IDX 5 15 15 16 6 17 14 18 7 19 8 20 9 21 13 22 10 23 12 24 11 25
REMARK SMILES IDX 24 26 25 27 26 28 27 29 28 30 29 32 30 33 31 34 92 35 32 36
REMARK SMILES IDX 91 37 33 38 34 39 35 40 85 41 36 42 90 43 84 44 86 45 37 46
REMARK SMILES IDX 89 47 83 48 82 49 38 51 70 52 50 53 69 54 51 55 54 56 68 57
REMARK SMILES IDX 87 58 52 59 53 60 67 62 88 63 55 64 39 65 40 66 48 67 41 68
REMARK SMILES IDX 42 69 46 70 49 71 43 72 44 73 47 74 45 75 71 76 72 77 80 78
REMARK SMILES IDX 73 79 74 80 78 81 81 82 75 83 76 84 79 85 77 86 56 87 57 88
REMARK SMILES IDX 65 89 58 90 59 91 63 92 66 93 60 94 61 95 64 96 62 97
REMARK H PARENT 23 4 18 10 27 31 86 50 54 61
REMARK Flexibility Score: inf
ROOT
ATOM      1  C   UNL A   1      32.971  35.332  32.042  1.00  0.00     0.242 C 
ATOM      2  O   UNL A   1      31.892  35.078  32.590  1.00  0.00    -0.273 OA
ATOM      3  N   UNL A   1      33.102  34.928  30.748  1.00  0.00    -0.354 N 
ATOM      4  H   UNL A   1      32.292  34.519  30.364  1.00  0.00     0.163 HD
ENDROOT
BRANCH   1   5
ATOM      5  C   UNL A   1      34.150  35.902  32.869  1.00  0.00     0.168 C 
ATOM      6  C   UNL A   1      33.826  37.341  33.226  1.00  0.00     0.041 C 
BRANCH   5   7
ATOM      7  N   UNL A   1      34.661  34.958  33.881  1.00  0.00    -0.341 N 
ATOM      8  C   UNL A   1      35.568  33.954  34.002  1.00  0.00     0.261 C 
ATOM      9  O   UNL A   1      35.633  33.434  35.125  1.00  0.00    -0.271 OA
ATOM     10  H   UNL A   1      34.199  35.101  34.739  1.00  0.00     0.164 HD
BRANCH   8  11
ATOM     11  C   UNL A   1      36.563  33.516  32.917  1.00  0.00     0.258 C 
ATOM     12  C   UNL A   1      37.027  32.095  33.238  1.00  0.00     0.064 C 
BRANCH  11  13
ATOM     13  O   UNL A   1      37.533  34.546  32.814  1.00  0.00    -0.481 OA
BRANCH  13  14
ATOM     14  C   UNL A   1      38.590  34.494  31.967  1.00  0.00     0.120 A 
ATOM     15  C   UNL A   1      39.934  34.538  32.299  1.00  0.00     0.047 A 
ATOM     16  C   UNL A   1      38.233  34.462  30.617  1.00  0.00     0.047 A 
ATOM     17  C   UNL A   1      40.899  34.674  31.297  1.00  0.00     0.012 A 
ATOM     18  C   UNL A   1      39.199  34.560  29.611  1.00  0.00     0.012 A 
ATOM     19  C   UNL A   1      40.553  34.704  29.936  1.00  0.00    -0.018 A 
BRANCH  19  20
ATOM     20  C   UNL A   1      41.586  34.899  28.905  1.00  0.00    -0.018 A 
ATOM     21  C   UNL A   1      42.739  34.098  28.882  1.00  0.00     0.009 A 
ATOM     22  C   UNL A   1      41.475  35.918  27.943  1.00  0.00     0.009 A 
ATOM     23  C   UNL A   1      43.756  34.319  27.951  1.00  0.00     0.001 A 
ATOM     24  C   UNL A   1      42.489  36.137  27.006  1.00  0.00     0.001 A 
ATOM     25  C   UNL A   1      43.631  35.342  27.016  1.00  0.00     0.000 A 
ENDBRANCH  19  20
ENDBRANCH  13  14
ENDBRANCH  11  13
ENDBRANCH   8  11
ENDBRANCH   5   7
ENDBRANCH   1   5
BRANCH   3  26
ATOM     26  C   UNL A   1      34.226  34.995  29.841  1.00  0.00     0.117 C 
BRANCH  26  27
ATOM     27  C   UNL A   1      34.174  33.927  28.756  1.00  0.00     0.042 C 
BRANCH  27  28
ATOM     28  C   UNL A   1      34.789  32.597  29.168  1.00  0.00     0.118 C 
BRANCH  28  29
ATOM     29  N   UNL A   1      34.153  31.463  28.512  1.00  0.00    -0.352 N 
ATOM     30  C   UNL A   1      34.669  30.276  28.059  1.00  0.00     0.251 C 
ATOM     31  H   UNL A   1      33.185  31.567  28.368  1.00  0.00     0.163 HD
ATOM     32  O   UNL A   1      33.975  29.556  27.347  1.00  0.00    -0.269 OA
BRANCH  30  33
ATOM     33  C   UNL A   1      36.045  29.856  28.404  1.00  0.00     0.039 A 
ATOM     34  C   UNL A   1      37.049  29.997  27.440  1.00  0.00     0.014 A 
ATOM     35  C   UNL A   1      36.345  29.270  29.635  1.00  0.00     0.014 A 
ATOM     36  C   UNL A   1      38.355  29.601  27.730  1.00  0.00     0.010 A 
ATOM     37  C   UNL A   1      37.664  28.960  29.957  1.00  0.00     0.010 A 
ATOM     38  C   UNL A   1      38.680  29.107  29.004  1.00  0.00    -0.014 A 
BRANCH  38  39
ATOM     39  C   UNL A   1      40.072  28.723  29.347  1.00  0.00     0.031 A 
ATOM     40  C   UNL A   1      40.930  29.640  30.176  1.00  0.00     0.074 A 
ATOM     41  C   UNL A   1      40.585  27.575  28.864  1.00  0.00     0.049 A 
ATOM     42  N   UNL A   1      42.186  29.514  30.523  1.00  0.00    -0.248 NA
ATOM     43  C   UNL A   1      40.299  30.881  30.654  1.00  0.00     0.031 C 
ATOM     44  C   UNL A   1      39.871  26.625  28.010  1.00  0.00     0.029 A 
ATOM     45  N   UNL A   1      41.829  27.015  29.014  1.00  0.00    -0.354 N 
ATOM     46  C   UNL A   1      42.496  30.659  31.245  1.00  0.00     0.074 A 
ATOM     47  C   UNL A   1      41.318  31.498  31.234  1.00  0.00     0.031 C 
ATOM     48  C   UNL A   1      40.679  25.592  27.727  1.00  0.00     0.029 A 
ATOM     49  C   UNL A   1      41.981  25.824  28.348  1.00  0.00     0.049 A 
ATOM     50  H   UNL A   1      42.545  27.429  29.548  1.00  0.00     0.167 HD
ATOM     51  C   UNL A   1      43.650  30.971  31.882  1.00  0.00     0.037 A 
ATOM     52  C   UNL A   1      43.051  25.015  28.241  1.00  0.00     0.037 A 
ATOM     53  C   UNL A   1      44.814  30.124  31.906  1.00  0.00     0.049 A 
ATOM     54  C   UNL A   1      44.323  25.384  28.955  1.00  0.00     0.074 A 
ATOM     55  C   UNL A   1      46.015  30.324  32.564  1.00  0.00     0.029 A 
ATOM     56  N   UNL A   1      44.921  28.912  31.239  1.00  0.00    -0.354 N 
ATOM     57  N   UNL A   1      44.584  26.439  29.689  1.00  0.00    -0.248 NA
ATOM     58  C   UNL A   1      45.446  24.446  28.833  1.00  0.00     0.031 C 
ATOM     59  C   UNL A   1      46.866  29.258  32.255  1.00  0.00     0.029 A 
ATOM     60  C   UNL A   1      46.176  28.363  31.452  1.00  0.00     0.049 A 
ATOM     61  H   UNL A   1      44.211  28.502  30.694  1.00  0.00     0.167 HD
ATOM     62  C   UNL A   1      45.887  26.278  30.140  1.00  0.00     0.074 A 
ATOM     63  C   UNL A   1      46.357  25.015  29.610  1.00  0.00     0.031 C 
ATOM     64  C   UNL A   1      46.627  27.101  30.922  1.00  0.00     0.037 A 
BRANCH  51  65
ATOM     65  C   UNL A   1      43.708  32.285  32.609  1.00  0.00     0.064 A 
ATOM     66  C   UNL A   1      44.383  33.393  32.075  1.00  0.00     0.173 A 
ATOM     67  C   UNL A   1      43.057  32.448  33.842  1.00  0.00     0.173 A 
ATOM     68  F   UNL A   1      45.032  33.289  30.905  1.00  0.00    -0.203 F 
ATOM     69  C   UNL A   1      44.433  34.604  32.762  1.00  0.00     0.198 A 
ATOM     70  C   UNL A   1      43.081  33.670  34.510  1.00  0.00     0.198 A 
ATOM     71  F   UNL A   1      42.392  31.424  34.398  1.00  0.00    -0.203 F 
ATOM     72  F   UNL A   1      45.132  35.630  32.257  1.00  0.00    -0.200 F 
ATOM     73  C   UNL A   1      43.777  34.743  33.975  1.00  0.00     0.200 A 
ATOM     74  F   UNL A   1      42.433  33.807  35.675  1.00  0.00    -0.200 F 
ATOM     75  F   UNL A   1      43.820  35.910  34.631  1.00  0.00    -0.200 F 
ENDBRANCH  51  65
BRANCH  52  76
ATOM     76  C   UNL A   1      42.957  23.764  27.444  1.00  0.00     0.064 A 
ATOM     77  C   UNL A   1      43.306  23.746  26.085  1.00  0.00     0.173 A 
ATOM     78  C   UNL A   1      42.519  22.563  28.021  1.00  0.00     0.173 A 
ATOM     79  F   UNL A   1      43.713  24.873  25.485  1.00  0.00    -0.203 F 
ATOM     80  C   UNL A   1      43.199  22.580  25.330  1.00  0.00     0.198 A 
ATOM     81  C   UNL A   1      42.442  21.390  27.271  1.00  0.00     0.198 A 
ATOM     82  F   UNL A   1      42.180  22.524  29.318  1.00  0.00    -0.203 F 
ATOM     83  F   UNL A   1      43.493  22.602  24.023  1.00  0.00    -0.200 F 
ATOM     84  C   UNL A   1      42.772  21.402  25.925  1.00  0.00     0.200 A 
ATOM     85  F   UNL A   1      42.046  20.251  27.855  1.00  0.00    -0.200 F 
ATOM     86  F   UNL A   1      42.675  20.280  25.200  1.00  0.00    -0.200 F 
ENDBRANCH  52  76
BRANCH  64  87
ATOM     87  C   UNL A   1      48.012  26.646  31.284  1.00  0.00     0.064 A 
ATOM     88  C   UNL A   1      48.253  25.827  32.397  1.00  0.00     0.173 A 
ATOM     89  C   UNL A   1      49.107  27.007  30.484  1.00  0.00     0.173 A 
ATOM     90  F   UNL A   1      47.242  25.467  33.202  1.00  0.00    -0.203 F 
ATOM     91  C   UNL A   1      49.544  25.412  32.714  1.00  0.00     0.198 A 
ATOM     92  C   UNL A   1      50.391  26.562  30.784  1.00  0.00     0.198 A 
ATOM     93  F   UNL A   1      48.930  27.782  29.403  1.00  0.00    -0.203 F 
ATOM     94  F   UNL A   1      49.758  24.676  33.812  1.00  0.00    -0.200 F 
ATOM     95  C   UNL A   1      50.611  25.773  31.903  1.00  0.00     0.200 A 
ATOM     96  F   UNL A   1      51.418  26.900  29.991  1.00  0.00    -0.200 F 
ATOM     97  F   UNL A   1      51.851  25.367  32.206  1.00  0.00    -0.200 F 
ENDBRANCH  64  87
ENDBRANCH  38  39
ENDBRANCH  30  33
ENDBRANCH  28  29
ENDBRANCH  27  28
ENDBRANCH  26  27
ENDBRANCH   3  26
TORSDOF 15
ENDMDL
