MODEL 1
REMARK VINA RESULT:     -11.5      0.000      0.000
REMARK SMILES O=C(CCCNC(=O)N1CSC[C@@H]1C(=O)NCCCNC(=O)c1ccc(-c2c3nc(c(-c4c(F)c(F)c(F)c(F)c4F)c4ccc([nH]4)c(-c4c(F)c(F)c(F)c(F)c4F)c4nc(c(-c5c(F)c(F)c(F)c(F)c5F)c5ccc2[nH]5)C=C4)C=C3)cc1)NC1CC1
REMARK SMILES IDX 14 1 15 2 16 3 13 5 9 6 10 7 11 8 12 9 7 10 6 11 8 13 5 14
REMARK SMILES IDX 4 15 3 16 2 17 1 18 86 19 87 21 88 22 89 23 17 24 18 25
REMARK SMILES IDX 19 26 20 27 21 28 22 30 23 31 24 32 85 33 25 34 84 35 26 36
REMARK SMILES IDX 27 37 28 38 78 39 29 40 83 41 77 42 79 43 30 44 82 45 76 46
REMARK SMILES IDX 75 47 31 49 63 50 43 51 62 52 44 53 47 54 61 55 80 56 45 57
REMARK SMILES IDX 46 58 60 60 81 61 48 62 32 63 33 64 41 65 34 66 35 67 39 68
REMARK SMILES IDX 42 69 36 70 37 71 40 72 38 73 64 74 65 75 73 76 66 77 67 78
REMARK SMILES IDX 71 79 74 80 68 81 69 82 72 83 70 84 49 85 50 86 58 87 51 88
REMARK SMILES IDX 52 89 56 90 59 91 53 92 54 93 57 94 55 95
REMARK H PARENT 16 4 6 12 86 20 20 29 79 48 47 59
REMARK Flexibility Score: inf
ROOT
ATOM      1  C   UNL A   1      33.260  25.673  25.288  1.00  0.00     0.243 C 
ATOM      2  O   UNL A   1      32.542  24.930  25.963  1.00  0.00    -0.273 OA
ATOM      3  N   UNL A   1      32.845  26.971  25.173  1.00  0.00    -0.354 N 
ATOM      4  H   UNL A   1      31.907  27.132  25.421  1.00  0.00     0.163 HD
ENDROOT
BRANCH   1   5
ATOM      5  C   UNL A   1      34.568  25.201  24.608  1.00  0.00     0.187 C 
ATOM      6  N   UNL A   1      34.269  24.262  23.523  1.00  0.00    -0.303 N 
ATOM      7  C   UNL A   1      35.338  23.338  23.230  1.00  0.00     0.192 C 
ATOM      8  S   UNL A   1      36.404  23.258  24.676  1.00  0.00    -0.138 SA
ATOM      9  C   UNL A   1      35.419  24.440  25.624  1.00  0.00     0.106 C 
BRANCH   6  10
ATOM     10  C   UNL A   1      33.474  24.660  22.480  1.00  0.00     0.318 C 
ATOM     11  N   UNL A   1      32.352  23.914  22.258  1.00  0.00    -0.338 N 
ATOM     12  H   UNL A   1      31.942  23.979  21.366  1.00  0.00     0.165 HD
ATOM     13  O   UNL A   1      33.712  25.646  21.790  1.00  0.00    -0.249 OA
BRANCH  11  14
ATOM     14  C   UNL A   1      31.707  23.031  23.222  1.00  0.00     0.118 C 
BRANCH  14  15
ATOM     15  C   UNL A   1      32.206  21.590  23.118  1.00  0.00     0.031 C 
BRANCH  15  16
ATOM     16  C   UNL A   1      32.219  20.838  24.448  1.00  0.00     0.102 C 
BRANCH  16  17
ATOM     17  C   UNL A   1      33.437  19.945  24.544  1.00  0.00     0.220 C 
ATOM     18  O   UNL A   1      34.541  20.379  24.861  1.00  0.00    -0.275 OA
ATOM     19  N   UNL A   1      33.196  18.635  24.184  1.00  0.00    -0.353 N 
ATOM     20  H   UNL A   1      32.275  18.363  23.969  1.00  0.00     0.163 HD
BRANCH  19  21
ATOM     21  C   UNL A   1      34.236  17.659  24.113  1.00  0.00     0.082 C 
ATOM     22  C   UNL A   1      33.983  16.238  24.535  1.00  0.00     0.027 C 
ATOM     23  C   UNL A   1      34.178  16.564  23.084  1.00  0.00     0.027 C 
ENDBRANCH  19  21
ENDBRANCH  16  17
ENDBRANCH  15  16
ENDBRANCH  14  15
ENDBRANCH  11  14
ENDBRANCH   6  10
ENDBRANCH   1   5
BRANCH   3  24
ATOM     24  C   UNL A   1      33.577  28.144  24.744  1.00  0.00     0.117 C 
BRANCH  24  25
ATOM     25  C   UNL A   1      32.808  29.453  24.878  1.00  0.00     0.042 C 
BRANCH  25  26
ATOM     26  C   UNL A   1      32.300  29.806  26.272  1.00  0.00     0.118 C 
BRANCH  26  27
ATOM     27  N   UNL A   1      32.333  31.228  26.575  1.00  0.00    -0.352 N 
ATOM     28  C   UNL A   1      33.199  32.007  27.298  1.00  0.00     0.251 C 
ATOM     29  H   UNL A   1      31.584  31.731  26.182  1.00  0.00     0.163 HD
ATOM     30  O   UNL A   1      32.919  33.195  27.454  1.00  0.00    -0.269 OA
BRANCH  28  31
ATOM     31  C   UNL A   1      34.428  31.472  27.936  1.00  0.00     0.039 A 
ATOM     32  C   UNL A   1      35.441  32.384  28.260  1.00  0.00     0.014 A 
ATOM     33  C   UNL A   1      34.644  30.113  28.161  1.00  0.00     0.014 A 
ATOM     34  C   UNL A   1      36.620  31.947  28.873  1.00  0.00     0.010 A 
ATOM     35  C   UNL A   1      35.784  29.683  28.846  1.00  0.00     0.010 A 
ATOM     36  C   UNL A   1      36.784  30.597  29.212  1.00  0.00    -0.014 A 
BRANCH  36  37
ATOM     37  C   UNL A   1      37.989  30.133  29.949  1.00  0.00     0.031 A 
ATOM     38  C   UNL A   1      38.234  30.559  31.370  1.00  0.00     0.074 A 
ATOM     39  C   UNL A   1      38.902  29.368  29.317  1.00  0.00     0.049 A 
ATOM     40  N   UNL A   1      39.274  30.328  32.135  1.00  0.00    -0.248 NA
ATOM     41  C   UNL A   1      37.190  31.373  32.007  1.00  0.00     0.031 C 
ATOM     42  C   UNL A   1      38.820  28.926  27.924  1.00  0.00     0.029 A 
ATOM     43  N   UNL A   1      40.083  28.831  29.766  1.00  0.00    -0.354 N 
ATOM     44  C   UNL A   1      39.032  31.011  33.319  1.00  0.00     0.074 A 
ATOM     45  C   UNL A   1      37.750  31.669  33.172  1.00  0.00     0.031 C 
ATOM     46  C   UNL A   1      39.885  28.159  27.642  1.00  0.00     0.029 A 
ATOM     47  C   UNL A   1      40.738  28.078  28.824  1.00  0.00     0.049 A 
ATOM     48  H   UNL A   1      40.427  28.973  30.678  1.00  0.00     0.167 HD
ATOM     49  C   UNL A   1      39.804  31.081  34.429  1.00  0.00     0.037 A 
ATOM     50  C   UNL A   1      41.894  27.394  28.902  1.00  0.00     0.037 A 
ATOM     51  C   UNL A   1      41.043  30.374  34.612  1.00  0.00     0.049 A 
ATOM     52  C   UNL A   1      42.673  27.392  30.185  1.00  0.00     0.074 A 
ATOM     53  C   UNL A   1      41.865  30.342  35.726  1.00  0.00     0.029 A 
ATOM     54  N   UNL A   1      41.630  29.555  33.660  1.00  0.00    -0.354 N 
ATOM     55  N   UNL A   1      42.423  28.028  31.302  1.00  0.00    -0.248 NA
ATOM     56  C   UNL A   1      43.895  26.574  30.218  1.00  0.00     0.031 C 
ATOM     57  C   UNL A   1      42.952  29.504  35.446  1.00  0.00     0.029 A 
ATOM     58  C   UNL A   1      42.797  29.006  34.163  1.00  0.00     0.049 A 
ATOM     59  H   UNL A   1      41.269  29.389  32.759  1.00  0.00     0.167 HD
ATOM     60  C   UNL A   1      43.444  27.682  32.173  1.00  0.00     0.074 A 
ATOM     61  C   UNL A   1      44.315  26.769  31.461  1.00  0.00     0.031 C 
ATOM     62  C   UNL A   1      43.644  28.090  33.448  1.00  0.00     0.037 A 
BRANCH  49  63
ATOM     63  C   UNL A   1      39.328  31.962  35.542  1.00  0.00     0.064 A 
ATOM     64  C   UNL A   1      39.691  33.314  35.611  1.00  0.00     0.173 A 
ATOM     65  C   UNL A   1      38.477  31.453  36.532  1.00  0.00     0.173 A 
ATOM     66  F   UNL A   1      40.516  33.839  34.693  1.00  0.00    -0.203 F 
ATOM     67  C   UNL A   1      39.231  34.123  36.646  1.00  0.00     0.198 A 
ATOM     68  C   UNL A   1      38.004  32.269  37.557  1.00  0.00     0.198 A 
ATOM     69  F   UNL A   1      38.102  30.165  36.506  1.00  0.00    -0.203 F 
ATOM     70  F   UNL A   1      39.615  35.405  36.715  1.00  0.00    -0.200 F 
ATOM     71  C   UNL A   1      38.385  33.602  37.614  1.00  0.00     0.200 A 
ATOM     72  F   UNL A   1      37.185  31.765  38.490  1.00  0.00    -0.200 F 
ATOM     73  F   UNL A   1      37.943  34.382  38.610  1.00  0.00    -0.200 F 
ENDBRANCH  49  63
BRANCH  50  74
ATOM     74  C   UNL A   1      42.362  26.614  27.733  1.00  0.00     0.064 A 
ATOM     75  C   UNL A   1      43.293  27.160  26.840  1.00  0.00     0.173 A 
ATOM     76  C   UNL A   1      41.907  25.311  27.497  1.00  0.00     0.173 A 
ATOM     77  F   UNL A   1      43.739  28.412  27.021  1.00  0.00    -0.203 F 
ATOM     78  C   UNL A   1      43.747  26.431  25.745  1.00  0.00     0.198 A 
ATOM     79  C   UNL A   1      42.373  24.577  26.409  1.00  0.00     0.198 A 
ATOM     80  F   UNL A   1      41.019  24.749  28.330  1.00  0.00    -0.203 F 
ATOM     81  F   UNL A   1      44.621  26.982  24.892  1.00  0.00    -0.200 F 
ATOM     82  C   UNL A   1      43.291  25.138  25.533  1.00  0.00     0.200 A 
ATOM     83  F   UNL A   1      41.936  23.326  26.210  1.00  0.00    -0.200 F 
ATOM     84  F   UNL A   1      43.732  24.435  24.480  1.00  0.00    -0.200 F 
ENDBRANCH  50  74
BRANCH  62  85
ATOM     85  C   UNL A   1      44.838  27.538  34.161  1.00  0.00     0.064 A 
ATOM     86  C   UNL A   1      44.773  26.318  34.847  1.00  0.00     0.173 A 
ATOM     87  C   UNL A   1      46.062  28.220  34.132  1.00  0.00     0.173 A 
ATOM     88  F   UNL A   1      43.616  25.641  34.913  1.00  0.00    -0.203 F 
ATOM     89  C   UNL A   1      45.894  25.803  35.492  1.00  0.00     0.198 A 
ATOM     90  C   UNL A   1      47.184  27.696  34.767  1.00  0.00     0.198 A 
ATOM     91  F   UNL A   1      46.167  29.392  33.489  1.00  0.00    -0.203 F 
ATOM     92  F   UNL A   1      45.807  24.648  36.165  1.00  0.00    -0.200 F 
ATOM     93  C   UNL A   1      47.099  26.491  35.448  1.00  0.00     0.200 A 
ATOM     94  F   UNL A   1      48.347  28.361  34.726  1.00  0.00    -0.200 F 
ATOM     95  F   UNL A   1      48.177  25.995  36.071  1.00  0.00    -0.200 F 
ENDBRANCH  62  85
ENDBRANCH  36  37
ENDBRANCH  28  31
ENDBRANCH  26  27
ENDBRANCH  25  26
ENDBRANCH  24  25
ENDBRANCH   3  24
TORSDOF 16
ENDMDL
MODEL 2
REMARK VINA RESULT:     -11.3      0.797      7.415
REMARK SMILES O=C(CCCNC(=O)N1CSC[C@@H]1C(=O)NCCCNC(=O)c1ccc(-c2c3nc(c(-c4c(F)c(F)c(F)c(F)c4F)c4ccc([nH]4)c(-c4c(F)c(F)c(F)c(F)c4F)c4nc(c(-c5c(F)c(F)c(F)c(F)c5F)c5ccc2[nH]5)C=C4)C=C3)cc1)NC1CC1
REMARK SMILES IDX 14 1 15 2 16 3 13 5 9 6 10 7 11 8 12 9 7 10 6 11 8 13 5 14
REMARK SMILES IDX 4 15 3 16 2 17 1 18 86 19 87 21 88 22 89 23 17 24 18 25
REMARK SMILES IDX 19 26 20 27 21 28 22 30 23 31 24 32 85 33 25 34 84 35 26 36
REMARK SMILES IDX 27 37 28 38 78 39 29 40 83 41 77 42 79 43 30 44 82 45 76 46
REMARK SMILES IDX 75 47 31 49 63 50 43 51 62 52 44 53 47 54 61 55 80 56 45 57
REMARK SMILES IDX 46 58 60 60 81 61 48 62 32 63 33 64 41 65 34 66 35 67 39 68
REMARK SMILES IDX 42 69 36 70 37 71 40 72 38 73 64 74 65 75 73 76 66 77 67 78
REMARK SMILES IDX 71 79 74 80 68 81 69 82 72 83 70 84 49 85 50 86 58 87 51 88
REMARK SMILES IDX 52 89 56 90 59 91 53 92 54 93 57 94 55 95
REMARK H PARENT 16 4 6 12 86 20 20 29 79 48 47 59
REMARK Flexibility Score: inf
ROOT
ATOM      1  C   UNL A   1      32.903  25.392  24.968  1.00  0.00     0.243 C 
ATOM      2  O   UNL A   1      32.347  24.766  25.876  1.00  0.00    -0.273 OA
ATOM      3  N   UNL A   1      32.231  26.481  24.489  1.00  0.00    -0.354 N 
ATOM      4  H   UNL A   1      31.277  26.522  24.728  1.00  0.00     0.163 HD
ENDROOT
BRANCH   1   5
ATOM      5  C   UNL A   1      34.286  25.002  24.393  1.00  0.00     0.187 C 
ATOM      6  N   UNL A   1      34.158  23.854  23.490  1.00  0.00    -0.303 N 
ATOM      7  C   UNL A   1      35.356  23.057  23.375  1.00  0.00     0.192 C 
ATOM      8  S   UNL A   1      36.376  23.389  24.819  1.00  0.00    -0.138 SA
ATOM      9  C   UNL A   1      35.203  24.564  25.534  1.00  0.00     0.106 C 
BRANCH   6  10
ATOM     10  C   UNL A   1      33.349  23.942  22.389  1.00  0.00     0.318 C 
ATOM     11  N   UNL A   1      32.385  22.983  22.269  1.00  0.00    -0.338 N 
ATOM     12  H   UNL A   1      32.007  22.839  21.372  1.00  0.00     0.165 HD
ATOM     13  O   UNL A   1      33.438  24.842  21.558  1.00  0.00    -0.249 OA
BRANCH  11  14
ATOM     14  C   UNL A   1      31.866  22.152  23.348  1.00  0.00     0.118 C 
BRANCH  14  15
ATOM     15  C   UNL A   1      32.270  20.685  23.201  1.00  0.00     0.031 C 
BRANCH  15  16
ATOM     16  C   UNL A   1      33.055  20.133  24.390  1.00  0.00     0.102 C 
BRANCH  16  17
ATOM     17  C   UNL A   1      32.963  18.623  24.435  1.00  0.00     0.220 C 
ATOM     18  O   UNL A   1      31.913  18.041  24.693  1.00  0.00    -0.275 OA
ATOM     19  N   UNL A   1      34.169  17.986  24.225  1.00  0.00    -0.353 N 
ATOM     20  H   UNL A   1      34.959  18.527  23.997  1.00  0.00     0.163 HD
BRANCH  19  21
ATOM     21  C   UNL A   1      34.311  16.568  24.326  1.00  0.00     0.082 C 
ATOM     22  C   UNL A   1      35.369  15.966  25.209  1.00  0.00     0.027 C 
ATOM     23  C   UNL A   1      33.923  15.857  25.593  1.00  0.00     0.027 C 
ENDBRANCH  19  21
ENDBRANCH  16  17
ENDBRANCH  15  16
ENDBRANCH  14  15
ENDBRANCH  11  14
ENDBRANCH   6  10
ENDBRANCH   1   5
BRANCH   3  24
ATOM     24  C   UNL A   1      32.709  27.586  23.684  1.00  0.00     0.117 C 
BRANCH  24  25
ATOM     25  C   UNL A   1      33.207  28.783  24.486  1.00  0.00     0.042 C 
BRANCH  25  26
ATOM     26  C   UNL A   1      32.555  29.012  25.845  1.00  0.00     0.118 C 
BRANCH  26  27
ATOM     27  N   UNL A   1      32.357  30.412  26.182  1.00  0.00    -0.352 N 
ATOM     28  C   UNL A   1      33.061  31.292  26.963  1.00  0.00     0.251 C 
ATOM     29  H   UNL A   1      31.557  30.807  25.765  1.00  0.00     0.163 HD
ATOM     30  O   UNL A   1      32.597  32.419  27.133  1.00  0.00    -0.269 OA
BRANCH  28  31
ATOM     31  C   UNL A   1      34.328  30.931  27.646  1.00  0.00     0.039 A 
ATOM     32  C   UNL A   1      35.251  31.957  27.889  1.00  0.00     0.014 A 
ATOM     33  C   UNL A   1      34.666  29.622  27.992  1.00  0.00     0.014 A 
ATOM     34  C   UNL A   1      36.460  31.686  28.538  1.00  0.00     0.010 A 
ATOM     35  C   UNL A   1      35.834  29.361  28.712  1.00  0.00     0.010 A 
ATOM     36  C   UNL A   1      36.744  30.391  28.996  1.00  0.00    -0.014 A 
BRANCH  36  37
ATOM     37  C   UNL A   1      37.980  30.107  29.771  1.00  0.00     0.031 A 
ATOM     38  C   UNL A   1      39.061  29.230  29.202  1.00  0.00     0.074 A 
ATOM     39  C   UNL A   1      38.109  30.594  31.021  1.00  0.00     0.049 A 
ATOM     40  N   UNL A   1      40.161  28.800  29.771  1.00  0.00    -0.248 NA
ATOM     41  C   UNL A   1      38.869  28.749  27.827  1.00  0.00     0.031 C 
ATOM     42  C   UNL A   1      37.115  31.413  31.718  1.00  0.00     0.029 A 
ATOM     43  N   UNL A   1      39.130  30.467  31.930  1.00  0.00    -0.354 N 
ATOM     44  C   UNL A   1      40.762  27.959  28.844  1.00  0.00     0.074 A 
ATOM     45  C   UNL A   1      39.905  27.935  27.677  1.00  0.00     0.031 C 
ATOM     46  C   UNL A   1      37.589  31.742  32.931  1.00  0.00     0.029 A 
ATOM     47  C   UNL A   1      38.905  31.135  33.108  1.00  0.00     0.049 A 
ATOM     48  H   UNL A   1      39.946  29.945  31.754  1.00  0.00     0.167 HD
ATOM     49  C   UNL A   1      41.925  27.273  28.952  1.00  0.00     0.037 A 
ATOM     50  C   UNL A   1      39.673  31.251  34.206  1.00  0.00     0.037 A 
ATOM     51  C   UNL A   1      42.820  27.346  30.076  1.00  0.00     0.049 A 
ATOM     52  C   UNL A   1      41.012  30.576  34.254  1.00  0.00     0.074 A 
ATOM     53  C   UNL A   1      44.046  26.729  30.248  1.00  0.00     0.029 A 
ATOM     54  N   UNL A   1      42.591  28.103  31.215  1.00  0.00    -0.354 N 
ATOM     55  N   UNL A   1      41.575  29.799  33.363  1.00  0.00    -0.248 NA
ATOM     56  C   UNL A   1      41.824  30.796  35.461  1.00  0.00     0.031 C 
ATOM     57  C   UNL A   1      44.560  27.110  31.494  1.00  0.00     0.029 A 
ATOM     58  C   UNL A   1      43.657  27.975  32.089  1.00  0.00     0.049 A 
ATOM     59  H   UNL A   1      41.788  28.650  31.378  1.00  0.00     0.167 HD
ATOM     60  C   UNL A   1      42.807  29.446  33.891  1.00  0.00     0.074 A 
ATOM     61  C   UNL A   1      42.919  30.103  35.177  1.00  0.00     0.031 C 
ATOM     62  C   UNL A   1      43.759  28.644  33.358  1.00  0.00     0.037 A 
BRANCH  49  63
ATOM     63  C   UNL A   1      42.299  26.373  27.816  1.00  0.00     0.064 A 
ATOM     64  C   UNL A   1      41.744  25.093  27.683  1.00  0.00     0.173 A 
ATOM     65  C   UNL A   1      43.201  26.809  26.836  1.00  0.00     0.173 A 
ATOM     66  F   UNL A   1      40.889  24.629  28.606  1.00  0.00    -0.203 F 
ATOM     67  C   UNL A   1      42.093  24.272  26.615  1.00  0.00     0.198 A 
ATOM     68  C   UNL A   1      43.535  25.992  25.758  1.00  0.00     0.198 A 
ATOM     69  F   UNL A   1      43.757  28.027  26.921  1.00  0.00    -0.203 F 
ATOM     70  F   UNL A   1      41.578  23.039  26.522  1.00  0.00    -0.200 F 
ATOM     71  C   UNL A   1      42.984  24.723  25.652  1.00  0.00     0.200 A 
ATOM     72  F   UNL A   1      44.394  26.430  24.827  1.00  0.00    -0.200 F 
ATOM     73  F   UNL A   1      43.320  23.932  24.624  1.00  0.00    -0.200 F 
ENDBRANCH  49  63
BRANCH  50  74
ATOM     74  C   UNL A   1      39.206  32.084  35.340  1.00  0.00     0.064 A 
ATOM     75  C   UNL A   1      38.469  31.512  36.385  1.00  0.00     0.173 A 
ATOM     76  C   UNL A   1      39.500  33.451  35.410  1.00  0.00     0.173 A 
ATOM     77  F   UNL A   1      38.151  30.209  36.345  1.00  0.00    -0.203 F 
ATOM     78  C   UNL A   1      38.035  32.282  37.460  1.00  0.00     0.198 A 
ATOM     79  C   UNL A   1      39.078  34.218  36.493  1.00  0.00     0.198 A 
ATOM     80  F   UNL A   1      40.207  34.036  34.432  1.00  0.00    -0.203 F 
ATOM     81  F   UNL A   1      37.312  31.719  38.437  1.00  0.00    -0.200 F 
ATOM     82  C   UNL A   1      38.344  33.633  37.516  1.00  0.00     0.200 A 
ATOM     83  F   UNL A   1      39.382  35.521  36.548  1.00  0.00    -0.200 F 
ATOM     84  F   UNL A   1      37.928  34.374  38.553  1.00  0.00    -0.200 F 
ENDBRANCH  50  74
BRANCH  62  85
ATOM     85  C   UNL A   1      45.009  28.449  34.155  1.00  0.00     0.064 A 
ATOM     86  C   UNL A   1      45.123  27.407  35.084  1.00  0.00     0.173 A 
ATOM     87  C   UNL A   1      46.112  29.293  33.965  1.00  0.00     0.173 A 
ATOM     88  F   UNL A   1      44.085  26.586  35.307  1.00  0.00    -0.203 F 
ATOM     89  C   UNL A   1      46.297  27.223  35.808  1.00  0.00     0.198 A 
ATOM     90  C   UNL A   1      47.290  29.099  34.681  1.00  0.00     0.198 A 
ATOM     91  F   UNL A   1      46.046  30.306  33.088  1.00  0.00    -0.203 F 
ATOM     92  F   UNL A   1      46.378  26.236  36.711  1.00  0.00    -0.200 F 
ATOM     93  C   UNL A   1      47.380  28.066  35.603  1.00  0.00     0.200 A 
ATOM     94  F   UNL A   1      48.335  29.914  34.485  1.00  0.00    -0.200 F 
ATOM     95  F   UNL A   1      48.509  27.888  36.302  1.00  0.00    -0.200 F 
ENDBRANCH  62  85
ENDBRANCH  36  37
ENDBRANCH  28  31
ENDBRANCH  26  27
ENDBRANCH  25  26
ENDBRANCH  24  25
ENDBRANCH   3  24
TORSDOF 16
ENDMDL
MODEL 3
REMARK VINA RESULT:     -11.3      3.581      8.705
REMARK SMILES O=C(CCCNC(=O)N1CSC[C@@H]1C(=O)NCCCNC(=O)c1ccc(-c2c3nc(c(-c4c(F)c(F)c(F)c(F)c4F)c4ccc([nH]4)c(-c4c(F)c(F)c(F)c(F)c4F)c4nc(c(-c5c(F)c(F)c(F)c(F)c5F)c5ccc2[nH]5)C=C4)C=C3)cc1)NC1CC1
REMARK SMILES IDX 14 1 15 2 16 3 13 5 9 6 10 7 11 8 12 9 7 10 6 11 8 13 5 14
REMARK SMILES IDX 4 15 3 16 2 17 1 18 86 19 87 21 88 22 89 23 17 24 18 25
REMARK SMILES IDX 19 26 20 27 21 28 22 30 23 31 24 32 85 33 25 34 84 35 26 36
REMARK SMILES IDX 27 37 28 38 78 39 29 40 83 41 77 42 79 43 30 44 82 45 76 46
REMARK SMILES IDX 75 47 31 49 63 50 43 51 62 52 44 53 47 54 61 55 80 56 45 57
REMARK SMILES IDX 46 58 60 60 81 61 48 62 32 63 33 64 41 65 34 66 35 67 39 68
REMARK SMILES IDX 42 69 36 70 37 71 40 72 38 73 64 74 65 75 73 76 66 77 67 78
REMARK SMILES IDX 71 79 74 80 68 81 69 82 72 83 70 84 49 85 50 86 58 87 51 88
REMARK SMILES IDX 52 89 56 90 59 91 53 92 54 93 57 94 55 95
REMARK H PARENT 16 4 6 12 86 20 20 29 79 48 47 59
REMARK Flexibility Score: inf
ROOT
ATOM      1  C   UNL A   1      32.824  23.601  25.677  1.00  0.00     0.243 C 
ATOM      2  O   UNL A   1      31.840  23.533  26.419  1.00  0.00    -0.273 OA
ATOM      3  N   UNL A   1      33.597  24.721  25.802  1.00  0.00    -0.354 N 
ATOM      4  H   UNL A   1      33.174  25.469  26.280  1.00  0.00     0.163 HD
ENDROOT
BRANCH   1   5
ATOM      5  C   UNL A   1      33.197  22.494  24.661  1.00  0.00     0.187 C 
ATOM      6  N   UNL A   1      32.453  22.675  23.411  1.00  0.00    -0.303 N 
ATOM      7  C   UNL A   1      32.253  21.459  22.661  1.00  0.00     0.192 C 
ATOM      8  S   UNL A   1      32.447  20.077  23.796  1.00  0.00    -0.138 SA
ATOM      9  C   UNL A   1      32.786  21.133  25.223  1.00  0.00     0.106 C 
BRANCH   6  10
ATOM     10  C   UNL A   1      32.589  23.839  22.703  1.00  0.00     0.318 C 
ATOM     11  N   UNL A   1      31.451  24.572  22.522  1.00  0.00    -0.338 N 
ATOM     12  H   UNL A   1      31.451  25.225  21.785  1.00  0.00     0.165 HD
ATOM     13  O   UNL A   1      33.664  24.246  22.273  1.00  0.00    -0.249 OA
BRANCH  11  14
ATOM     14  C   UNL A   1      30.235  24.476  23.321  1.00  0.00     0.118 C 
BRANCH  14  15
ATOM     15  C   UNL A   1      30.015  25.709  24.199  1.00  0.00     0.031 C 
BRANCH  15  16
ATOM     16  C   UNL A   1      30.325  27.033  23.502  1.00  0.00     0.102 C 
BRANCH  16  17
ATOM     17  C   UNL A   1      31.530  27.697  24.133  1.00  0.00     0.220 C 
ATOM     18  O   UNL A   1      32.661  27.230  24.030  1.00  0.00    -0.275 OA
ATOM     19  N   UNL A   1      31.223  28.821  24.872  1.00  0.00    -0.353 N 
ATOM     20  H   UNL A   1      30.293  29.145  24.880  1.00  0.00     0.163 HD
BRANCH  19  21
ATOM     21  C   UNL A   1      32.206  29.532  25.625  1.00  0.00     0.082 C 
ATOM     22  C   UNL A   1      31.832  30.767  26.398  1.00  0.00     0.027 C 
ATOM     23  C   UNL A   1      32.176  29.502  27.128  1.00  0.00     0.027 C 
ENDBRANCH  19  21
ENDBRANCH  16  17
ENDBRANCH  15  16
ENDBRANCH  14  15
ENDBRANCH  11  14
ENDBRANCH   6  10
ENDBRANCH   1   5
BRANCH   3  24
ATOM     24  C   UNL A   1      34.947  24.973  25.339  1.00  0.00     0.117 C 
BRANCH  24  25
ATOM     25  C   UNL A   1      35.985  23.982  25.851  1.00  0.00     0.042 C 
BRANCH  25  26
ATOM     26  C   UNL A   1      37.114  23.621  24.892  1.00  0.00     0.118 C 
BRANCH  26  27
ATOM     27  N   UNL A   1      38.098  22.706  25.449  1.00  0.00    -0.352 N 
ATOM     28  C   UNL A   1      39.171  22.886  26.284  1.00  0.00     0.251 C 
ATOM     29  H   UNL A   1      37.967  21.771  25.171  1.00  0.00     0.163 HD
ATOM     30  O   UNL A   1      39.889  21.917  26.523  1.00  0.00    -0.269 OA
BRANCH  28  31
ATOM     31  C   UNL A   1      39.527  24.202  26.870  1.00  0.00     0.039 A 
ATOM     32  C   UNL A   1      39.130  24.455  28.190  1.00  0.00     0.014 A 
ATOM     33  C   UNL A   1      40.171  25.211  26.153  1.00  0.00     0.014 A 
ATOM     34  C   UNL A   1      39.443  25.671  28.805  1.00  0.00     0.010 A 
ATOM     35  C   UNL A   1      40.556  26.394  26.790  1.00  0.00     0.010 A 
ATOM     36  C   UNL A   1      40.199  26.636  28.125  1.00  0.00    -0.014 A 
BRANCH  36  37
ATOM     37  C   UNL A   1      40.621  27.892  28.797  1.00  0.00     0.031 A 
ATOM     38  C   UNL A   1      42.041  28.082  29.254  1.00  0.00     0.074 A 
ATOM     39  C   UNL A   1      39.708  28.850  29.052  1.00  0.00     0.049 A 
ATOM     40  N   UNL A   1      42.565  29.070  29.938  1.00  0.00    -0.248 NA
ATOM     41  C   UNL A   1      42.991  27.010  28.926  1.00  0.00     0.031 C 
ATOM     42  C   UNL A   1      38.285  28.777  28.714  1.00  0.00     0.029 A 
ATOM     43  N   UNL A   1      39.841  30.074  29.660  1.00  0.00    -0.354 N 
ATOM     44  C   UNL A   1      43.887  28.714  30.166  1.00  0.00     0.074 A 
ATOM     45  C   UNL A   1      44.087  27.417  29.552  1.00  0.00     0.031 C 
ATOM     46  C   UNL A   1      37.684  29.918  29.089  1.00  0.00     0.029 A 
ATOM     47  C   UNL A   1      38.671  30.790  29.717  1.00  0.00     0.049 A 
ATOM     48  H   UNL A   1      40.695  30.406  30.021  1.00  0.00     0.167 HD
ATOM     49  C   UNL A   1      44.849  29.405  30.823  1.00  0.00     0.037 A 
ATOM     50  C   UNL A   1      38.421  32.014  30.215  1.00  0.00     0.037 A 
ATOM     51  C   UNL A   1      44.682  30.723  31.373  1.00  0.00     0.049 A 
ATOM     52  C   UNL A   1      39.533  32.809  30.834  1.00  0.00     0.074 A 
ATOM     53  C   UNL A   1      45.618  31.522  32.006  1.00  0.00     0.029 A 
ATOM     54  N   UNL A   1      43.500  31.446  31.335  1.00  0.00    -0.354 N 
ATOM     55  N   UNL A   1      40.782  32.467  31.026  1.00  0.00    -0.248 NA
ATOM     56  C   UNL A   1      39.200  34.164  31.303  1.00  0.00     0.031 C 
ATOM     57  C   UNL A   1      45.001  32.729  32.356  1.00  0.00     0.029 A 
ATOM     58  C   UNL A   1      43.685  32.685  31.925  1.00  0.00     0.049 A 
ATOM     59  H   UNL A   1      42.654  31.126  30.947  1.00  0.00     0.167 HD
ATOM     60  C   UNL A   1      41.388  33.560  31.626  1.00  0.00     0.074 A 
ATOM     61  C   UNL A   1      40.373  34.586  31.756  1.00  0.00     0.031 C 
ATOM     62  C   UNL A   1      42.671  33.698  32.036  1.00  0.00     0.037 A 
BRANCH  49  63
ATOM     63  C   UNL A   1      46.181  28.740  30.987  1.00  0.00     0.064 A 
ATOM     64  C   UNL A   1      47.204  28.908  30.044  1.00  0.00     0.173 A 
ATOM     65  C   UNL A   1      46.443  27.951  32.116  1.00  0.00     0.173 A 
ATOM     66  F   UNL A   1      46.991  29.642  28.942  1.00  0.00    -0.203 F 
ATOM     67  C   UNL A   1      48.440  28.294  30.217  1.00  0.00     0.198 A 
ATOM     68  C   UNL A   1      47.687  27.352  32.294  1.00  0.00     0.198 A 
ATOM     69  F   UNL A   1      45.494  27.763  33.045  1.00  0.00    -0.203 F 
ATOM     70  F   UNL A   1      49.395  28.438  29.288  1.00  0.00    -0.200 F 
ATOM     71  C   UNL A   1      48.682  27.520  31.343  1.00  0.00     0.200 A 
ATOM     72  F   UNL A   1      47.921  26.607  33.384  1.00  0.00    -0.200 F 
ATOM     73  F   UNL A   1      49.874  26.929  31.508  1.00  0.00    -0.200 F 
ENDBRANCH  49  63
BRANCH  50  74
ATOM     74  C   UNL A   1      37.056  32.583  30.107  1.00  0.00     0.064 A 
ATOM     75  C   UNL A   1      36.674  33.301  28.967  1.00  0.00     0.173 A 
ATOM     76  C   UNL A   1      36.111  32.405  31.124  1.00  0.00     0.173 A 
ATOM     77  F   UNL A   1      37.557  33.508  27.979  1.00  0.00    -0.203 F 
ATOM     78  C   UNL A   1      35.391  33.829  28.851  1.00  0.00     0.198 A 
ATOM     79  C   UNL A   1      34.823  32.922  31.001  1.00  0.00     0.198 A 
ATOM     80  F   UNL A   1      36.435  31.721  32.231  1.00  0.00    -0.203 F 
ATOM     81  F   UNL A   1      35.054  34.531  27.761  1.00  0.00    -0.200 F 
ATOM     82  C   UNL A   1      34.466  33.636  29.865  1.00  0.00     0.200 A 
ATOM     83  F   UNL A   1      33.928  32.729  31.979  1.00  0.00    -0.200 F 
ATOM     84  F   UNL A   1      33.230  34.142  29.752  1.00  0.00    -0.200 F 
ENDBRANCH  50  74
BRANCH  62  85
ATOM     85  C   UNL A   1      43.053  35.010  32.645  1.00  0.00     0.064 A 
ATOM     86  C   UNL A   1      43.501  36.075  31.853  1.00  0.00     0.173 A 
ATOM     87  C   UNL A   1      42.943  35.210  34.028  1.00  0.00     0.173 A 
ATOM     88  F   UNL A   1      43.636  35.920  30.527  1.00  0.00    -0.203 F 
ATOM     89  C   UNL A   1      43.838  37.297  32.428  1.00  0.00     0.198 A 
ATOM     90  C   UNL A   1      43.269  36.437  34.598  1.00  0.00     0.198 A 
ATOM     91  F   UNL A   1      42.522  34.216  34.824  1.00  0.00    -0.203 F 
ATOM     92  F   UNL A   1      44.288  38.297  31.657  1.00  0.00    -0.200 F 
ATOM     93  C   UNL A   1      43.717  37.478  33.798  1.00  0.00     0.200 A 
ATOM     94  F   UNL A   1      43.155  36.612  35.922  1.00  0.00    -0.200 F 
ATOM     95  F   UNL A   1      44.044  38.655  34.350  1.00  0.00    -0.200 F 
ENDBRANCH  62  85
ENDBRANCH  36  37
ENDBRANCH  28  31
ENDBRANCH  26  27
ENDBRANCH  25  26
ENDBRANCH  24  25
ENDBRANCH   3  24
TORSDOF 16
ENDMDL
