MODEL 1
REMARK VINA RESULT:     -12.6      0.000      0.000
REMARK SMILES O=C(COc1ccc(F)cc1)Nc1sccc1C(=O)NCCCNC(=O)c1ccc(-c2c3nc(c(-c4c(F)c(F)c(F)c(F)c4F)c4ccc([nH]4)c(-c4c(F)c(F)c(F)c(F)c4F)c4nc(c(-c5c(F)c(F)c(F)c(F)c5F)c5ccc2[nH]5)C=C4)C=C3)cc1
REMARK SMILES IDX 21 1 20 2 18 3 19 4 17 6 13 7 14 8 15 9 16 10 12 11 1 12
REMARK SMILES IDX 2 13 3 15 4 16 5 17 6 18 11 19 7 20 10 21 8 22 9 23 22 24
REMARK SMILES IDX 23 25 24 26 25 27 26 29 27 30 28 31 89 32 29 33 88 34 30 35
REMARK SMILES IDX 31 36 32 37 82 38 33 39 87 40 81 41 83 42 34 43 86 44 80 45
REMARK SMILES IDX 79 46 35 48 67 49 47 50 66 51 48 52 51 53 65 54 84 55 49 56
REMARK SMILES IDX 50 57 64 59 85 60 52 61 36 62 37 63 45 64 38 65 39 66 43 67
REMARK SMILES IDX 46 68 40 69 41 70 44 71 42 72 68 73 69 74 77 75 70 76 71 77
REMARK SMILES IDX 75 78 78 79 72 80 73 81 76 82 74 83 53 84 54 85 62 86 55 87
REMARK SMILES IDX 56 88 60 89 63 90 57 91 58 92 61 93 59 94
REMARK H PARENT 20 5 12 14 24 28 83 47 51 58
REMARK Flexibility Score: inf
ROOT
ATOM      1  C   UNL A   1      32.351  26.856  26.499  1.00  0.00     0.118 C 
ENDROOT
BRANCH   1   2
ATOM      2  N   UNL A   1      31.464  25.782  26.892  1.00  0.00    -0.352 N 
ATOM      3  C   UNL A   1      31.612  24.424  26.734  1.00  0.00     0.254 C 
ATOM      4  O   UNL A   1      30.697  23.704  27.139  1.00  0.00    -0.269 OA
ATOM      5  H   UNL A   1      30.633  26.065  27.338  1.00  0.00     0.163 HD
BRANCH   3   6
ATOM      6  C   UNL A   1      32.722  23.871  25.961  1.00  0.00     0.074 A 
ATOM      7  C   UNL A   1      33.002  23.979  24.611  1.00  0.00     0.108 A 
ATOM      8  S   UNL A   1      34.264  22.945  24.104  1.00  0.00    -0.126 S 
ATOM      9  C   UNL A   1      34.646  22.527  25.711  1.00  0.00     0.068 A 
ATOM     10  C   UNL A   1      33.754  23.082  26.598  1.00  0.00     0.028 A 
BRANCH   7  11
ATOM     11  N   UNL A   1      32.504  24.701  23.552  1.00  0.00    -0.314 N 
ATOM     12  O   UNL A   1      33.989  26.491  23.578  1.00  0.00    -0.271 OA
ATOM     13  C   UNL A   1      32.995  25.923  23.134  1.00  0.00     0.262 C 
ATOM     14  H   UNL A   1      31.742  24.320  23.057  1.00  0.00     0.170 HD
BRANCH  13  15
ATOM     15  C   UNL A   1      32.089  26.587  22.093  1.00  0.00     0.329 C 
BRANCH  15  16
ATOM     16  O   UNL A   1      31.797  27.952  22.403  1.00  0.00    -0.484 OA
BRANCH  16  17
ATOM     17  C   UNL A   1      30.462  28.105  22.655  1.00  0.00     0.120 A 
ATOM     18  C   UNL A   1      29.745  27.100  23.308  1.00  0.00     0.049 A 
ATOM     19  C   UNL A   1      29.851  29.300  22.283  1.00  0.00     0.049 A 
ATOM     20  C   UNL A   1      28.386  27.280  23.553  1.00  0.00     0.043 A 
ATOM     21  C   UNL A   1      28.490  29.476  22.531  1.00  0.00     0.043 A 
ATOM     22  C   UNL A   1      27.771  28.463  23.159  1.00  0.00     0.123 A 
ATOM     23  F   UNL A   1      26.463  28.631  23.393  1.00  0.00    -0.207 F 
ENDBRANCH  16  17
ENDBRANCH  15  16
ENDBRANCH  13  15
ENDBRANCH   7  11
ENDBRANCH   3   6
ENDBRANCH   1   2
BRANCH   1  24
ATOM     24  C   UNL A   1      31.696  28.221  26.406  1.00  0.00     0.042 C 
BRANCH  24  25
ATOM     25  C   UNL A   1      32.599  29.305  25.824  1.00  0.00     0.118 C 
BRANCH  25  26
ATOM     26  N   UNL A   1      32.326  30.656  26.317  1.00  0.00    -0.352 N 
ATOM     27  C   UNL A   1      33.034  31.517  27.122  1.00  0.00     0.251 C 
ATOM     28  H   UNL A   1      31.463  31.020  26.010  1.00  0.00     0.163 HD
ATOM     29  O   UNL A   1      32.504  32.563  27.492  1.00  0.00    -0.269 OA
BRANCH  27  30
ATOM     30  C   UNL A   1      34.396  31.184  27.603  1.00  0.00     0.039 A 
ATOM     31  C   UNL A   1      35.341  32.206  27.755  1.00  0.00     0.014 A 
ATOM     32  C   UNL A   1      34.758  29.878  27.917  1.00  0.00     0.014 A 
ATOM     33  C   UNL A   1      36.579  31.934  28.350  1.00  0.00     0.010 A 
ATOM     34  C   UNL A   1      35.921  29.633  28.635  1.00  0.00     0.010 A 
ATOM     35  C   UNL A   1      36.846  30.659  28.873  1.00  0.00    -0.014 A 
BRANCH  35  36
ATOM     36  C   UNL A   1      38.063  30.355  29.676  1.00  0.00     0.031 A 
ATOM     37  C   UNL A   1      39.128  29.451  29.112  1.00  0.00     0.074 A 
ATOM     38  C   UNL A   1      38.160  30.786  30.951  1.00  0.00     0.049 A 
ATOM     39  N   UNL A   1      40.136  28.873  29.718  1.00  0.00    -0.248 NA
ATOM     40  C   UNL A   1      39.017  29.111  27.682  1.00  0.00     0.031 C 
ATOM     41  C   UNL A   1      37.185  31.631  31.642  1.00  0.00     0.029 A 
ATOM     42  N   UNL A   1      39.126  30.558  31.902  1.00  0.00    -0.354 N 
ATOM     43  C   UNL A   1      40.742  28.072  28.760  1.00  0.00     0.074 A 
ATOM     44  C   UNL A   1      39.964  28.194  27.547  1.00  0.00     0.031 C 
ATOM     45  C   UNL A   1      37.622  31.888  32.885  1.00  0.00     0.029 A 
ATOM     46  C   UNL A   1      38.876  31.178  33.103  1.00  0.00     0.049 A 
ATOM     47  H   UNL A   1      39.922  30.002  31.738  1.00  0.00     0.167 HD
ATOM     48  C   UNL A   1      41.865  27.324  28.870  1.00  0.00     0.037 A 
ATOM     49  C   UNL A   1      39.576  31.167  34.255  1.00  0.00     0.037 A 
ATOM     50  C   UNL A   1      42.680  27.260  30.053  1.00  0.00     0.049 A 
ATOM     51  C   UNL A   1      40.835  30.349  34.344  1.00  0.00     0.074 A 
ATOM     52  C   UNL A   1      43.863  26.569  30.248  1.00  0.00     0.029 A 
ATOM     53  N   UNL A   1      42.411  27.938  31.232  1.00  0.00    -0.354 N 
ATOM     54  N   UNL A   1      41.398  29.599  33.430  1.00  0.00    -0.248 NA
ATOM     55  C   UNL A   1      41.552  30.372  35.627  1.00  0.00     0.031 C 
ATOM     56  C   UNL A   1      44.302  26.817  31.552  1.00  0.00     0.029 A 
ATOM     57  C   UNL A   1      43.411  27.687  32.156  1.00  0.00     0.049 A 
ATOM     58  H   UNL A   1      41.627  28.512  31.388  1.00  0.00     0.167 HD
ATOM     59  C   UNL A   1      42.547  29.085  34.014  1.00  0.00     0.074 A 
ATOM     60  C   UNL A   1      42.607  29.614  35.360  1.00  0.00     0.031 C 
ATOM     61  C   UNL A   1      43.468  28.247  33.481  1.00  0.00     0.037 A 
BRANCH  48  62
ATOM     62  C   UNL A   1      42.306  26.540  27.669  1.00  0.00     0.064 A 
ATOM     63  C   UNL A   1      41.820  25.244  27.442  1.00  0.00     0.173 A 
ATOM     64  C   UNL A   1      43.259  27.051  26.776  1.00  0.00     0.173 A 
ATOM     65  F   UNL A   1      40.912  24.705  28.269  1.00  0.00    -0.203 F 
ATOM     66  C   UNL A   1      42.280  24.486  26.367  1.00  0.00     0.198 A 
ATOM     67  C   UNL A   1      43.695  26.302  25.687  1.00  0.00     0.198 A 
ATOM     68  F   UNL A   1      43.744  28.291  26.943  1.00  0.00    -0.203 F 
ATOM     69  F   UNL A   1      41.824  23.239  26.185  1.00  0.00    -0.200 F 
ATOM     70  C   UNL A   1      43.213  25.017  25.489  1.00  0.00     0.200 A 
ATOM     71  F   UNL A   1      44.576  26.828  24.825  1.00  0.00    -0.200 F 
ATOM     72  F   UNL A   1      43.645  24.292  24.449  1.00  0.00    -0.200 F 
ENDBRANCH  48  62
BRANCH  49  73
ATOM     73  C   UNL A   1      39.125  31.993  35.404  1.00  0.00     0.064 A 
ATOM     74  C   UNL A   1      38.333  31.466  36.433  1.00  0.00     0.173 A 
ATOM     75  C   UNL A   1      39.480  33.348  35.484  1.00  0.00     0.173 A 
ATOM     76  F   UNL A   1      37.961  30.177  36.402  1.00  0.00    -0.203 F 
ATOM     77  C   UNL A   1      37.904  32.264  37.492  1.00  0.00     0.198 A 
ATOM     78  C   UNL A   1      39.072  34.139  36.554  1.00  0.00     0.198 A 
ATOM     79  F   UNL A   1      40.254  33.892  34.532  1.00  0.00    -0.203 F 
ATOM     80  F   UNL A   1      37.126  31.743  38.450  1.00  0.00    -0.200 F 
ATOM     81  C   UNL A   1      38.278  33.599  37.555  1.00  0.00     0.200 A 
ATOM     82  F   UNL A   1      39.457  35.421  36.623  1.00  0.00    -0.200 F 
ATOM     83  F   UNL A   1      37.880  34.362  38.582  1.00  0.00    -0.200 F 
ENDBRANCH  49  73
BRANCH  61  84
ATOM     84  C   UNL A   1      44.647  27.879  34.329  1.00  0.00     0.064 A 
ATOM     85  C   UNL A   1      44.593  26.750  35.162  1.00  0.00     0.173 A 
ATOM     86  C   UNL A   1      45.788  28.689  34.386  1.00  0.00     0.173 A 
ATOM     87  F   UNL A   1      43.516  25.949  35.146  1.00  0.00    -0.203 F 
ATOM     88  C   UNL A   1      45.635  26.458  36.035  1.00  0.00     0.198 A 
ATOM     89  C   UNL A   1      46.839  28.379  35.245  1.00  0.00     0.198 A 
ATOM     90  F   UNL A   1      45.888  29.770  33.599  1.00  0.00    -0.203 F 
ATOM     91  F   UNL A   1      45.549  25.394  36.846  1.00  0.00    -0.200 F 
ATOM     92  C   UNL A   1      46.757  27.271  36.076  1.00  0.00     0.200 A 
ATOM     93  F   UNL A   1      47.932  29.155  35.269  1.00  0.00    -0.200 F 
ATOM     94  F   UNL A   1      47.762  26.986  36.915  1.00  0.00    -0.200 F 
ENDBRANCH  61  84
ENDBRANCH  35  36
ENDBRANCH  27  30
ENDBRANCH  25  26
ENDBRANCH  24  25
ENDBRANCH   1  24
TORSDOF 14
ENDMDL
MODEL 2
REMARK VINA RESULT:     -12.5      1.307      2.135
REMARK SMILES O=C(COc1ccc(F)cc1)Nc1sccc1C(=O)NCCCNC(=O)c1ccc(-c2c3nc(c(-c4c(F)c(F)c(F)c(F)c4F)c4ccc([nH]4)c(-c4c(F)c(F)c(F)c(F)c4F)c4nc(c(-c5c(F)c(F)c(F)c(F)c5F)c5ccc2[nH]5)C=C4)C=C3)cc1
REMARK SMILES IDX 21 1 20 2 18 3 19 4 17 6 13 7 14 8 15 9 16 10 12 11 1 12
REMARK SMILES IDX 2 13 3 15 4 16 5 17 6 18 11 19 7 20 10 21 8 22 9 23 22 24
REMARK SMILES IDX 23 25 24 26 25 27 26 29 27 30 28 31 89 32 29 33 88 34 30 35
REMARK SMILES IDX 31 36 32 37 82 38 33 39 87 40 81 41 83 42 34 43 86 44 80 45
REMARK SMILES IDX 79 46 35 48 67 49 47 50 66 51 48 52 51 53 65 54 84 55 49 56
REMARK SMILES IDX 50 57 64 59 85 60 52 61 36 62 37 63 45 64 38 65 39 66 43 67
REMARK SMILES IDX 46 68 40 69 41 70 44 71 42 72 68 73 69 74 77 75 70 76 71 77
REMARK SMILES IDX 75 78 78 79 72 80 73 81 76 82 74 83 53 84 54 85 62 86 55 87
REMARK SMILES IDX 56 88 60 89 63 90 57 91 58 92 61 93 59 94
REMARK H PARENT 20 5 12 14 24 28 83 47 51 58
REMARK Flexibility Score: inf
ROOT
ATOM      1  C   UNL A   1      32.541  27.413  26.848  1.00  0.00     0.118 C 
ENDROOT
BRANCH   1   2
ATOM      2  N   UNL A   1      31.739  26.208  26.855  1.00  0.00    -0.352 N 
ATOM      3  C   UNL A   1      31.501  25.309  25.842  1.00  0.00     0.254 C 
ATOM      4  O   UNL A   1      30.755  24.360  26.091  1.00  0.00    -0.269 OA
ATOM      5  H   UNL A   1      31.298  26.002  27.711  1.00  0.00     0.163 HD
BRANCH   3   6
ATOM      6  C   UNL A   1      31.968  25.566  24.481  1.00  0.00     0.074 A 
ATOM      7  C   UNL A   1      31.431  26.376  23.498  1.00  0.00     0.108 A 
ATOM      8  S   UNL A   1      32.171  26.159  21.973  1.00  0.00    -0.126 S 
ATOM      9  C   UNL A   1      33.396  25.181  22.641  1.00  0.00     0.068 A 
ATOM     10  C   UNL A   1      33.173  24.942  23.976  1.00  0.00     0.028 A 
BRANCH   7  11
ATOM     11  N   UNL A   1      30.425  27.311  23.427  1.00  0.00    -0.314 N 
ATOM     12  O   UNL A   1      28.591  25.929  23.794  1.00  0.00    -0.271 OA
ATOM     13  C   UNL A   1      29.078  27.025  23.532  1.00  0.00     0.262 C 
ATOM     14  H   UNL A   1      30.685  28.251  23.290  1.00  0.00     0.170 HD
BRANCH  13  15
ATOM     15  C   UNL A   1      28.200  28.228  23.175  1.00  0.00     0.329 C 
BRANCH  15  16
ATOM     16  O   UNL A   1      28.691  28.956  22.046  1.00  0.00    -0.484 OA
BRANCH  16  17
ATOM     17  C   UNL A   1      28.724  30.295  22.324  1.00  0.00     0.120 A 
ATOM     18  C   UNL A   1      28.355  31.229  21.354  1.00  0.00     0.049 A 
ATOM     19  C   UNL A   1      29.092  30.696  23.605  1.00  0.00     0.049 A 
ATOM     20  C   UNL A   1      28.397  32.586  21.661  1.00  0.00     0.043 A 
ATOM     21  C   UNL A   1      29.132  32.056  23.909  1.00  0.00     0.043 A 
ATOM     22  C   UNL A   1      28.789  32.987  22.934  1.00  0.00     0.123 A 
ATOM     23  F   UNL A   1      28.832  34.293  23.225  1.00  0.00    -0.207 F 
ENDBRANCH  16  17
ENDBRANCH  15  16
ENDBRANCH  13  15
ENDBRANCH   7  11
ENDBRANCH   3   6
ENDBRANCH   1   2
BRANCH   1  24
ATOM     24  C   UNL A   1      31.774  28.687  26.553  1.00  0.00     0.042 C 
BRANCH  24  25
ATOM     25  C   UNL A   1      32.609  29.775  25.884  1.00  0.00     0.118 C 
BRANCH  25  26
ATOM     26  N   UNL A   1      32.381  31.124  26.402  1.00  0.00    -0.352 N 
ATOM     27  C   UNL A   1      33.114  31.943  27.230  1.00  0.00     0.251 C 
ATOM     28  H   UNL A   1      31.535  31.526  26.096  1.00  0.00     0.163 HD
ATOM     29  O   UNL A   1      32.619  33.000  27.617  1.00  0.00    -0.269 OA
BRANCH  27  30
ATOM     30  C   UNL A   1      34.459  31.552  27.714  1.00  0.00     0.039 A 
ATOM     31  C   UNL A   1      35.441  32.534  27.887  1.00  0.00     0.014 A 
ATOM     32  C   UNL A   1      34.769  30.228  28.010  1.00  0.00     0.014 A 
ATOM     33  C   UNL A   1      36.663  32.207  28.485  1.00  0.00     0.010 A 
ATOM     34  C   UNL A   1      35.917  29.928  28.731  1.00  0.00     0.010 A 
ATOM     35  C   UNL A   1      36.878  30.915  28.991  1.00  0.00    -0.014 A 
BRANCH  35  36
ATOM     36  C   UNL A   1      38.078  30.552  29.796  1.00  0.00     0.031 A 
ATOM     37  C   UNL A   1      39.115  29.623  29.221  1.00  0.00     0.074 A 
ATOM     38  C   UNL A   1      38.179  30.954  31.080  1.00  0.00     0.049 A 
ATOM     39  N   UNL A   1      40.097  28.999  29.823  1.00  0.00    -0.248 NA
ATOM     40  C   UNL A   1      39.004  29.316  27.785  1.00  0.00     0.031 C 
ATOM     41  C   UNL A   1      37.228  31.819  31.781  1.00  0.00     0.029 A 
ATOM     42  N   UNL A   1      39.128  30.673  32.033  1.00  0.00    -0.354 N 
ATOM     43  C   UNL A   1      40.683  28.196  28.853  1.00  0.00     0.074 A 
ATOM     44  C   UNL A   1      39.920  28.370  27.638  1.00  0.00     0.031 C 
ATOM     45  C   UNL A   1      37.664  32.035  33.032  1.00  0.00     0.029 A 
ATOM     46  C   UNL A   1      38.891  31.278  33.245  1.00  0.00     0.049 A 
ATOM     47  H   UNL A   1      39.906  30.094  31.865  1.00  0.00     0.167 HD
ATOM     48  C   UNL A   1      41.779  27.407  28.957  1.00  0.00     0.037 A 
ATOM     49  C   UNL A   1      39.580  31.219  34.402  1.00  0.00     0.037 A 
ATOM     50  C   UNL A   1      42.582  27.291  30.145  1.00  0.00     0.049 A 
ATOM     51  C   UNL A   1      40.809  30.356  34.483  1.00  0.00     0.074 A 
ATOM     52  C   UNL A   1      43.738  26.556  30.334  1.00  0.00     0.029 A 
ATOM     53  N   UNL A   1      42.327  27.955  31.334  1.00  0.00    -0.354 N 
ATOM     54  N   UNL A   1      41.354  29.605  33.558  1.00  0.00    -0.248 NA
ATOM     55  C   UNL A   1      41.516  30.328  35.772  1.00  0.00     0.031 C 
ATOM     56  C   UNL A   1      44.175  26.762  31.646  1.00  0.00     0.029 A 
ATOM     57  C   UNL A   1      43.309  27.651  32.261  1.00  0.00     0.049 A 
ATOM     58  H   UNL A   1      41.561  28.553  31.497  1.00  0.00     0.167 HD
ATOM     59  C   UNL A   1      42.479  29.041  34.140  1.00  0.00     0.074 A 
ATOM     60  C   UNL A   1      42.546  29.540  35.498  1.00  0.00     0.031 C 
ATOM     61  C   UNL A   1      43.375  28.181  33.598  1.00  0.00     0.037 A 
BRANCH  48  62
ATOM     62  C   UNL A   1      42.202  26.633  27.744  1.00  0.00     0.064 A 
ATOM     63  C   UNL A   1      41.714  25.338  27.514  1.00  0.00     0.173 A 
ATOM     64  C   UNL A   1      43.141  27.152  26.840  1.00  0.00     0.173 A 
ATOM     65  F   UNL A   1      40.819  24.793  28.351  1.00  0.00    -0.203 F 
ATOM     66  C   UNL A   1      42.158  24.588  26.427  1.00  0.00     0.198 A 
ATOM     67  C   UNL A   1      43.560  26.411  25.739  1.00  0.00     0.198 A 
ATOM     68  F   UNL A   1      43.627  28.390  27.009  1.00  0.00    -0.203 F 
ATOM     69  F   UNL A   1      41.700  23.342  26.242  1.00  0.00    -0.200 F 
ATOM     70  C   UNL A   1      43.077  25.127  25.538  1.00  0.00     0.200 A 
ATOM     71  F   UNL A   1      44.428  26.944  24.867  1.00  0.00    -0.200 F 
ATOM     72  F   UNL A   1      43.493  24.409  24.487  1.00  0.00    -0.200 F 
ENDBRANCH  48  62
BRANCH  49  73
ATOM     73  C   UNL A   1      39.149  32.038  35.564  1.00  0.00     0.064 A 
ATOM     74  C   UNL A   1      39.540  33.374  35.717  1.00  0.00     0.173 A 
ATOM     75  C   UNL A   1      38.332  31.479  36.559  1.00  0.00     0.173 A 
ATOM     76  F   UNL A   1      40.325  33.954  34.797  1.00  0.00    -0.203 F 
ATOM     77  C   UNL A   1      39.140  34.118  36.826  1.00  0.00     0.198 A 
ATOM     78  C   UNL A   1      37.913  32.229  37.653  1.00  0.00     0.198 A 
ATOM     79  F   UNL A   1      37.916  30.208  36.445  1.00  0.00    -0.203 F 
ATOM     80  F   UNL A   1      39.549  35.387  36.962  1.00  0.00    -0.200 F 
ATOM     81  C   UNL A   1      38.323  33.548  37.791  1.00  0.00     0.200 A 
ATOM     82  F   UNL A   1      37.104  31.681  38.570  1.00  0.00    -0.200 F 
ATOM     83  F   UNL A   1      37.925  34.268  38.848  1.00  0.00    -0.200 F 
ENDBRANCH  49  73
BRANCH  61  84
ATOM     84  C   UNL A   1      44.533  27.755  34.446  1.00  0.00     0.064 A 
ATOM     85  C   UNL A   1      44.425  26.628  35.275  1.00  0.00     0.173 A 
ATOM     86  C   UNL A   1      45.711  28.512  34.510  1.00  0.00     0.173 A 
ATOM     87  F   UNL A   1      43.312  25.877  35.253  1.00  0.00    -0.203 F 
ATOM     88  C   UNL A   1      45.450  26.283  36.149  1.00  0.00     0.198 A 
ATOM     89  C   UNL A   1      46.744  28.150  35.369  1.00  0.00     0.198 A 
ATOM     90  F   UNL A   1      45.863  29.590  33.727  1.00  0.00    -0.203 F 
ATOM     91  F   UNL A   1      45.313  25.221  36.955  1.00  0.00    -0.200 F 
ATOM     92  C   UNL A   1      46.609  27.043  36.195  1.00  0.00     0.200 A 
ATOM     93  F   UNL A   1      47.872  28.874  35.399  1.00  0.00    -0.200 F 
ATOM     94  F   UNL A   1      47.597  26.709  37.035  1.00  0.00    -0.200 F 
ENDBRANCH  61  84
ENDBRANCH  35  36
ENDBRANCH  27  30
ENDBRANCH  25  26
ENDBRANCH  24  25
ENDBRANCH   1  24
TORSDOF 14
ENDMDL
MODEL 3
REMARK VINA RESULT:     -12.5      1.021      2.083
REMARK SMILES O=C(COc1ccc(F)cc1)Nc1sccc1C(=O)NCCCNC(=O)c1ccc(-c2c3nc(c(-c4c(F)c(F)c(F)c(F)c4F)c4ccc([nH]4)c(-c4c(F)c(F)c(F)c(F)c4F)c4nc(c(-c5c(F)c(F)c(F)c(F)c5F)c5ccc2[nH]5)C=C4)C=C3)cc1
REMARK SMILES IDX 21 1 20 2 18 3 19 4 17 6 13 7 14 8 15 9 16 10 12 11 1 12
REMARK SMILES IDX 2 13 3 15 4 16 5 17 6 18 11 19 7 20 10 21 8 22 9 23 22 24
REMARK SMILES IDX 23 25 24 26 25 27 26 29 27 30 28 31 89 32 29 33 88 34 30 35
REMARK SMILES IDX 31 36 32 37 82 38 33 39 87 40 81 41 83 42 34 43 86 44 80 45
REMARK SMILES IDX 79 46 35 48 67 49 47 50 66 51 48 52 51 53 65 54 84 55 49 56
REMARK SMILES IDX 50 57 64 59 85 60 52 61 36 62 37 63 45 64 38 65 39 66 43 67
REMARK SMILES IDX 46 68 40 69 41 70 44 71 42 72 68 73 69 74 77 75 70 76 71 77
REMARK SMILES IDX 75 78 78 79 72 80 73 81 76 82 74 83 53 84 54 85 62 86 55 87
REMARK SMILES IDX 56 88 60 89 63 90 57 91 58 92 61 93 59 94
REMARK H PARENT 20 5 12 14 24 28 83 47 51 58
REMARK Flexibility Score: inf
ROOT
ATOM      1  C   UNL A   1      32.593  27.109  26.515  1.00  0.00     0.118 C 
ENDROOT
BRANCH   1   2
ATOM      2  N   UNL A   1      31.797  26.024  27.048  1.00  0.00    -0.352 N 
ATOM      3  C   UNL A   1      31.553  24.777  26.521  1.00  0.00     0.254 C 
ATOM      4  O   UNL A   1      30.816  24.026  27.162  1.00  0.00    -0.269 OA
ATOM      5  H   UNL A   1      31.368  26.204  27.916  1.00  0.00     0.163 HD
BRANCH   3   6
ATOM      6  C   UNL A   1      32.004  24.426  25.175  1.00  0.00     0.074 A 
ATOM      7  C   UNL A   1      31.547  24.865  23.946  1.00  0.00     0.108 A 
ATOM      8  S   UNL A   1      32.198  23.981  22.636  1.00  0.00    -0.126 S 
ATOM      9  C   UNL A   1      33.301  23.173  23.653  1.00  0.00     0.068 A 
ATOM     10  C   UNL A   1      33.094  23.496  24.973  1.00  0.00     0.028 A 
BRANCH   7  11
ATOM     11  N   UNL A   1      30.676  25.831  23.501  1.00  0.00    -0.314 N 
ATOM     12  O   UNL A   1      32.199  27.509  22.978  1.00  0.00    -0.271 OA
ATOM     13  C   UNL A   1      31.048  27.097  23.092  1.00  0.00     0.262 C 
ATOM     14  H   UNL A   1      29.718  25.604  23.473  1.00  0.00     0.170 HD
BRANCH  13  15
ATOM     15  C   UNL A   1      29.842  28.017  22.884  1.00  0.00     0.329 C 
BRANCH  15  16
ATOM     16  O   UNL A   1      29.924  29.220  23.654  1.00  0.00    -0.484 OA
BRANCH  16  17
ATOM     17  C   UNL A   1      29.315  30.249  22.991  1.00  0.00     0.120 A 
ATOM     18  C   UNL A   1      29.007  31.437  23.656  1.00  0.00     0.049 A 
ATOM     19  C   UNL A   1      29.051  30.096  21.632  1.00  0.00     0.049 A 
ATOM     20  C   UNL A   1      28.387  32.470  22.958  1.00  0.00     0.043 A 
ATOM     21  C   UNL A   1      28.430  31.133  20.937  1.00  0.00     0.043 A 
ATOM     22  C   UNL A   1      28.101  32.307  21.608  1.00  0.00     0.123 A 
ATOM     23  F   UNL A   1      27.501  33.301  20.940  1.00  0.00    -0.207 F 
ENDBRANCH  16  17
ENDBRANCH  15  16
ENDBRANCH  13  15
ENDBRANCH   7  11
ENDBRANCH   3   6
ENDBRANCH   1   2
BRANCH   1  24
ATOM     24  C   UNL A   1      31.880  28.445  26.443  1.00  0.00     0.042 C 
BRANCH  24  25
ATOM     25  C   UNL A   1      32.707  29.558  25.805  1.00  0.00     0.118 C 
BRANCH  25  26
ATOM     26  N   UNL A   1      32.450  30.894  26.343  1.00  0.00    -0.352 N 
ATOM     27  C   UNL A   1      33.159  31.711  27.193  1.00  0.00     0.251 C 
ATOM     28  H   UNL A   1      31.601  31.287  26.034  1.00  0.00     0.163 HD
ATOM     29  O   UNL A   1      32.642  32.753  27.592  1.00  0.00    -0.269 OA
BRANCH  27  30
ATOM     30  C   UNL A   1      34.505  31.334  27.686  1.00  0.00     0.039 A 
ATOM     31  C   UNL A   1      35.488  32.320  27.827  1.00  0.00     0.014 A 
ATOM     32  C   UNL A   1      34.815  30.020  28.023  1.00  0.00     0.014 A 
ATOM     33  C   UNL A   1      36.712  32.011  28.433  1.00  0.00     0.010 A 
ATOM     34  C   UNL A   1      35.965  29.742  28.751  1.00  0.00     0.010 A 
ATOM     35  C   UNL A   1      36.927  30.735  28.978  1.00  0.00    -0.014 A 
BRANCH  35  36
ATOM     36  C   UNL A   1      38.128  30.397  29.791  1.00  0.00     0.031 A 
ATOM     37  C   UNL A   1      39.174  29.467  29.235  1.00  0.00     0.074 A 
ATOM     38  C   UNL A   1      38.223  30.823  31.068  1.00  0.00     0.049 A 
ATOM     39  N   UNL A   1      40.160  28.862  29.849  1.00  0.00    -0.248 NA
ATOM     40  C   UNL A   1      39.069  29.134  27.804  1.00  0.00     0.031 C 
ATOM     41  C   UNL A   1      37.263  31.692  31.752  1.00  0.00     0.029 A 
ATOM     42  N   UNL A   1      39.173  30.567  32.028  1.00  0.00    -0.354 N 
ATOM     43  C   UNL A   1      40.755  28.047  28.895  1.00  0.00     0.074 A 
ATOM     44  C   UNL A   1      39.992  28.193  27.675  1.00  0.00     0.031 C 
ATOM     45  C   UNL A   1      37.695  31.934  33.000  1.00  0.00     0.029 A 
ATOM     46  C   UNL A   1      38.928  31.191  33.229  1.00  0.00     0.049 A 
ATOM     47  H   UNL A   1      39.956  29.991  31.871  1.00  0.00     0.167 HD
ATOM     48  C   UNL A   1      41.857  27.270  29.015  1.00  0.00     0.037 A 
ATOM     49  C   UNL A   1      39.615  31.158  34.387  1.00  0.00     0.037 A 
ATOM     50  C   UNL A   1      42.658  27.182  30.206  1.00  0.00     0.049 A 
ATOM     51  C   UNL A   1      40.852  30.308  34.486  1.00  0.00     0.074 A 
ATOM     52  C   UNL A   1      43.821  26.460  30.411  1.00  0.00     0.029 A 
ATOM     53  N   UNL A   1      42.395  27.864  31.383  1.00  0.00    -0.354 N 
ATOM     54  N   UNL A   1      41.404  29.545  33.576  1.00  0.00    -0.248 NA
ATOM     55  C   UNL A   1      41.556  30.308  35.777  1.00  0.00     0.031 C 
ATOM     56  C   UNL A   1      44.253  26.692  31.719  1.00  0.00     0.029 A 
ATOM     57  C   UNL A   1      43.379  27.584  32.317  1.00  0.00     0.049 A 
ATOM     58  H   UNL A   1      41.625  28.458  31.534  1.00  0.00     0.167 HD
ATOM     59  C   UNL A   1      42.533  29.000  34.170  1.00  0.00     0.074 A 
ATOM     60  C   UNL A   1      42.594  29.524  35.518  1.00  0.00     0.031 C 
ATOM     61  C   UNL A   1      43.438  28.139  33.644  1.00  0.00     0.037 A 
BRANCH  48  62
ATOM     62  C   UNL A   1      42.289  26.478  27.816  1.00  0.00     0.064 A 
ATOM     63  C   UNL A   1      43.228  26.999  26.913  1.00  0.00     0.173 A 
ATOM     64  C   UNL A   1      41.725  25.226  27.529  1.00  0.00     0.173 A 
ATOM     65  F   UNL A   1      43.793  28.194  27.138  1.00  0.00    -0.203 F 
ATOM     66  C   UNL A   1      43.579  26.298  25.762  1.00  0.00     0.198 A 
ATOM     67  C   UNL A   1      42.100  24.516  26.392  1.00  0.00     0.198 A 
ATOM     68  F   UNL A   1      40.832  24.679  28.368  1.00  0.00    -0.203 F 
ATOM     69  F   UNL A   1      44.457  26.827  24.898  1.00  0.00    -0.200 F 
ATOM     70  C   UNL A   1      43.018  25.055  25.505  1.00  0.00     0.200 A 
ATOM     71  F   UNL A   1      41.577  23.304  26.161  1.00  0.00    -0.200 F 
ATOM     72  F   UNL A   1      43.366  24.377  24.404  1.00  0.00    -0.200 F 
ENDBRANCH  48  62
BRANCH  49  73
ATOM     73  C   UNL A   1      39.175  31.994  35.534  1.00  0.00     0.064 A 
ATOM     74  C   UNL A   1      38.334  31.494  36.537  1.00  0.00     0.173 A 
ATOM     75  C   UNL A   1      39.591  33.329  35.638  1.00  0.00     0.173 A 
ATOM     76  F   UNL A   1      37.903  30.224  36.482  1.00  0.00    -0.203 F 
ATOM     77  C   UNL A   1      37.917  32.301  37.594  1.00  0.00     0.198 A 
ATOM     78  C   UNL A   1      39.194  34.127  36.706  1.00  0.00     0.198 A 
ATOM     79  F   UNL A   1      40.413  33.846  34.711  1.00  0.00    -0.203 F 
ATOM     80  F   UNL A   1      37.091  31.807  38.527  1.00  0.00    -0.200 F 
ATOM     81  C   UNL A   1      38.351  33.615  37.682  1.00  0.00     0.200 A 
ATOM     82  F   UNL A   1      39.636  35.389  36.799  1.00  0.00    -0.200 F 
ATOM     83  F   UNL A   1      37.963  34.386  38.707  1.00  0.00    -0.200 F 
ENDBRANCH  49  73
BRANCH  61  84
ATOM     84  C   UNL A   1      44.597  27.738  34.502  1.00  0.00     0.064 A 
ATOM     85  C   UNL A   1      45.795  28.468  34.457  1.00  0.00     0.173 A 
ATOM     86  C   UNL A   1      44.556  26.584  35.296  1.00  0.00     0.173 A 
ATOM     87  F   UNL A   1      45.883  29.577  33.705  1.00  0.00    -0.203 F 
ATOM     88  C   UNL A   1      46.916  28.046  35.164  1.00  0.00     0.198 A 
ATOM     89  C   UNL A   1      45.673  26.177  36.020  1.00  0.00     0.198 A 
ATOM     90  F   UNL A   1      43.428  25.862  35.378  1.00  0.00    -0.203 F 
ATOM     91  F   UNL A   1      48.060  28.739  35.081  1.00  0.00    -0.200 F 
ATOM     92  C   UNL A   1      46.854  26.902  35.946  1.00  0.00     0.200 A 
ATOM     93  F   UNL A   1      45.606  25.082  36.791  1.00  0.00    -0.200 F 
ATOM     94  F   UNL A   1      47.933  26.497  36.629  1.00  0.00    -0.200 F 
ENDBRANCH  61  84
ENDBRANCH  35  36
ENDBRANCH  27  30
ENDBRANCH  25  26
ENDBRANCH  24  25
ENDBRANCH   1  24
TORSDOF 14
ENDMDL
