MODEL 1
REMARK VINA RESULT:     -12.6      0.000      0.000
REMARK SMILES COc1cc(NC(=O)/C=C/c2cccc([N+](=O)[O-])c2)c(C(=O)NCCCNC(=O)c2ccc(-c3c4nc(c(-c5c(F)c(F)c(F)c(F)c5F)c5ccc([nH]5)c(-c5c(F)c(F)c(F)c(F)c5F)c5nc(c(-c6c(F)c(F)c(F)c(F)c6F)c6ccc3[nH]6)C=C5)C=C4)cc2)cc1OC
REMARK SMILES IDX 24 1 23 2 21 3 22 4 20 6 3 7 4 8 94 9 5 10 93 11 2 12 1 13
REMARK SMILES IDX 95 14 96 15 6 16 7 17 8 19 9 20 10 21 11 22 12 23 19 24
REMARK SMILES IDX 13 25 15 26 14 27 16 28 17 29 18 30 25 31 26 32 27 33 28 34
REMARK SMILES IDX 29 36 30 37 31 38 92 39 32 40 91 41 33 42 34 43 35 44 85 45
REMARK SMILES IDX 36 46 90 47 84 48 86 49 37 50 89 51 83 52 82 53 38 55 70 56
REMARK SMILES IDX 50 57 69 58 51 59 54 60 68 61 87 62 52 63 53 64 67 66 88 67
REMARK SMILES IDX 55 68 39 69 40 70 48 71 41 72 42 73 46 74 49 75 43 76 44 77
REMARK SMILES IDX 47 78 45 79 71 80 72 81 80 82 73 83 74 84 78 85 81 86 75 87
REMARK SMILES IDX 76 88 79 89 77 90 56 91 57 92 65 93 58 94 59 95 63 96 66 97
REMARK SMILES IDX 60 98 61 99 64 100 62 101
REMARK H PARENT 23 5 6 18 27 35 86 54 54 65
REMARK Flexibility Score: inf
ROOT
ATOM      1  C   UNL A   1      31.321  30.955  26.013  1.00  0.00     0.118 C 
ENDROOT
BRANCH   1   2
ATOM      2  N   UNL A   1      31.778  29.856  26.851  1.00  0.00    -0.352 N 
ATOM      3  C   UNL A   1      31.981  28.526  26.576  1.00  0.00     0.253 C 
ATOM      4  O   UNL A   1      32.455  27.817  27.463  1.00  0.00    -0.269 OA
ATOM      5  H   UNL A   1      31.978  30.113  27.781  1.00  0.00     0.163 HD
BRANCH   3   6
ATOM      6  C   UNL A   1      31.732  27.948  25.224  1.00  0.00     0.067 A 
ATOM      7  C   UNL A   1      31.520  26.934  22.622  1.00  0.00     0.162 A 
ATOM      8  C   UNL A   1      31.693  26.080  23.722  1.00  0.00     0.077 A 
ATOM      9  C   UNL A   1      31.390  28.302  22.830  1.00  0.00     0.161 A 
ATOM     10  C   UNL A   1      31.687  26.550  25.039  1.00  0.00     0.058 A 
ATOM     11  C   UNL A   1      31.500  28.791  24.131  1.00  0.00     0.066 A 
BRANCH   7  12
ATOM     12  O   UNL A   1      31.255  26.394  21.392  1.00  0.00    -0.493 OA
ATOM     13  C   UNL A   1      32.364  25.743  20.780  1.00  0.00     0.278 C 
ENDBRANCH   7  12
BRANCH   9  14
ATOM     14  O   UNL A   1      31.138  29.271  21.900  1.00  0.00    -0.493 OA
ATOM     15  C   UNL A   1      29.875  29.920  21.978  1.00  0.00     0.278 C 
ENDBRANCH   9  14
BRANCH  10  16
ATOM     16  N   UNL A   1      31.551  25.710  26.178  1.00  0.00    -0.322 N 
ATOM     17  C   UNL A   1      31.628  24.366  26.412  1.00  0.00     0.248 C 
ATOM     18  H   UNL A   1      31.352  26.220  26.995  1.00  0.00     0.170 HD
ATOM     19  O   UNL A   1      31.414  23.922  27.540  1.00  0.00    -0.270 OA
BRANCH  17  20
ATOM     20  C   UNL A   1      32.043  23.420  25.361  1.00  0.00     0.072 C 
ATOM     21  C   UNL A   1      32.160  22.101  25.575  1.00  0.00     0.014 C 
BRANCH  21  22
ATOM     22  C   UNL A   1      32.325  21.135  24.474  1.00  0.00    -0.019 A 
ATOM     23  C   UNL A   1      32.017  21.493  23.147  1.00  0.00     0.008 A 
ATOM     24  C   UNL A   1      32.646  19.804  24.753  1.00  0.00     0.093 A 
ATOM     25  C   UNL A   1      32.022  20.551  22.118  1.00  0.00     0.008 A 
ATOM     26  C   UNL A   1      32.668  18.862  23.710  1.00  0.00     0.270 A 
ATOM     27  C   UNL A   1      32.346  19.229  22.396  1.00  0.00     0.085 A 
BRANCH  26  28
ATOM     28  N   UNL A   1      33.023  17.468  23.997  1.00  0.00     0.062 N 
ATOM     29  O   UNL A   1      33.131  16.693  23.036  1.00  0.00    -0.258 OA
ATOM     30  O   UNL A   1      33.197  17.151  25.182  1.00  0.00    -0.258 OA
ENDBRANCH  26  28
ENDBRANCH  21  22
ENDBRANCH  17  20
ENDBRANCH  10  16
ENDBRANCH   3   6
ENDBRANCH   1   2
BRANCH   1  31
ATOM     31  C   UNL A   1      31.262  32.262  26.803  1.00  0.00     0.042 C 
BRANCH  31  32
ATOM     32  C   UNL A   1      32.633  32.863  27.077  1.00  0.00     0.118 C 
BRANCH  32  33
ATOM     33  N   UNL A   1      32.535  34.193  27.657  1.00  0.00    -0.352 N 
ATOM     34  C   UNL A   1      33.207  34.732  28.721  1.00  0.00     0.251 C 
ATOM     35  H   UNL A   1      31.889  34.795  27.221  1.00  0.00     0.163 HD
ATOM     36  O   UNL A   1      32.815  35.798  29.205  1.00  0.00    -0.269 OA
BRANCH  34  37
ATOM     37  C   UNL A   1      34.387  34.057  29.303  1.00  0.00     0.039 A 
ATOM     38  C   UNL A   1      34.180  33.031  30.230  1.00  0.00     0.014 A 
ATOM     39  C   UNL A   1      35.689  34.460  28.991  1.00  0.00     0.014 A 
ATOM     40  C   UNL A   1      35.273  32.388  30.814  1.00  0.00     0.010 A 
ATOM     41  C   UNL A   1      36.780  33.770  29.518  1.00  0.00     0.010 A 
ATOM     42  C   UNL A   1      36.583  32.738  30.447  1.00  0.00    -0.014 A 
BRANCH  42  43
ATOM     43  C   UNL A   1      37.751  32.044  31.044  1.00  0.00     0.031 A 
ATOM     44  C   UNL A   1      38.218  32.398  32.429  1.00  0.00     0.074 A 
ATOM     45  C   UNL A   1      38.416  31.124  30.319  1.00  0.00     0.049 A 
ATOM     46  N   UNL A   1      39.227  31.915  33.112  1.00  0.00    -0.248 NA
ATOM     47  C   UNL A   1      37.470  33.451  33.134  1.00  0.00     0.031 C 
ATOM     48  C   UNL A   1      38.091  30.734  28.947  1.00  0.00     0.029 A 
ATOM     49  N   UNL A   1      39.505  30.350  30.635  1.00  0.00    -0.354 N 
ATOM     50  C   UNL A   1      39.245  32.618  34.310  1.00  0.00     0.074 A 
ATOM     51  C   UNL A   1      38.175  33.589  34.247  1.00  0.00     0.031 C 
ATOM     52  C   UNL A   1      38.943  29.776  28.548  1.00  0.00     0.029 A 
ATOM     53  C   UNL A   1      39.893  29.506  29.623  1.00  0.00     0.049 A 
ATOM     54  H   UNL A   1      39.965  30.398  31.504  1.00  0.00     0.167 HD
ATOM     55  C   UNL A   1      40.067  32.451  35.373  1.00  0.00     0.037 A 
ATOM     56  C   UNL A   1      40.898  28.614  29.573  1.00  0.00     0.037 A 
ATOM     57  C   UNL A   1      41.101  31.453  35.447  1.00  0.00     0.049 A 
ATOM     58  C   UNL A   1      41.781  28.436  30.778  1.00  0.00     0.074 A 
ATOM     59  C   UNL A   1      41.929  31.145  36.514  1.00  0.00     0.029 A 
ATOM     60  N   UNL A   1      41.452  30.602  34.411  1.00  0.00    -0.354 N 
ATOM     61  N   UNL A   1      41.731  29.044  31.939  1.00  0.00    -0.248 NA
ATOM     62  C   UNL A   1      42.857  27.441  30.668  1.00  0.00     0.031 C 
ATOM     63  C   UNL A   1      42.809  30.137  36.108  1.00  0.00     0.029 A 
ATOM     64  C   UNL A   1      42.500  29.786  34.803  1.00  0.00     0.049 A 
ATOM     65  H   UNL A   1      41.020  30.581  33.526  1.00  0.00     0.167 HD
ATOM     66  C   UNL A   1      42.745  28.486  32.705  1.00  0.00     0.074 A 
ATOM     67  C   UNL A   1      43.384  27.479  31.884  1.00  0.00     0.031 C 
ATOM     68  C   UNL A   1      43.116  28.782  33.974  1.00  0.00     0.037 A 
BRANCH  55  69
ATOM     69  C   UNL A   1      39.880  33.363  36.551  1.00  0.00     0.064 A 
ATOM     70  C   UNL A   1      40.593  34.564  36.674  1.00  0.00     0.173 A 
ATOM     71  C   UNL A   1      38.937  33.056  37.544  1.00  0.00     0.173 A 
ATOM     72  F   UNL A   1      41.514  34.899  35.757  1.00  0.00    -0.203 F 
ATOM     73  C   UNL A   1      40.386  35.414  37.758  1.00  0.00     0.198 A 
ATOM     74  C   UNL A   1      38.712  33.920  38.612  1.00  0.00     0.198 A 
ATOM     75  F   UNL A   1      38.225  31.921  37.471  1.00  0.00    -0.203 F 
ATOM     76  F   UNL A   1      41.108  36.537  37.875  1.00  0.00    -0.200 F 
ATOM     77  C   UNL A   1      39.440  35.095  38.722  1.00  0.00     0.200 A 
ATOM     78  F   UNL A   1      37.789  33.617  39.536  1.00  0.00    -0.200 F 
ATOM     79  F   UNL A   1      39.233  35.919  39.758  1.00  0.00    -0.200 F 
ENDBRANCH  55  69
BRANCH  56  80
ATOM     80  C   UNL A   1      41.107  27.792  28.352  1.00  0.00     0.064 A 
ATOM     81  C   UNL A   1      40.482  26.546  28.210  1.00  0.00     0.173 A 
ATOM     82  C   UNL A   1      41.945  28.225  27.314  1.00  0.00     0.173 A 
ATOM     83  F   UNL A   1      39.688  26.081  29.187  1.00  0.00    -0.203 F 
ATOM     84  C   UNL A   1      40.706  25.750  27.089  1.00  0.00     0.198 A 
ATOM     85  C   UNL A   1      42.146  27.442  26.179  1.00  0.00     0.198 A 
ATOM     86  F   UNL A   1      42.562  29.412  27.399  1.00  0.00    -0.203 F 
ATOM     87  F   UNL A   1      40.135  24.542  27.003  1.00  0.00    -0.200 F 
ATOM     88  C   UNL A   1      41.534  26.202  26.072  1.00  0.00     0.200 A 
ATOM     89  F   UNL A   1      42.936  27.886  25.192  1.00  0.00    -0.200 F 
ATOM     90  F   UNL A   1      41.750  25.436  24.993  1.00  0.00    -0.200 F 
ENDBRANCH  56  80
BRANCH  68  91
ATOM     91  C   UNL A   1      44.242  27.982  34.561  1.00  0.00     0.064 A 
ATOM     92  C   UNL A   1      44.012  26.771  35.230  1.00  0.00     0.173 A 
ATOM     93  C   UNL A   1      45.568  28.422  34.430  1.00  0.00     0.173 A 
ATOM     94  F   UNL A   1      42.760  26.318  35.395  1.00  0.00    -0.203 F 
ATOM     95  C   UNL A   1      45.067  26.044  35.773  1.00  0.00     0.198 A 
ATOM     96  C   UNL A   1      46.623  27.676  34.949  1.00  0.00     0.198 A 
ATOM     97  F   UNL A   1      45.841  29.570  33.794  1.00  0.00    -0.203 F 
ATOM     98  F   UNL A   1      44.821  24.916  36.455  1.00  0.00    -0.200 F 
ATOM     99  C   UNL A   1      46.371  26.494  35.627  1.00  0.00     0.200 A 
ATOM    100  F   UNL A   1      47.884  28.106  34.796  1.00  0.00    -0.200 F 
ATOM    101  F   UNL A   1      47.386  25.791  36.149  1.00  0.00    -0.200 F 
ENDBRANCH  68  91
ENDBRANCH  42  43
ENDBRANCH  34  37
ENDBRANCH  32  33
ENDBRANCH  31  32
ENDBRANCH   1  31
TORSDOF 16
ENDMDL
MODEL 2
REMARK VINA RESULT:     -12.2      0.775      7.084
REMARK SMILES COc1cc(NC(=O)/C=C/c2cccc([N+](=O)[O-])c2)c(C(=O)NCCCNC(=O)c2ccc(-c3c4nc(c(-c5c(F)c(F)c(F)c(F)c5F)c5ccc([nH]5)c(-c5c(F)c(F)c(F)c(F)c5F)c5nc(c(-c6c(F)c(F)c(F)c(F)c6F)c6ccc3[nH]6)C=C5)C=C4)cc2)cc1OC
REMARK SMILES IDX 24 1 23 2 21 3 22 4 20 6 3 7 4 8 94 9 5 10 93 11 2 12 1 13
REMARK SMILES IDX 95 14 96 15 6 16 7 17 8 19 9 20 10 21 11 22 12 23 19 24
REMARK SMILES IDX 13 25 15 26 14 27 16 28 17 29 18 30 25 31 26 32 27 33 28 34
REMARK SMILES IDX 29 36 30 37 31 38 92 39 32 40 91 41 33 42 34 43 35 44 85 45
REMARK SMILES IDX 36 46 90 47 84 48 86 49 37 50 89 51 83 52 82 53 38 55 70 56
REMARK SMILES IDX 50 57 69 58 51 59 54 60 68 61 87 62 52 63 53 64 67 66 88 67
REMARK SMILES IDX 55 68 39 69 40 70 48 71 41 72 42 73 46 74 49 75 43 76 44 77
REMARK SMILES IDX 47 78 45 79 71 80 72 81 80 82 73 83 74 84 78 85 81 86 75 87
REMARK SMILES IDX 76 88 79 89 77 90 56 91 57 92 65 93 58 94 59 95 63 96 66 97
REMARK SMILES IDX 60 98 61 99 64 100 62 101
REMARK H PARENT 23 5 6 18 27 35 86 54 54 65
REMARK Flexibility Score: inf
ROOT
ATOM      1  C   UNL A   1      31.400  30.563  26.309  1.00  0.00     0.118 C 
ENDROOT
BRANCH   1   2
ATOM      2  N   UNL A   1      32.653  29.895  26.626  1.00  0.00    -0.352 N 
ATOM      3  C   UNL A   1      33.309  28.854  26.015  1.00  0.00     0.253 C 
ATOM      4  O   UNL A   1      34.412  28.528  26.451  1.00  0.00    -0.269 OA
ATOM      5  H   UNL A   1      33.112  30.252  27.421  1.00  0.00     0.163 HD
BRANCH   3   6
ATOM      6  C   UNL A   1      32.769  28.182  24.798  1.00  0.00     0.067 A 
ATOM      7  C   UNL A   1      31.948  27.051  22.371  1.00  0.00     0.162 A 
ATOM      8  C   UNL A   1      32.697  26.312  23.300  1.00  0.00     0.077 A 
ATOM      9  C   UNL A   1      31.553  28.346  22.685  1.00  0.00     0.161 A 
ATOM     10  C   UNL A   1      33.021  26.813  24.564  1.00  0.00     0.058 A 
ATOM     11  C   UNL A   1      31.972  28.896  23.895  1.00  0.00     0.066 A 
BRANCH   7  12
ATOM     12  O   UNL A   1      31.426  26.415  21.276  1.00  0.00    -0.493 OA
ATOM     13  C   UNL A   1      32.358  25.615  20.556  1.00  0.00     0.278 C 
ENDBRANCH   7  12
BRANCH   9  14
ATOM     14  O   UNL A   1      30.761  29.183  21.949  1.00  0.00    -0.493 OA
ATOM     15  C   UNL A   1      29.427  29.365  22.404  1.00  0.00     0.278 C 
ENDBRANCH   9  14
BRANCH  10  16
ATOM     16  N   UNL A   1      33.500  26.009  25.634  1.00  0.00    -0.322 N 
ATOM     17  C   UNL A   1      33.565  24.670  25.893  1.00  0.00     0.248 C 
ATOM     18  H   UNL A   1      33.875  26.549  26.366  1.00  0.00     0.170 HD
ATOM     19  O   UNL A   1      34.015  24.268  26.966  1.00  0.00    -0.270 OA
BRANCH  17  20
ATOM     20  C   UNL A   1      33.180  23.667  24.884  1.00  0.00     0.072 C 
ATOM     21  C   UNL A   1      33.798  22.483  24.763  1.00  0.00     0.014 C 
BRANCH  21  22
ATOM     22  C   UNL A   1      33.256  21.391  23.934  1.00  0.00    -0.019 A 
ATOM     23  C   UNL A   1      32.598  21.666  22.719  1.00  0.00     0.008 A 
ATOM     24  C   UNL A   1      33.255  20.080  24.417  1.00  0.00     0.093 A 
ATOM     25  C   UNL A   1      31.949  20.663  22.000  1.00  0.00     0.008 A 
ATOM     26  C   UNL A   1      32.616  19.070  23.679  1.00  0.00     0.270 A 
ATOM     27  C   UNL A   1      31.953  19.359  22.478  1.00  0.00     0.085 A 
BRANCH  26  28
ATOM     28  N   UNL A   1      32.629  17.689  24.174  1.00  0.00     0.062 N 
ATOM     29  O   UNL A   1      32.036  17.455  25.238  1.00  0.00    -0.258 OA
ATOM     30  O   UNL A   1      33.227  16.841  23.499  1.00  0.00    -0.258 OA
ENDBRANCH  26  28
ENDBRANCH  21  22
ENDBRANCH  17  20
ENDBRANCH  10  16
ENDBRANCH   3   6
ENDBRANCH   1   2
BRANCH   1  31
ATOM     31  C   UNL A   1      31.326  31.938  26.975  1.00  0.00     0.042 C 
BRANCH  31  32
ATOM     32  C   UNL A   1      32.642  32.701  26.928  1.00  0.00     0.118 C 
BRANCH  32  33
ATOM     33  N   UNL A   1      32.503  34.051  27.450  1.00  0.00    -0.352 N 
ATOM     34  C   UNL A   1      33.124  34.643  28.516  1.00  0.00     0.251 C 
ATOM     35  H   UNL A   1      31.867  34.626  26.964  1.00  0.00     0.163 HD
ATOM     36  O   UNL A   1      32.698  35.722  28.941  1.00  0.00    -0.269 OA
BRANCH  34  37
ATOM     37  C   UNL A   1      34.289  34.009  29.172  1.00  0.00     0.039 A 
ATOM     38  C   UNL A   1      34.062  32.970  30.078  1.00  0.00     0.014 A 
ATOM     39  C   UNL A   1      35.592  34.465  28.948  1.00  0.00     0.014 A 
ATOM     40  C   UNL A   1      35.139  32.365  30.730  1.00  0.00     0.010 A 
ATOM     41  C   UNL A   1      36.672  33.814  29.542  1.00  0.00     0.010 A 
ATOM     42  C   UNL A   1      36.455  32.768  30.452  1.00  0.00    -0.014 A 
BRANCH  42  43
ATOM     43  C   UNL A   1      37.607  32.115  31.121  1.00  0.00     0.031 A 
ATOM     44  C   UNL A   1      38.396  31.051  30.408  1.00  0.00     0.074 A 
ATOM     45  C   UNL A   1      37.916  32.453  32.388  1.00  0.00     0.049 A 
ATOM     46  N   UNL A   1      39.421  30.356  30.834  1.00  0.00    -0.248 NA
ATOM     47  C   UNL A   1      37.961  30.702  29.046  1.00  0.00     0.031 C 
ATOM     48  C   UNL A   1      37.193  33.433  33.200  1.00  0.00     0.029 A 
ATOM     49  N   UNL A   1      38.918  32.009  33.215  1.00  0.00    -0.354 N 
ATOM     50  C   UNL A   1      39.738  29.479  29.804  1.00  0.00     0.074 A 
ATOM     51  C   UNL A   1      38.771  29.697  28.750  1.00  0.00     0.031 C 
ATOM     52  C   UNL A   1      37.790  33.536  34.398  1.00  0.00     0.029 A 
ATOM     53  C   UNL A   1      38.917  32.610  34.450  1.00  0.00     0.049 A 
ATOM     54  H   UNL A   1      39.572  31.324  32.948  1.00  0.00     0.167 HD
ATOM     55  C   UNL A   1      40.756  28.588  29.738  1.00  0.00     0.037 A 
ATOM     56  C   UNL A   1      39.737  32.433  35.502  1.00  0.00     0.037 A 
ATOM     57  C   UNL A   1      41.740  28.406  30.772  1.00  0.00     0.049 A 
ATOM     58  C   UNL A   1      40.872  31.452  35.391  1.00  0.00     0.074 A 
ATOM     59  C   UNL A   1      42.861  27.593  30.763  1.00  0.00     0.029 A 
ATOM     60  N   UNL A   1      41.719  29.046  32.001  1.00  0.00    -0.354 N 
ATOM     61  N   UNL A   1      41.215  30.693  34.378  1.00  0.00    -0.248 NA
ATOM     62  C   UNL A   1      41.740  31.308  36.568  1.00  0.00     0.031 C 
ATOM     63  C   UNL A   1      43.494  27.708  32.005  1.00  0.00     0.029 A 
ATOM     64  C   UNL A   1      42.794  28.627  32.770  1.00  0.00     0.049 A 
ATOM     65  H   UNL A   1      41.042  29.700  32.287  1.00  0.00     0.167 HD
ATOM     66  C   UNL A   1      42.351  30.007  34.783  1.00  0.00     0.074 A 
ATOM     67  C   UNL A   1      42.650  30.451  36.128  1.00  0.00     0.031 C 
ATOM     68  C   UNL A   1      43.080  29.089  34.104  1.00  0.00     0.037 A 
BRANCH  55  69
ATOM     69  C   UNL A   1      40.865  27.741  28.503  1.00  0.00     0.064 A 
ATOM     70  C   UNL A   1      40.212  26.505  28.396  1.00  0.00     0.173 A 
ATOM     71  C   UNL A   1      41.590  28.198  27.392  1.00  0.00     0.173 A 
ATOM     72  F   UNL A   1      39.515  26.018  29.433  1.00  0.00    -0.203 F 
ATOM     73  C   UNL A   1      40.299  25.746  27.231  1.00  0.00     0.198 A 
ATOM     74  C   UNL A   1      41.653  27.451  26.219  1.00  0.00     0.198 A 
ATOM     75  F   UNL A   1      42.229  29.377  27.440  1.00  0.00    -0.203 F 
ATOM     76  F   UNL A   1      39.701  24.549  27.167  1.00  0.00    -0.200 F 
ATOM     77  C   UNL A   1      41.013  26.223  26.141  1.00  0.00     0.200 A 
ATOM     78  F   UNL A   1      42.332  27.919  25.162  1.00  0.00    -0.200 F 
ATOM     79  F   UNL A   1      41.086  25.497  25.017  1.00  0.00    -0.200 F 
ENDBRANCH  55  69
BRANCH  56  80
ATOM     80  C   UNL A   1      39.540  33.227  36.744  1.00  0.00     0.064 A 
ATOM     81  C   UNL A   1      38.656  32.792  37.740  1.00  0.00     0.173 A 
ATOM     82  C   UNL A   1      40.214  34.438  36.952  1.00  0.00     0.173 A 
ATOM     83  F   UNL A   1      37.973  31.648  37.576  1.00  0.00    -0.203 F 
ATOM     84  C   UNL A   1      38.433  33.550  38.888  1.00  0.00     0.198 A 
ATOM     85  C   UNL A   1      40.013  35.182  38.113  1.00  0.00     0.198 A 
ATOM     86  F   UNL A   1      41.075  34.896  36.032  1.00  0.00    -0.203 F 
ATOM     87  F   UNL A   1      37.545  33.135  39.800  1.00  0.00    -0.200 F 
ATOM     88  C   UNL A   1      39.115  34.742  39.075  1.00  0.00     0.200 A 
ATOM     89  F   UNL A   1      40.684  36.327  38.298  1.00  0.00    -0.200 F 
ATOM     90  F   UNL A   1      38.901  35.472  40.178  1.00  0.00    -0.200 F 
ENDBRANCH  56  80
BRANCH  68  91
ATOM     91  C   UNL A   1      44.291  28.532  34.793  1.00  0.00     0.064 A 
ATOM     92  C   UNL A   1      44.228  27.353  35.550  1.00  0.00     0.173 A 
ATOM     93  C   UNL A   1      45.534  29.173  34.674  1.00  0.00     0.173 A 
ATOM     94  F   UNL A   1      43.059  26.713  35.707  1.00  0.00    -0.203 F 
ATOM     95  C   UNL A   1      45.360  26.852  36.188  1.00  0.00     0.198 A 
ATOM     96  C   UNL A   1      46.669  28.652  35.289  1.00  0.00     0.198 A 
ATOM     97  F   UNL A   1      45.647  30.300  33.956  1.00  0.00    -0.203 F 
ATOM     98  F   UNL A   1      45.266  25.754  36.950  1.00  0.00    -0.200 F 
ATOM     99  C   UNL A   1      46.579  27.499  36.051  1.00  0.00     0.200 A 
ATOM    100  F   UNL A   1      47.849  29.272  35.146  1.00  0.00    -0.200 F 
ATOM    101  F   UNL A   1      47.668  27.014  36.665  1.00  0.00    -0.200 F 
ENDBRANCH  68  91
ENDBRANCH  42  43
ENDBRANCH  34  37
ENDBRANCH  32  33
ENDBRANCH  31  32
ENDBRANCH   1  31
TORSDOF 16
ENDMDL
MODEL 3
REMARK VINA RESULT:     -12.2      7.551     15.618
REMARK SMILES COc1cc(NC(=O)/C=C/c2cccc([N+](=O)[O-])c2)c(C(=O)NCCCNC(=O)c2ccc(-c3c4nc(c(-c5c(F)c(F)c(F)c(F)c5F)c5ccc([nH]5)c(-c5c(F)c(F)c(F)c(F)c5F)c5nc(c(-c6c(F)c(F)c(F)c(F)c6F)c6ccc3[nH]6)C=C5)C=C4)cc2)cc1OC
REMARK SMILES IDX 24 1 23 2 21 3 22 4 20 6 3 7 4 8 94 9 5 10 93 11 2 12 1 13
REMARK SMILES IDX 95 14 96 15 6 16 7 17 8 19 9 20 10 21 11 22 12 23 19 24
REMARK SMILES IDX 13 25 15 26 14 27 16 28 17 29 18 30 25 31 26 32 27 33 28 34
REMARK SMILES IDX 29 36 30 37 31 38 92 39 32 40 91 41 33 42 34 43 35 44 85 45
REMARK SMILES IDX 36 46 90 47 84 48 86 49 37 50 89 51 83 52 82 53 38 55 70 56
REMARK SMILES IDX 50 57 69 58 51 59 54 60 68 61 87 62 52 63 53 64 67 66 88 67
REMARK SMILES IDX 55 68 39 69 40 70 48 71 41 72 42 73 46 74 49 75 43 76 44 77
REMARK SMILES IDX 47 78 45 79 71 80 72 81 80 82 73 83 74 84 78 85 81 86 75 87
REMARK SMILES IDX 76 88 79 89 77 90 56 91 57 92 65 93 58 94 59 95 63 96 66 97
REMARK SMILES IDX 60 98 61 99 64 100 62 101
REMARK H PARENT 23 5 6 18 27 35 86 54 54 65
REMARK Flexibility Score: inf
ROOT
ATOM      1  C   UNL A   1      46.205  24.125  39.617  1.00  0.00     0.118 C 
ENDROOT
BRANCH   1   2
ATOM      2  N   UNL A   1      47.478  23.532  40.000  1.00  0.00    -0.352 N 
ATOM      3  C   UNL A   1      48.038  22.314  39.705  1.00  0.00     0.253 C 
ATOM      4  O   UNL A   1      49.182  22.091  40.099  1.00  0.00    -0.269 OA
ATOM      5  H   UNL A   1      48.037  24.108  40.571  1.00  0.00     0.163 HD
BRANCH   3   6
ATOM      6  C   UNL A   1      47.343  21.306  38.854  1.00  0.00     0.067 A 
ATOM      7  C   UNL A   1      46.280  19.358  37.144  1.00  0.00     0.162 A 
ATOM      8  C   UNL A   1      46.492  19.092  38.506  1.00  0.00     0.077 A 
ATOM      9  C   UNL A   1      46.543  20.629  36.646  1.00  0.00     0.161 A 
ATOM     10  C   UNL A   1      46.913  20.078  39.402  1.00  0.00     0.058 A 
ATOM     11  C   UNL A   1      47.074  21.586  37.509  1.00  0.00     0.066 A 
BRANCH   7  12
ATOM     12  O   UNL A   1      45.608  18.442  36.381  1.00  0.00    -0.493 OA
ATOM     13  C   UNL A   1      44.574  17.743  37.068  1.00  0.00     0.278 C 
ENDBRANCH   7  12
BRANCH   9  14
ATOM     14  O   UNL A   1      46.325  21.094  35.379  1.00  0.00    -0.493 OA
ATOM     15  C   UNL A   1      44.998  21.498  35.066  1.00  0.00     0.278 C 
ENDBRANCH   9  14
BRANCH  10  16
ATOM     16  N   UNL A   1      46.847  19.942  40.816  1.00  0.00    -0.322 N 
ATOM     17  C   UNL A   1      46.170  19.137  41.687  1.00  0.00     0.248 C 
ATOM     18  H   UNL A   1      47.431  20.585  41.279  1.00  0.00     0.170 HD
ATOM     19  O   UNL A   1      46.298  19.294  42.901  1.00  0.00    -0.270 OA
BRANCH  17  20
ATOM     20  C   UNL A   1      45.339  18.016  41.216  1.00  0.00     0.072 C 
ATOM     21  C   UNL A   1      44.939  17.019  42.020  1.00  0.00     0.014 C 
BRANCH  21  22
ATOM     22  C   UNL A   1      43.909  16.044  41.616  1.00  0.00    -0.019 A 
ATOM     23  C   UNL A   1      43.552  15.890  40.262  1.00  0.00     0.008 A 
ATOM     24  C   UNL A   1      43.166  15.368  42.587  1.00  0.00     0.093 A 
ATOM     25  C   UNL A   1      42.479  15.087  39.878  1.00  0.00     0.008 A 
ATOM     26  C   UNL A   1      42.097  14.545  42.194  1.00  0.00     0.270 A 
ATOM     27  C   UNL A   1      41.744  14.411  40.844  1.00  0.00     0.085 A 
BRANCH  26  28
ATOM     28  N   UNL A   1      41.328  13.819  43.210  1.00  0.00     0.062 N 
ATOM     29  O   UNL A   1      41.215  14.343  44.329  1.00  0.00    -0.258 OA
ATOM     30  O   UNL A   1      40.834  12.730  42.890  1.00  0.00    -0.258 OA
ENDBRANCH  26  28
ENDBRANCH  21  22
ENDBRANCH  17  20
ENDBRANCH  10  16
ENDBRANCH   3   6
ENDBRANCH   1   2
BRANCH   1  31
ATOM     31  C   UNL A   1      46.160  25.610  39.978  1.00  0.00     0.042 C 
BRANCH  31  32
ATOM     32  C   UNL A   1      46.578  26.522  38.833  1.00  0.00     0.118 C 
BRANCH  32  33
ATOM     33  N   UNL A   1      47.444  25.838  37.886  1.00  0.00    -0.352 N 
ATOM     34  C   UNL A   1      47.241  25.564  36.560  1.00  0.00     0.251 C 
ATOM     35  H   UNL A   1      48.303  25.525  38.252  1.00  0.00     0.163 HD
ATOM     36  O   UNL A   1      47.992  24.769  35.986  1.00  0.00    -0.269 OA
BRANCH  34  37
ATOM     37  C   UNL A   1      46.135  26.196  35.808  1.00  0.00     0.039 A 
ATOM     38  C   UNL A   1      46.365  27.430  35.193  1.00  0.00     0.014 A 
ATOM     39  C   UNL A   1      44.864  25.615  35.750  1.00  0.00     0.014 A 
ATOM     40  C   UNL A   1      45.335  28.062  34.493  1.00  0.00     0.010 A 
ATOM     41  C   UNL A   1      43.858  26.210  34.991  1.00  0.00     0.010 A 
ATOM     42  C   UNL A   1      44.078  27.448  34.369  1.00  0.00    -0.014 A 
BRANCH  42  43
ATOM     43  C   UNL A   1      42.985  28.100  33.606  1.00  0.00     0.031 A 
ATOM     44  C   UNL A   1      42.797  27.803  32.144  1.00  0.00     0.074 A 
ATOM     45  C   UNL A   1      42.188  28.993  34.224  1.00  0.00     0.049 A 
ATOM     46  N   UNL A   1      41.912  28.287  31.308  1.00  0.00    -0.248 NA
ATOM     47  C   UNL A   1      43.743  26.857  31.531  1.00  0.00     0.031 C 
ATOM     48  C   UNL A   1      42.306  29.403  35.624  1.00  0.00     0.029 A 
ATOM     49  N   UNL A   1      41.123  29.720  33.754  1.00  0.00    -0.354 N 
ATOM     50  C   UNL A   1      42.207  27.722  30.074  1.00  0.00     0.074 A 
ATOM     51  C   UNL A   1      43.378  26.893  30.258  1.00  0.00     0.031 C 
ATOM     52  C   UNL A   1      41.335  30.286  35.907  1.00  0.00     0.029 A 
ATOM     53  C   UNL A   1      40.546  30.528  34.703  1.00  0.00     0.049 A 
ATOM     54  H   UNL A   1      40.804  29.667  32.824  1.00  0.00     0.167 HD
ATOM     55  C   UNL A   1      41.548  27.866  28.900  1.00  0.00     0.037 A 
ATOM     56  C   UNL A   1      39.497  31.365  34.610  1.00  0.00     0.037 A 
ATOM     57  C   UNL A   1      40.358  28.659  28.733  1.00  0.00     0.049 A 
ATOM     58  C   UNL A   1      38.771  31.488  33.299  1.00  0.00     0.074 A 
ATOM     59  C   UNL A   1      39.565  28.798  27.607  1.00  0.00     0.029 A 
ATOM     60  N   UNL A   1      39.791  29.448  29.722  1.00  0.00    -0.354 N 
ATOM     61  N   UNL A   1      39.006  30.879  32.162  1.00  0.00    -0.248 NA
ATOM     62  C   UNL A   1      37.628  32.411  33.260  1.00  0.00     0.031 C 
ATOM     63  C   UNL A   1      38.542  29.706  27.902  1.00  0.00     0.029 A 
ATOM     64  C   UNL A   1      38.672  30.097  29.225  1.00  0.00     0.049 A 
ATOM     65  H   UNL A   1      40.132  29.534  30.641  1.00  0.00     0.167 HD
ATOM     66  C   UNL A   1      38.025  31.319  31.284  1.00  0.00     0.074 A 
ATOM     67  C   UNL A   1      37.183  32.235  32.024  1.00  0.00     0.031 C 
ATOM     68  C   UNL A   1      37.840  30.997  29.980  1.00  0.00     0.037 A 
BRANCH  55  69
ATOM     69  C   UNL A   1      42.091  27.148  27.699  1.00  0.00     0.064 A 
ATOM     70  C   UNL A   1      43.051  27.734  26.861  1.00  0.00     0.173 A 
ATOM     71  C   UNL A   1      41.685  25.835  27.414  1.00  0.00     0.173 A 
ATOM     72  F   UNL A   1      43.465  28.990  27.084  1.00  0.00    -0.203 F 
ATOM     73  C   UNL A   1      43.568  27.041  25.769  1.00  0.00     0.198 A 
ATOM     74  C   UNL A   1      42.223  25.136  26.337  1.00  0.00     0.198 A 
ATOM     75  F   UNL A   1      40.773  25.227  28.187  1.00  0.00    -0.203 F 
ATOM     76  F   UNL A   1      44.454  27.636  24.958  1.00  0.00    -0.200 F 
ATOM     77  C   UNL A   1      43.159  25.741  25.512  1.00  0.00     0.200 A 
ATOM     78  F   UNL A   1      41.837  23.874  26.098  1.00  0.00    -0.200 F 
ATOM     79  F   UNL A   1      43.666  25.072  24.467  1.00  0.00    -0.200 F 
ENDBRANCH  55  69
BRANCH  56  80
ATOM     80  C   UNL A   1      39.044  32.130  35.802  1.00  0.00     0.064 A 
ATOM     81  C   UNL A   1      39.437  33.462  35.991  1.00  0.00     0.173 A 
ATOM     82  C   UNL A   1      38.229  31.544  36.781  1.00  0.00     0.173 A 
ATOM     83  F   UNL A   1      40.234  34.059  35.091  1.00  0.00    -0.203 F 
ATOM     84  C   UNL A   1      39.053  34.173  37.126  1.00  0.00     0.198 A 
ATOM     85  C   UNL A   1      37.821  32.265  37.902  1.00  0.00     0.198 A 
ATOM     86  F   UNL A   1      37.821  30.274  36.645  1.00  0.00    -0.203 F 
ATOM     87  F   UNL A   1      39.484  35.428  37.305  1.00  0.00    -0.200 F 
ATOM     88  C   UNL A   1      38.241  33.575  38.078  1.00  0.00     0.200 A 
ATOM     89  F   UNL A   1      37.025  31.689  38.813  1.00  0.00    -0.200 F 
ATOM     90  F   UNL A   1      37.872  34.258  39.170  1.00  0.00    -0.200 F 
ENDBRANCH  56  80
BRANCH  68  91
ATOM     91  C   UNL A   1      36.662  31.614  29.285  1.00  0.00     0.064 A 
ATOM     92  C   UNL A   1      35.530  30.857  28.947  1.00  0.00     0.173 A 
ATOM     93  C   UNL A   1      36.656  32.983  28.976  1.00  0.00     0.173 A 
ATOM     94  F   UNL A   1      35.496  29.542  29.207  1.00  0.00    -0.203 F 
ATOM     95  C   UNL A   1      34.448  31.444  28.298  1.00  0.00     0.198 A 
ATOM     96  C   UNL A   1      35.559  33.571  28.353  1.00  0.00     0.198 A 
ATOM     97  F   UNL A   1      37.712  33.750  29.285  1.00  0.00    -0.203 F 
ATOM     98  F   UNL A   1      33.399  30.691  27.936  1.00  0.00    -0.200 F 
ATOM     99  C   UNL A   1      34.461  32.800  28.007  1.00  0.00     0.200 A 
ATOM    100  F   UNL A   1      35.568  34.884  28.084  1.00  0.00    -0.200 F 
ATOM    101  F   UNL A   1      33.417  33.362  27.383  1.00  0.00    -0.200 F 
ENDBRANCH  68  91
ENDBRANCH  42  43
ENDBRANCH  34  37
ENDBRANCH  32  33
ENDBRANCH  31  32
ENDBRANCH   1  31
TORSDOF 16
ENDMDL
