MODEL 1
REMARK VINA RESULT:     -10.7      0.000      0.000
REMARK SMILES O=C(CC[P@TB4](=O)(O)C[NH+]1CCCCC1)NCCCNC(=O)c1ccc(-c2c3nc(c(-c4c(F)c(F)c(F)c(F)c4F)c4ccc([nH]4)c(-c4c(F)c(F)c(F)c(F)c4F)c4nc(c(-c5c(F)c(F)c(F)c(F)c5F)c5ccc2[nH]5)C=C4)C=C3)cc1
REMARK SMILES IDX 16 1 15 2 1 3 2 4 3 6 4 7 5 8 6 9 7 10 8 12 9 13 10 14 14 15
REMARK SMILES IDX 11 17 13 18 12 19 17 20 18 21 19 22 20 23 21 25 22 26 23 27
REMARK SMILES IDX 84 28 24 29 83 30 25 31 26 32 27 33 77 34 28 35 82 36 76 37
REMARK SMILES IDX 78 38 29 39 81 40 75 41 74 42 30 44 62 45 42 46 61 47 43 48
REMARK SMILES IDX 46 49 60 50 79 51 44 52 45 53 59 55 80 56 47 57 31 58 32 59
REMARK SMILES IDX 40 60 33 61 34 62 38 63 41 64 35 65 36 66 39 67 37 68 63 69
REMARK SMILES IDX 64 70 72 71 65 72 66 73 70 74 73 75 67 76 68 77 71 78 69 79
REMARK SMILES IDX 48 80 49 81 57 82 50 83 51 84 55 85 58 86 52 87 53 88 56 89
REMARK SMILES IDX 54 90
REMARK H PARENT 15 5 7 11 9 16 19 24 78 43 46 54
REMARK Flexibility Score: inf
ROOT
ATOM      1  C   UNL A   1      34.377  34.740  28.088  1.00  0.00       nan C 
ENDROOT
BRANCH   1   2
ATOM      2  N   UNL A   1      34.102  35.251  29.424  1.00  0.00       nan N 
ATOM      3  O   UNL A   1      32.249  36.424  28.722  1.00  0.00       nan OA
ATOM      4  C   UNL A   1      32.950  35.998  29.637  1.00  0.00       nan C 
ATOM      5  H   UNL A   1      34.724  35.071  30.165  1.00  0.00       nan HD
BRANCH   4   6
ATOM      6  C   UNL A   1      32.543  36.204  31.092  1.00  0.00       nan C 
BRANCH   6   7
ATOM      7  C   UNL A   1      33.634  36.957  31.888  1.00  0.00       nan C 
BRANCH   7   8
ATOM      8  P   UNL A   1      34.403  35.768  33.046  1.00  0.00       nan P 
ATOM      9  O   UNL A   1      34.022  36.704  34.205  1.00  0.00       nan OA
BRANCH   8  10
ATOM     10  O   UNL A   1      33.100  34.759  32.911  1.00  0.00       nan OA
ATOM     11  H   UNL A   1      33.150  34.073  33.594  1.00  0.00       nan HD
ENDBRANCH   8  10
BRANCH   8  12
ATOM     12  C   UNL A   1      35.172  34.578  34.205  1.00  0.00       nan C 
BRANCH  12  13
ATOM     13  N   UNL A   1      35.746  33.554  33.296  1.00  0.00       nan N 
ATOM     14  C   UNL A   1      36.488  34.193  32.197  1.00  0.00       nan C 
ATOM     15  C   UNL A   1      36.607  32.644  34.054  1.00  0.00       nan C 
ATOM     16  H   UNL A   1      34.985  33.014  32.884  1.00  0.00       nan HD
ATOM     17  C   UNL A   1      37.127  33.158  31.262  1.00  0.00       nan C 
ATOM     18  C   UNL A   1      37.179  31.550  33.155  1.00  0.00       nan C 
ATOM     19  C   UNL A   1      37.994  32.168  32.029  1.00  0.00       nan C 
ENDBRANCH  12  13
ENDBRANCH   8  12
ENDBRANCH   7   8
ENDBRANCH   6   7
ENDBRANCH   4   6
ENDBRANCH   1   2
BRANCH   1  20
ATOM     20  C   UNL A   1      35.051  33.369  28.003  1.00  0.00       nan C 
BRANCH  20  21
ATOM     21  C   UNL A   1      34.590  32.292  28.985  1.00  0.00       nan C 
BRANCH  21  22
ATOM     22  N   UNL A   1      34.068  31.077  28.377  1.00  0.00       nan N 
ATOM     23  C   UNL A   1      34.728  29.929  27.988  1.00  0.00       nan C 
ATOM     24  H   UNL A   1      33.096  31.074  28.218  1.00  0.00       nan HD
ATOM     25  O   UNL A   1      34.115  29.060  27.374  1.00  0.00       nan OA
BRANCH  23  26
ATOM     26  C   UNL A   1      36.168  29.712  28.296  1.00  0.00       nan A 
ATOM     27  C   UNL A   1      36.550  29.328  29.587  1.00  0.00       nan A 
ATOM     28  C   UNL A   1      37.158  29.947  27.344  1.00  0.00       nan A 
ATOM     29  C   UNL A   1      37.904  29.121  29.891  1.00  0.00       inf A 
ATOM     30  C   UNL A   1      38.502  29.707  27.629  1.00  0.00       inf A 
ATOM     31  C   UNL A   1      38.891  29.279  28.903  1.00  0.00    -0.014 A 
BRANCH  31  32
ATOM     32  C   UNL A   1      40.313  28.924  29.152  1.00  0.00     0.031 A 
ATOM     33  C   UNL A   1      41.263  29.893  29.803  1.00  0.00     0.074 A 
ATOM     34  C   UNL A   1      40.781  27.753  28.679  1.00  0.00     0.049 A 
ATOM     35  N   UNL A   1      42.539  29.751  30.066  1.00  0.00    -0.248 NA
ATOM     36  C   UNL A   1      40.716  31.205  30.182  1.00  0.00     0.031 C 
ATOM     37  C   UNL A   1      39.987  26.766  27.944  1.00  0.00     0.029 A 
ATOM     38  N   UNL A   1      42.036  27.201  28.726  1.00  0.00    -0.354 N 
ATOM     39  C   UNL A   1      42.948  30.947  30.641  1.00  0.00     0.074 A 
ATOM     40  C   UNL A   1      41.797  31.827  30.636  1.00  0.00     0.031 C 
ATOM     41  C   UNL A   1      40.770  25.724  27.625  1.00  0.00     0.029 A 
ATOM     42  C   UNL A   1      42.122  25.975  28.113  1.00  0.00     0.049 A 
ATOM     43  H   UNL A   1      42.804  27.643  29.158  1.00  0.00     0.167 HD
ATOM     44  C   UNL A   1      44.163  31.273  31.148  1.00  0.00     0.037 A 
ATOM     45  C   UNL A   1      43.169  25.141  27.966  1.00  0.00     0.037 A 
ATOM     46  C   UNL A   1      45.305  30.393  31.157  1.00  0.00     0.049 A 
ATOM     47  C   UNL A   1      44.500  25.516  28.558  1.00  0.00     0.074 A 
ATOM     48  C   UNL A   1      46.555  30.605  31.714  1.00  0.00     0.029 A 
ATOM     49  N   UNL A   1      45.340  29.136  30.571  1.00  0.00    -0.354 N 
ATOM     50  N   UNL A   1      44.843  26.603  29.204  1.00  0.00    -0.248 NA
ATOM     51  C   UNL A   1      45.585  24.534  28.419  1.00  0.00     0.031 C 
ATOM     52  C   UNL A   1      47.361  29.498  31.424  1.00  0.00     0.029 A 
ATOM     53  C   UNL A   1      46.596  28.571  30.735  1.00  0.00     0.049 A 
ATOM     54  H   UNL A   1      44.584  28.708  30.107  1.00  0.00     0.167 HD
ATOM     55  C   UNL A   1      46.167  26.423  29.578  1.00  0.00     0.074 A 
ATOM     56  C   UNL A   1      46.563  25.116  29.098  1.00  0.00     0.031 C 
ATOM     57  C   UNL A   1      46.979  27.264  30.263  1.00  0.00     0.037 A 
BRANCH  44  58
ATOM     58  C   UNL A   1      44.323  32.639  31.757  1.00  0.00     0.064 A 
ATOM     59  C   UNL A   1      44.748  33.737  30.993  1.00  0.00     0.173 A 
ATOM     60  C   UNL A   1      43.991  32.868  33.102  1.00  0.00     0.173 A 
ATOM     61  F   UNL A   1      45.081  33.572  29.704  1.00  0.00    -0.203 F 
ATOM     62  C   UNL A   1      44.864  35.004  31.558  1.00  0.00     0.198 A 
ATOM     63  C   UNL A   1      44.078  34.143  33.656  1.00  0.00     0.198 A 
ATOM     64  F   UNL A   1      43.567  31.858  33.877  1.00  0.00    -0.203 F 
ATOM     65  F   UNL A   1      45.316  36.027  30.819  1.00  0.00    -0.200 F 
ATOM     66  C   UNL A   1      44.522  35.208  32.886  1.00  0.00     0.200 A 
ATOM     67  F   UNL A   1      43.731  34.342  34.935  1.00  0.00    -0.200 F 
ATOM     68  F   UNL A   1      44.624  36.431  33.426  1.00  0.00    -0.200 F 
ENDBRANCH  44  58
BRANCH  45  69
ATOM     69  C   UNL A   1      42.983  23.840  27.275  1.00  0.00     0.064 A 
ATOM     70  C   UNL A   1      42.474  22.730  27.964  1.00  0.00     0.173 A 
ATOM     71  C   UNL A   1      43.302  23.678  25.920  1.00  0.00     0.173 A 
ATOM     72  F   UNL A   1      42.171  22.833  29.266  1.00  0.00    -0.203 F 
ATOM     73  C   UNL A   1      42.314  21.500  27.330  1.00  0.00     0.198 A 
ATOM     74  C   UNL A   1      43.114  22.456  25.279  1.00  0.00     0.198 A 
ATOM     75  F   UNL A   1      43.781  24.712  25.214  1.00  0.00    -0.203 F 
ATOM     76  F   UNL A   1      41.870  20.445  28.025  1.00  0.00    -0.200 F 
ATOM     77  C   UNL A   1      42.629  21.365  25.987  1.00  0.00     0.200 A 
ATOM     78  F   UNL A   1      43.404  22.332  23.976  1.00  0.00    -0.200 F 
ATOM     79  F   UNL A   1      42.470  20.184  25.376  1.00  0.00    -0.200 F 
ENDBRANCH  45  69
BRANCH  57  80
ATOM     80  C   UNL A   1      48.367  26.780  30.577  1.00  0.00     0.064 A 
ATOM     81  C   UNL A   1      48.631  25.949  31.675  1.00  0.00     0.173 A 
ATOM     82  C   UNL A   1      49.444  27.137  29.750  1.00  0.00     0.173 A 
ATOM     83  F   UNL A   1      47.641  25.591  32.506  1.00  0.00    -0.203 F 
ATOM     84  C   UNL A   1      49.927  25.519  31.952  1.00  0.00     0.198 A 
ATOM     85  C   UNL A   1      50.732  26.679  30.011  1.00  0.00     0.198 A 
ATOM     86  F   UNL A   1      49.245  27.925  28.682  1.00  0.00    -0.203 F 
ATOM     87  F   UNL A   1      50.165  24.770  33.038  1.00  0.00    -0.200 F 
ATOM     88  C   UNL A   1      50.974  25.878  31.116  1.00  0.00     0.200 A 
ATOM     89  F   UNL A   1      51.740  27.016  29.194  1.00  0.00    -0.200 F 
ATOM     90  F   UNL A   1      52.219  25.459  31.382  1.00  0.00    -0.200 F 
ENDBRANCH  57  80
ENDBRANCH  31  32
ENDBRANCH  23  26
ENDBRANCH  21  22
ENDBRANCH  20  21
ENDBRANCH   1  20
TORSDOF 15
ENDMDL
MODEL 2
REMARK VINA RESULT:     -10.5      1.273      2.262
REMARK SMILES O=C(CC[P@TB4](=O)(O)C[NH+]1CCCCC1)NCCCNC(=O)c1ccc(-c2c3nc(c(-c4c(F)c(F)c(F)c(F)c4F)c4ccc([nH]4)c(-c4c(F)c(F)c(F)c(F)c4F)c4nc(c(-c5c(F)c(F)c(F)c(F)c5F)c5ccc2[nH]5)C=C4)C=C3)cc1
REMARK SMILES IDX 16 1 15 2 1 3 2 4 3 6 4 7 5 8 6 9 7 10 8 12 9 13 10 14 14 15
REMARK SMILES IDX 11 17 13 18 12 19 17 20 18 21 19 22 20 23 21 25 22 26 23 27
REMARK SMILES IDX 84 28 24 29 83 30 25 31 26 32 27 33 77 34 28 35 82 36 76 37
REMARK SMILES IDX 78 38 29 39 81 40 75 41 74 42 30 44 62 45 42 46 61 47 43 48
REMARK SMILES IDX 46 49 60 50 79 51 44 52 45 53 59 55 80 56 47 57 31 58 32 59
REMARK SMILES IDX 40 60 33 61 34 62 38 63 41 64 35 65 36 66 39 67 37 68 63 69
REMARK SMILES IDX 64 70 72 71 65 72 66 73 70 74 73 75 67 76 68 77 71 78 69 79
REMARK SMILES IDX 48 80 49 81 57 82 50 83 51 84 55 85 58 86 52 87 53 88 56 89
REMARK SMILES IDX 54 90
REMARK H PARENT 15 5 7 11 9 16 19 24 78 43 46 54
REMARK Flexibility Score: inf
ROOT
ATOM      1  C   UNL A   1      33.601  34.912  28.743  1.00  0.00       nan C 
ENDROOT
BRANCH   1   2
ATOM      2  N   UNL A   1      33.994  35.083  30.135  1.00  0.00       nan N 
ATOM      3  O   UNL A   1      32.527  36.827  30.458  1.00  0.00       nan OA
ATOM      4  C   UNL A   1      33.312  36.002  30.921  1.00  0.00       nan C 
ATOM      5  H   UNL A   1      34.734  34.554  30.512  1.00  0.00       nan HD
BRANCH   4   6
ATOM      6  C   UNL A   1      33.528  35.890  32.426  1.00  0.00       nan C 
BRANCH   6   7
ATOM      7  C   UNL A   1      33.647  34.416  32.876  1.00  0.00       nan C 
BRANCH   7   8
ATOM      8  P   UNL A   1      35.400  34.096  33.291  1.00  0.00       nan P 
ATOM      9  O   UNL A   1      35.566  35.596  33.588  1.00  0.00       nan OA
BRANCH   8  10
ATOM     10  O   UNL A   1      34.961  33.453  34.750  1.00  0.00       nan OA
ATOM     11  H   UNL A   1      34.002  33.540  34.866  1.00  0.00       nan HD
ENDBRANCH   8  10
BRANCH   8  12
ATOM     12  C   UNL A   1      37.153  33.776  33.707  1.00  0.00       nan C 
BRANCH  12  13
ATOM     13  N   UNL A   1      37.766  33.514  32.380  1.00  0.00       nan N 
ATOM     14  C   UNL A   1      36.749  33.054  31.420  1.00  0.00       nan C 
ATOM     15  C   UNL A   1      38.438  34.722  31.897  1.00  0.00       nan C 
ATOM     16  H   UNL A   1      38.459  32.773  32.476  1.00  0.00       nan HD
ATOM     17  C   UNL A   1      37.346  32.813  30.028  1.00  0.00       nan C 
ATOM     18  C   UNL A   1      39.119  34.472  30.552  1.00  0.00       nan C 
ATOM     19  C   UNL A   1      38.091  34.039  29.517  1.00  0.00       nan C 
ENDBRANCH  12  13
ENDBRANCH   8  12
ENDBRANCH   7   8
ENDBRANCH   6   7
ENDBRANCH   4   6
ENDBRANCH   1   2
BRANCH   1  20
ATOM     20  C   UNL A   1      34.223  33.731  27.993  1.00  0.00       nan C 
BRANCH  20  21
ATOM     21  C   UNL A   1      34.319  32.397  28.732  1.00  0.00       nan C 
BRANCH  21  22
ATOM     22  N   UNL A   1      33.859  31.237  27.983  1.00  0.00       nan N 
ATOM     23  C   UNL A   1      34.537  30.086  27.630  1.00  0.00       nan C 
ATOM     24  H   UNL A   1      32.922  31.278  27.682  1.00  0.00       nan HD
ATOM     25  O   UNL A   1      33.999  29.276  26.882  1.00  0.00       nan OA
BRANCH  23  26
ATOM     26  C   UNL A   1      35.908  29.800  28.135  1.00  0.00       nan A 
ATOM     27  C   UNL A   1      36.080  29.330  29.442  1.00  0.00       nan A 
ATOM     28  C   UNL A   1      37.036  30.052  27.357  1.00  0.00       nan A 
ATOM     29  C   UNL A   1      37.366  29.056  29.931  1.00  0.00       inf A 
ATOM     30  C   UNL A   1      38.314  29.747  27.823  1.00  0.00       inf A 
ATOM     31  C   UNL A   1      38.495  29.234  29.112  1.00  0.00    -0.014 A 
BRANCH  31  32
ATOM     32  C   UNL A   1      39.853  28.814  29.547  1.00  0.00     0.031 A 
ATOM     33  C   UNL A   1      40.703  29.690  30.427  1.00  0.00     0.074 A 
ATOM     34  C   UNL A   1      40.371  27.676  29.046  1.00  0.00     0.049 A 
ATOM     35  N   UNL A   1      41.918  29.485  30.873  1.00  0.00    -0.248 NA
ATOM     36  C   UNL A   1      40.125  30.980  30.837  1.00  0.00     0.031 C 
ATOM     37  C   UNL A   1      39.688  26.784  28.107  1.00  0.00     0.029 A 
ATOM     38  N   UNL A   1      41.593  27.082  29.239  1.00  0.00    -0.354 N 
ATOM     39  C   UNL A   1      42.250  30.612  31.615  1.00  0.00     0.074 A 
ATOM     40  C   UNL A   1      41.130  31.524  31.510  1.00  0.00     0.031 C 
ATOM     41  C   UNL A   1      40.494  25.750  27.819  1.00  0.00     0.029 A 
ATOM     42  C   UNL A   1      41.754  25.914  28.536  1.00  0.00     0.049 A 
ATOM     43  H   UNL A   1      42.289  27.460  29.826  1.00  0.00     0.167 HD
ATOM     44  C   UNL A   1      43.374  30.853  32.335  1.00  0.00     0.037 A 
ATOM     45  C   UNL A   1      42.798  25.065  28.477  1.00  0.00     0.037 A 
ATOM     46  C   UNL A   1      44.485  29.940  32.441  1.00  0.00     0.049 A 
ATOM     47  C   UNL A   1      44.023  25.343  29.304  1.00  0.00     0.074 A 
ATOM     48  C   UNL A   1      45.634  30.062  33.205  1.00  0.00     0.029 A 
ATOM     49  N   UNL A   1      44.592  28.740  31.753  1.00  0.00    -0.354 N 
ATOM     50  N   UNL A   1      44.277  26.357  30.094  1.00  0.00    -0.248 NA
ATOM     51  C   UNL A   1      45.100  24.344  29.246  1.00  0.00     0.031 C 
ATOM     52  C   UNL A   1      46.457  28.961  32.944  1.00  0.00     0.029 A 
ATOM     53  C   UNL A   1      45.797  28.124  32.059  1.00  0.00     0.049 A 
ATOM     54  H   UNL A   1      43.913  28.380  31.138  1.00  0.00     0.167 HD
ATOM     55  C   UNL A   1      45.521  26.102  30.654  1.00  0.00     0.074 A 
ATOM     56  C   UNL A   1      45.967  24.832  30.122  1.00  0.00     0.031 C 
ATOM     57  C   UNL A   1      46.228  26.853  31.534  1.00  0.00     0.037 A 
BRANCH  44  58
ATOM     58  C   UNL A   1      43.458  32.153  33.086  1.00  0.00     0.064 A 
ATOM     59  C   UNL A   1      42.945  32.282  34.386  1.00  0.00     0.173 A 
ATOM     60  C   UNL A   1      44.109  33.264  32.528  1.00  0.00     0.173 A 
ATOM     61  F   UNL A   1      42.310  31.252  34.966  1.00  0.00    -0.203 F 
ATOM     62  C   UNL A   1      43.055  33.480  35.086  1.00  0.00     0.198 A 
ATOM     63  C   UNL A   1      44.245  34.452  33.243  1.00  0.00     0.198 A 
ATOM     64  F   UNL A   1      44.629  33.195  31.293  1.00  0.00    -0.203 F 
ATOM     65  F   UNL A   1      42.516  33.592  36.309  1.00  0.00    -0.200 F 
ATOM     66  C   UNL A   1      43.710  34.561  34.519  1.00  0.00     0.200 A 
ATOM     67  F   UNL A   1      44.894  35.490  32.699  1.00  0.00    -0.200 F 
ATOM     68  F   UNL A   1      43.824  35.711  35.197  1.00  0.00    -0.200 F 
ENDBRANCH  44  58
BRANCH  45  69
ATOM     69  C   UNL A   1      42.703  23.837  27.647  1.00  0.00     0.064 A 
ATOM     70  C   UNL A   1      42.241  22.633  28.200  1.00  0.00     0.173 A 
ATOM     71  C   UNL A   1      43.062  23.839  26.293  1.00  0.00     0.173 A 
ATOM     72  F   UNL A   1      41.903  22.580  29.497  1.00  0.00    -0.203 F 
ATOM     73  C   UNL A   1      42.167  21.472  27.435  1.00  0.00     0.198 A 
ATOM     74  C   UNL A   1      42.959  22.684  25.521  1.00  0.00     0.198 A 
ATOM     75  F   UNL A   1      43.498  24.968  25.715  1.00  0.00    -0.203 F 
ATOM     76  F   UNL A   1      41.768  20.325  28.001  1.00  0.00    -0.200 F 
ATOM     77  C   UNL A   1      42.520  21.499  26.095  1.00  0.00     0.200 A 
ATOM     78  F   UNL A   1      43.286  22.717  24.222  1.00  0.00    -0.200 F 
ATOM     79  F   UNL A   1      42.443  20.383  25.358  1.00  0.00    -0.200 F 
ENDBRANCH  45  69
BRANCH  57  80
ATOM     80  C   UNL A   1      47.540  26.299  32.015  1.00  0.00     0.064 A 
ATOM     81  C   UNL A   1      48.750  26.599  31.373  1.00  0.00     0.173 A 
ATOM     82  C   UNL A   1      47.586  25.475  33.150  1.00  0.00     0.173 A 
ATOM     83  F   UNL A   1      48.760  27.369  30.275  1.00  0.00    -0.203 F 
ATOM     84  C   UNL A   1      49.954  26.069  31.831  1.00  0.00     0.198 A 
ATOM     85  C   UNL A   1      48.794  24.973  33.624  1.00  0.00     0.198 A 
ATOM     86  F   UNL A   1      46.457  25.163  33.806  1.00  0.00    -0.203 F 
ATOM     87  F   UNL A   1      51.092  26.325  31.170  1.00  0.00    -0.200 F 
ATOM     88  C   UNL A   1      49.976  25.263  32.960  1.00  0.00     0.200 A 
ATOM     89  F   UNL A   1      48.814  24.206  34.723  1.00  0.00    -0.200 F 
ATOM     90  F   UNL A   1      51.136  24.757  33.401  1.00  0.00    -0.200 F 
ENDBRANCH  57  80
ENDBRANCH  31  32
ENDBRANCH  23  26
ENDBRANCH  21  22
ENDBRANCH  20  21
ENDBRANCH   1  20
TORSDOF 15
ENDMDL
MODEL 3
REMARK VINA RESULT:     -10.2      4.532      7.673
REMARK SMILES O=C(CC[P@TB4](=O)(O)C[NH+]1CCCCC1)NCCCNC(=O)c1ccc(-c2c3nc(c(-c4c(F)c(F)c(F)c(F)c4F)c4ccc([nH]4)c(-c4c(F)c(F)c(F)c(F)c4F)c4nc(c(-c5c(F)c(F)c(F)c(F)c5F)c5ccc2[nH]5)C=C4)C=C3)cc1
REMARK SMILES IDX 16 1 15 2 1 3 2 4 3 6 4 7 5 8 6 9 7 10 8 12 9 13 10 14 14 15
REMARK SMILES IDX 11 17 13 18 12 19 17 20 18 21 19 22 20 23 21 25 22 26 23 27
REMARK SMILES IDX 84 28 24 29 83 30 25 31 26 32 27 33 77 34 28 35 82 36 76 37
REMARK SMILES IDX 78 38 29 39 81 40 75 41 74 42 30 44 62 45 42 46 61 47 43 48
REMARK SMILES IDX 46 49 60 50 79 51 44 52 45 53 59 55 80 56 47 57 31 58 32 59
REMARK SMILES IDX 40 60 33 61 34 62 38 63 41 64 35 65 36 66 39 67 37 68 63 69
REMARK SMILES IDX 64 70 72 71 65 72 66 73 70 74 73 75 67 76 68 77 71 78 69 79
REMARK SMILES IDX 48 80 49 81 57 82 50 83 51 84 55 85 58 86 52 87 53 88 56 89
REMARK SMILES IDX 54 90
REMARK H PARENT 15 5 7 11 9 16 19 24 78 43 46 54
REMARK Flexibility Score: inf
ROOT
ATOM      1  C   UNL A   1      31.528  30.730  26.395  1.00  0.00       nan C 
ENDROOT
BRANCH   1   2
ATOM      2  N   UNL A   1      31.401  30.329  25.001  1.00  0.00       nan N 
ATOM      3  O   UNL A   1      33.197  28.894  25.127  1.00  0.00       nan OA
ATOM      4  C   UNL A   1      32.226  29.326  24.509  1.00  0.00       nan C 
ATOM      5  H   UNL A   1      30.740  30.764  24.415  1.00  0.00       nan HD
BRANCH   4   6
ATOM      6  C   UNL A   1      31.819  28.717  23.171  1.00  0.00       nan C 
BRANCH   6   7
ATOM      7  C   UNL A   1      33.039  28.151  22.408  1.00  0.00       nan C 
BRANCH   7   8
ATOM      8  P   UNL A   1      32.863  26.332  22.342  1.00  0.00       nan P 
ATOM      9  O   UNL A   1      31.336  26.515  22.323  1.00  0.00       nan OA
BRANCH   8  10
ATOM     10  O   UNL A   1      33.278  26.327  20.741  1.00  0.00       nan OA
ATOM     11  H   UNL A   1      33.890  27.058  20.565  1.00  0.00       nan HD
ENDBRANCH   8  10
BRANCH   8  12
ATOM     12  C   UNL A   1      32.686  24.511  22.275  1.00  0.00       nan C 
BRANCH  12  13
ATOM     13  N   UNL A   1      33.423  24.062  23.484  1.00  0.00       nan N 
ATOM     14  C   UNL A   1      34.441  23.059  23.129  1.00  0.00       nan C 
ATOM     15  C   UNL A   1      34.029  25.214  24.153  1.00  0.00       nan C 
ATOM     16  H   UNL A   1      32.765  23.621  24.127  1.00  0.00       nan HD
ATOM     17  C   UNL A   1      35.246  22.604  24.353  1.00  0.00       nan C 
ATOM     18  C   UNL A   1      34.757  24.791  25.427  1.00  0.00       nan C 
ATOM     19  C   UNL A   1      35.852  23.787  25.097  1.00  0.00       nan C 
ENDBRANCH  12  13
ENDBRANCH   8  12
ENDBRANCH   7   8
ENDBRANCH   6   7
ENDBRANCH   4   6
ENDBRANCH   1   2
BRANCH   1  20
ATOM     20  C   UNL A   1      31.405  32.226  26.694  1.00  0.00       nan C 
BRANCH  20  21
ATOM     21  C   UNL A   1      32.676  32.975  27.091  1.00  0.00       nan C 
BRANCH  21  22
ATOM     22  N   UNL A   1      32.467  34.298  27.660  1.00  0.00       nan N 
ATOM     23  C   UNL A   1      33.080  34.906  28.737  1.00  0.00       nan C 
ATOM     24  H   UNL A   1      31.783  34.844  27.207  1.00  0.00       nan HD
ATOM     25  O   UNL A   1      32.666  35.991  29.134  1.00  0.00       nan OA
BRANCH  23  26
ATOM     26  C   UNL A   1      34.237  34.279  29.434  1.00  0.00       nan A 
ATOM     27  C   UNL A   1      34.027  33.562  30.617  1.00  0.00       nan A 
ATOM     28  C   UNL A   1      35.541  34.446  28.971  1.00  0.00       nan A 
ATOM     29  C   UNL A   1      35.109  32.966  31.284  1.00  0.00       inf A 
ATOM     30  C   UNL A   1      36.616  33.826  29.608  1.00  0.00       inf A 
ATOM     31  C   UNL A   1      36.411  33.069  30.766  1.00  0.00    -0.014 A 
BRANCH  31  32
ATOM     32  C   UNL A   1      37.554  32.328  31.365  1.00  0.00     0.031 A 
ATOM     33  C   UNL A   1      38.118  32.705  32.707  1.00  0.00     0.074 A 
ATOM     34  C   UNL A   1      38.161  31.374  30.633  1.00  0.00     0.049 A 
ATOM     35  N   UNL A   1      39.128  32.181  33.358  1.00  0.00    -0.248 NA
ATOM     36  C   UNL A   1      37.487  33.840  33.398  1.00  0.00     0.031 C 
ATOM     37  C   UNL A   1      37.773  30.978  29.278  1.00  0.00     0.029 A 
ATOM     38  N   UNL A   1      39.243  30.577  30.915  1.00  0.00    -0.354 N 
ATOM     39  C   UNL A   1      39.253  32.914  34.530  1.00  0.00     0.074 A 
ATOM     40  C   UNL A   1      38.252  33.960  34.476  1.00  0.00     0.031 C 
ATOM     41  C   UNL A   1      38.592  30.004  28.854  1.00  0.00     0.029 A 
ATOM     42  C   UNL A   1      39.574  29.719  29.896  1.00  0.00     0.049 A 
ATOM     43  H   UNL A   1      39.736  30.619  31.767  1.00  0.00     0.167 HD
ATOM     44  C   UNL A   1      40.106  32.720  35.566  1.00  0.00     0.037 A 
ATOM     45  C   UNL A   1      40.555  28.800  29.809  1.00  0.00     0.037 A 
ATOM     46  C   UNL A   1      41.098  31.675  35.620  1.00  0.00     0.049 A 
ATOM     47  C   UNL A   1      41.473  28.588  30.982  1.00  0.00     0.074 A 
ATOM     48  C   UNL A   1      41.958  31.351  36.657  1.00  0.00     0.029 A 
ATOM     49  N   UNL A   1      41.372  30.790  34.587  1.00  0.00    -0.354 N 
ATOM     50  N   UNL A   1      41.504  29.211  32.133  1.00  0.00    -0.248 NA
ATOM     51  C   UNL A   1      42.480  27.525  30.848  1.00  0.00     0.031 C 
ATOM     52  C   UNL A   1      42.783  30.303  36.235  1.00  0.00     0.029 A 
ATOM     53  C   UNL A   1      42.400  29.935  34.955  1.00  0.00     0.049 A 
ATOM     54  H   UNL A   1      40.905  30.771  33.721  1.00  0.00     0.167 HD
ATOM     55  C   UNL A   1      42.505  28.597  32.873  1.00  0.00     0.074 A 
ATOM     56  C   UNL A   1      43.049  27.542  32.044  1.00  0.00     0.031 C 
ATOM     57  C   UNL A   1      42.930  28.879  34.128  1.00  0.00     0.037 A 
BRANCH  44  58
ATOM     58  C   UNL A   1      39.997  33.647  36.745  1.00  0.00     0.064 A 
ATOM     59  C   UNL A   1      39.125  33.379  37.811  1.00  0.00     0.173 A 
ATOM     60  C   UNL A   1      40.816  34.783  36.842  1.00  0.00     0.173 A 
ATOM     61  F   UNL A   1      38.318  32.308  37.767  1.00  0.00    -0.203 F 
ATOM     62  C   UNL A   1      39.053  34.226  38.913  1.00  0.00     0.198 A 
ATOM     63  C   UNL A   1      40.764  35.613  37.961  1.00  0.00     0.198 A 
ATOM     64  F   UNL A   1      41.678  35.084  35.859  1.00  0.00    -0.203 F 
ATOM     65  F   UNL A   1      38.178  33.973  39.896  1.00  0.00    -0.200 F 
ATOM     66  C   UNL A   1      39.877  35.338  38.991  1.00  0.00     0.200 A 
ATOM     67  F   UNL A   1      41.574  36.677  38.042  1.00  0.00    -0.200 F 
ATOM     68  F   UNL A   1      39.815  36.148  40.057  1.00  0.00    -0.200 F 
ENDBRANCH  44  58
BRANCH  45  69
ATOM     69  C   UNL A   1      40.679  27.968  28.585  1.00  0.00     0.064 A 
ATOM     70  C   UNL A   1      40.004  26.744  28.480  1.00  0.00     0.173 A 
ATOM     71  C   UNL A   1      41.465  28.377  27.499  1.00  0.00     0.173 A 
ATOM     72  F   UNL A   1      39.255  26.304  29.501  1.00  0.00    -0.203 F 
ATOM     73  C   UNL A   1      40.130  25.948  27.343  1.00  0.00     0.198 A 
ATOM     74  C   UNL A   1      41.567  27.594  26.351  1.00  0.00     0.198 A 
ATOM     75  F   UNL A   1      42.121  29.546  27.546  1.00  0.00    -0.203 F 
ATOM     76  F   UNL A   1      39.511  24.761  27.289  1.00  0.00    -0.200 F 
ATOM     77  C   UNL A   1      40.906  26.376  26.278  1.00  0.00     0.200 A 
ATOM     78  F   UNL A   1      42.305  28.018  25.316  1.00  0.00    -0.200 F 
ATOM     79  F   UNL A   1      41.023  25.613  25.183  1.00  0.00    -0.200 F 
ENDBRANCH  45  69
BRANCH  57  80
ATOM     80  C   UNL A   1      44.008  28.006  34.705  1.00  0.00     0.064 A 
ATOM     81  C   UNL A   1      45.367  28.334  34.589  1.00  0.00     0.173 A 
ATOM     82  C   UNL A   1      43.673  26.835  35.403  1.00  0.00     0.173 A 
ATOM     83  F   UNL A   1      45.743  29.433  33.919  1.00  0.00    -0.203 F 
ATOM     84  C   UNL A   1      46.351  27.505  35.124  1.00  0.00     0.198 A 
ATOM     85  C   UNL A   1      44.657  26.026  35.963  1.00  0.00     0.198 A 
ATOM     86  F   UNL A   1      42.387  26.479  35.548  1.00  0.00    -0.203 F 
ATOM     87  F   UNL A   1      47.646  27.810  34.955  1.00  0.00    -0.200 F 
ATOM     88  C   UNL A   1      45.995  26.358  35.816  1.00  0.00     0.200 A 
ATOM     89  F   UNL A   1      44.311  24.925  36.643  1.00  0.00    -0.200 F 
ATOM     90  F   UNL A   1      46.944  25.564  36.333  1.00  0.00    -0.200 F 
ENDBRANCH  57  80
ENDBRANCH  31  32
ENDBRANCH  23  26
ENDBRANCH  21  22
ENDBRANCH  20  21
ENDBRANCH   1  20
TORSDOF 15
ENDMDL
