MODEL 1
REMARK VINA RESULT:     -12.4      0.000      0.000
REMARK SMILES Cc1nc(C[N@@H+]2CCC[C@H]2C(=O)NCCCNC(=O)c2ccc(-c3c4nc(c(-c5c(F)c(F)c(F)c(F)c5F)c5ccc([nH]5)c(-c5c(F)c(F)c(F)c(F)c5F)c5nc(c(-c6c(F)c(F)c(F)c(F)c6F)c6ccc3[nH]6)C=C5)C=C4)cc2)cs1
REMARK SMILES IDX 15 1 14 2 13 3 11 4 12 5 10 7 6 8 7 9 8 11 9 12 5 13 4 14
REMARK SMILES IDX 1 15 2 16 3 17 84 18 83 19 16 20 17 21 18 22 19 24 20 25
REMARK SMILES IDX 21 26 82 27 22 28 81 29 23 30 24 31 25 32 75 33 26 34 80 35
REMARK SMILES IDX 74 36 76 37 27 38 79 39 73 40 72 41 28 43 60 44 40 45 59 46
REMARK SMILES IDX 41 47 44 48 58 49 77 50 42 51 43 52 57 54 78 55 45 56 29 57
REMARK SMILES IDX 30 58 38 59 31 60 32 61 36 62 39 63 33 64 34 65 37 66 35 67
REMARK SMILES IDX 61 68 62 69 70 70 63 71 64 72 68 73 71 74 65 75 66 76 69 77
REMARK SMILES IDX 67 78 46 79 47 80 55 81 48 82 49 83 53 84 56 85 50 86 51 87
REMARK SMILES IDX 54 88 52 89
REMARK H PARENT 13 6 6 10 17 23 76 42 44 53
REMARK Flexibility Score: inf
ROOT
ATOM      1  C   UNL A   1      31.432  32.210  26.509  1.00  0.00     0.042 C 
ENDROOT
BRANCH   1   2
ATOM      2  C   UNL A   1      31.403  30.686  26.524  1.00  0.00     0.118 C 
BRANCH   2   3
ATOM      3  N   UNL A   1      32.412  30.114  25.649  1.00  0.00    -0.351 N 
ATOM      4  C   UNL A   1      32.422  29.076  24.774  1.00  0.00     0.278 C 
ATOM      5  O   UNL A   1      33.525  28.853  24.250  1.00  0.00    -0.268 OA
ATOM      6  H   UNL A   1      33.277  30.582  25.703  1.00  0.00     0.163 HD
BRANCH   4   7
ATOM      7  C   UNL A   1      31.218  28.171  24.423  1.00  0.00     0.274 C 
ATOM      8  N   UNL A   1      30.841  28.190  23.002  1.00  0.00    -0.320 N 
ATOM      9  C   UNL A   1      31.437  27.026  22.360  1.00  0.00     0.263 C 
ATOM     10  H   UNL A   1      31.232  29.018  22.554  1.00  0.00     0.349 HD
ATOM     11  C   UNL A   1      31.507  25.953  23.424  1.00  0.00     0.068 C 
ATOM     12  C   UNL A   1      31.580  26.712  24.740  1.00  0.00     0.081 C 
BRANCH   8  13
ATOM     13  C   UNL A   1      29.418  28.429  22.745  1.00  0.00     0.321 C 
BRANCH  13  14
ATOM     14  C   UNL A   1      29.033  29.862  22.531  1.00  0.00     0.106 A 
ATOM     15  C   UNL A   1      27.901  32.332  20.083  1.00  0.00     0.079 C 
ATOM     16  C   UNL A   1      28.343  31.559  21.274  1.00  0.00     0.090 A 
ATOM     17  N   UNL A   1      28.711  30.296  21.249  1.00  0.00    -0.241 NA
ATOM     18  S   UNL A   1      28.396  32.313  22.817  1.00  0.00    -0.127 S 
ATOM     19  C   UNL A   1      28.894  30.831  23.509  1.00  0.00     0.096 A 
ENDBRANCH  13  14
ENDBRANCH   8  13
ENDBRANCH   4   7
ENDBRANCH   2   3
ENDBRANCH   1   2
BRANCH   1  20
ATOM     20  C   UNL A   1      32.623  32.808  27.253  1.00  0.00     0.118 C 
BRANCH  20  21
ATOM     21  N   UNL A   1      32.414  34.204  27.620  1.00  0.00    -0.352 N 
ATOM     22  C   UNL A   1      33.003  34.977  28.589  1.00  0.00     0.251 C 
ATOM     23  H   UNL A   1      31.734  34.671  27.082  1.00  0.00     0.163 HD
ATOM     24  O   UNL A   1      32.530  36.077  28.860  1.00  0.00    -0.269 OA
BRANCH  22  25
ATOM     25  C   UNL A   1      34.190  34.492  29.326  1.00  0.00     0.039 A 
ATOM     26  C   UNL A   1      34.019  33.988  30.619  1.00  0.00     0.014 A 
ATOM     27  C   UNL A   1      35.468  34.556  28.766  1.00  0.00     0.014 A 
ATOM     28  C   UNL A   1      35.113  33.471  31.314  1.00  0.00     0.010 A 
ATOM     29  C   UNL A   1      36.545  33.974  29.429  1.00  0.00     0.010 A 
ATOM     30  C   UNL A   1      36.377  33.414  30.704  1.00  0.00    -0.014 A 
BRANCH  30  31
ATOM     31  C   UNL A   1      37.520  32.735  31.364  1.00  0.00     0.031 A 
ATOM     32  C   UNL A   1      38.199  31.567  30.706  1.00  0.00     0.074 A 
ATOM     33  C   UNL A   1      37.890  33.125  32.599  1.00  0.00     0.049 A 
ATOM     34  N   UNL A   1      39.151  30.798  31.169  1.00  0.00    -0.248 NA
ATOM     35  C   UNL A   1      37.729  31.201  29.362  1.00  0.00     0.031 C 
ATOM     36  C   UNL A   1      37.274  34.211  33.361  1.00  0.00     0.029 A 
ATOM     37  N   UNL A   1      38.861  32.639  33.439  1.00  0.00    -0.354 N 
ATOM     38  C   UNL A   1      39.386  29.851  30.182  1.00  0.00     0.074 A 
ATOM     39  C   UNL A   1      38.445  30.113  29.113  1.00  0.00     0.031 C 
ATOM     40  C   UNL A   1      37.891  34.323  34.547  1.00  0.00     0.029 A 
ATOM     41  C   UNL A   1      38.916  33.290  34.648  1.00  0.00     0.049 A 
ATOM     42  H   UNL A   1      39.461  31.897  33.198  1.00  0.00     0.167 HD
ATOM     43  C   UNL A   1      40.315  28.865  30.161  1.00  0.00     0.037 A 
ATOM     44  C   UNL A   1      39.696  33.067  35.724  1.00  0.00     0.037 A 
ATOM     45  C   UNL A   1      41.263  28.622  31.217  1.00  0.00     0.049 A 
ATOM     46  C   UNL A   1      40.704  31.954  35.682  1.00  0.00     0.074 A 
ATOM     47  C   UNL A   1      42.294  27.701  31.256  1.00  0.00     0.029 A 
ATOM     48  N   UNL A   1      41.290  29.302  32.427  1.00  0.00    -0.354 N 
ATOM     49  N   UNL A   1      40.969  31.114  34.711  1.00  0.00    -0.248 NA
ATOM     50  C   UNL A   1      41.522  31.757  36.887  1.00  0.00     0.031 C 
ATOM     51  C   UNL A   1      42.914  27.789  32.507  1.00  0.00     0.029 A 
ATOM     52  C   UNL A   1      42.299  28.796  33.232  1.00  0.00     0.049 A 
ATOM     53  H   UNL A   1      40.681  30.035  32.677  1.00  0.00     0.167 HD
ATOM     54  C   UNL A   1      41.990  30.300  35.180  1.00  0.00     0.074 A 
ATOM     55  C   UNL A   1      42.314  30.761  36.514  1.00  0.00     0.031 C 
ATOM     56  C   UNL A   1      42.601  29.260  34.562  1.00  0.00     0.037 A 
BRANCH  43  57
ATOM     57  C   UNL A   1      40.357  27.972  28.956  1.00  0.00     0.064 A 
ATOM     58  C   UNL A   1      41.130  28.293  27.831  1.00  0.00     0.173 A 
ATOM     59  C   UNL A   1      39.651  26.759  28.942  1.00  0.00     0.173 A 
ATOM     60  F   UNL A   1      41.816  29.446  27.790  1.00  0.00    -0.203 F 
ATOM     61  C   UNL A   1      41.177  27.445  26.727  1.00  0.00     0.198 A 
ATOM     62  C   UNL A   1      39.722  25.901  27.849  1.00  0.00     0.198 A 
ATOM     63  F   UNL A   1      38.901  26.401  29.996  1.00  0.00    -0.203 F 
ATOM     64  F   UNL A   1      41.889  27.794  25.645  1.00  0.00    -0.200 F 
ATOM     65  C   UNL A   1      40.479  26.247  26.739  1.00  0.00     0.200 A 
ATOM     66  F   UNL A   1      39.057  24.737  27.867  1.00  0.00    -0.200 F 
ATOM     67  F   UNL A   1      40.531  25.429  25.679  1.00  0.00    -0.200 F 
ENDBRANCH  43  57
BRANCH  44  68
ATOM     68  C   UNL A   1      39.555  33.925  36.928  1.00  0.00     0.064 A 
ATOM     69  C   UNL A   1      38.743  33.529  38.000  1.00  0.00     0.173 A 
ATOM     70  C   UNL A   1      40.225  35.151  37.036  1.00  0.00     0.173 A 
ATOM     71  F   UNL A   1      38.065  32.374  37.933  1.00  0.00    -0.203 F 
ATOM     72  C   UNL A   1      38.595  34.334  39.127  1.00  0.00     0.198 A 
ATOM     73  C   UNL A   1      40.098  35.944  38.175  1.00  0.00     0.198 A 
ATOM     74  F   UNL A   1      41.017  35.574  36.039  1.00  0.00    -0.203 F 
ATOM     75  F   UNL A   1      37.781  33.951  40.120  1.00  0.00    -0.200 F 
ATOM     76  C   UNL A   1      39.278  35.538  39.216  1.00  0.00     0.200 A 
ATOM     77  F   UNL A   1      40.771  37.099  38.264  1.00  0.00    -0.200 F 
ATOM     78  F   UNL A   1      39.140  36.309  40.303  1.00  0.00    -0.200 F 
ENDBRANCH  44  68
BRANCH  56  79
ATOM     79  C   UNL A   1      43.685  28.554  35.322  1.00  0.00     0.064 A 
ATOM     80  C   UNL A   1      43.398  27.474  36.170  1.00  0.00     0.173 A 
ATOM     81  C   UNL A   1      45.027  28.936  35.174  1.00  0.00     0.173 A 
ATOM     82  F   UNL A   1      42.128  27.083  36.359  1.00  0.00    -0.203 F 
ATOM     83  C   UNL A   1      44.413  26.817  36.858  1.00  0.00     0.198 A 
ATOM     84  C   UNL A   1      46.042  28.258  35.842  1.00  0.00     0.198 A 
ATOM     85  F   UNL A   1      45.354  29.960  34.371  1.00  0.00    -0.203 F 
ATOM     86  F   UNL A   1      44.112  25.816  37.698  1.00  0.00    -0.200 F 
ATOM     87  C   UNL A   1      45.734  27.203  36.689  1.00  0.00     0.200 A 
ATOM     88  F   UNL A   1      47.318  28.625  35.668  1.00  0.00    -0.200 F 
ATOM     89  F   UNL A   1      46.711  26.564  37.347  1.00  0.00    -0.200 F 
ENDBRANCH  56  79
ENDBRANCH  30  31
ENDBRANCH  22  25
ENDBRANCH  20  21
ENDBRANCH   1  20
TORSDOF 12
ENDMDL
MODEL 2
REMARK VINA RESULT:     -12.4      0.093      1.163
REMARK SMILES Cc1nc(C[N@@H+]2CCC[C@H]2C(=O)NCCCNC(=O)c2ccc(-c3c4nc(c(-c5c(F)c(F)c(F)c(F)c5F)c5ccc([nH]5)c(-c5c(F)c(F)c(F)c(F)c5F)c5nc(c(-c6c(F)c(F)c(F)c(F)c6F)c6ccc3[nH]6)C=C5)C=C4)cc2)cs1
REMARK SMILES IDX 15 1 14 2 13 3 11 4 12 5 10 7 6 8 7 9 8 11 9 12 5 13 4 14
REMARK SMILES IDX 1 15 2 16 3 17 84 18 83 19 16 20 17 21 18 22 19 24 20 25
REMARK SMILES IDX 21 26 82 27 22 28 81 29 23 30 24 31 25 32 75 33 26 34 80 35
REMARK SMILES IDX 74 36 76 37 27 38 79 39 73 40 72 41 28 43 60 44 40 45 59 46
REMARK SMILES IDX 41 47 44 48 58 49 77 50 42 51 43 52 57 54 78 55 45 56 29 57
REMARK SMILES IDX 30 58 38 59 31 60 32 61 36 62 39 63 33 64 34 65 37 66 35 67
REMARK SMILES IDX 61 68 62 69 70 70 63 71 64 72 68 73 71 74 65 75 66 76 69 77
REMARK SMILES IDX 67 78 46 79 47 80 55 81 48 82 49 83 53 84 56 85 50 86 51 87
REMARK SMILES IDX 54 88 52 89
REMARK H PARENT 13 6 6 10 17 23 76 42 44 53
REMARK Flexibility Score: inf
ROOT
ATOM      1  C   UNL A   1      31.447  32.221  26.497  1.00  0.00     0.042 C 
ENDROOT
BRANCH   1   2
ATOM      2  C   UNL A   1      31.439  30.697  26.495  1.00  0.00     0.118 C 
BRANCH   2   3
ATOM      3  N   UNL A   1      32.457  30.149  25.616  1.00  0.00    -0.351 N 
ATOM      4  C   UNL A   1      32.485  29.117  24.734  1.00  0.00     0.278 C 
ATOM      5  O   UNL A   1      33.591  28.917  24.208  1.00  0.00    -0.268 OA
ATOM      6  H   UNL A   1      33.314  30.630  25.673  1.00  0.00     0.163 HD
BRANCH   4   7
ATOM      7  C   UNL A   1      31.295  28.194  24.377  1.00  0.00     0.274 C 
ATOM      8  N   UNL A   1      30.908  28.228  22.959  1.00  0.00    -0.320 N 
ATOM      9  C   UNL A   1      31.522  27.086  22.294  1.00  0.00     0.263 C 
ATOM     10  H   UNL A   1      31.280  29.071  22.522  1.00  0.00     0.349 HD
ATOM     11  C   UNL A   1      31.621  25.999  23.341  1.00  0.00     0.068 C 
ATOM     12  C   UNL A   1      31.689  26.738  24.668  1.00  0.00     0.081 C 
BRANCH   8  13
ATOM     13  C   UNL A   1      29.479  28.444  22.716  1.00  0.00     0.321 C 
BRANCH  13  14
ATOM     14  C   UNL A   1      29.068  29.870  22.503  1.00  0.00     0.106 A 
ATOM     15  C   UNL A   1      27.836  32.308  20.073  1.00  0.00     0.079 C 
ATOM     16  C   UNL A   1      28.321  31.548  21.256  1.00  0.00     0.090 A 
ATOM     17  N   UNL A   1      28.706  30.290  21.228  1.00  0.00    -0.241 NA
ATOM     18  S   UNL A   1      28.405  32.313  22.792  1.00  0.00    -0.127 S 
ATOM     19  C   UNL A   1      28.942  30.842  23.480  1.00  0.00     0.096 A 
ENDBRANCH  13  14
ENDBRANCH   8  13
ENDBRANCH   4   7
ENDBRANCH   2   3
ENDBRANCH   1   2
BRANCH   1  20
ATOM     20  C   UNL A   1      32.628  32.828  27.250  1.00  0.00     0.118 C 
BRANCH  20  21
ATOM     21  N   UNL A   1      32.399  34.217  27.632  1.00  0.00    -0.352 N 
ATOM     22  C   UNL A   1      32.975  34.987  28.611  1.00  0.00     0.251 C 
ATOM     23  H   UNL A   1      31.714  34.680  27.097  1.00  0.00     0.163 HD
ATOM     24  O   UNL A   1      32.487  36.078  28.892  1.00  0.00    -0.269 OA
BRANCH  22  25
ATOM     25  C   UNL A   1      34.167  34.510  29.345  1.00  0.00     0.039 A 
ATOM     26  C   UNL A   1      33.996  33.965  30.621  1.00  0.00     0.014 A 
ATOM     27  C   UNL A   1      35.448  34.622  28.800  1.00  0.00     0.014 A 
ATOM     28  C   UNL A   1      35.096  33.455  31.312  1.00  0.00     0.010 A 
ATOM     29  C   UNL A   1      36.533  34.048  29.457  1.00  0.00     0.010 A 
ATOM     30  C   UNL A   1      36.366  33.447  30.714  1.00  0.00    -0.014 A 
BRANCH  30  31
ATOM     31  C   UNL A   1      37.519  32.778  31.366  1.00  0.00     0.031 A 
ATOM     32  C   UNL A   1      38.198  31.610  30.707  1.00  0.00     0.074 A 
ATOM     33  C   UNL A   1      37.899  33.175  32.596  1.00  0.00     0.049 A 
ATOM     34  N   UNL A   1      39.159  30.848  31.165  1.00  0.00    -0.248 NA
ATOM     35  C   UNL A   1      37.718  31.235  29.369  1.00  0.00     0.031 C 
ATOM     36  C   UNL A   1      37.285  34.262  33.359  1.00  0.00     0.029 A 
ATOM     37  N   UNL A   1      38.881  32.699  33.428  1.00  0.00    -0.354 N 
ATOM     38  C   UNL A   1      39.390  29.898  30.180  1.00  0.00     0.074 A 
ATOM     39  C   UNL A   1      38.437  30.150  29.119  1.00  0.00     0.031 C 
ATOM     40  C   UNL A   1      37.913  34.383  34.538  1.00  0.00     0.029 A 
ATOM     41  C   UNL A   1      38.945  33.356  34.634  1.00  0.00     0.049 A 
ATOM     42  H   UNL A   1      39.483  31.959  33.185  1.00  0.00     0.167 HD
ATOM     43  C   UNL A   1      40.323  28.917  30.155  1.00  0.00     0.037 A 
ATOM     44  C   UNL A   1      39.736  33.143  35.702  1.00  0.00     0.037 A 
ATOM     45  C   UNL A   1      41.283  28.684  31.202  1.00  0.00     0.049 A 
ATOM     46  C   UNL A   1      40.750  32.035  35.656  1.00  0.00     0.074 A 
ATOM     47  C   UNL A   1      42.320  27.769  31.235  1.00  0.00     0.029 A 
ATOM     48  N   UNL A   1      41.318  29.370  32.409  1.00  0.00    -0.354 N 
ATOM     49  N   UNL A   1      41.010  31.192  34.687  1.00  0.00    -0.248 NA
ATOM     50  C   UNL A   1      41.581  31.848  36.854  1.00  0.00     0.031 C 
ATOM     51  C   UNL A   1      42.952  27.866  32.479  1.00  0.00     0.029 A 
ATOM     52  C   UNL A   1      42.339  28.874  33.206  1.00  0.00     0.049 A 
ATOM     53  H   UNL A   1      40.708  30.101  32.661  1.00  0.00     0.167 HD
ATOM     54  C   UNL A   1      42.040  30.386  35.149  1.00  0.00     0.074 A 
ATOM     55  C   UNL A   1      42.374  30.854  36.478  1.00  0.00     0.031 C 
ATOM     56  C   UNL A   1      42.651  29.346  34.530  1.00  0.00     0.037 A 
BRANCH  43  57
ATOM     57  C   UNL A   1      40.359  28.019  28.953  1.00  0.00     0.064 A 
ATOM     58  C   UNL A   1      41.113  28.342  27.816  1.00  0.00     0.173 A 
ATOM     59  C   UNL A   1      39.666  26.798  28.955  1.00  0.00     0.173 A 
ATOM     60  F   UNL A   1      41.786  29.502  27.759  1.00  0.00    -0.203 F 
ATOM     61  C   UNL A   1      41.154  27.489  26.715  1.00  0.00     0.198 A 
ATOM     62  C   UNL A   1      39.731  25.935  27.865  1.00  0.00     0.198 A 
ATOM     63  F   UNL A   1      38.935  26.437  30.021  1.00  0.00    -0.203 F 
ATOM     64  F   UNL A   1      41.847  27.840  25.623  1.00  0.00    -0.200 F 
ATOM     65  C   UNL A   1      40.469  26.283  26.744  1.00  0.00     0.200 A 
ATOM     66  F   UNL A   1      39.080  24.764  27.898  1.00  0.00    -0.200 F 
ATOM     67  F   UNL A   1      40.516  25.461  25.687  1.00  0.00    -0.200 F 
ENDBRANCH  43  57
BRANCH  44  68
ATOM     68  C   UNL A   1      39.602  34.006  36.904  1.00  0.00     0.064 A 
ATOM     69  C   UNL A   1      38.823  33.599  37.996  1.00  0.00     0.173 A 
ATOM     70  C   UNL A   1      40.248  35.247  36.989  1.00  0.00     0.173 A 
ATOM     71  F   UNL A   1      38.169  32.429  37.952  1.00  0.00    -0.203 F 
ATOM     72  C   UNL A   1      38.681  34.409  39.120  1.00  0.00     0.198 A 
ATOM     73  C   UNL A   1      40.128  36.044  38.126  1.00  0.00     0.198 A 
ATOM     74  F   UNL A   1      41.009  35.680  35.973  1.00  0.00    -0.203 F 
ATOM     75  F   UNL A   1      37.897  34.015  40.134  1.00  0.00    -0.200 F 
ATOM     76  C   UNL A   1      39.339  35.628  39.187  1.00  0.00     0.200 A 
ATOM     77  F   UNL A   1      40.777  37.215  38.192  1.00  0.00    -0.200 F 
ATOM     78  F   UNL A   1      39.208  36.404  40.271  1.00  0.00    -0.200 F 
ENDBRANCH  44  68
BRANCH  56  79
ATOM     79  C   UNL A   1      43.746  28.649  35.283  1.00  0.00     0.064 A 
ATOM     80  C   UNL A   1      45.086  29.044  35.155  1.00  0.00     0.173 A 
ATOM     81  C   UNL A   1      43.449  27.602  36.168  1.00  0.00     0.173 A 
ATOM     82  F   UNL A   1      45.421  30.028  34.307  1.00  0.00    -0.203 F 
ATOM     83  C   UNL A   1      46.092  28.400  35.870  1.00  0.00     0.198 A 
ATOM     84  C   UNL A   1      44.455  26.980  36.903  1.00  0.00     0.198 A 
ATOM     85  F   UNL A   1      42.184  27.190  36.330  1.00  0.00    -0.203 F 
ATOM     86  F   UNL A   1      47.371  28.763  35.699  1.00  0.00    -0.200 F 
ATOM     87  C   UNL A   1      45.776  27.374  36.748  1.00  0.00     0.200 A 
ATOM     88  F   UNL A   1      44.147  25.997  37.759  1.00  0.00    -0.200 F 
ATOM     89  F   UNL A   1      46.745  26.761  37.441  1.00  0.00    -0.200 F 
ENDBRANCH  56  79
ENDBRANCH  30  31
ENDBRANCH  22  25
ENDBRANCH  20  21
ENDBRANCH   1  20
TORSDOF 12
ENDMDL
MODEL 3
REMARK VINA RESULT:     -12.3      6.931     12.227
REMARK SMILES Cc1nc(C[N@@H+]2CCC[C@H]2C(=O)NCCCNC(=O)c2ccc(-c3c4nc(c(-c5c(F)c(F)c(F)c(F)c5F)c5ccc([nH]5)c(-c5c(F)c(F)c(F)c(F)c5F)c5nc(c(-c6c(F)c(F)c(F)c(F)c6F)c6ccc3[nH]6)C=C5)C=C4)cc2)cs1
REMARK SMILES IDX 15 1 14 2 13 3 11 4 12 5 10 7 6 8 7 9 8 11 9 12 5 13 4 14
REMARK SMILES IDX 1 15 2 16 3 17 84 18 83 19 16 20 17 21 18 22 19 24 20 25
REMARK SMILES IDX 21 26 82 27 22 28 81 29 23 30 24 31 25 32 75 33 26 34 80 35
REMARK SMILES IDX 74 36 76 37 27 38 79 39 73 40 72 41 28 43 60 44 40 45 59 46
REMARK SMILES IDX 41 47 44 48 58 49 77 50 42 51 43 52 57 54 78 55 45 56 29 57
REMARK SMILES IDX 30 58 38 59 31 60 32 61 36 62 39 63 33 64 34 65 37 66 35 67
REMARK SMILES IDX 61 68 62 69 70 70 63 71 64 72 68 73 71 74 65 75 66 76 69 77
REMARK SMILES IDX 67 78 46 79 47 80 55 81 48 82 49 83 53 84 56 85 50 86 51 87
REMARK SMILES IDX 54 88 52 89
REMARK H PARENT 13 6 6 10 17 23 76 42 44 53
REMARK Flexibility Score: inf
ROOT
ATOM      1  C   UNL A   1      38.107  19.846  25.001  1.00  0.00     0.042 C 
ENDROOT
BRANCH   1   2
ATOM      2  C   UNL A   1      37.283  21.064  24.602  1.00  0.00     0.118 C 
BRANCH   2   3
ATOM      3  N   UNL A   1      36.417  21.512  25.679  1.00  0.00    -0.351 N 
ATOM      4  C   UNL A   1      35.089  21.778  25.773  1.00  0.00     0.278 C 
ATOM      5  O   UNL A   1      34.727  22.215  26.877  1.00  0.00    -0.268 OA
ATOM      6  H   UNL A   1      36.900  21.655  26.525  1.00  0.00     0.163 HD
BRANCH   4   7
ATOM      7  C   UNL A   1      34.046  21.610  24.643  1.00  0.00     0.274 C 
ATOM      8  N   UNL A   1      32.867  20.817  25.021  1.00  0.00    -0.320 N 
ATOM      9  C   UNL A   1      31.796  21.738  25.376  1.00  0.00     0.263 C 
ATOM     10  H   UNL A   1      33.078  20.261  25.849  1.00  0.00     0.349 HD
ATOM     11  C   UNL A   1      32.017  22.977  24.536  1.00  0.00     0.068 C 
ATOM     12  C   UNL A   1      33.510  22.995  24.249  1.00  0.00     0.081 C 
BRANCH   8  13
ATOM     13  C   UNL A   1      32.528  19.737  24.090  1.00  0.00     0.321 C 
BRANCH  13  14
ATOM     14  C   UNL A   1      33.045  18.379  24.460  1.00  0.00     0.106 A 
ATOM     15  C   UNL A   1      32.153  15.079  25.758  1.00  0.00     0.079 C 
ATOM     16  C   UNL A   1      32.795  16.304  25.210  1.00  0.00     0.090 A 
ATOM     17  N   UNL A   1      32.173  17.447  25.012  1.00  0.00    -0.241 NA
ATOM     18  S   UNL A   1      34.459  16.285  24.788  1.00  0.00    -0.127 S 
ATOM     19  C   UNL A   1      34.327  17.903  24.251  1.00  0.00     0.096 A 
ENDBRANCH  13  14
ENDBRANCH   8  13
ENDBRANCH   4   7
ENDBRANCH   2   3
ENDBRANCH   1   2
BRANCH   1  20
ATOM     20  C   UNL A   1      39.190  20.150  26.034  1.00  0.00     0.118 C 
BRANCH  20  21
ATOM     21  N   UNL A   1      40.249  19.147  26.051  1.00  0.00    -0.352 N 
ATOM     22  C   UNL A   1      41.613  19.281  26.126  1.00  0.00     0.251 C 
ATOM     23  H   UNL A   1      39.931  18.216  25.999  1.00  0.00     0.163 HD
ATOM     24  O   UNL A   1      42.331  18.307  25.920  1.00  0.00    -0.269 OA
BRANCH  22  25
ATOM     25  C   UNL A   1      42.228  20.590  26.433  1.00  0.00     0.039 A 
ATOM     26  C   UNL A   1      42.654  21.396  25.373  1.00  0.00     0.014 A 
ATOM     27  C   UNL A   1      42.416  21.013  27.750  1.00  0.00     0.014 A 
ATOM     28  C   UNL A   1      43.186  22.661  25.632  1.00  0.00     0.010 A 
ATOM     29  C   UNL A   1      42.877  22.302  28.005  1.00  0.00     0.010 A 
ATOM     30  C   UNL A   1      43.255  23.143  26.948  1.00  0.00    -0.014 A 
BRANCH  30  31
ATOM     31  C   UNL A   1      43.677  24.537  27.236  1.00  0.00     0.031 A 
ATOM     32  C   UNL A   1      42.686  25.547  27.742  1.00  0.00     0.074 A 
ATOM     33  C   UNL A   1      44.941  24.911  26.958  1.00  0.00     0.049 A 
ATOM     34  N   UNL A   1      42.851  26.826  27.963  1.00  0.00    -0.248 NA
ATOM     35  C   UNL A   1      41.325  25.060  28.012  1.00  0.00     0.031 C 
ATOM     36  C   UNL A   1      45.980  24.034  26.415  1.00  0.00     0.029 A 
ATOM     37  N   UNL A   1      45.562  26.129  27.076  1.00  0.00    -0.354 N 
ATOM     38  C   UNL A   1      41.616  27.300  28.385  1.00  0.00     0.074 A 
ATOM     39  C   UNL A   1      40.699  26.180  28.345  1.00  0.00     0.031 C 
ATOM     40  C   UNL A   1      47.113  24.736  26.264  1.00  0.00     0.029 A 
ATOM     41  C   UNL A   1      46.871  26.120  26.658  1.00  0.00     0.049 A 
ATOM     42  H   UNL A   1      45.115  26.931  27.429  1.00  0.00     0.167 HD
ATOM     43  C   UNL A   1      41.283  28.549  28.788  1.00  0.00     0.037 A 
ATOM     44  C   UNL A   1      47.770  27.120  26.583  1.00  0.00     0.037 A 
ATOM     45  C   UNL A   1      42.204  29.654  28.847  1.00  0.00     0.049 A 
ATOM     46  C   UNL A   1      47.369  28.502  27.017  1.00  0.00     0.074 A 
ATOM     47  C   UNL A   1      41.984  30.937  29.316  1.00  0.00     0.029 A 
ATOM     48  N   UNL A   1      43.523  29.608  28.415  1.00  0.00    -0.354 N 
ATOM     49  N   UNL A   1      46.218  28.920  27.487  1.00  0.00    -0.248 NA
ATOM     50  C   UNL A   1      48.391  29.552  26.908  1.00  0.00     0.031 C 
ATOM     51  C   UNL A   1      43.153  31.681  29.123  1.00  0.00     0.029 A 
ATOM     52  C   UNL A   1      44.117  30.850  28.576  1.00  0.00     0.049 A 
ATOM     53  H   UNL A   1      43.969  28.811  28.048  1.00  0.00     0.167 HD
ATOM     54  C   UNL A   1      46.381  30.273  27.743  1.00  0.00     0.074 A 
ATOM     55  C   UNL A   1      47.748  30.604  27.399  1.00  0.00     0.031 C 
ATOM     56  C   UNL A   1      45.476  31.164  28.217  1.00  0.00     0.037 A 
BRANCH  43  57
ATOM     57  C   UNL A   1      39.861  28.793  29.201  1.00  0.00     0.064 A 
ATOM     58  C   UNL A   1      39.445  28.634  30.531  1.00  0.00     0.173 A 
ATOM     59  C   UNL A   1      38.913  29.234  28.265  1.00  0.00     0.173 A 
ATOM     60  F   UNL A   1      40.311  28.205  31.462  1.00  0.00    -0.203 F 
ATOM     61  C   UNL A   1      38.127  28.884  30.905  1.00  0.00     0.198 A 
ATOM     62  C   UNL A   1      37.603  29.510  28.647  1.00  0.00     0.198 A 
ATOM     63  F   UNL A   1      39.260  29.409  26.981  1.00  0.00    -0.203 F 
ATOM     64  F   UNL A   1      37.742  28.683  32.173  1.00  0.00    -0.200 F 
ATOM     65  C   UNL A   1      37.209  29.328  29.965  1.00  0.00     0.200 A 
ATOM     66  F   UNL A   1      36.719  29.951  27.741  1.00  0.00    -0.200 F 
ATOM     67  F   UNL A   1      35.943  29.575  30.328  1.00  0.00    -0.200 F 
ENDBRANCH  43  57
BRANCH  44  68
ATOM     68  C   UNL A   1      49.142  26.845  26.084  1.00  0.00     0.064 A 
ATOM     69  C   UNL A   1      49.463  27.030  24.732  1.00  0.00     0.173 A 
ATOM     70  C   UNL A   1      50.156  26.397  26.941  1.00  0.00     0.173 A 
ATOM     71  F   UNL A   1      48.520  27.437  23.870  1.00  0.00    -0.203 F 
ATOM     72  C   UNL A   1      50.743  26.760  24.254  1.00  0.00     0.198 A 
ATOM     73  C   UNL A   1      51.444  26.154  26.467  1.00  0.00     0.198 A 
ATOM     74  F   UNL A   1      49.901  26.208  28.244  1.00  0.00    -0.203 F 
ATOM     75  F   UNL A   1      51.013  26.906  22.949  1.00  0.00    -0.200 F 
ATOM     76  C   UNL A   1      51.734  26.329  25.122  1.00  0.00     0.200 A 
ATOM     77  F   UNL A   1      52.402  25.752  27.312  1.00  0.00    -0.200 F 
ATOM     78  F   UNL A   1      52.967  26.077  24.663  1.00  0.00    -0.200 F 
ENDBRANCH  44  68
BRANCH  56  79
ATOM     79  C   UNL A   1      45.939  32.581  28.395  1.00  0.00     0.064 A 
ATOM     80  C   UNL A   1      45.788  33.532  27.375  1.00  0.00     0.173 A 
ATOM     81  C   UNL A   1      46.507  33.000  29.608  1.00  0.00     0.173 A 
ATOM     82  F   UNL A   1      45.268  33.175  26.191  1.00  0.00    -0.203 F 
ATOM     83  C   UNL A   1      46.208  34.846  27.556  1.00  0.00     0.198 A 
ATOM     84  C   UNL A   1      46.899  34.322  29.795  1.00  0.00     0.198 A 
ATOM     85  F   UNL A   1      46.669  32.130  30.615  1.00  0.00    -0.203 F 
ATOM     86  F   UNL A   1      46.094  35.728  26.553  1.00  0.00    -0.200 F 
ATOM     87  C   UNL A   1      46.755  35.243  28.767  1.00  0.00     0.200 A 
ATOM     88  F   UNL A   1      47.417  34.706  30.969  1.00  0.00    -0.200 F 
ATOM     89  F   UNL A   1      47.152  36.511  28.942  1.00  0.00    -0.200 F 
ENDBRANCH  56  79
ENDBRANCH  30  31
ENDBRANCH  22  25
ENDBRANCH  20  21
ENDBRANCH   1  20
TORSDOF 12
ENDMDL
