MODEL 1
REMARK VINA RESULT:     -11.6      0.000      0.000
REMARK SMILES O=C(C[C@H]1C[C@H]2CC[C@@H](C1)N2C(=O)NCCC1CC1)NCCCNC(=O)c1ccc(-c2c3nc(c(-c4c(F)c(F)c(F)c(F)c4F)c4ccc([nH]4)c(-c4c(F)c(F)c(F)c(F)c4F)c4nc(c(-c5c(F)c(F)c(F)c(F)c5F)c5ccc2[nH]5)C=C4)C=C3)cc1
REMARK SMILES IDX 1 1 2 2 20 3 3 5 4 6 5 7 10 8 6 9 9 10 7 11 11 12 8 13 12 14
REMARK SMILES IDX 13 15 14 16 15 18 16 19 17 20 18 21 19 22 21 23 22 24 23 25
REMARK SMILES IDX 24 26 25 27 26 29 27 30 28 31 89 32 29 33 88 34 30 35 31 36
REMARK SMILES IDX 32 37 82 38 33 39 87 40 81 41 83 42 34 43 86 44 80 45 79 46
REMARK SMILES IDX 35 48 67 49 47 50 66 51 48 52 51 53 65 54 84 55 49 56 50 57
REMARK SMILES IDX 64 59 85 60 52 61 36 62 37 63 45 64 38 65 39 66 43 67 46 68
REMARK SMILES IDX 40 69 41 70 44 71 42 72 68 73 69 74 77 75 70 76 71 77 75 78
REMARK SMILES IDX 78 79 72 80 73 81 76 82 74 83 53 84 54 85 62 86 55 87 56 88
REMARK SMILES IDX 60 89 63 90 57 91 58 92 61 93 59 94
REMARK H PARENT 20 4 14 17 24 28 83 47 51 58
REMARK Flexibility Score: inf
ROOT
ATOM      1  O   UNL A   1      36.880  23.366  22.890  1.00  0.00    -0.275 OA
ATOM      2  C   UNL A   1      36.104  22.610  23.470  1.00  0.00     0.220 C 
ATOM      3  N   UNL A   1      36.504  21.801  24.508  1.00  0.00    -0.356 N 
ATOM      4  H   UNL A   1      35.816  21.231  24.919  1.00  0.00     0.163 HD
ENDROOT
BRANCH   2   5
ATOM      5  C   UNL A   1      34.593  22.646  23.181  1.00  0.00     0.103 C 
BRANCH   5   6
ATOM      6  C   UNL A   1      33.707  23.824  23.671  1.00  0.00     0.002 C 
ATOM      7  C   UNL A   1      32.193  23.670  23.538  1.00  0.00     0.029 C 
ATOM      8  C   UNL A   1      34.011  24.243  25.147  1.00  0.00     0.029 C 
ATOM      9  C   UNL A   1      31.575  22.849  24.683  1.00  0.00     0.087 C 
ATOM     10  C   UNL A   1      33.101  23.597  26.244  1.00  0.00     0.087 C 
ATOM     11  C   UNL A   1      32.314  21.589  25.189  1.00  0.00     0.027 C 
ATOM     12  N   UNL A   1      31.688  23.681  25.866  1.00  0.00    -0.319 N 
ATOM     13  C   UNL A   1      33.285  22.082  26.276  1.00  0.00     0.027 C 
BRANCH  12  14
ATOM     14  C   UNL A   1      30.533  24.003  26.497  1.00  0.00     0.317 C 
ATOM     15  O   UNL A   1      30.099  23.316  27.429  1.00  0.00    -0.249 OA
ATOM     16  N   UNL A   1      29.810  25.091  26.217  1.00  0.00    -0.338 N 
ATOM     17  H   UNL A   1      29.072  25.220  26.857  1.00  0.00     0.165 HD
BRANCH  16  18
ATOM     18  C   UNL A   1      29.842  26.124  25.209  1.00  0.00     0.118 C 
BRANCH  18  19
ATOM     19  C   UNL A   1      31.162  26.895  25.272  1.00  0.00     0.025 C 
BRANCH  19  20
ATOM     20  C   UNL A   1      31.537  27.204  26.698  1.00  0.00    -0.009 C 
ATOM     21  C   UNL A   1      32.896  27.756  27.041  1.00  0.00     0.004 C 
ATOM     22  C   UNL A   1      31.679  28.627  27.178  1.00  0.00     0.004 C 
ENDBRANCH  19  20
ENDBRANCH  18  19
ENDBRANCH  16  18
ENDBRANCH  12  14
ENDBRANCH   5   6
ENDBRANCH   2   5
BRANCH   3  23
ATOM     23  C   UNL A   1      37.844  21.712  25.049  1.00  0.00     0.117 C 
BRANCH  23  24
ATOM     24  C   UNL A   1      38.397  20.287  24.956  1.00  0.00     0.042 C 
BRANCH  24  25
ATOM     25  C   UNL A   1      39.116  19.737  26.192  1.00  0.00     0.118 C 
BRANCH  25  26
ATOM     26  N   UNL A   1      40.293  18.938  25.915  1.00  0.00    -0.352 N 
ATOM     27  C   UNL A   1      41.627  19.276  25.977  1.00  0.00     0.251 C 
ATOM     28  H   UNL A   1      40.112  18.011  25.642  1.00  0.00     0.163 HD
ATOM     29  O   UNL A   1      42.468  18.447  25.645  1.00  0.00    -0.269 OA
BRANCH  27  30
ATOM     30  C   UNL A   1      42.069  20.634  26.385  1.00  0.00     0.039 A 
ATOM     31  C   UNL A   1      42.264  21.585  25.378  1.00  0.00     0.014 A 
ATOM     32  C   UNL A   1      42.337  20.976  27.713  1.00  0.00     0.014 A 
ATOM     33  C   UNL A   1      42.670  22.883  25.703  1.00  0.00     0.010 A 
ATOM     34  C   UNL A   1      42.679  22.293  28.043  1.00  0.00     0.010 A 
ATOM     35  C   UNL A   1      42.854  23.263  27.042  1.00  0.00    -0.014 A 
BRANCH  35  36
ATOM     36  C   UNL A   1      43.236  24.664  27.381  1.00  0.00     0.031 A 
ATOM     37  C   UNL A   1      44.631  25.167  27.126  1.00  0.00     0.074 A 
ATOM     38  C   UNL A   1      42.324  25.494  27.929  1.00  0.00     0.049 A 
ATOM     39  N   UNL A   1      45.136  26.360  27.334  1.00  0.00    -0.248 NA
ATOM     40  C   UNL A   1      45.596  24.199  26.584  1.00  0.00     0.031 C 
ATOM     41  C   UNL A   1      40.948  25.130  28.267  1.00  0.00     0.029 A 
ATOM     42  N   UNL A   1      42.416  26.815  28.294  1.00  0.00    -0.354 N 
ATOM     43  C   UNL A   1      46.468  26.284  26.952  1.00  0.00     0.074 A 
ATOM     44  C   UNL A   1      46.712  24.912  26.556  1.00  0.00     0.031 C 
ATOM     45  C   UNL A   1      40.315  26.208  28.759  1.00  0.00     0.029 A 
ATOM     46  C   UNL A   1      41.248  27.330  28.804  1.00  0.00     0.049 A 
ATOM     47  H   UNL A   1      43.240  27.344  28.199  1.00  0.00     0.167 HD
ATOM     48  C   UNL A   1      47.399  27.269  26.908  1.00  0.00     0.037 A 
ATOM     49  C   UNL A   1      40.958  28.566  29.257  1.00  0.00     0.037 A 
ATOM     50  C   UNL A   1      47.158  28.637  27.288  1.00  0.00     0.049 A 
ATOM     51  C   UNL A   1      42.014  29.639  29.211  1.00  0.00     0.074 A 
ATOM     52  C   UNL A   1      48.028  29.714  27.237  1.00  0.00     0.029 A 
ATOM     53  N   UNL A   1      45.961  29.119  27.797  1.00  0.00    -0.354 N 
ATOM     54  N   UNL A   1      43.250  29.569  28.780  1.00  0.00    -0.248 NA
ATOM     55  C   UNL A   1      41.628  30.970  29.702  1.00  0.00     0.031 C 
ATOM     56  C   UNL A   1      47.376  30.832  27.766  1.00  0.00     0.029 A 
ATOM     57  C   UNL A   1      46.076  30.470  28.083  1.00  0.00     0.049 A 
ATOM     58  H   UNL A   1      45.148  28.580  27.934  1.00  0.00     0.167 HD
ATOM     59  C   UNL A   1      43.773  30.850  28.910  1.00  0.00     0.074 A 
ATOM     60  C   UNL A   1      42.717  31.680  29.448  1.00  0.00     0.031 C 
ATOM     61  C   UNL A   1      45.017  31.296  28.605  1.00  0.00     0.037 A 
BRANCH  48  62
ATOM     62  C   UNL A   1      48.777  26.901  26.430  1.00  0.00     0.064 A 
ATOM     63  C   UNL A   1      49.163  27.071  25.091  1.00  0.00     0.173 A 
ATOM     64  C   UNL A   1      49.736  26.410  27.329  1.00  0.00     0.173 A 
ATOM     65  F   UNL A   1      48.284  27.530  24.187  1.00  0.00    -0.203 F 
ATOM     66  C   UNL A   1      50.444  26.730  24.664  1.00  0.00     0.198 A 
ATOM     67  C   UNL A   1      51.027  26.103  26.905  1.00  0.00     0.198 A 
ATOM     68  F   UNL A   1      49.427  26.237  28.623  1.00  0.00    -0.203 F 
ATOM     69  F   UNL A   1      50.771  26.849  23.370  1.00  0.00    -0.200 F 
ATOM     70  C   UNL A   1      51.377  26.253  25.573  1.00  0.00     0.200 A 
ATOM     71  F   UNL A   1      51.933  25.658  27.788  1.00  0.00    -0.200 F 
ATOM     72  F   UNL A   1      52.612  25.933  25.162  1.00  0.00    -0.200 F 
ENDBRANCH  48  62
BRANCH  49  73
ATOM     73  C   UNL A   1      39.594  28.871  29.768  1.00  0.00     0.064 A 
ATOM     74  C   UNL A   1      38.618  29.438  28.935  1.00  0.00     0.173 A 
ATOM     75  C   UNL A   1      39.247  28.627  31.105  1.00  0.00     0.173 A 
ATOM     76  F   UNL A   1      38.909  29.713  27.655  1.00  0.00    -0.203 F 
ATOM     77  C   UNL A   1      37.358  29.773  29.426  1.00  0.00     0.198 A 
ATOM     78  C   UNL A   1      37.974  28.932  31.585  1.00  0.00     0.198 A 
ATOM     79  F   UNL A   1      40.140  28.084  31.944  1.00  0.00    -0.203 F 
ATOM     80  F   UNL A   1      36.465  30.367  28.621  1.00  0.00    -0.200 F 
ATOM     81  C   UNL A   1      37.035  29.515  30.749  1.00  0.00     0.200 A 
ATOM     82  F   UNL A   1      37.662  28.668  32.861  1.00  0.00    -0.200 F 
ATOM     83  F   UNL A   1      35.823  29.838  31.220  1.00  0.00    -0.200 F 
ENDBRANCH  49  73
BRANCH  61  84
ATOM     84  C   UNL A   1      45.291  32.764  28.790  1.00  0.00     0.064 A 
ATOM     85  C   UNL A   1      45.870  33.272  29.962  1.00  0.00     0.173 A 
ATOM     86  C   UNL A   1      44.989  33.672  27.763  1.00  0.00     0.173 A 
ATOM     87  F   UNL A   1      46.169  32.451  30.980  1.00  0.00    -0.203 F 
ATOM     88  C   UNL A   1      46.102  34.638  30.113  1.00  0.00     0.198 A 
ATOM     89  C   UNL A   1      45.254  35.031  27.903  1.00  0.00     0.198 A 
ATOM     90  F   UNL A   1      44.441  33.240  26.617  1.00  0.00    -0.203 F 
ATOM     91  F   UNL A   1      46.599  35.107  31.265  1.00  0.00    -0.200 F 
ATOM     92  C   UNL A   1      45.800  35.515  29.082  1.00  0.00     0.200 A 
ATOM     93  F   UNL A   1      44.978  35.875  26.898  1.00  0.00    -0.200 F 
ATOM     94  F   UNL A   1      46.027  36.828  29.229  1.00  0.00    -0.200 F 
ENDBRANCH  61  84
ENDBRANCH  35  36
ENDBRANCH  27  30
ENDBRANCH  25  26
ENDBRANCH  24  25
ENDBRANCH  23  24
ENDBRANCH   3  23
TORSDOF 15
ENDMDL
MODEL 2
REMARK VINA RESULT:     -11.6      5.142     10.693
REMARK SMILES O=C(C[C@H]1C[C@H]2CC[C@@H](C1)N2C(=O)NCCC1CC1)NCCCNC(=O)c1ccc(-c2c3nc(c(-c4c(F)c(F)c(F)c(F)c4F)c4ccc([nH]4)c(-c4c(F)c(F)c(F)c(F)c4F)c4nc(c(-c5c(F)c(F)c(F)c(F)c5F)c5ccc2[nH]5)C=C4)C=C3)cc1
REMARK SMILES IDX 1 1 2 2 20 3 3 5 4 6 5 7 10 8 6 9 9 10 7 11 11 12 8 13 12 14
REMARK SMILES IDX 13 15 14 16 15 18 16 19 17 20 18 21 19 22 21 23 22 24 23 25
REMARK SMILES IDX 24 26 25 27 26 29 27 30 28 31 89 32 29 33 88 34 30 35 31 36
REMARK SMILES IDX 32 37 82 38 33 39 87 40 81 41 83 42 34 43 86 44 80 45 79 46
REMARK SMILES IDX 35 48 67 49 47 50 66 51 48 52 51 53 65 54 84 55 49 56 50 57
REMARK SMILES IDX 64 59 85 60 52 61 36 62 37 63 45 64 38 65 39 66 43 67 46 68
REMARK SMILES IDX 40 69 41 70 44 71 42 72 68 73 69 74 77 75 70 76 71 77 75 78
REMARK SMILES IDX 78 79 72 80 73 81 76 82 74 83 53 84 54 85 62 86 55 87 56 88
REMARK SMILES IDX 60 89 63 90 57 91 58 92 61 93 59 94
REMARK H PARENT 20 4 14 17 24 28 83 47 51 58
REMARK Flexibility Score: inf
ROOT
ATOM      1  O   UNL A   1      31.492  28.865  23.270  1.00  0.00    -0.275 OA
ATOM      2  C   UNL A   1      32.307  28.904  24.189  1.00  0.00     0.220 C 
ATOM      3  N   UNL A   1      32.226  29.826  25.206  1.00  0.00    -0.356 N 
ATOM      4  H   UNL A   1      32.918  29.782  25.904  1.00  0.00     0.163 HD
ENDROOT
BRANCH   2   5
ATOM      5  C   UNL A   1      33.380  27.811  24.347  1.00  0.00     0.103 C 
BRANCH   5   6
ATOM      6  C   UNL A   1      33.412  26.891  25.598  1.00  0.00     0.002 C 
ATOM      7  C   UNL A   1      32.075  26.544  26.252  1.00  0.00     0.029 C 
ATOM      8  C   UNL A   1      34.179  25.550  25.350  1.00  0.00     0.029 C 
ATOM      9  C   UNL A   1      31.345  25.394  25.539  1.00  0.00     0.087 C 
ATOM     10  C   UNL A   1      33.299  24.324  24.937  1.00  0.00     0.087 C 
ATOM     11  C   UNL A   1      31.343  25.347  23.993  1.00  0.00     0.027 C 
ATOM     12  N   UNL A   1      32.129  24.203  25.811  1.00  0.00    -0.319 N 
ATOM     13  C   UNL A   1      32.614  24.576  23.597  1.00  0.00     0.027 C 
BRANCH  12  14
ATOM     14  C   UNL A   1      31.496  23.190  26.450  1.00  0.00     0.317 C 
ATOM     15  O   UNL A   1      30.781  23.401  27.437  1.00  0.00    -0.249 OA
ATOM     16  N   UNL A   1      31.537  21.916  26.048  1.00  0.00    -0.338 N 
ATOM     17  H   UNL A   1      30.922  21.345  26.564  1.00  0.00     0.165 HD
BRANCH  16  18
ATOM     18  C   UNL A   1      32.260  21.169  25.046  1.00  0.00     0.118 C 
BRANCH  18  19
ATOM     19  C   UNL A   1      33.535  20.569  25.639  1.00  0.00     0.025 C 
BRANCH  19  20
ATOM     20  C   UNL A   1      34.759  21.137  24.971  1.00  0.00    -0.009 C 
ATOM     21  C   UNL A   1      35.883  21.727  25.782  1.00  0.00     0.004 C 
ATOM     22  C   UNL A   1      36.091  20.432  25.048  1.00  0.00     0.004 C 
ENDBRANCH  19  20
ENDBRANCH  18  19
ENDBRANCH  16  18
ENDBRANCH  12  14
ENDBRANCH   5   6
ENDBRANCH   2   5
BRANCH   3  23
ATOM     23  C   UNL A   1      31.216  30.853  25.344  1.00  0.00     0.117 C 
BRANCH  23  24
ATOM     24  C   UNL A   1      31.331  31.582  26.686  1.00  0.00     0.042 C 
BRANCH  24  25
ATOM     25  C   UNL A   1      32.597  32.411  26.921  1.00  0.00     0.118 C 
BRANCH  25  26
ATOM     26  N   UNL A   1      32.373  33.737  27.464  1.00  0.00    -0.352 N 
ATOM     27  C   UNL A   1      33.091  34.443  28.403  1.00  0.00     0.251 C 
ATOM     28  H   UNL A   1      31.586  34.206  27.105  1.00  0.00     0.163 HD
ATOM     29  O   UNL A   1      32.687  35.545  28.759  1.00  0.00    -0.269 OA
BRANCH  27  30
ATOM     30  C   UNL A   1      34.314  33.881  29.033  1.00  0.00     0.039 A 
ATOM     31  C   UNL A   1      34.150  32.864  29.979  1.00  0.00     0.014 A 
ATOM     32  C   UNL A   1      35.597  34.357  28.753  1.00  0.00     0.014 A 
ATOM     33  C   UNL A   1      35.264  32.289  30.598  1.00  0.00     0.010 A 
ATOM     34  C   UNL A   1      36.716  33.737  29.322  1.00  0.00     0.010 A 
ATOM     35  C   UNL A   1      36.563  32.697  30.256  1.00  0.00    -0.014 A 
BRANCH  35  36
ATOM     36  C   UNL A   1      37.747  32.042  30.883  1.00  0.00     0.031 A 
ATOM     37  C   UNL A   1      38.194  32.419  32.270  1.00  0.00     0.074 A 
ATOM     38  C   UNL A   1      38.434  31.103  30.199  1.00  0.00     0.049 A 
ATOM     39  N   UNL A   1      39.184  31.938  32.984  1.00  0.00    -0.248 NA
ATOM     40  C   UNL A   1      37.443  33.491  32.939  1.00  0.00     0.031 C 
ATOM     41  C   UNL A   1      38.139  30.668  28.835  1.00  0.00     0.029 A 
ATOM     42  N   UNL A   1      39.519  30.342  30.562  1.00  0.00    -0.354 N 
ATOM     43  C   UNL A   1      39.174  32.647  34.177  1.00  0.00     0.074 A 
ATOM     44  C   UNL A   1      38.119  33.633  34.070  1.00  0.00     0.031 C 
ATOM     45  C   UNL A   1      38.998  29.697  28.486  1.00  0.00     0.029 A 
ATOM     46  C   UNL A   1      39.927  29.462  29.588  1.00  0.00     0.049 A 
ATOM     47  H   UNL A   1      39.963  30.418  31.437  1.00  0.00     0.167 HD
ATOM     48  C   UNL A   1      39.953  32.478  35.274  1.00  0.00     0.037 A 
ATOM     49  C   UNL A   1      40.934  28.567  29.579  1.00  0.00     0.037 A 
ATOM     50  C   UNL A   1      40.995  31.491  35.391  1.00  0.00     0.049 A 
ATOM     51  C   UNL A   1      41.795  28.409  30.806  1.00  0.00     0.074 A 
ATOM     52  C   UNL A   1      41.808  31.217  36.479  1.00  0.00     0.029 A 
ATOM     53  N   UNL A   1      41.376  30.618  34.383  1.00  0.00    -0.354 N 
ATOM     54  N   UNL A   1      41.728  29.038  31.953  1.00  0.00    -0.248 NA
ATOM     55  C   UNL A   1      42.865  27.402  30.739  1.00  0.00     0.031 C 
ATOM     56  C   UNL A   1      42.715  30.218  36.110  1.00  0.00     0.029 A 
ATOM     57  C   UNL A   1      42.424  29.820  34.815  1.00  0.00     0.049 A 
ATOM     58  H   UNL A   1      40.962  30.571  33.490  1.00  0.00     0.167 HD
ATOM     59  C   UNL A   1      42.715  28.477  32.756  1.00  0.00     0.074 A 
ATOM     60  C   UNL A   1      43.358  27.449  31.967  1.00  0.00     0.031 C 
ATOM     61  C   UNL A   1      43.052  28.787  34.032  1.00  0.00     0.037 A 
BRANCH  48  62
ATOM     62  C   UNL A   1      39.708  33.389  36.446  1.00  0.00     0.064 A 
ATOM     63  C   UNL A   1      40.364  34.623  36.571  1.00  0.00     0.173 A 
ATOM     64  C   UNL A   1      38.777  33.041  37.436  1.00  0.00     0.173 A 
ATOM     65  F   UNL A   1      41.270  35.002  35.656  1.00  0.00    -0.203 F 
ATOM     66  C   UNL A   1      40.124  35.458  37.660  1.00  0.00     0.198 A 
ATOM     67  C   UNL A   1      38.513  33.894  38.506  1.00  0.00     0.198 A 
ATOM     68  F   UNL A   1      38.112  31.878  37.364  1.00  0.00    -0.203 F 
ATOM     69  F   UNL A   1      40.804  36.606  37.785  1.00  0.00    -0.200 F 
ATOM     70  C   UNL A   1      39.193  35.096  38.622  1.00  0.00     0.200 A 
ATOM     71  F   UNL A   1      37.601  33.550  39.426  1.00  0.00    -0.200 F 
ATOM     72  F   UNL A   1      38.957  35.903  39.665  1.00  0.00    -0.200 F 
ENDBRANCH  48  62
BRANCH  49  73
ATOM     73  C   UNL A   1      41.172  27.722  28.378  1.00  0.00     0.064 A 
ATOM     74  C   UNL A   1      42.072  28.121  27.378  1.00  0.00     0.173 A 
ATOM     75  C   UNL A   1      40.486  26.513  28.191  1.00  0.00     0.173 A 
ATOM     76  F   UNL A   1      42.734  29.281  27.499  1.00  0.00    -0.203 F 
ATOM     77  C   UNL A   1      42.256  27.357  26.228  1.00  0.00     0.198 A 
ATOM     78  C   UNL A   1      40.697  25.734  27.055  1.00  0.00     0.198 A 
ATOM     79  F   UNL A   1      39.616  26.083  29.116  1.00  0.00    -0.203 F 
ATOM     80  F   UNL A   1      43.079  27.792  25.263  1.00  0.00    -0.200 F 
ATOM     81  C   UNL A   1      41.573  26.161  26.069  1.00  0.00     0.200 A 
ATOM     82  F   UNL A   1      40.045  24.572  26.912  1.00  0.00    -0.200 F 
ATOM     83  F   UNL A   1      41.750  25.427  24.963  1.00  0.00    -0.200 F 
ENDBRANCH  49  73
BRANCH  61  84
ATOM     84  C   UNL A   1      44.130  27.963  34.682  1.00  0.00     0.064 A 
ATOM     85  C   UNL A   1      45.476  28.358  34.675  1.00  0.00     0.173 A 
ATOM     86  C   UNL A   1      43.803  26.770  35.346  1.00  0.00     0.173 A 
ATOM     87  F   UNL A   1      45.847  29.483  34.045  1.00  0.00    -0.203 F 
ATOM     88  C   UNL A   1      46.457  27.571  35.273  1.00  0.00     0.198 A 
ATOM     89  C   UNL A   1      44.780  26.004  35.974  1.00  0.00     0.198 A 
ATOM     90  F   UNL A   1      42.530  26.349  35.392  1.00  0.00    -0.203 F 
ATOM     91  F   UNL A   1      47.744  27.937  35.200  1.00  0.00    -0.200 F 
ATOM     92  C   UNL A   1      46.108  26.398  35.928  1.00  0.00     0.200 A 
ATOM     93  F   UNL A   1      44.438  24.881  36.621  1.00  0.00    -0.200 F 
ATOM     94  F   UNL A   1      47.054  25.645  36.506  1.00  0.00    -0.200 F 
ENDBRANCH  61  84
ENDBRANCH  35  36
ENDBRANCH  27  30
ENDBRANCH  25  26
ENDBRANCH  24  25
ENDBRANCH  23  24
ENDBRANCH   3  23
TORSDOF 15
ENDMDL
MODEL 3
REMARK VINA RESULT:     -11.6      4.601     10.095
REMARK SMILES O=C(C[C@H]1C[C@H]2CC[C@@H](C1)N2C(=O)NCCC1CC1)NCCCNC(=O)c1ccc(-c2c3nc(c(-c4c(F)c(F)c(F)c(F)c4F)c4ccc([nH]4)c(-c4c(F)c(F)c(F)c(F)c4F)c4nc(c(-c5c(F)c(F)c(F)c(F)c5F)c5ccc2[nH]5)C=C4)C=C3)cc1
REMARK SMILES IDX 1 1 2 2 20 3 3 5 4 6 5 7 10 8 6 9 9 10 7 11 11 12 8 13 12 14
REMARK SMILES IDX 13 15 14 16 15 18 16 19 17 20 18 21 19 22 21 23 22 24 23 25
REMARK SMILES IDX 24 26 25 27 26 29 27 30 28 31 89 32 29 33 88 34 30 35 31 36
REMARK SMILES IDX 32 37 82 38 33 39 87 40 81 41 83 42 34 43 86 44 80 45 79 46
REMARK SMILES IDX 35 48 67 49 47 50 66 51 48 52 51 53 65 54 84 55 49 56 50 57
REMARK SMILES IDX 64 59 85 60 52 61 36 62 37 63 45 64 38 65 39 66 43 67 46 68
REMARK SMILES IDX 40 69 41 70 44 71 42 72 68 73 69 74 77 75 70 76 71 77 75 78
REMARK SMILES IDX 78 79 72 80 73 81 76 82 74 83 53 84 54 85 62 86 55 87 56 88
REMARK SMILES IDX 60 89 63 90 57 91 58 92 61 93 59 94
REMARK H PARENT 20 4 14 17 24 28 83 47 51 58
REMARK Flexibility Score: inf
ROOT
ATOM      1  O   UNL A   1      33.938  26.460  21.735  1.00  0.00    -0.275 OA
ATOM      2  C   UNL A   1      32.937  26.325  22.434  1.00  0.00     0.220 C 
ATOM      3  N   UNL A   1      32.374  27.373  23.123  1.00  0.00    -0.356 N 
ATOM      4  H   UNL A   1      31.570  27.176  23.655  1.00  0.00     0.163 HD
ENDROOT
BRANCH   2   5
ATOM      5  C   UNL A   1      32.151  25.002  22.450  1.00  0.00     0.103 C 
BRANCH   5   6
ATOM      6  C   UNL A   1      32.844  23.658  22.804  1.00  0.00     0.002 C 
ATOM      7  C   UNL A   1      33.974  23.697  23.832  1.00  0.00     0.029 C 
ATOM      8  C   UNL A   1      31.835  22.550  23.253  1.00  0.00     0.029 C 
ATOM      9  C   UNL A   1      33.461  23.708  25.281  1.00  0.00     0.087 C 
ATOM     10  C   UNL A   1      31.616  22.409  24.796  1.00  0.00     0.087 C 
ATOM     11  C   UNL A   1      32.229  24.573  25.636  1.00  0.00     0.027 C 
ATOM     12  N   UNL A   1      32.897  22.390  25.506  1.00  0.00    -0.319 N 
ATOM     13  C   UNL A   1      31.002  23.681  25.374  1.00  0.00     0.027 C 
BRANCH  12  14
ATOM     14  C   UNL A   1      33.437  21.660  26.513  1.00  0.00     0.317 C 
ATOM     15  O   UNL A   1      33.992  22.206  27.473  1.00  0.00    -0.249 OA
ATOM     16  N   UNL A   1      33.370  20.328  26.585  1.00  0.00    -0.338 N 
ATOM     17  H   UNL A   1      33.712  19.986  27.443  1.00  0.00     0.165 HD
BRANCH  16  18
ATOM     18  C   UNL A   1      32.920  19.265  25.717  1.00  0.00     0.118 C 
BRANCH  18  19
ATOM     19  C   UNL A   1      33.871  19.103  24.530  1.00  0.00     0.025 C 
BRANCH  19  20
ATOM     20  C   UNL A   1      34.287  17.665  24.366  1.00  0.00    -0.009 C 
ATOM     21  C   UNL A   1      33.264  16.560  24.324  1.00  0.00     0.004 C 
ATOM     22  C   UNL A   1      34.029  16.917  23.082  1.00  0.00     0.004 C 
ENDBRANCH  19  20
ENDBRANCH  18  19
ENDBRANCH  16  18
ENDBRANCH  12  14
ENDBRANCH   5   6
ENDBRANCH   2   5
BRANCH   3  23
ATOM     23  C   UNL A   1      32.855  28.739  23.136  1.00  0.00     0.117 C 
BRANCH  23  24
ATOM     24  C   UNL A   1      33.631  29.051  24.419  1.00  0.00     0.042 C 
BRANCH  24  25
ATOM     25  C   UNL A   1      32.817  29.178  25.711  1.00  0.00     0.118 C 
BRANCH  25  26
ATOM     26  N   UNL A   1      32.521  30.537  26.122  1.00  0.00    -0.352 N 
ATOM     27  C   UNL A   1      33.192  31.365  26.994  1.00  0.00     0.251 C 
ATOM     28  H   UNL A   1      31.717  30.930  25.712  1.00  0.00     0.163 HD
ATOM     29  O   UNL A   1      32.730  32.474  27.239  1.00  0.00    -0.269 OA
BRANCH  27  30
ATOM     30  C   UNL A   1      34.432  30.928  27.686  1.00  0.00     0.039 A 
ATOM     31  C   UNL A   1      35.376  31.907  28.011  1.00  0.00     0.014 A 
ATOM     32  C   UNL A   1      34.704  29.589  27.978  1.00  0.00     0.014 A 
ATOM     33  C   UNL A   1      36.557  31.556  28.672  1.00  0.00     0.010 A 
ATOM     34  C   UNL A   1      35.855  29.247  28.698  1.00  0.00     0.010 A 
ATOM     35  C   UNL A   1      36.799  30.226  29.051  1.00  0.00    -0.014 A 
BRANCH  35  36
ATOM     36  C   UNL A   1      38.037  29.870  29.802  1.00  0.00     0.031 A 
ATOM     37  C   UNL A   1      38.276  30.399  31.191  1.00  0.00     0.074 A 
ATOM     38  C   UNL A   1      38.961  29.070  29.231  1.00  0.00     0.049 A 
ATOM     39  N   UNL A   1      39.282  30.176  32.003  1.00  0.00    -0.248 NA
ATOM     40  C   UNL A   1      37.263  31.316  31.735  1.00  0.00     0.031 C 
ATOM     41  C   UNL A   1      38.879  28.517  27.880  1.00  0.00     0.029 A 
ATOM     42  N   UNL A   1      40.148  28.577  29.719  1.00  0.00    -0.354 N 
ATOM     43  C   UNL A   1      39.023  30.922  33.145  1.00  0.00     0.074 A 
ATOM     44  C   UNL A   1      37.796  31.652  32.900  1.00  0.00     0.031 C 
ATOM     45  C   UNL A   1      39.950  27.738  27.656  1.00  0.00     0.029 A 
ATOM     46  C   UNL A   1      40.811  27.760  28.835  1.00  0.00     0.049 A 
ATOM     47  H   UNL A   1      40.490  28.788  30.617  1.00  0.00     0.167 HD
ATOM     48  C   UNL A   1      39.725  30.976  34.304  1.00  0.00     0.037 A 
ATOM     49  C   UNL A   1      41.981  27.103  28.957  1.00  0.00     0.037 A 
ATOM     50  C   UNL A   1      40.938  30.242  34.559  1.00  0.00     0.049 A 
ATOM     51  C   UNL A   1      42.750  27.191  30.249  1.00  0.00     0.074 A 
ATOM     52  C   UNL A   1      41.696  30.201  35.718  1.00  0.00     0.029 A 
ATOM     53  N   UNL A   1      41.577  29.424  33.638  1.00  0.00    -0.354 N 
ATOM     54  N   UNL A   1      42.456  27.844  31.346  1.00  0.00    -0.248 NA
ATOM     55  C   UNL A   1      44.009  26.435  30.324  1.00  0.00     0.031 C 
ATOM     56  C   UNL A   1      42.820  29.404  35.480  1.00  0.00     0.029 A 
ATOM     57  C   UNL A   1      42.729  28.892  34.195  1.00  0.00     0.049 A 
ATOM     58  H   UNL A   1      41.258  29.248  32.723  1.00  0.00     0.167 HD
ATOM     59  C   UNL A   1      43.468  27.547  32.252  1.00  0.00     0.074 A 
ATOM     60  C   UNL A   1      44.377  26.644  31.580  1.00  0.00     0.031 C 
ATOM     61  C   UNL A   1      43.624  27.981  33.527  1.00  0.00     0.037 A 
BRANCH  48  62
ATOM     62  C   UNL A   1      39.197  31.867  35.395  1.00  0.00     0.064 A 
ATOM     63  C   UNL A   1      38.380  31.370  36.422  1.00  0.00     0.173 A 
ATOM     64  C   UNL A   1      39.544  33.226  35.437  1.00  0.00     0.173 A 
ATOM     65  F   UNL A   1      38.010  30.080  36.427  1.00  0.00    -0.203 F 
ATOM     66  C   UNL A   1      37.901  32.206  37.428  1.00  0.00     0.198 A 
ATOM     67  C   UNL A   1      39.093  34.051  36.464  1.00  0.00     0.198 A 
ATOM     68  F   UNL A   1      40.332  33.754  34.487  1.00  0.00    -0.203 F 
ATOM     69  F   UNL A   1      37.077  31.720  38.366  1.00  0.00    -0.200 F 
ATOM     70  C   UNL A   1      38.265  33.544  37.452  1.00  0.00     0.200 A 
ATOM     71  F   UNL A   1      39.459  35.341  36.495  1.00  0.00    -0.200 F 
ATOM     72  F   UNL A   1      37.810  34.346  38.425  1.00  0.00    -0.200 F 
ENDBRANCH  48  62
BRANCH  49  73
ATOM     73  C   UNL A   1      42.491  26.273  27.831  1.00  0.00     0.064 A 
ATOM     74  C   UNL A   1      43.420  26.788  26.915  1.00  0.00     0.173 A 
ATOM     75  C   UNL A   1      42.042  24.959  27.635  1.00  0.00     0.173 A 
ATOM     76  F   UNL A   1      43.862  28.047  27.046  1.00  0.00    -0.203 F 
ATOM     77  C   UNL A   1      43.858  26.030  25.831  1.00  0.00     0.198 A 
ATOM     78  C   UNL A   1      42.507  24.191  26.569  1.00  0.00     0.198 A 
ATOM     79  F   UNL A   1      41.156  24.417  28.482  1.00  0.00    -0.203 F 
ATOM     80  F   UNL A   1      44.702  26.568  24.938  1.00  0.00    -0.200 F 
ATOM     81  C   UNL A   1      43.406  24.730  25.661  1.00  0.00     0.200 A 
ATOM     82  F   UNL A   1      42.078  22.931  26.416  1.00  0.00    -0.200 F 
ATOM     83  F   UNL A   1      43.828  24.003  24.619  1.00  0.00    -0.200 F 
ENDBRANCH  49  73
BRANCH  61  84
ATOM     84  C   UNL A   1      44.792  27.440  34.304  1.00  0.00     0.064 A 
ATOM     85  C   UNL A   1      44.726  26.224  35.000  1.00  0.00     0.173 A 
ATOM     86  C   UNL A   1      46.007  28.143  34.331  1.00  0.00     0.173 A 
ATOM     87  F   UNL A   1      43.587  25.517  35.018  1.00  0.00    -0.203 F 
ATOM     88  C   UNL A   1      45.820  25.751  35.723  1.00  0.00     0.198 A 
ATOM     89  C   UNL A   1      47.109  27.650  35.024  1.00  0.00     0.198 A 
ATOM     90  F   UNL A   1      46.130  29.308  33.675  1.00  0.00    -0.203 F 
ATOM     91  F   UNL A   1      45.713  24.618  36.430  1.00  0.00    -0.200 F 
ATOM     92  C   UNL A   1      47.012  26.461  35.730  1.00  0.00     0.200 A 
ATOM     93  F   UNL A   1      48.266  28.329  35.015  1.00  0.00    -0.200 F 
ATOM     94  F   UNL A   1      48.063  26.002  36.423  1.00  0.00    -0.200 F 
ENDBRANCH  61  84
ENDBRANCH  35  36
ENDBRANCH  27  30
ENDBRANCH  25  26
ENDBRANCH  24  25
ENDBRANCH  23  24
ENDBRANCH   3  23
TORSDOF 15
ENDMDL
