MODEL 1
REMARK VINA RESULT:     -10.8      0.000      0.000
REMARK SMILES CCCCCC[C@@H](C(=O)NCCCNC(=O)c1ccc(-c2c3nc(c(-c4c(F)c(F)c(F)c(F)c4F)c4ccc([nH]4)c(-c4c(F)c(F)c(F)c(F)c4F)c4nc(c(-c5c(F)c(F)c(F)c(F)c5F)c5ccc2[nH]5)C=C4)C=C3)cc1)c1ccccc1C
REMARK SMILES IDX 8 1 9 2 10 3 7 5 6 6 5 7 4 8 3 9 2 10 1 11 80 12 81 13 85 14
REMARK SMILES IDX 82 15 84 16 86 17 83 18 11 19 12 20 13 21 14 22 15 23 16 25
REMARK SMILES IDX 17 26 18 27 79 28 19 29 78 30 20 31 21 32 22 33 72 34 23 35
REMARK SMILES IDX 77 36 71 37 73 38 24 39 76 40 70 41 69 42 25 44 57 45 37 46
REMARK SMILES IDX 56 47 38 48 41 49 55 50 74 51 39 52 40 53 54 55 75 56 42 57
REMARK SMILES IDX 26 58 27 59 35 60 28 61 29 62 33 63 36 64 30 65 31 66 34 67
REMARK SMILES IDX 32 68 58 69 59 70 67 71 60 72 61 73 65 74 68 75 62 76 63 77
REMARK SMILES IDX 66 78 64 79 43 80 44 81 52 82 45 83 46 84 50 85 53 86 47 87
REMARK SMILES IDX 48 88 51 89 49 90
REMARK H PARENT 10 4 14 24 73 43 41 54
REMARK Flexibility Score: inf
ROOT
ATOM      1  C   UNL A   1      31.460  23.215  27.078  1.00  0.00     0.227 C 
ATOM      2  O   UNL A   1      30.268  23.043  27.353  1.00  0.00    -0.274 OA
ATOM      3  N   UNL A   1      32.327  22.330  27.655  1.00  0.00    -0.356 N 
ATOM      4  H   UNL A   1      31.904  21.516  28.012  1.00  0.00     0.163 HD
ENDROOT
BRANCH   1   5
ATOM      5  C   UNL A   1      31.958  24.375  26.169  1.00  0.00     0.109 C 
BRANCH   5   6
ATOM      6  C   UNL A   1      30.787  25.397  26.121  1.00  0.00     0.018 C 
BRANCH   6   7
ATOM      7  C   UNL A   1      31.079  26.897  25.897  1.00  0.00     0.001 C 
BRANCH   7   8
ATOM      8  C   UNL A   1      30.754  27.568  24.556  1.00  0.00     0.000 C 
BRANCH   8   9
ATOM      9  C   UNL A   1      30.436  26.623  23.393  1.00  0.00    -0.000 C 
BRANCH   9  10
ATOM     10  C   UNL A   1      31.431  26.605  22.232  1.00  0.00    -0.003 C 
ATOM     11  C   UNL A   1      32.714  27.372  22.507  1.00  0.00     0.004 C 
ENDBRANCH   9  10
ENDBRANCH   8   9
ENDBRANCH   7   8
ENDBRANCH   6   7
ENDBRANCH   5   6
BRANCH   5  12
ATOM     12  C   UNL A   1      32.453  23.892  24.767  1.00  0.00    -0.033 A 
ATOM     13  C   UNL A   1      31.712  22.894  24.088  1.00  0.00     0.005 A 
ATOM     14  C   UNL A   1      33.658  24.310  24.139  1.00  0.00    -0.047 A 
ATOM     15  C   UNL A   1      32.052  22.440  22.809  1.00  0.00     0.000 A 
ATOM     16  C   UNL A   1      33.963  23.872  22.830  1.00  0.00     0.004 A 
ATOM     17  C   UNL A   1      34.689  25.211  24.759  1.00  0.00     0.044 C 
ATOM     18  C   UNL A   1      33.163  22.954  22.164  1.00  0.00     0.000 A 
ENDBRANCH   5  12
ENDBRANCH   1   5
BRANCH   3  19
ATOM     19  C   UNL A   1      33.768  22.387  27.828  1.00  0.00     0.117 C 
BRANCH  19  20
ATOM     20  C   UNL A   1      34.476  21.593  26.730  1.00  0.00     0.042 C 
BRANCH  20  21
ATOM     21  C   UNL A   1      35.783  22.206  26.244  1.00  0.00     0.118 C 
BRANCH  21  22
ATOM     22  N   UNL A   1      36.788  21.207  25.917  1.00  0.00    -0.352 N 
ATOM     23  C   UNL A   1      38.153  21.309  25.814  1.00  0.00     0.251 C 
ATOM     24  H   UNL A   1      36.429  20.306  25.740  1.00  0.00     0.163 HD
ATOM     25  O   UNL A   1      38.787  20.357  25.353  1.00  0.00    -0.269 OA
BRANCH  23  26
ATOM     26  C   UNL A   1      38.885  22.536  26.217  1.00  0.00     0.039 A 
ATOM     27  C   UNL A   1      39.997  22.406  27.060  1.00  0.00     0.014 A 
ATOM     28  C   UNL A   1      38.468  23.813  25.835  1.00  0.00     0.014 A 
ATOM     29  C   UNL A   1      40.712  23.539  27.467  1.00  0.00     0.010 A 
ATOM     30  C   UNL A   1      39.235  24.932  26.164  1.00  0.00     0.010 A 
ATOM     31  C   UNL A   1      40.356  24.812  26.997  1.00  0.00    -0.014 A 
BRANCH  31  32
ATOM     32  C   UNL A   1      41.118  26.029  27.392  1.00  0.00     0.031 A 
ATOM     33  C   UNL A   1      40.440  27.129  28.166  1.00  0.00     0.074 A 
ATOM     34  C   UNL A   1      42.402  26.175  27.009  1.00  0.00     0.049 A 
ATOM     35  N   UNL A   1      40.905  28.298  28.531  1.00  0.00    -0.248 NA
ATOM     36  C   UNL A   1      39.041  26.895  28.556  1.00  0.00     0.031 C 
ATOM     37  C   UNL A   1      43.166  25.207  26.222  1.00  0.00     0.029 A 
ATOM     38  N   UNL A   1      43.290  27.202  27.222  1.00  0.00    -0.354 N 
ATOM     39  C   UNL A   1      39.852  28.943  29.168  1.00  0.00     0.074 A 
ATOM     40  C   UNL A   1      38.709  28.059  29.093  1.00  0.00     0.031 C 
ATOM     41  C   UNL A   1      44.412  25.673  26.038  1.00  0.00     0.029 A 
ATOM     42  C   UNL A   1      44.526  26.988  26.660  1.00  0.00     0.049 A 
ATOM     43  H   UNL A   1      43.062  28.015  27.730  1.00  0.00     0.167 HD
ATOM     44  C   UNL A   1      39.843  30.150  29.784  1.00  0.00     0.037 A 
ATOM     45  C   UNL A   1      45.624  27.768  26.641  1.00  0.00     0.037 A 
ATOM     46  C   UNL A   1      40.991  31.012  29.891  1.00  0.00     0.049 A 
ATOM     47  C   UNL A   1      45.590  29.105  27.334  1.00  0.00     0.074 A 
ATOM     48  C   UNL A   1      41.102  32.225  30.549  1.00  0.00     0.029 A 
ATOM     49  N   UNL A   1      42.231  30.750  29.326  1.00  0.00    -0.354 N 
ATOM     50  N   UNL A   1      44.607  29.675  27.986  1.00  0.00    -0.248 NA
ATOM     51  C   UNL A   1      46.823  29.905  27.290  1.00  0.00     0.031 C 
ATOM     52  C   UNL A   1      42.395  32.717  30.346  1.00  0.00     0.029 A 
ATOM     53  C   UNL A   1      43.106  31.787  29.604  1.00  0.00     0.049 A 
ATOM     54  H   UNL A   1      42.455  29.945  28.806  1.00  0.00     0.167 HD
ATOM     55  C   UNL A   1      45.108  30.881  28.456  1.00  0.00     0.074 A 
ATOM     56  C   UNL A   1      46.488  30.956  28.025  1.00  0.00     0.031 C 
ATOM     57  C   UNL A   1      44.481  31.842  29.178  1.00  0.00     0.037 A 
BRANCH  44  58
ATOM     58  C   UNL A   1      38.551  30.609  30.396  1.00  0.00     0.064 A 
ATOM     59  C   UNL A   1      38.330  30.550  31.781  1.00  0.00     0.173 A 
ATOM     60  C   UNL A   1      37.532  31.145  29.594  1.00  0.00     0.173 A 
ATOM     61  F   UNL A   1      39.267  30.037  32.593  1.00  0.00    -0.203 F 
ATOM     62  C   UNL A   1      37.125  30.977  32.335  1.00  0.00     0.198 A 
ATOM     63  C   UNL A   1      36.342  31.602  30.154  1.00  0.00     0.198 A 
ATOM     64  F   UNL A   1      37.693  31.232  28.265  1.00  0.00    -0.203 F 
ATOM     65  F   UNL A   1      36.917  30.860  33.653  1.00  0.00    -0.200 F 
ATOM     66  C   UNL A   1      36.136  31.509  31.523  1.00  0.00     0.200 A 
ATOM     67  F   UNL A   1      35.391  32.128  29.370  1.00  0.00    -0.200 F 
ATOM     68  F   UNL A   1      34.979  31.925  32.058  1.00  0.00    -0.200 F 
ENDBRANCH  44  58
BRANCH  45  69
ATOM     69  C   UNL A   1      46.860  27.295  25.966  1.00  0.00     0.064 A 
ATOM     70  C   UNL A   1      47.047  27.487  24.590  1.00  0.00     0.173 A 
ATOM     71  C   UNL A   1      47.876  26.638  26.675  1.00  0.00     0.173 A 
ATOM     72  F   UNL A   1      46.094  28.090  23.864  1.00  0.00    -0.203 F 
ATOM     73  C   UNL A   1      48.192  27.023  23.945  1.00  0.00     0.198 A 
ATOM     74  C   UNL A   1      49.035  26.201  26.035  1.00  0.00     0.198 A 
ATOM     75  F   UNL A   1      47.750  26.432  27.994  1.00  0.00    -0.203 F 
ATOM     76  F   UNL A   1      48.323  27.180  22.621  1.00  0.00    -0.200 F 
ATOM     77  C   UNL A   1      49.188  26.386  24.669  1.00  0.00     0.200 A 
ATOM     78  F   UNL A   1      50.001  25.598  26.741  1.00  0.00    -0.200 F 
ATOM     79  F   UNL A   1      50.291  25.945  24.050  1.00  0.00    -0.200 F 
ENDBRANCH  45  69
BRANCH  57  80
ATOM     80  C   UNL A   1      45.290  33.040  29.583  1.00  0.00     0.064 A 
ATOM     81  C   UNL A   1      45.482  34.126  28.717  1.00  0.00     0.173 A 
ATOM     82  C   UNL A   1      45.844  33.118  30.870  1.00  0.00     0.173 A 
ATOM     83  F   UNL A   1      44.986  34.093  27.471  1.00  0.00    -0.203 F 
ATOM     84  C   UNL A   1      46.218  35.238  29.117  1.00  0.00     0.198 A 
ATOM     85  C   UNL A   1      46.554  34.244  31.277  1.00  0.00     0.198 A 
ATOM     86  F   UNL A   1      45.683  32.108  31.738  1.00  0.00    -0.203 F 
ATOM     87  F   UNL A   1      46.428  36.245  28.258  1.00  0.00    -0.200 F 
ATOM     88  C   UNL A   1      46.747  35.299  30.399  1.00  0.00     0.200 A 
ATOM     89  F   UNL A   1      47.052  34.308  32.520  1.00  0.00    -0.200 F 
ATOM     90  F   UNL A   1      47.448  36.373  30.785  1.00  0.00    -0.200 F 
ENDBRANCH  57  80
ENDBRANCH  31  32
ENDBRANCH  23  26
ENDBRANCH  21  22
ENDBRANCH  20  21
ENDBRANCH  19  20
ENDBRANCH   3  19
TORSDOF 16
ENDMDL
MODEL 2
REMARK VINA RESULT:     -10.8      4.216      9.361
REMARK SMILES CCCCCC[C@@H](C(=O)NCCCNC(=O)c1ccc(-c2c3nc(c(-c4c(F)c(F)c(F)c(F)c4F)c4ccc([nH]4)c(-c4c(F)c(F)c(F)c(F)c4F)c4nc(c(-c5c(F)c(F)c(F)c(F)c5F)c5ccc2[nH]5)C=C4)C=C3)cc1)c1ccccc1C
REMARK SMILES IDX 8 1 9 2 10 3 7 5 6 6 5 7 4 8 3 9 2 10 1 11 80 12 81 13 85 14
REMARK SMILES IDX 82 15 84 16 86 17 83 18 11 19 12 20 13 21 14 22 15 23 16 25
REMARK SMILES IDX 17 26 18 27 79 28 19 29 78 30 20 31 21 32 22 33 72 34 23 35
REMARK SMILES IDX 77 36 71 37 73 38 24 39 76 40 70 41 69 42 25 44 57 45 37 46
REMARK SMILES IDX 56 47 38 48 41 49 55 50 74 51 39 52 40 53 54 55 75 56 42 57
REMARK SMILES IDX 26 58 27 59 35 60 28 61 29 62 33 63 36 64 30 65 31 66 34 67
REMARK SMILES IDX 32 68 58 69 59 70 67 71 60 72 61 73 65 74 68 75 62 76 63 77
REMARK SMILES IDX 66 78 64 79 43 80 44 81 52 82 45 83 46 84 50 85 53 86 47 87
REMARK SMILES IDX 48 88 51 89 49 90
REMARK H PARENT 10 4 14 24 73 43 41 54
REMARK Flexibility Score: inf
ROOT
ATOM      1  C   UNL A   1      33.282  26.307  21.638  1.00  0.00     0.227 C 
ATOM      2  O   UNL A   1      33.080  25.856  20.506  1.00  0.00    -0.274 OA
ATOM      3  N   UNL A   1      33.424  27.664  21.711  1.00  0.00    -0.356 N 
ATOM      4  H   UNL A   1      33.104  28.152  20.917  1.00  0.00     0.163 HD
ENDROOT
BRANCH   1   5
ATOM      5  C   UNL A   1      33.405  25.402  22.898  1.00  0.00     0.109 C 
BRANCH   5   6
ATOM      6  C   UNL A   1      33.592  23.957  22.355  1.00  0.00     0.018 C 
BRANCH   6   7
ATOM      7  C   UNL A   1      34.452  22.942  23.141  1.00  0.00     0.001 C 
BRANCH   7   8
ATOM      8  C   UNL A   1      33.825  22.054  24.222  1.00  0.00     0.000 C 
BRANCH   8   9
ATOM      9  C   UNL A   1      34.795  21.466  25.252  1.00  0.00    -0.000 C 
BRANCH   9  10
ATOM     10  C   UNL A   1      34.847  22.155  26.616  1.00  0.00    -0.003 C 
ATOM     11  C   UNL A   1      33.687  21.803  27.531  1.00  0.00     0.004 C 
ENDBRANCH   9  10
ENDBRANCH   8   9
ENDBRANCH   7   8
ENDBRANCH   6   7
ENDBRANCH   5   6
BRANCH   5  12
ATOM     12  C   UNL A   1      32.213  25.569  23.895  1.00  0.00    -0.033 A 
ATOM     13  C   UNL A   1      30.916  25.805  23.378  1.00  0.00     0.005 A 
ATOM     14  C   UNL A   1      32.333  25.596  25.312  1.00  0.00    -0.047 A 
ATOM     15  C   UNL A   1      29.785  25.915  24.194  1.00  0.00     0.000 A 
ATOM     16  C   UNL A   1      31.174  25.665  26.120  1.00  0.00     0.004 A 
ATOM     17  C   UNL A   1      33.630  25.557  26.072  1.00  0.00     0.044 C 
ATOM     18  C   UNL A   1      29.909  25.813  25.568  1.00  0.00     0.000 A 
ENDBRANCH   5  12
ENDBRANCH   1   5
BRANCH   3  19
ATOM     19  C   UNL A   1      33.965  28.509  22.760  1.00  0.00     0.117 C 
BRANCH  19  20
ATOM     20  C   UNL A   1      32.857  28.967  23.709  1.00  0.00     0.042 C 
BRANCH  20  21
ATOM     21  C   UNL A   1      33.304  29.201  25.146  1.00  0.00     0.118 C 
BRANCH  21  22
ATOM     22  N   UNL A   1      32.747  30.414  25.722  1.00  0.00    -0.352 N 
ATOM     23  C   UNL A   1      33.111  31.126  26.837  1.00  0.00     0.251 C 
ATOM     24  H   UNL A   1      31.979  30.787  25.229  1.00  0.00     0.163 HD
ATOM     25  O   UNL A   1      32.377  32.037  27.227  1.00  0.00    -0.269 OA
BRANCH  23  26
ATOM     26  C   UNL A   1      34.348  30.820  27.600  1.00  0.00     0.039 A 
ATOM     27  C   UNL A   1      35.348  31.797  27.676  1.00  0.00     0.014 A 
ATOM     28  C   UNL A   1      34.570  29.574  28.190  1.00  0.00     0.014 A 
ATOM     29  C   UNL A   1      36.531  31.547  28.382  1.00  0.00     0.010 A 
ATOM     30  C   UNL A   1      35.706  29.357  28.971  1.00  0.00     0.010 A 
ATOM     31  C   UNL A   1      36.709  30.334  29.064  1.00  0.00    -0.014 A 
BRANCH  31  32
ATOM     32  C   UNL A   1      37.945  30.054  29.846  1.00  0.00     0.031 A 
ATOM     33  C   UNL A   1      39.000  29.134  29.290  1.00  0.00     0.074 A 
ATOM     34  C   UNL A   1      38.098  30.579  31.078  1.00  0.00     0.049 A 
ATOM     35  N   UNL A   1      40.103  28.700  29.848  1.00  0.00    -0.248 NA
ATOM     36  C   UNL A   1      38.768  28.605  27.936  1.00  0.00     0.031 C 
ATOM     37  C   UNL A   1      37.135  31.451  31.751  1.00  0.00     0.029 A 
ATOM     38  N   UNL A   1      39.117  30.446  31.989  1.00  0.00    -0.354 N 
ATOM     39  C   UNL A   1      40.679  27.835  28.926  1.00  0.00     0.074 A 
ATOM     40  C   UNL A   1      39.779  27.761  27.797  1.00  0.00     0.031 C 
ATOM     41  C   UNL A   1      37.619  31.794  32.956  1.00  0.00     0.029 A 
ATOM     42  C   UNL A   1      38.907  31.138  33.158  1.00  0.00     0.049 A 
ATOM     43  H   UNL A   1      39.924  29.906  31.820  1.00  0.00     0.167 HD
ATOM     44  C   UNL A   1      41.864  27.180  29.001  1.00  0.00     0.037 A 
ATOM     45  C   UNL A   1      39.662  31.225  34.269  1.00  0.00     0.037 A 
ATOM     46  C   UNL A   1      42.777  27.284  30.109  1.00  0.00     0.049 A 
ATOM     47  C   UNL A   1      40.975  30.490  34.328  1.00  0.00     0.074 A 
ATOM     48  C   UNL A   1      44.030  26.712  30.251  1.00  0.00     0.029 A 
ATOM     49  N   UNL A   1      42.536  28.011  31.265  1.00  0.00    -0.354 N 
ATOM     50  N   UNL A   1      41.537  29.726  33.424  1.00  0.00    -0.248 NA
ATOM     51  C   UNL A   1      41.761  30.635  35.562  1.00  0.00     0.031 C 
ATOM     52  C   UNL A   1      44.527  27.057  31.512  1.00  0.00     0.029 A 
ATOM     53  C   UNL A   1      43.608  27.886  32.134  1.00  0.00     0.049 A 
ATOM     54  H   UNL A   1      41.724  28.538  31.441  1.00  0.00     0.167 HD
ATOM     55  C   UNL A   1      42.752  29.324  33.964  1.00  0.00     0.074 A 
ATOM     56  C   UNL A   1      42.851  29.940  35.270  1.00  0.00     0.031 C 
ATOM     57  C   UNL A   1      43.698  28.516  33.427  1.00  0.00     0.037 A 
BRANCH  44  58
ATOM     58  C   UNL A   1      42.244  26.297  27.847  1.00  0.00     0.064 A 
ATOM     59  C   UNL A   1      41.801  24.969  27.759  1.00  0.00     0.173 A 
ATOM     60  C   UNL A   1      43.034  26.794  26.798  1.00  0.00     0.173 A 
ATOM     61  F   UNL A   1      41.052  24.439  28.738  1.00  0.00    -0.203 F 
ATOM     62  C   UNL A   1      42.163  24.161  26.683  1.00  0.00     0.198 A 
ATOM     63  C   UNL A   1      43.366  25.995  25.708  1.00  0.00     0.198 A 
ATOM     64  F   UNL A   1      43.478  28.060  26.827  1.00  0.00    -0.203 F 
ATOM     65  F   UNL A   1      41.773  22.880  26.648  1.00  0.00    -0.200 F 
ATOM     66  C   UNL A   1      42.939  24.676  25.656  1.00  0.00     0.200 A 
ATOM     67  F   UNL A   1      44.105  26.497  24.710  1.00  0.00    -0.200 F 
ATOM     68  F   UNL A   1      43.282  23.899  24.619  1.00  0.00    -0.200 F 
ENDBRANCH  44  58
BRANCH  45  69
ATOM     69  C   UNL A   1      39.211  32.063  35.411  1.00  0.00     0.064 A 
ATOM     70  C   UNL A   1      38.437  31.516  36.444  1.00  0.00     0.173 A 
ATOM     71  C   UNL A   1      39.535  33.425  35.492  1.00  0.00     0.173 A 
ATOM     72  F   UNL A   1      38.082  30.223  36.400  1.00  0.00    -0.203 F 
ATOM     73  C   UNL A   1      37.989  32.301  37.504  1.00  0.00     0.198 A 
ATOM     74  C   UNL A   1      39.110  34.204  36.568  1.00  0.00     0.198 A 
ATOM     75  F   UNL A   1      40.275  33.998  34.532  1.00  0.00    -0.203 F 
ATOM     76  F   UNL A   1      37.213  31.760  38.453  1.00  0.00    -0.200 F 
ATOM     77  C   UNL A   1      38.331  33.642  37.568  1.00  0.00     0.200 A 
ATOM     78  F   UNL A   1      39.455  35.497  36.634  1.00  0.00    -0.200 F 
ATOM     79  F   UNL A   1      37.904  34.396  38.590  1.00  0.00    -0.200 F 
ENDBRANCH  45  69
BRANCH  57  80
ATOM     80  C   UNL A   1      44.943  28.282  34.231  1.00  0.00     0.064 A 
ATOM     81  C   UNL A   1      45.059  27.194  35.109  1.00  0.00     0.173 A 
ATOM     82  C   UNL A   1      46.049  29.134  34.089  1.00  0.00     0.173 A 
ATOM     83  F   UNL A   1      44.024  26.360  35.292  1.00  0.00    -0.203 F 
ATOM     84  C   UNL A   1      46.229  26.981  35.832  1.00  0.00     0.198 A 
ATOM     85  C   UNL A   1      47.228  28.900  34.792  1.00  0.00     0.198 A 
ATOM     86  F   UNL A   1      45.991  30.184  33.258  1.00  0.00    -0.203 F 
ATOM     87  F   UNL A   1      46.302  25.961  36.700  1.00  0.00    -0.200 F 
ATOM     88  C   UNL A   1      47.315  27.828  35.667  1.00  0.00     0.200 A 
ATOM     89  F   UNL A   1      48.281  29.712  34.620  1.00  0.00    -0.200 F 
ATOM     90  F   UNL A   1      48.443  27.617  36.358  1.00  0.00    -0.200 F 
ENDBRANCH  57  80
ENDBRANCH  31  32
ENDBRANCH  23  26
ENDBRANCH  21  22
ENDBRANCH  20  21
ENDBRANCH  19  20
ENDBRANCH   3  19
TORSDOF 16
ENDMDL
MODEL 3
REMARK VINA RESULT:     -10.7      2.716      8.074
REMARK SMILES CCCCCC[C@@H](C(=O)NCCCNC(=O)c1ccc(-c2c3nc(c(-c4c(F)c(F)c(F)c(F)c4F)c4ccc([nH]4)c(-c4c(F)c(F)c(F)c(F)c4F)c4nc(c(-c5c(F)c(F)c(F)c(F)c5F)c5ccc2[nH]5)C=C4)C=C3)cc1)c1ccccc1C
REMARK SMILES IDX 8 1 9 2 10 3 7 5 6 6 5 7 4 8 3 9 2 10 1 11 80 12 81 13 85 14
REMARK SMILES IDX 82 15 84 16 86 17 83 18 11 19 12 20 13 21 14 22 15 23 16 25
REMARK SMILES IDX 17 26 18 27 79 28 19 29 78 30 20 31 21 32 22 33 72 34 23 35
REMARK SMILES IDX 77 36 71 37 73 38 24 39 76 40 70 41 69 42 25 44 57 45 37 46
REMARK SMILES IDX 56 47 38 48 41 49 55 50 74 51 39 52 40 53 54 55 75 56 42 57
REMARK SMILES IDX 26 58 27 59 35 60 28 61 29 62 33 63 36 64 30 65 31 66 34 67
REMARK SMILES IDX 32 68 58 69 59 70 67 71 60 72 61 73 65 74 68 75 62 76 63 77
REMARK SMILES IDX 66 78 64 79 43 80 44 81 52 82 45 83 46 84 50 85 53 86 47 87
REMARK SMILES IDX 48 88 51 89 49 90
REMARK H PARENT 10 4 14 24 73 43 41 54
REMARK Flexibility Score: inf
ROOT
ATOM      1  C   UNL A   1      33.598  24.974  22.931  1.00  0.00     0.227 C 
ATOM      2  O   UNL A   1      33.957  25.510  21.878  1.00  0.00    -0.274 OA
ATOM      3  N   UNL A   1      34.447  24.024  23.424  1.00  0.00    -0.356 N 
ATOM      4  H   UNL A   1      35.353  24.046  23.039  1.00  0.00     0.163 HD
ENDROOT
BRANCH   1   5
ATOM      5  C   UNL A   1      32.257  25.321  23.639  1.00  0.00     0.109 C 
BRANCH   5   6
ATOM      6  C   UNL A   1      31.345  25.923  22.533  1.00  0.00     0.018 C 
BRANCH   6   7
ATOM      7  C   UNL A   1      31.270  27.454  22.342  1.00  0.00     0.001 C 
BRANCH   7   8
ATOM      8  C   UNL A   1      29.972  28.218  22.635  1.00  0.00     0.000 C 
BRANCH   8   9
ATOM      9  C   UNL A   1      29.965  29.060  23.915  1.00  0.00    -0.000 C 
BRANCH   9  10
ATOM     10  C   UNL A   1      31.288  29.719  24.309  1.00  0.00    -0.003 C 
ATOM     11  C   UNL A   1      31.164  30.721  25.445  1.00  0.00     0.004 C 
ENDBRANCH   9  10
ENDBRANCH   8   9
ENDBRANCH   7   8
ENDBRANCH   6   7
ENDBRANCH   5   6
BRANCH   5  12
ATOM     12  C   UNL A   1      32.441  26.236  24.894  1.00  0.00    -0.033 A 
ATOM     13  C   UNL A   1      33.689  26.874  25.098  1.00  0.00     0.005 A 
ATOM     14  C   UNL A   1      31.474  26.416  25.920  1.00  0.00    -0.047 A 
ATOM     15  C   UNL A   1      33.924  27.749  26.163  1.00  0.00     0.000 A 
ATOM     16  C   UNL A   1      31.714  27.336  26.967  1.00  0.00     0.004 A 
ATOM     17  C   UNL A   1      30.160  25.689  26.009  1.00  0.00     0.044 C 
ATOM     18  C   UNL A   1      32.924  28.006  27.083  1.00  0.00     0.000 A 
ENDBRANCH   5  12
ENDBRANCH   1   5
BRANCH   3  19
ATOM     19  C   UNL A   1      34.240  22.988  24.420  1.00  0.00     0.117 C 
BRANCH  19  20
ATOM     20  C   UNL A   1      35.112  23.240  25.650  1.00  0.00     0.042 C 
BRANCH  20  21
ATOM     21  C   UNL A   1      36.508  23.766  25.344  1.00  0.00     0.118 C 
BRANCH  21  22
ATOM     22  N   UNL A   1      37.550  22.781  25.590  1.00  0.00    -0.352 N 
ATOM     23  C   UNL A   1      38.799  22.917  26.142  1.00  0.00     0.251 C 
ATOM     24  H   UNL A   1      37.320  21.864  25.312  1.00  0.00     0.163 HD
ATOM     25  O   UNL A   1      39.578  21.963  26.090  1.00  0.00    -0.269 OA
BRANCH  23  26
ATOM     26  C   UNL A   1      39.248  24.182  26.777  1.00  0.00     0.039 A 
ATOM     27  C   UNL A   1      40.003  25.083  26.014  1.00  0.00     0.014 A 
ATOM     28  C   UNL A   1      38.996  24.473  28.119  1.00  0.00     0.014 A 
ATOM     29  C   UNL A   1      40.450  26.285  26.576  1.00  0.00     0.010 A 
ATOM     30  C   UNL A   1      39.360  25.711  28.651  1.00  0.00     0.010 A 
ATOM     31  C   UNL A   1      40.106  26.625  27.893  1.00  0.00    -0.014 A 
BRANCH  31  32
ATOM     32  C   UNL A   1      40.544  27.910  28.505  1.00  0.00     0.031 A 
ATOM     33  C   UNL A   1      41.986  28.111  28.893  1.00  0.00     0.074 A 
ATOM     34  C   UNL A   1      39.642  28.876  28.766  1.00  0.00     0.049 A 
ATOM     35  N   UNL A   1      42.549  29.120  29.511  1.00  0.00    -0.248 NA
ATOM     36  C   UNL A   1      42.915  27.017  28.571  1.00  0.00     0.031 C 
ATOM     37  C   UNL A   1      38.209  28.795  28.479  1.00  0.00     0.029 A 
ATOM     38  N   UNL A   1      39.794  30.115  29.341  1.00  0.00    -0.354 N 
ATOM     39  C   UNL A   1      43.884  28.772  29.670  1.00  0.00     0.074 A 
ATOM     40  C   UNL A   1      44.037  27.436  29.134  1.00  0.00     0.031 C 
ATOM     41  C   UNL A   1      37.619  29.940  28.857  1.00  0.00     0.029 A 
ATOM     42  C   UNL A   1      38.621  30.823  29.446  1.00  0.00     0.049 A 
ATOM     43  H   UNL A   1      40.663  30.463  29.648  1.00  0.00     0.167 HD
ATOM     44  C   UNL A   1      44.897  29.505  30.191  1.00  0.00     0.037 A 
ATOM     45  C   UNL A   1      38.379  32.041  29.968  1.00  0.00     0.037 A 
ATOM     46  C   UNL A   1      44.751  30.848  30.688  1.00  0.00     0.049 A 
ATOM     47  C   UNL A   1      39.522  32.838  30.539  1.00  0.00     0.074 A 
ATOM     48  C   UNL A   1      45.728  31.699  31.177  1.00  0.00     0.029 A 
ATOM     49  N   UNL A   1      43.550  31.537  30.759  1.00  0.00    -0.354 N 
ATOM     50  N   UNL A   1      40.790  32.521  30.626  1.00  0.00    -0.248 NA
ATOM     51  C   UNL A   1      39.198  34.166  31.080  1.00  0.00     0.031 C 
ATOM     52  C   UNL A   1      45.111  32.886  31.583  1.00  0.00     0.029 A 
ATOM     53  C   UNL A   1      43.758  32.795  31.301  1.00  0.00     0.049 A 
ATOM     54  H   UNL A   1      42.678  31.185  30.467  1.00  0.00     0.167 HD
ATOM     55  C   UNL A   1      41.420  33.617  31.201  1.00  0.00     0.074 A 
ATOM     56  C   UNL A   1      40.395  34.613  31.431  1.00  0.00     0.031 C 
ATOM     57  C   UNL A   1      42.728  33.781  31.513  1.00  0.00     0.037 A 
BRANCH  44  58
ATOM     58  C   UNL A   1      46.258  28.873  30.242  1.00  0.00     0.064 A 
ATOM     59  C   UNL A   1      47.164  28.984  29.176  1.00  0.00     0.173 A 
ATOM     60  C   UNL A   1      46.677  28.173  31.385  1.00  0.00     0.173 A 
ATOM     61  F   UNL A   1      46.811  29.632  28.055  1.00  0.00    -0.203 F 
ATOM     62  C   UNL A   1      48.422  28.390  29.237  1.00  0.00     0.198 A 
ATOM     63  C   UNL A   1      47.948  27.610  31.457  1.00  0.00     0.198 A 
ATOM     64  F   UNL A   1      45.855  28.043  32.438  1.00  0.00    -0.203 F 
ATOM     65  F   UNL A   1      49.248  28.464  28.185  1.00  0.00    -0.200 F 
ATOM     66  C   UNL A   1      48.816  27.710  30.379  1.00  0.00     0.200 A 
ATOM     67  F   UNL A   1      48.333  26.964  32.566  1.00  0.00    -0.200 F 
ATOM     68  F   UNL A   1      50.029  27.144  30.439  1.00  0.00    -0.200 F 
ENDBRANCH  44  58
BRANCH  45  69
ATOM     69  C   UNL A   1      37.001  32.597  29.949  1.00  0.00     0.064 A 
ATOM     70  C   UNL A   1      36.529  33.314  28.840  1.00  0.00     0.173 A 
ATOM     71  C   UNL A   1      36.130  32.432  31.036  1.00  0.00     0.173 A 
ATOM     72  F   UNL A   1      37.333  33.517  27.785  1.00  0.00    -0.203 F 
ATOM     73  C   UNL A   1      35.248  33.860  28.825  1.00  0.00     0.198 A 
ATOM     74  C   UNL A   1      34.837  32.954  31.008  1.00  0.00     0.198 A 
ATOM     75  F   UNL A   1      36.529  31.752  32.120  1.00  0.00    -0.203 F 
ATOM     76  F   UNL A   1      34.840  34.578  27.770  1.00  0.00    -0.200 F 
ATOM     77  C   UNL A   1      34.401  33.674  29.907  1.00  0.00     0.200 A 
ATOM     78  F   UNL A   1      34.016  32.760  32.050  1.00  0.00    -0.200 F 
ATOM     79  F   UNL A   1      33.167  34.196  29.891  1.00  0.00    -0.200 F 
ENDBRANCH  45  69
BRANCH  57  80
ATOM     80  C   UNL A   1      43.138  35.101  32.100  1.00  0.00     0.064 A 
ATOM     81  C   UNL A   1      43.064  35.349  33.478  1.00  0.00     0.173 A 
ATOM     82  C   UNL A   1      43.648  36.115  31.275  1.00  0.00     0.173 A 
ATOM     83  F   UNL A   1      42.569  34.417  34.306  1.00  0.00    -0.203 F 
ATOM     84  C   UNL A   1      43.467  36.572  34.007  1.00  0.00     0.198 A 
ATOM     85  C   UNL A   1      44.078  37.326  31.811  1.00  0.00     0.198 A 
ATOM     86  F   UNL A   1      43.745  35.926  29.951  1.00  0.00    -0.203 F 
ATOM     87  F   UNL A   1      43.347  36.803  35.322  1.00  0.00    -0.200 F 
ATOM     88  C   UNL A   1      43.981  37.556  33.175  1.00  0.00     0.200 A 
ATOM     89  F   UNL A   1      44.587  38.270  31.008  1.00  0.00    -0.200 F 
ATOM     90  F   UNL A   1      44.375  38.729  33.687  1.00  0.00    -0.200 F 
ENDBRANCH  57  80
ENDBRANCH  31  32
ENDBRANCH  23  26
ENDBRANCH  21  22
ENDBRANCH  20  21
ENDBRANCH  19  20
ENDBRANCH   3  19
TORSDOF 16
ENDMDL
