MODEL 1
REMARK VINA RESULT:     -14.0      0.000      0.000
REMARK SMILES Cc1ccc(/C=C2\SC(=S)N([C@H](C(=O)NCCCNC(=O)c3ccc(-c4c5nc(c(-c6c(F)c(F)c(F)c(F)c6F)c6ccc([nH]6)c(-c6c(F)c(F)c(F)c(F)c6F)c6nc(c(-c7c(F)c(F)c(F)c(F)c7F)c7ccc4[nH]7)C=C6)C=C5)cc3)C(C)C)C2=O)cc1
REMARK SMILES IDX 17 1 16 2 15 3 13 4 14 5 12 7 11 8 6 9 7 10 8 11 88 12 9 13
REMARK SMILES IDX 89 14 10 15 5 16 1 17 2 18 3 19 91 20 4 21 90 22 85 23 86 24
REMARK SMILES IDX 87 25 18 26 19 27 20 28 21 30 22 31 23 32 84 33 24 34 83 35
REMARK SMILES IDX 25 36 26 37 27 38 77 39 28 40 82 41 76 42 78 43 29 44 81 45
REMARK SMILES IDX 75 46 74 47 30 49 62 50 42 51 61 52 43 53 46 54 60 55 79 56
REMARK SMILES IDX 44 57 45 58 59 60 80 61 47 62 31 63 32 64 40 65 33 66 34 67
REMARK SMILES IDX 38 68 41 69 35 70 36 71 39 72 37 73 63 74 64 75 72 76 65 77
REMARK SMILES IDX 66 78 70 79 73 80 67 81 68 82 71 83 69 84 48 85 49 86 57 87
REMARK SMILES IDX 50 88 51 89 55 90 58 91 52 92 53 93 56 94 54 95
REMARK H PARENT 15 6 19 29 78 48 46 59
REMARK Flexibility Score: inf
ROOT
ATOM      1  C   UNL A   1      32.310  29.670  27.246  1.00  0.00     0.042 C 
ENDROOT
BRANCH   1   2
ATOM      2  C   UNL A   1      32.403  28.156  27.160  1.00  0.00     0.117 C 
BRANCH   2   3
ATOM      3  N   UNL A   1      31.349  27.569  26.334  1.00  0.00    -0.354 N 
ATOM      4  C   UNL A   1      31.432  26.922  25.124  1.00  0.00     0.243 C 
ATOM      5  O   UNL A   1      30.423  26.368  24.687  1.00  0.00    -0.273 OA
ATOM      6  H   UNL A   1      30.439  27.648  26.702  1.00  0.00     0.163 HD
BRANCH   4   7
ATOM      7  C   UNL A   1      32.773  26.902  24.361  1.00  0.00     0.184 C 
BRANCH   7   8
ATOM      8  N   UNL A   1      33.125  25.469  24.075  1.00  0.00    -0.280 N 
ATOM      9  C   UNL A   1      33.509  22.116  25.350  1.00  0.00     0.029 C 
ATOM     10  C   UNL A   1      33.518  23.184  24.543  1.00  0.00     0.081 C 
ATOM     11  S   UNL A   1      33.472  23.206  22.838  1.00  0.00    -0.054 SA
ATOM     12  C   UNL A   1      33.482  24.572  25.079  1.00  0.00     0.266 C 
ATOM     13  C   UNL A   1      33.021  24.905  22.806  1.00  0.00     0.149 C 
ATOM     14  O   UNL A   1      33.707  24.789  26.248  1.00  0.00    -0.268 OA
ATOM     15  S   UNL A   1      32.525  25.583  21.364  1.00  0.00    -0.052 S 
BRANCH   9  16
ATOM     16  C   UNL A   1      33.606  20.733  24.883  1.00  0.00    -0.024 A 
ATOM     17  C   UNL A   1      34.021  16.677  23.502  1.00  0.00     0.044 C 
ATOM     18  C   UNL A   1      33.876  18.089  23.985  1.00  0.00    -0.051 A 
ATOM     19  C   UNL A   1      32.653  18.761  23.857  1.00  0.00     0.004 A 
ATOM     20  C   UNL A   1      34.960  18.750  24.571  1.00  0.00     0.004 A 
ATOM     21  C   UNL A   1      32.516  20.079  24.305  1.00  0.00     0.008 A 
ATOM     22  C   UNL A   1      34.823  20.060  25.021  1.00  0.00     0.008 A 
ENDBRANCH   9  16
ENDBRANCH   7   8
BRANCH   7  23
ATOM     23  C   UNL A   1      32.685  27.877  23.140  1.00  0.00     0.015 C 
ATOM     24  C   UNL A   1      31.608  28.968  23.243  1.00  0.00     0.010 C 
ATOM     25  C   UNL A   1      34.027  28.595  22.926  1.00  0.00     0.010 C 
ENDBRANCH   7  23
ENDBRANCH   4   7
ENDBRANCH   2   3
ENDBRANCH   1   2
BRANCH   1  26
ATOM     26  C   UNL A   1      33.444  30.365  26.526  1.00  0.00     0.118 C 
BRANCH  26  27
ATOM     27  N   UNL A   1      34.092  31.407  27.305  1.00  0.00    -0.352 N 
ATOM     28  C   UNL A   1      35.073  31.308  28.274  1.00  0.00     0.251 C 
ATOM     29  H   UNL A   1      33.786  32.323  27.113  1.00  0.00     0.163 HD
ATOM     30  O   UNL A   1      35.349  32.294  28.951  1.00  0.00    -0.269 OA
BRANCH  28  31
ATOM     31  C   UNL A   1      35.924  30.093  28.359  1.00  0.00     0.039 A 
ATOM     32  C   UNL A   1      36.152  29.570  29.641  1.00  0.00     0.014 A 
ATOM     33  C   UNL A   1      36.745  29.717  27.307  1.00  0.00     0.014 A 
ATOM     34  C   UNL A   1      37.362  28.950  29.920  1.00  0.00     0.010 A 
ATOM     35  C   UNL A   1      38.006  29.277  27.605  1.00  0.00     0.010 A 
ATOM     36  C   UNL A   1      38.327  28.952  28.923  1.00  0.00    -0.014 A 
BRANCH  36  37
ATOM     37  C   UNL A   1      39.715  28.595  29.100  1.00  0.00     0.031 A 
ATOM     38  C   UNL A   1      40.122  27.235  28.722  1.00  0.00     0.074 A 
ATOM     39  C   UNL A   1      40.602  29.588  29.325  1.00  0.00     0.049 A 
ATOM     40  N   UNL A   1      41.264  26.722  28.993  1.00  0.00    -0.248 NA
ATOM     41  C   UNL A   1      39.236  26.324  28.006  1.00  0.00     0.031 C 
ATOM     42  C   UNL A   1      42.047  29.561  29.137  1.00  0.00     0.029 A 
ATOM     43  N   UNL A   1      40.362  30.821  29.955  1.00  0.00    -0.354 N 
ATOM     44  C   UNL A   1      41.387  25.564  28.260  1.00  0.00     0.074 A 
ATOM     45  C   UNL A   1      40.066  25.314  27.740  1.00  0.00     0.031 C 
ATOM     46  C   UNL A   1      42.598  30.522  29.899  1.00  0.00     0.029 A 
ATOM     47  C   UNL A   1      41.532  31.077  30.715  1.00  0.00     0.049 A 
ATOM     48  H   UNL A   1      39.556  31.384  29.884  1.00  0.00     0.167 HD
ATOM     49  C   UNL A   1      42.639  25.048  28.094  1.00  0.00     0.037 A 
ATOM     50  C   UNL A   1      41.472  31.007  32.080  1.00  0.00     0.037 A 
ATOM     51  C   UNL A   1      43.604  25.811  28.895  1.00  0.00     0.049 A 
ATOM     52  C   UNL A   1      42.273  29.864  32.677  1.00  0.00     0.074 A 
ATOM     53  C   UNL A   1      44.509  26.825  28.630  1.00  0.00     0.029 A 
ATOM     54  N   UNL A   1      43.454  25.793  30.268  1.00  0.00    -0.354 N 
ATOM     55  N   UNL A   1      42.883  28.950  31.974  1.00  0.00    -0.248 NA
ATOM     56  C   UNL A   1      42.390  29.620  34.114  1.00  0.00     0.031 C 
ATOM     57  C   UNL A   1      44.872  27.429  29.875  1.00  0.00     0.029 A 
ATOM     58  C   UNL A   1      44.204  26.768  30.889  1.00  0.00     0.049 A 
ATOM     59  H   UNL A   1      42.877  25.156  30.748  1.00  0.00     0.167 HD
ATOM     60  C   UNL A   1      43.427  28.008  32.803  1.00  0.00     0.074 A 
ATOM     61  C   UNL A   1      43.083  28.468  34.138  1.00  0.00     0.031 C 
ATOM     62  C   UNL A   1      44.089  26.908  32.334  1.00  0.00     0.037 A 
BRANCH  49  63
ATOM     63  C   UNL A   1      43.053  23.998  27.086  1.00  0.00     0.064 A 
ATOM     64  C   UNL A   1      42.631  22.661  27.257  1.00  0.00     0.173 A 
ATOM     65  C   UNL A   1      43.886  24.203  25.969  1.00  0.00     0.173 A 
ATOM     66  F   UNL A   1      41.768  22.315  28.221  1.00  0.00    -0.203 F 
ATOM     67  C   UNL A   1      43.076  21.618  26.439  1.00  0.00     0.198 A 
ATOM     68  C   UNL A   1      44.357  23.156  25.170  1.00  0.00     0.198 A 
ATOM     69  F   UNL A   1      44.243  25.421  25.559  1.00  0.00    -0.203 F 
ATOM     70  F   UNL A   1      42.644  20.368  26.665  1.00  0.00    -0.200 F 
ATOM     71  C   UNL A   1      43.959  21.861  25.410  1.00  0.00     0.200 A 
ATOM     72  F   UNL A   1      45.194  23.423  24.156  1.00  0.00    -0.200 F 
ATOM     73  F   UNL A   1      44.403  20.859  24.639  1.00  0.00    -0.200 F 
ENDBRANCH  49  63
BRANCH  50  74
ATOM     74  C   UNL A   1      40.169  31.533  32.587  1.00  0.00     0.064 A 
ATOM     75  C   UNL A   1      39.895  32.900  32.362  1.00  0.00     0.173 A 
ATOM     76  C   UNL A   1      39.075  30.684  32.794  1.00  0.00     0.173 A 
ATOM     77  F   UNL A   1      40.907  33.763  32.176  1.00  0.00    -0.203 F 
ATOM     78  C   UNL A   1      38.592  33.354  32.162  1.00  0.00     0.198 A 
ATOM     79  C   UNL A   1      37.769  31.151  32.627  1.00  0.00     0.198 A 
ATOM     80  F   UNL A   1      39.266  29.374  33.014  1.00  0.00    -0.203 F 
ATOM     81  F   UNL A   1      38.376  34.621  31.785  1.00  0.00    -0.200 F 
ATOM     82  C   UNL A   1      37.534  32.468  32.256  1.00  0.00     0.200 A 
ATOM     83  F   UNL A   1      36.739  30.298  32.725  1.00  0.00    -0.200 F 
ATOM     84  F   UNL A   1      36.293  32.871  31.948  1.00  0.00    -0.200 F 
ENDBRANCH  50  74
BRANCH  62  85
ATOM     85  C   UNL A   1      44.677  25.842  33.220  1.00  0.00     0.064 A 
ATOM     86  C   UNL A   1      46.041  25.521  33.199  1.00  0.00     0.173 A 
ATOM     87  C   UNL A   1      43.864  25.026  34.041  1.00  0.00     0.173 A 
ATOM     88  F   UNL A   1      46.890  26.181  32.397  1.00  0.00    -0.203 F 
ATOM     89  C   UNL A   1      46.564  24.497  33.993  1.00  0.00     0.198 A 
ATOM     90  C   UNL A   1      44.378  23.961  34.776  1.00  0.00     0.198 A 
ATOM     91  F   UNL A   1      42.551  25.252  34.187  1.00  0.00    -0.203 F 
ATOM     92  F   UNL A   1      47.885  24.270  33.997  1.00  0.00    -0.200 F 
ATOM     93  C   UNL A   1      45.732  23.710  34.770  1.00  0.00     0.200 A 
ATOM     94  F   UNL A   1      43.550  23.194  35.499  1.00  0.00    -0.200 F 
ATOM     95  F   UNL A   1      46.234  22.717  35.516  1.00  0.00    -0.200 F 
ENDBRANCH  62  85
ENDBRANCH  36  37
ENDBRANCH  28  31
ENDBRANCH  26  27
ENDBRANCH   1  26
TORSDOF 13
ENDMDL
MODEL 2
REMARK VINA RESULT:     -13.6      3.019      9.595
REMARK SMILES Cc1ccc(/C=C2\SC(=S)N([C@H](C(=O)NCCCNC(=O)c3ccc(-c4c5nc(c(-c6c(F)c(F)c(F)c(F)c6F)c6ccc([nH]6)c(-c6c(F)c(F)c(F)c(F)c6F)c6nc(c(-c7c(F)c(F)c(F)c(F)c7F)c7ccc4[nH]7)C=C6)C=C5)cc3)C(C)C)C2=O)cc1
REMARK SMILES IDX 17 1 16 2 15 3 13 4 14 5 12 7 11 8 6 9 7 10 8 11 88 12 9 13
REMARK SMILES IDX 89 14 10 15 5 16 1 17 2 18 3 19 91 20 4 21 90 22 85 23 86 24
REMARK SMILES IDX 87 25 18 26 19 27 20 28 21 30 22 31 23 32 84 33 24 34 83 35
REMARK SMILES IDX 25 36 26 37 27 38 77 39 28 40 82 41 76 42 78 43 29 44 81 45
REMARK SMILES IDX 75 46 74 47 30 49 62 50 42 51 61 52 43 53 46 54 60 55 79 56
REMARK SMILES IDX 44 57 45 58 59 60 80 61 47 62 31 63 32 64 40 65 33 66 34 67
REMARK SMILES IDX 38 68 41 69 35 70 36 71 39 72 37 73 63 74 64 75 72 76 65 77
REMARK SMILES IDX 66 78 70 79 73 80 67 81 68 82 71 83 69 84 48 85 49 86 57 87
REMARK SMILES IDX 50 88 51 89 55 90 58 91 52 92 53 93 56 94 54 95
REMARK H PARENT 15 6 19 29 78 48 46 59
REMARK Flexibility Score: inf
ROOT
ATOM      1  C   UNL A   1      37.379  21.863  24.643  1.00  0.00     0.042 C 
ENDROOT
BRANCH   1   2
ATOM      2  C   UNL A   1      36.644  22.987  23.935  1.00  0.00     0.117 C 
BRANCH   2   3
ATOM      3  N   UNL A   1      35.365  22.559  23.369  1.00  0.00    -0.354 N 
ATOM      4  C   UNL A   1      34.090  22.694  23.864  1.00  0.00     0.243 C 
ATOM      5  O   UNL A   1      33.144  22.395  23.134  1.00  0.00    -0.273 OA
ATOM      6  H   UNL A   1      35.427  22.104  22.498  1.00  0.00     0.163 HD
BRANCH   4   7
ATOM      7  C   UNL A   1      33.881  23.218  25.301  1.00  0.00     0.184 C 
BRANCH   7   8
ATOM      8  N   UNL A   1      32.932  24.381  25.239  1.00  0.00    -0.280 N 
ATOM      9  C   UNL A   1      32.130  27.582  23.782  1.00  0.00     0.029 C 
ATOM     10  C   UNL A   1      32.103  26.486  24.550  1.00  0.00     0.081 C 
ATOM     11  S   UNL A   1      30.764  25.814  25.365  1.00  0.00    -0.054 SA
ATOM     12  C   UNL A   1      33.301  25.622  24.725  1.00  0.00     0.266 C 
ATOM     13  C   UNL A   1      31.589  24.278  25.594  1.00  0.00     0.149 C 
ATOM     14  O   UNL A   1      34.399  26.013  24.399  1.00  0.00    -0.268 OA
ATOM     15  S   UNL A   1      30.718  22.965  26.141  1.00  0.00    -0.052 S 
BRANCH   9  16
ATOM     16  C   UNL A   1      31.004  28.502  23.624  1.00  0.00    -0.024 A 
ATOM     17  C   UNL A   1      27.717  31.260  23.273  1.00  0.00     0.044 C 
ATOM     18  C   UNL A   1      28.863  30.300  23.394  1.00  0.00    -0.051 A 
ATOM     19  C   UNL A   1      28.881  29.118  22.640  1.00  0.00     0.004 A 
ATOM     20  C   UNL A   1      29.927  30.576  24.258  1.00  0.00     0.004 A 
ATOM     21  C   UNL A   1      29.947  28.220  22.753  1.00  0.00     0.008 A 
ATOM     22  C   UNL A   1      30.991  29.685  24.367  1.00  0.00     0.008 A 
ENDBRANCH   9  16
ENDBRANCH   7   8
BRANCH   7  23
ATOM     23  C   UNL A   1      33.493  22.022  26.233  1.00  0.00     0.015 C 
ATOM     24  C   UNL A   1      33.909  20.631  25.731  1.00  0.00     0.010 C 
ATOM     25  C   UNL A   1      34.121  22.198  27.625  1.00  0.00     0.010 C 
ENDBRANCH   7  23
ENDBRANCH   4   7
ENDBRANCH   2   3
ENDBRANCH   1   2
BRANCH   1  26
ATOM     26  C   UNL A   1      37.677  22.184  26.091  1.00  0.00     0.118 C 
BRANCH  26  27
ATOM     27  N   UNL A   1      39.083  22.079  26.447  1.00  0.00    -0.352 N 
ATOM     28  C   UNL A   1      40.040  23.068  26.573  1.00  0.00     0.251 C 
ATOM     29  H   UNL A   1      39.401  21.164  26.625  1.00  0.00     0.163 HD
ATOM     30  O   UNL A   1      41.219  22.749  26.695  1.00  0.00    -0.269 OA
BRANCH  28  31
ATOM     31  C   UNL A   1      39.637  24.484  26.768  1.00  0.00     0.039 A 
ATOM     32  C   UNL A   1      40.386  25.454  26.085  1.00  0.00     0.014 A 
ATOM     33  C   UNL A   1      38.830  24.861  27.831  1.00  0.00     0.014 A 
ATOM     34  C   UNL A   1      40.570  26.703  26.661  1.00  0.00     0.010 A 
ATOM     35  C   UNL A   1      39.146  26.013  28.498  1.00  0.00     0.010 A 
ATOM     36  C   UNL A   1      40.063  26.902  27.936  1.00  0.00    -0.014 A 
BRANCH  36  37
ATOM     37  C   UNL A   1      40.369  28.022  28.795  1.00  0.00     0.031 A 
ATOM     38  C   UNL A   1      39.389  29.115  28.863  1.00  0.00     0.074 A 
ATOM     39  C   UNL A   1      41.372  27.882  29.688  1.00  0.00     0.049 A 
ATOM     40  N   UNL A   1      39.605  30.244  29.429  1.00  0.00    -0.248 NA
ATOM     41  C   UNL A   1      38.063  29.015  28.264  1.00  0.00     0.031 C 
ATOM     42  C   UNL A   1      41.613  28.660  30.897  1.00  0.00     0.029 A 
ATOM     43  N   UNL A   1      42.513  27.071  29.570  1.00  0.00    -0.354 N 
ATOM     44  C   UNL A   1      38.398  30.895  29.537  1.00  0.00     0.074 A 
ATOM     45  C   UNL A   1      37.492  30.134  28.715  1.00  0.00     0.031 C 
ATOM     46  C   UNL A   1      42.911  28.548  31.229  1.00  0.00     0.029 A 
ATOM     47  C   UNL A   1      43.563  27.830  30.147  1.00  0.00     0.049 A 
ATOM     48  H   UNL A   1      42.570  26.171  29.172  1.00  0.00     0.167 HD
ATOM     49  C   UNL A   1      38.313  31.929  30.423  1.00  0.00     0.037 A 
ATOM     50  C   UNL A   1      44.538  28.347  29.339  1.00  0.00     0.037 A 
ATOM     51  C   UNL A   1      39.638  32.214  30.989  1.00  0.00     0.049 A 
ATOM     52  C   UNL A   1      44.534  29.863  29.255  1.00  0.00     0.074 A 
ATOM     53  C   UNL A   1      40.287  31.890  32.167  1.00  0.00     0.029 A 
ATOM     54  N   UNL A   1      40.624  32.645  30.123  1.00  0.00    -0.354 N 
ATOM     55  N   UNL A   1      43.629  30.626  29.805  1.00  0.00    -0.248 NA
ATOM     56  C   UNL A   1      45.509  30.636  28.487  1.00  0.00     0.031 C 
ATOM     57  C   UNL A   1      41.688  32.109  31.974  1.00  0.00     0.029 A 
ATOM     58  C   UNL A   1      41.879  32.585  30.689  1.00  0.00     0.049 A 
ATOM     59  H   UNL A   1      40.451  32.959  29.207  1.00  0.00     0.167 HD
ATOM     60  C   UNL A   1      43.847  31.932  29.463  1.00  0.00     0.074 A 
ATOM     61  C   UNL A   1      45.035  31.887  28.628  1.00  0.00     0.031 C 
ATOM     62  C   UNL A   1      43.024  32.946  29.865  1.00  0.00     0.037 A 
BRANCH  49  63
ATOM     63  C   UNL A   1      37.042  32.567  30.942  1.00  0.00     0.064 A 
ATOM     64  C   UNL A   1      36.287  33.408  30.094  1.00  0.00     0.173 A 
ATOM     65  C   UNL A   1      36.526  32.448  32.247  1.00  0.00     0.173 A 
ATOM     66  F   UNL A   1      36.596  33.559  28.799  1.00  0.00    -0.203 F 
ATOM     67  C   UNL A   1      35.175  34.129  30.540  1.00  0.00     0.198 A 
ATOM     68  C   UNL A   1      35.433  33.193  32.702  1.00  0.00     0.198 A 
ATOM     69  F   UNL A   1      37.010  31.573  33.128  1.00  0.00    -0.203 F 
ATOM     70  F   UNL A   1      34.511  34.919  29.684  1.00  0.00    -0.200 F 
ATOM     71  C   UNL A   1      34.762  34.041  31.851  1.00  0.00     0.200 A 
ATOM     72  F   UNL A   1      35.033  33.069  33.977  1.00  0.00    -0.200 F 
ATOM     73  F   UNL A   1      33.711  34.748  32.286  1.00  0.00    -0.200 F 
ENDBRANCH  49  63
BRANCH  50  74
ATOM     74  C   UNL A   1      44.874  27.402  28.231  1.00  0.00     0.064 A 
ATOM     75  C   UNL A   1      45.371  26.132  28.598  1.00  0.00     0.173 A 
ATOM     76  C   UNL A   1      44.274  27.519  26.972  1.00  0.00     0.173 A 
ATOM     77  F   UNL A   1      45.973  25.968  29.787  1.00  0.00    -0.203 F 
ATOM     78  C   UNL A   1      45.109  25.002  27.826  1.00  0.00     0.198 A 
ATOM     79  C   UNL A   1      44.044  26.387  26.185  1.00  0.00     0.198 A 
ATOM     80  F   UNL A   1      43.780  28.697  26.562  1.00  0.00    -0.203 F 
ATOM     81  F   UNL A   1      45.447  23.788  28.282  1.00  0.00    -0.200 F 
ATOM     82  C   UNL A   1      44.409  25.127  26.639  1.00  0.00     0.200 A 
ATOM     83  F   UNL A   1      43.373  26.504  25.030  1.00  0.00    -0.200 F 
ATOM     84  F   UNL A   1      44.050  24.032  25.954  1.00  0.00    -0.200 F 
ENDBRANCH  50  74
BRANCH  62  85
ATOM     85  C   UNL A   1      43.225  34.389  29.486  1.00  0.00     0.064 A 
ATOM     86  C   UNL A   1      43.408  35.395  30.445  1.00  0.00     0.173 A 
ATOM     87  C   UNL A   1      43.127  34.827  28.145  1.00  0.00     0.173 A 
ATOM     88  F   UNL A   1      43.438  35.100  31.753  1.00  0.00    -0.203 F 
ATOM     89  C   UNL A   1      43.545  36.737  30.081  1.00  0.00     0.198 A 
ATOM     90  C   UNL A   1      43.193  36.171  27.792  1.00  0.00     0.198 A 
ATOM     91  F   UNL A   1      42.996  33.966  27.126  1.00  0.00    -0.203 F 
ATOM     92  F   UNL A   1      43.791  37.658  31.023  1.00  0.00    -0.200 F 
ATOM     93  C   UNL A   1      43.426  37.126  28.758  1.00  0.00     0.200 A 
ATOM     94  F   UNL A   1      43.046  36.528  26.508  1.00  0.00    -0.200 F 
ATOM     95  F   UNL A   1      43.540  38.415  28.413  1.00  0.00    -0.200 F 
ENDBRANCH  62  85
ENDBRANCH  36  37
ENDBRANCH  28  31
ENDBRANCH  26  27
ENDBRANCH   1  26
TORSDOF 13
ENDMDL
MODEL 3
REMARK VINA RESULT:     -13.3      3.227      9.556
REMARK SMILES Cc1ccc(/C=C2\SC(=S)N([C@H](C(=O)NCCCNC(=O)c3ccc(-c4c5nc(c(-c6c(F)c(F)c(F)c(F)c6F)c6ccc([nH]6)c(-c6c(F)c(F)c(F)c(F)c6F)c6nc(c(-c7c(F)c(F)c(F)c(F)c7F)c7ccc4[nH]7)C=C6)C=C5)cc3)C(C)C)C2=O)cc1
REMARK SMILES IDX 17 1 16 2 15 3 13 4 14 5 12 7 11 8 6 9 7 10 8 11 88 12 9 13
REMARK SMILES IDX 89 14 10 15 5 16 1 17 2 18 3 19 91 20 4 21 90 22 85 23 86 24
REMARK SMILES IDX 87 25 18 26 19 27 20 28 21 30 22 31 23 32 84 33 24 34 83 35
REMARK SMILES IDX 25 36 26 37 27 38 77 39 28 40 82 41 76 42 78 43 29 44 81 45
REMARK SMILES IDX 75 46 74 47 30 49 62 50 42 51 61 52 43 53 46 54 60 55 79 56
REMARK SMILES IDX 44 57 45 58 59 60 80 61 47 62 31 63 32 64 40 65 33 66 34 67
REMARK SMILES IDX 38 68 41 69 35 70 36 71 39 72 37 73 63 74 64 75 72 76 65 77
REMARK SMILES IDX 66 78 70 79 73 80 67 81 68 82 71 83 69 84 48 85 49 86 57 87
REMARK SMILES IDX 50 88 51 89 55 90 58 91 52 92 53 93 56 94 54 95
REMARK H PARENT 15 6 19 29 78 48 46 59
REMARK Flexibility Score: inf
ROOT
ATOM      1  C   UNL A   1      37.382  21.883  24.607  1.00  0.00     0.042 C 
ENDROOT
BRANCH   1   2
ATOM      2  C   UNL A   1      36.637  23.007  23.908  1.00  0.00     0.117 C 
BRANCH   2   3
ATOM      3  N   UNL A   1      35.352  22.578  23.357  1.00  0.00    -0.354 N 
ATOM      4  C   UNL A   1      34.083  22.714  23.867  1.00  0.00     0.243 C 
ATOM      5  O   UNL A   1      33.128  22.414  23.149  1.00  0.00    -0.273 OA
ATOM      6  H   UNL A   1      35.404  22.122  22.486  1.00  0.00     0.163 HD
BRANCH   4   7
ATOM      7  C   UNL A   1      33.891  23.241  25.305  1.00  0.00     0.184 C 
BRANCH   7   8
ATOM      8  N   UNL A   1      32.937  24.401  25.253  1.00  0.00    -0.280 N 
ATOM      9  C   UNL A   1      32.086  27.578  23.773  1.00  0.00     0.029 C 
ATOM     10  C   UNL A   1      32.083  26.493  24.557  1.00  0.00     0.081 C 
ATOM     11  S   UNL A   1      30.769  25.829  25.419  1.00  0.00    -0.054 SA
ATOM     12  C   UNL A   1      33.288  25.635  24.711  1.00  0.00     0.266 C 
ATOM     13  C   UNL A   1      31.605  24.300  25.646  1.00  0.00     0.149 C 
ATOM     14  O   UNL A   1      34.375  26.024  24.349  1.00  0.00    -0.268 OA
ATOM     15  S   UNL A   1      30.752  22.992  26.236  1.00  0.00    -0.052 S 
BRANCH   9  16
ATOM     16  C   UNL A   1      30.953  28.493  23.633  1.00  0.00    -0.024 A 
ATOM     17  C   UNL A   1      27.651  31.239  23.333  1.00  0.00     0.044 C 
ATOM     18  C   UNL A   1      28.802  30.284  23.436  1.00  0.00    -0.051 A 
ATOM     19  C   UNL A   1      28.792  29.080  22.717  1.00  0.00     0.004 A 
ATOM     20  C   UNL A   1      29.899  30.585  24.249  1.00  0.00     0.004 A 
ATOM     21  C   UNL A   1      29.864  28.187  22.813  1.00  0.00     0.008 A 
ATOM     22  C   UNL A   1      30.968  29.697  24.342  1.00  0.00     0.008 A 
ENDBRANCH   9  16
ENDBRANCH   7   8
BRANCH   7  23
ATOM     23  C   UNL A   1      33.519  22.046  26.245  1.00  0.00     0.015 C 
ATOM     24  C   UNL A   1      33.945  20.656  25.746  1.00  0.00     0.010 C 
ATOM     25  C   UNL A   1      34.154  22.234  27.632  1.00  0.00     0.010 C 
ENDBRANCH   7  23
ENDBRANCH   4   7
ENDBRANCH   2   3
ENDBRANCH   1   2
BRANCH   1  26
ATOM     26  C   UNL A   1      37.688  22.199  26.054  1.00  0.00     0.118 C 
BRANCH  26  27
ATOM     27  N   UNL A   1      39.098  22.115  26.397  1.00  0.00    -0.352 N 
ATOM     28  C   UNL A   1      40.042  23.118  26.510  1.00  0.00     0.251 C 
ATOM     29  H   UNL A   1      39.432  21.206  26.575  1.00  0.00     0.163 HD
ATOM     30  O   UNL A   1      41.227  22.817  26.622  1.00  0.00    -0.269 OA
BRANCH  28  31
ATOM     31  C   UNL A   1      39.620  24.529  26.705  1.00  0.00     0.039 A 
ATOM     32  C   UNL A   1      40.406  25.515  26.089  1.00  0.00     0.014 A 
ATOM     33  C   UNL A   1      38.744  24.883  27.720  1.00  0.00     0.014 A 
ATOM     34  C   UNL A   1      40.547  26.754  26.699  1.00  0.00     0.010 A 
ATOM     35  C   UNL A   1      39.011  26.023  28.428  1.00  0.00     0.010 A 
ATOM     36  C   UNL A   1      39.958  26.926  27.943  1.00  0.00    -0.014 A 
BRANCH  36  37
ATOM     37  C   UNL A   1      40.202  28.032  28.840  1.00  0.00     0.031 A 
ATOM     38  C   UNL A   1      39.237  29.139  28.834  1.00  0.00     0.074 A 
ATOM     39  C   UNL A   1      41.118  27.865  29.817  1.00  0.00     0.049 A 
ATOM     40  N   UNL A   1      39.419  30.258  29.431  1.00  0.00    -0.248 NA
ATOM     41  C   UNL A   1      37.969  29.068  28.116  1.00  0.00     0.031 C 
ATOM     42  C   UNL A   1      41.261  28.624  31.054  1.00  0.00     0.029 A 
ATOM     43  N   UNL A   1      42.253  27.036  29.792  1.00  0.00    -0.354 N 
ATOM     44  C   UNL A   1      38.217  30.928  29.438  1.00  0.00     0.074 A 
ATOM     45  C   UNL A   1      37.377  30.191  28.528  1.00  0.00     0.031 C 
ATOM     46  C   UNL A   1      42.522  28.487  31.500  1.00  0.00     0.029 A 
ATOM     47  C   UNL A   1      43.258  27.771  30.472  1.00  0.00     0.049 A 
ATOM     48  H   UNL A   1      42.332  26.140  29.390  1.00  0.00     0.167 HD
ATOM     49  C   UNL A   1      38.068  31.953  30.327  1.00  0.00     0.037 A 
ATOM     50  C   UNL A   1      44.309  28.281  29.761  1.00  0.00     0.037 A 
ATOM     51  C   UNL A   1      39.341  32.209  31.012  1.00  0.00     0.049 A 
ATOM     52  C   UNL A   1      44.336  29.797  29.697  1.00  0.00     0.074 A 
ATOM     53  C   UNL A   1      39.876  31.861  32.241  1.00  0.00     0.029 A 
ATOM     54  N   UNL A   1      40.408  32.634  30.245  1.00  0.00    -0.354 N 
ATOM     55  N   UNL A   1      43.397  30.569  30.173  1.00  0.00    -0.248 NA
ATOM     56  C   UNL A   1      45.389  30.563  29.030  1.00  0.00     0.031 C 
ATOM     57  C   UNL A   1      41.291  32.060  32.177  1.00  0.00     0.029 A 
ATOM     58  C   UNL A   1      41.605  32.547  30.921  1.00  0.00     0.049 A 
ATOM     59  H   UNL A   1      40.323  32.961  29.321  1.00  0.00     0.167 HD
ATOM     60  C   UNL A   1      43.666  31.875  29.869  1.00  0.00     0.074 A 
ATOM     61  C   UNL A   1      44.924  31.820  29.144  1.00  0.00     0.031 C 
ATOM     62  C   UNL A   1      42.826  32.898  30.208  1.00  0.00     0.037 A 
BRANCH  49  63
ATOM     63  C   UNL A   1      36.766  32.606  30.736  1.00  0.00     0.064 A 
ATOM     64  C   UNL A   1      36.110  33.480  29.840  1.00  0.00     0.173 A 
ATOM     65  C   UNL A   1      36.126  32.471  31.984  1.00  0.00     0.173 A 
ATOM     66  F   UNL A   1      36.543  33.651  28.584  1.00  0.00    -0.203 F 
ATOM     67  C   UNL A   1      34.974  34.213  30.194  1.00  0.00     0.198 A 
ATOM     68  C   UNL A   1      35.008  33.229  32.350  1.00  0.00     0.198 A 
ATOM     69  F   UNL A   1      36.508  31.568  32.887  1.00  0.00    -0.203 F 
ATOM     70  F   UNL A   1      34.409  35.034  29.298  1.00  0.00    -0.200 F 
ATOM     71  C   UNL A   1      34.437  34.107  31.459  1.00  0.00     0.200 A 
ATOM     72  F   UNL A   1      34.487  33.086  33.578  1.00  0.00    -0.200 F 
ATOM     73  F   UNL A   1      33.362  34.826  31.808  1.00  0.00    -0.200 F 
ENDBRANCH  49  63
BRANCH  50  74
ATOM     74  C   UNL A   1      44.729  27.343  28.676  1.00  0.00     0.064 A 
ATOM     75  C   UNL A   1      44.374  27.688  27.354  1.00  0.00     0.173 A 
ATOM     76  C   UNL A   1      45.820  26.482  28.845  1.00  0.00     0.173 A 
ATOM     77  F   UNL A   1      43.324  28.497  27.134  1.00  0.00    -0.203 F 
ATOM     78  C   UNL A   1      45.184  27.345  26.274  1.00  0.00     0.198 A 
ATOM     79  C   UNL A   1      46.609  26.111  27.753  1.00  0.00     0.198 A 
ATOM     80  F   UNL A   1      46.210  26.114  30.075  1.00  0.00    -0.203 F 
ATOM     81  F   UNL A   1      44.911  27.828  25.053  1.00  0.00    -0.200 F 
ATOM     82  C   UNL A   1      46.324  26.590  26.482  1.00  0.00     0.200 A 
ATOM     83  F   UNL A   1      47.711  25.372  27.948  1.00  0.00    -0.200 F 
ATOM     84  F   UNL A   1      47.169  26.358  25.467  1.00  0.00    -0.200 F 
ENDBRANCH  50  74
BRANCH  62  85
ATOM     85  C   UNL A   1      43.083  34.342  29.868  1.00  0.00     0.064 A 
ATOM     86  C   UNL A   1      43.159  34.796  28.544  1.00  0.00     0.173 A 
ATOM     87  C   UNL A   1      43.376  35.299  30.866  1.00  0.00     0.173 A 
ATOM     88  F   UNL A   1      42.975  33.954  27.517  1.00  0.00    -0.203 F 
ATOM     89  C   UNL A   1      43.446  36.131  28.244  1.00  0.00     0.198 A 
ATOM     90  C   UNL A   1      43.731  36.610  30.561  1.00  0.00     0.198 A 
ATOM     91  F   UNL A   1      43.297  35.009  32.172  1.00  0.00    -0.203 F 
ATOM     92  F   UNL A   1      43.437  36.540  26.967  1.00  0.00    -0.200 F 
ATOM     93  C   UNL A   1      43.744  37.033  29.250  1.00  0.00     0.200 A 
ATOM     94  F   UNL A   1      44.044  37.460  31.550  1.00  0.00    -0.200 F 
ATOM     95  F   UNL A   1      44.037  38.307  28.959  1.00  0.00    -0.200 F 
ENDBRANCH  62  85
ENDBRANCH  36  37
ENDBRANCH  28  31
ENDBRANCH  26  27
ENDBRANCH   1  26
TORSDOF 13
ENDMDL
