MODEL 1
REMARK VINA RESULT:     -12.5      0.000      0.000
REMARK SMILES C[C@@H](C(=O)NCCCNC(=O)c1ccc(-c2c3nc(c(-c4c(F)c(F)c(F)c(F)c4F)c4ccc([nH]4)c(-c4c(F)c(F)c(F)c(F)c4F)c4nc(c(-c5c(F)c(F)c(F)c(F)c5F)c5ccc2[nH]5)C=C4)C=C3)cc1)c1ccc(Cc2cccs2)cc1F
REMARK SMILES IDX 6 1 5 2 3 3 4 4 2 6 1 7 75 8 76 9 86 10 77 11 85 12 87 13
REMARK SMILES IDX 78 14 79 15 80 16 81 17 84 18 82 19 83 20 7 21 8 22 9 23
REMARK SMILES IDX 10 24 11 26 12 27 13 28 74 29 14 30 73 31 15 32 16 33 17 34
REMARK SMILES IDX 67 35 18 36 72 37 66 38 68 39 19 40 71 41 65 42 64 43 20 45
REMARK SMILES IDX 52 46 32 47 51 48 33 49 36 50 50 51 69 52 34 53 35 54 49 56
REMARK SMILES IDX 70 57 37 58 21 59 22 60 30 61 23 62 24 63 28 64 31 65 25 66
REMARK SMILES IDX 26 67 29 68 27 69 53 70 54 71 62 72 55 73 56 74 60 75 63 76
REMARK SMILES IDX 57 77 58 78 61 79 59 80 38 81 39 82 47 83 40 84 41 85 45 86
REMARK SMILES IDX 48 87 42 88 43 89 46 90 44 91
REMARK H PARENT 5 5 9 25 68 44 36 55
REMARK Flexibility Score: inf
ROOT
ATOM      1  C   UNL A   1      31.719  30.812  25.764  1.00  0.00     0.117 C 
ENDROOT
BRANCH   1   2
ATOM      2  N   UNL A   1      32.988  30.195  26.106  1.00  0.00    -0.356 N 
ATOM      3  C   UNL A   1      33.315  28.884  26.307  1.00  0.00     0.227 C 
ATOM      4  O   UNL A   1      34.415  28.672  26.823  1.00  0.00    -0.274 OA
ATOM      5  H   UNL A   1      33.737  30.826  26.210  1.00  0.00     0.163 HD
BRANCH   3   6
ATOM      6  C   UNL A   1      32.350  27.762  25.867  1.00  0.00     0.108 C 
ATOM      7  C   UNL A   1      31.391  27.466  27.025  1.00  0.00     0.023 C 
BRANCH   6   8
ATOM      8  C   UNL A   1      33.077  26.524  25.322  1.00  0.00    -0.000 A 
ATOM      9  C   UNL A   1      33.363  25.445  26.179  1.00  0.00     0.008 A 
ATOM     10  C   UNL A   1      33.520  26.405  23.997  1.00  0.00     0.127 A 
ATOM     11  C   UNL A   1      33.971  24.276  25.705  1.00  0.00     0.004 A 
ATOM     12  C   UNL A   1      34.156  25.255  23.524  1.00  0.00     0.043 A 
ATOM     13  F   UNL A   1      33.345  27.397  23.114  1.00  0.00    -0.207 F 
ATOM     14  C   UNL A   1      34.371  24.164  24.369  1.00  0.00    -0.040 A 
BRANCH  14  15
ATOM     15  C   UNL A   1      34.983  22.887  23.836  1.00  0.00     0.082 C 
BRANCH  15  16
ATOM     16  C   UNL A   1      34.213  21.642  24.181  1.00  0.00     0.009 A 
ATOM     17  C   UNL A   1      32.899  21.330  23.888  1.00  0.00     0.016 A 
ATOM     18  S   UNL A   1      34.988  20.348  25.000  1.00  0.00    -0.149 S 
ATOM     19  C   UNL A   1      32.529  20.032  24.340  1.00  0.00     0.012 A 
ATOM     20  C   UNL A   1      33.578  19.384  24.951  1.00  0.00     0.065 A 
ENDBRANCH  15  16
ENDBRANCH  14  15
ENDBRANCH   6   8
ENDBRANCH   3   6
ENDBRANCH   1   2
BRANCH   1  21
ATOM     21  C   UNL A   1      31.392  31.968  26.712  1.00  0.00     0.042 C 
BRANCH  21  22
ATOM     22  C   UNL A   1      32.615  32.686  27.275  1.00  0.00     0.118 C 
BRANCH  22  23
ATOM     23  N   UNL A   1      32.352  34.082  27.586  1.00  0.00    -0.352 N 
ATOM     24  C   UNL A   1      32.948  34.908  28.506  1.00  0.00     0.251 C 
ATOM     25  H   UNL A   1      31.634  34.498  27.056  1.00  0.00     0.163 HD
ATOM     26  O   UNL A   1      32.446  36.003  28.756  1.00  0.00    -0.269 OA
BRANCH  24  27
ATOM     27  C   UNL A   1      34.169  34.484  29.224  1.00  0.00     0.039 A 
ATOM     28  C   UNL A   1      34.049  34.015  30.535  1.00  0.00     0.014 A 
ATOM     29  C   UNL A   1      35.428  34.550  28.620  1.00  0.00     0.014 A 
ATOM     30  C   UNL A   1      35.173  33.525  31.204  1.00  0.00     0.010 A 
ATOM     31  C   UNL A   1      36.536  33.998  29.261  1.00  0.00     0.010 A 
ATOM     32  C   UNL A   1      36.416  33.460  30.552  1.00  0.00    -0.014 A 
BRANCH  32  33
ATOM     33  C   UNL A   1      37.575  32.767  31.172  1.00  0.00     0.031 A 
ATOM     34  C   UNL A   1      38.219  31.590  30.494  1.00  0.00     0.074 A 
ATOM     35  C   UNL A   1      37.987  33.149  32.398  1.00  0.00     0.049 A 
ATOM     36  N   UNL A   1      39.166  30.800  30.936  1.00  0.00    -0.248 NA
ATOM     37  C   UNL A   1      37.723  31.240  29.154  1.00  0.00     0.031 C 
ATOM     38  C   UNL A   1      37.415  34.251  33.176  1.00  0.00     0.029 A 
ATOM     39  N   UNL A   1      38.966  32.643  33.218  1.00  0.00    -0.354 N 
ATOM     40  C   UNL A   1      39.367  29.854  29.939  1.00  0.00     0.074 A 
ATOM     41  C   UNL A   1      38.425  30.148  28.881  1.00  0.00     0.031 C 
ATOM     42  C   UNL A   1      38.053  34.340  34.353  1.00  0.00     0.029 A 
ATOM     43  C   UNL A   1      39.043  33.271  34.438  1.00  0.00     0.049 A 
ATOM     44  H   UNL A   1      39.558  31.900  32.956  1.00  0.00     0.167 HD
ATOM     45  C   UNL A   1      40.264  28.841  29.911  1.00  0.00     0.037 A 
ATOM     46  C   UNL A   1      39.800  32.999  35.519  1.00  0.00     0.037 A 
ATOM     47  C   UNL A   1      41.221  28.573  30.955  1.00  0.00     0.049 A 
ATOM     48  C   UNL A   1      40.765  31.843  35.465  1.00  0.00     0.074 A 
ATOM     49  C   UNL A   1      42.235  27.631  30.970  1.00  0.00     0.029 A 
ATOM     50  N   UNL A   1      41.271  29.233  32.172  1.00  0.00    -0.354 N 
ATOM     51  N   UNL A   1      41.017  31.022  34.475  1.00  0.00    -0.248 NA
ATOM     52  C   UNL A   1      41.547  31.571  36.680  1.00  0.00     0.031 C 
ATOM     53  C   UNL A   1      42.853  27.674  32.222  1.00  0.00     0.029 A 
ATOM     54  C   UNL A   1      42.265  28.683  32.966  1.00  0.00     0.049 A 
ATOM     55  H   UNL A   1      40.687  29.982  32.434  1.00  0.00     0.167 HD
ATOM     56  C   UNL A   1      41.997  30.155  34.939  1.00  0.00     0.074 A 
ATOM     57  C   UNL A   1      42.315  30.565  36.289  1.00  0.00     0.031 C 
ATOM     58  C   UNL A   1      42.575  29.104  34.306  1.00  0.00     0.037 A 
BRANCH  45  59
ATOM     59  C   UNL A   1      40.273  27.927  28.721  1.00  0.00     0.064 A 
ATOM     60  C   UNL A   1      41.014  28.223  27.568  1.00  0.00     0.173 A 
ATOM     61  C   UNL A   1      39.621  26.685  28.782  1.00  0.00     0.173 A 
ATOM     62  F   UNL A   1      41.652  29.397  27.459  1.00  0.00    -0.203 F 
ATOM     63  C   UNL A   1      41.098  27.310  26.519  1.00  0.00     0.198 A 
ATOM     64  C   UNL A   1      39.729  25.765  27.743  1.00  0.00     0.198 A 
ATOM     65  F   UNL A   1      38.905  26.350  29.867  1.00  0.00    -0.203 F 
ATOM     66  F   UNL A   1      41.797  27.621  25.418  1.00  0.00    -0.200 F 
ATOM     67  C   UNL A   1      40.467  26.079  26.612  1.00  0.00     0.200 A 
ATOM     68  F   UNL A   1      39.132  24.569  27.843  1.00  0.00    -0.200 F 
ATOM     69  F   UNL A   1      40.571  25.193  25.612  1.00  0.00    -0.200 F 
ENDBRANCH  45  59
BRANCH  46  70
ATOM     70  C   UNL A   1      39.660  33.805  36.762  1.00  0.00     0.064 A 
ATOM     71  C   UNL A   1      38.821  33.387  37.806  1.00  0.00     0.173 A 
ATOM     72  C   UNL A   1      40.318  35.035  36.912  1.00  0.00     0.173 A 
ATOM     73  F   UNL A   1      38.150  32.230  37.703  1.00  0.00    -0.203 F 
ATOM     74  C   UNL A   1      38.615  34.186  38.930  1.00  0.00     0.198 A 
ATOM     75  C   UNL A   1      40.142  35.815  38.053  1.00  0.00     0.198 A 
ATOM     76  F   UNL A   1      41.136  35.482  35.948  1.00  0.00    -0.203 F 
ATOM     77  F   UNL A   1      37.751  33.795  39.876  1.00  0.00    -0.200 F 
ATOM     78  C   UNL A   1      39.278  35.397  39.054  1.00  0.00     0.200 A 
ATOM     79  F   UNL A   1      40.798  36.976  38.176  1.00  0.00    -0.200 F 
ATOM     80  F   UNL A   1      39.073  36.168  40.130  1.00  0.00    -0.200 F 
ENDBRANCH  46  70
BRANCH  58  81
ATOM     81  C   UNL A   1      43.621  28.335  35.058  1.00  0.00     0.064 A 
ATOM     82  C   UNL A   1      44.965  28.735  35.059  1.00  0.00     0.173 A 
ATOM     83  C   UNL A   1      43.268  27.217  35.830  1.00  0.00     0.173 A 
ATOM     84  F   UNL A   1      45.357  29.787  34.322  1.00  0.00    -0.203 F 
ATOM     85  C   UNL A   1      45.920  28.035  35.789  1.00  0.00     0.198 A 
ATOM     86  C   UNL A   1      44.221  26.539  36.586  1.00  0.00     0.198 A 
ATOM     87  F   UNL A   1      41.996  26.796  35.868  1.00  0.00    -0.203 F 
ATOM     88  F   UNL A   1      47.207  28.409  35.740  1.00  0.00    -0.200 F 
ATOM     89  C   UNL A   1      45.547  26.944  36.560  1.00  0.00     0.200 A 
ATOM     90  F   UNL A   1      43.854  25.496  37.343  1.00  0.00    -0.200 F 
ATOM     91  F   UNL A   1      46.465  26.279  37.274  1.00  0.00    -0.200 F 
ENDBRANCH  58  81
ENDBRANCH  32  33
ENDBRANCH  24  27
ENDBRANCH  22  23
ENDBRANCH  21  22
ENDBRANCH   1  21
TORSDOF 13
ENDMDL
MODEL 2
REMARK VINA RESULT:     -12.4      6.018     11.276
REMARK SMILES C[C@@H](C(=O)NCCCNC(=O)c1ccc(-c2c3nc(c(-c4c(F)c(F)c(F)c(F)c4F)c4ccc([nH]4)c(-c4c(F)c(F)c(F)c(F)c4F)c4nc(c(-c5c(F)c(F)c(F)c(F)c5F)c5ccc2[nH]5)C=C4)C=C3)cc1)c1ccc(Cc2cccs2)cc1F
REMARK SMILES IDX 6 1 5 2 3 3 4 4 2 6 1 7 75 8 76 9 86 10 77 11 85 12 87 13
REMARK SMILES IDX 78 14 79 15 80 16 81 17 84 18 82 19 83 20 7 21 8 22 9 23
REMARK SMILES IDX 10 24 11 26 12 27 13 28 74 29 14 30 73 31 15 32 16 33 17 34
REMARK SMILES IDX 67 35 18 36 72 37 66 38 68 39 19 40 71 41 65 42 64 43 20 45
REMARK SMILES IDX 52 46 32 47 51 48 33 49 36 50 50 51 69 52 34 53 35 54 49 56
REMARK SMILES IDX 70 57 37 58 21 59 22 60 30 61 23 62 24 63 28 64 31 65 25 66
REMARK SMILES IDX 26 67 29 68 27 69 53 70 54 71 62 72 55 73 56 74 60 75 63 76
REMARK SMILES IDX 57 77 58 78 61 79 59 80 38 81 39 82 47 83 40 84 41 85 45 86
REMARK SMILES IDX 48 87 42 88 43 89 46 90 44 91
REMARK H PARENT 5 5 9 25 68 44 36 55
REMARK Flexibility Score: inf
ROOT
ATOM      1  C   UNL A   1      36.974  21.380  24.741  1.00  0.00     0.117 C 
ENDROOT
BRANCH   1   2
ATOM      2  N   UNL A   1      35.582  20.982  24.630  1.00  0.00    -0.356 N 
ATOM      3  C   UNL A   1      34.512  21.254  25.434  1.00  0.00     0.227 C 
ATOM      4  O   UNL A   1      33.496  20.587  25.229  1.00  0.00    -0.274 OA
ATOM      5  H   UNL A   1      35.375  20.425  23.845  1.00  0.00     0.163 HD
BRANCH   3   6
ATOM      6  C   UNL A   1      34.600  22.365  26.503  1.00  0.00     0.108 C 
ATOM      7  C   UNL A   1      34.038  21.816  27.820  1.00  0.00     0.023 C 
BRANCH   6   8
ATOM      8  C   UNL A   1      33.963  23.686  26.051  1.00  0.00    -0.000 A 
ATOM      9  C   UNL A   1      32.646  23.998  26.437  1.00  0.00     0.008 A 
ATOM     10  C   UNL A   1      34.610  24.617  25.226  1.00  0.00     0.127 A 
ATOM     11  C   UNL A   1      32.052  25.218  26.093  1.00  0.00     0.004 A 
ATOM     12  C   UNL A   1      34.012  25.824  24.852  1.00  0.00     0.043 A 
ATOM     13  F   UNL A   1      35.845  24.393  24.760  1.00  0.00    -0.207 F 
ATOM     14  C   UNL A   1      32.731  26.150  25.300  1.00  0.00    -0.040 A 
BRANCH  14  15
ATOM     15  C   UNL A   1      32.117  27.492  24.965  1.00  0.00     0.082 C 
BRANCH  15  16
ATOM     16  C   UNL A   1      32.531  28.607  25.885  1.00  0.00     0.009 A 
ATOM     17  C   UNL A   1      33.502  28.600  26.869  1.00  0.00     0.016 A 
ATOM     18  S   UNL A   1      31.805  30.156  25.745  1.00  0.00    -0.149 S 
ATOM     19  C   UNL A   1      33.644  29.864  27.509  1.00  0.00     0.012 A 
ATOM     20  C   UNL A   1      32.789  30.804  26.982  1.00  0.00     0.065 A 
ENDBRANCH  15  16
ENDBRANCH  14  15
ENDBRANCH   6   8
ENDBRANCH   3   6
ENDBRANCH   1   2
BRANCH   1  21
ATOM     21  C   UNL A   1      37.877  20.170  24.992  1.00  0.00     0.042 C 
BRANCH  21  22
ATOM     22  C   UNL A   1      39.090  20.462  25.872  1.00  0.00     0.118 C 
BRANCH  22  23
ATOM     23  N   UNL A   1      40.037  19.359  25.905  1.00  0.00    -0.352 N 
ATOM     24  C   UNL A   1      41.402  19.372  26.053  1.00  0.00     0.251 C 
ATOM     25  H   UNL A   1      39.638  18.465  25.804  1.00  0.00     0.163 HD
ATOM     26  O   UNL A   1      42.046  18.343  25.854  1.00  0.00    -0.269 OA
BRANCH  24  27
ATOM     27  C   UNL A   1      42.110  20.618  26.418  1.00  0.00     0.039 A 
ATOM     28  C   UNL A   1      42.628  21.421  25.398  1.00  0.00     0.014 A 
ATOM     29  C   UNL A   1      42.274  20.997  27.754  1.00  0.00     0.014 A 
ATOM     30  C   UNL A   1      43.223  22.645  25.710  1.00  0.00     0.010 A 
ATOM     31  C   UNL A   1      42.804  22.249  28.060  1.00  0.00     0.010 A 
ATOM     32  C   UNL A   1      43.265  23.095  27.040  1.00  0.00    -0.014 A 
BRANCH  32  33
ATOM     33  C   UNL A   1      43.715  24.473  27.372  1.00  0.00     0.031 A 
ATOM     34  C   UNL A   1      42.726  25.523  27.795  1.00  0.00     0.074 A 
ATOM     35  C   UNL A   1      45.012  24.797  27.201  1.00  0.00     0.049 A 
ATOM     36  N   UNL A   1      42.921  26.798  28.019  1.00  0.00    -0.248 NA
ATOM     37  C   UNL A   1      41.330  25.090  27.972  1.00  0.00     0.031 C 
ATOM     38  C   UNL A   1      46.061  23.877  26.754  1.00  0.00     0.029 A 
ATOM     39  N   UNL A   1      45.670  25.993  27.358  1.00  0.00    -0.354 N 
ATOM     40  C   UNL A   1      41.677  27.322  28.346  1.00  0.00     0.074 A 
ATOM     41  C   UNL A   1      40.726  26.235  28.263  1.00  0.00     0.031 C 
ATOM     42  C   UNL A   1      47.226  24.537  26.678  1.00  0.00     0.029 A 
ATOM     43  C   UNL A   1      47.002  25.938  27.017  1.00  0.00     0.049 A 
ATOM     44  H   UNL A   1      45.231  26.812  27.683  1.00  0.00     0.167 HD
ATOM     45  C   UNL A   1      41.365  28.593  28.691  1.00  0.00     0.037 A 
ATOM     46  C   UNL A   1      47.930  26.912  26.952  1.00  0.00     0.037 A 
ATOM     47  C   UNL A   1      42.324  29.664  28.801  1.00  0.00     0.049 A 
ATOM     48  C   UNL A   1      47.540  28.322  27.311  1.00  0.00     0.074 A 
ATOM     49  C   UNL A   1      42.116  30.960  29.242  1.00  0.00     0.029 A 
ATOM     50  N   UNL A   1      43.661  29.569  28.453  1.00  0.00    -0.354 N 
ATOM     51  N   UNL A   1      46.383  28.781  27.719  1.00  0.00    -0.248 NA
ATOM     52  C   UNL A   1      48.584  29.351  27.197  1.00  0.00     0.031 C 
ATOM     53  C   UNL A   1      43.311  31.668  29.094  1.00  0.00     0.029 A 
ATOM     54  C   UNL A   1      44.279  30.799  28.620  1.00  0.00     0.049 A 
ATOM     55  H   UNL A   1      44.107  28.750  28.136  1.00  0.00     0.167 HD
ATOM     56  C   UNL A   1      46.564  30.142  27.930  1.00  0.00     0.074 A 
ATOM     57  C   UNL A   1      47.950  30.431  27.632  1.00  0.00     0.031 C 
ATOM     58  C   UNL A   1      45.660  31.071  28.324  1.00  0.00     0.037 A 
BRANCH  45  59
ATOM     59  C   UNL A   1      39.930  28.923  28.979  1.00  0.00     0.064 A 
ATOM     60  C   UNL A   1      39.046  29.318  27.964  1.00  0.00     0.173 A 
ATOM     61  C   UNL A   1      39.408  28.730  30.268  1.00  0.00     0.173 A 
ATOM     62  F   UNL A   1      39.496  29.520  26.717  1.00  0.00    -0.203 F 
ATOM     63  C   UNL A   1      37.693  29.513  28.232  1.00  0.00     0.198 A 
ATOM     64  C   UNL A   1      38.050  28.900  30.525  1.00  0.00     0.198 A 
ATOM     65  F   UNL A   1      40.210  28.344  31.271  1.00  0.00    -0.203 F 
ATOM     66  F   UNL A   1      36.869  29.909  27.252  1.00  0.00    -0.200 F 
ATOM     67  C   UNL A   1      37.194  29.292  29.507  1.00  0.00     0.200 A 
ATOM     68  F   UNL A   1      37.568  28.669  31.754  1.00  0.00    -0.200 F 
ATOM     69  F   UNL A   1      35.887  29.454  29.755  1.00  0.00    -0.200 F 
ENDBRANCH  45  59
BRANCH  46  70
ATOM     70  C   UNL A   1      49.314  26.607  26.496  1.00  0.00     0.064 A 
ATOM     71  C   UNL A   1      50.298  26.185  27.402  1.00  0.00     0.173 A 
ATOM     72  C   UNL A   1      49.697  26.783  25.158  1.00  0.00     0.173 A 
ATOM     73  F   UNL A   1      49.990  26.023  28.697  1.00  0.00    -0.203 F 
ATOM     74  C   UNL A   1      51.617  25.990  26.995  1.00  0.00     0.198 A 
ATOM     75  C   UNL A   1      51.007  26.551  24.744  1.00  0.00     0.198 A 
ATOM     76  F   UNL A   1      48.797  27.182  24.248  1.00  0.00    -0.203 F 
ATOM     77  F   UNL A   1      52.551  25.658  27.897  1.00  0.00    -0.200 F 
ATOM     78  C   UNL A   1      51.970  26.170  25.666  1.00  0.00     0.200 A 
ATOM     79  F   UNL A   1      51.338  26.710  23.456  1.00  0.00    -0.200 F 
ATOM     80  F   UNL A   1      53.239  25.991  25.278  1.00  0.00    -0.200 F 
ENDBRANCH  46  70
BRANCH  58  81
ATOM     81  C   UNL A   1      46.143  32.485  28.473  1.00  0.00     0.064 A 
ATOM     82  C   UNL A   1      46.035  33.410  27.424  1.00  0.00     0.173 A 
ATOM     83  C   UNL A   1      46.668  32.935  29.694  1.00  0.00     0.173 A 
ATOM     84  F   UNL A   1      45.556  33.024  26.231  1.00  0.00    -0.203 F 
ATOM     85  C   UNL A   1      46.452  34.727  27.586  1.00  0.00     0.198 A 
ATOM     86  C   UNL A   1      47.053  34.262  29.862  1.00  0.00     0.198 A 
ATOM     87  F   UNL A   1      46.788  32.093  30.730  1.00  0.00    -0.203 F 
ATOM     88  F   UNL A   1      46.381  35.582  26.556  1.00  0.00    -0.200 F 
ATOM     89  C   UNL A   1      46.951  35.156  28.806  1.00  0.00     0.200 A 
ATOM     90  F   UNL A   1      47.519  34.678  31.048  1.00  0.00    -0.200 F 
ATOM     91  F   UNL A   1      47.339  36.428  28.965  1.00  0.00    -0.200 F 
ENDBRANCH  58  81
ENDBRANCH  32  33
ENDBRANCH  24  27
ENDBRANCH  22  23
ENDBRANCH  21  22
ENDBRANCH   1  21
TORSDOF 13
ENDMDL
MODEL 3
REMARK VINA RESULT:     -12.4      1.149      2.190
REMARK SMILES C[C@@H](C(=O)NCCCNC(=O)c1ccc(-c2c3nc(c(-c4c(F)c(F)c(F)c(F)c4F)c4ccc([nH]4)c(-c4c(F)c(F)c(F)c(F)c4F)c4nc(c(-c5c(F)c(F)c(F)c(F)c5F)c5ccc2[nH]5)C=C4)C=C3)cc1)c1ccc(Cc2cccs2)cc1F
REMARK SMILES IDX 6 1 5 2 3 3 4 4 2 6 1 7 75 8 76 9 86 10 77 11 85 12 87 13
REMARK SMILES IDX 78 14 79 15 80 16 81 17 84 18 82 19 83 20 7 21 8 22 9 23
REMARK SMILES IDX 10 24 11 26 12 27 13 28 74 29 14 30 73 31 15 32 16 33 17 34
REMARK SMILES IDX 67 35 18 36 72 37 66 38 68 39 19 40 71 41 65 42 64 43 20 45
REMARK SMILES IDX 52 46 32 47 51 48 33 49 36 50 50 51 69 52 34 53 35 54 49 56
REMARK SMILES IDX 70 57 37 58 21 59 22 60 30 61 23 62 24 63 28 64 31 65 25 66
REMARK SMILES IDX 26 67 29 68 27 69 53 70 54 71 62 72 55 73 56 74 60 75 63 76
REMARK SMILES IDX 57 77 58 78 61 79 59 80 38 81 39 82 47 83 40 84 41 85 45 86
REMARK SMILES IDX 48 87 42 88 43 89 46 90 44 91
REMARK H PARENT 5 5 9 25 68 44 36 55
REMARK Flexibility Score: inf
ROOT
ATOM      1  C   UNL A   1      31.943  30.131  26.394  1.00  0.00     0.117 C 
ENDROOT
BRANCH   1   2
ATOM      2  N   UNL A   1      31.365  29.619  25.165  1.00  0.00    -0.356 N 
ATOM      3  C   UNL A   1      31.952  29.011  24.091  1.00  0.00     0.227 C 
ATOM      4  O   UNL A   1      31.251  28.898  23.082  1.00  0.00    -0.274 OA
ATOM      5  H   UNL A   1      30.389  29.727  25.093  1.00  0.00     0.163 HD
BRANCH   3   6
ATOM      6  C   UNL A   1      33.398  28.480  24.187  1.00  0.00     0.108 C 
ATOM      7  C   UNL A   1      34.147  28.878  22.910  1.00  0.00     0.023 C 
BRANCH   6   8
ATOM      8  C   UNL A   1      33.468  26.982  24.515  1.00  0.00    -0.000 A 
ATOM      9  C   UNL A   1      33.619  26.044  23.477  1.00  0.00     0.008 A 
ATOM     10  C   UNL A   1      33.353  26.466  25.814  1.00  0.00     0.127 A 
ATOM     11  C   UNL A   1      33.745  24.675  23.742  1.00  0.00     0.004 A 
ATOM     12  C   UNL A   1      33.446  25.098  26.082  1.00  0.00     0.043 A 
ATOM     13  F   UNL A   1      33.153  27.270  26.866  1.00  0.00    -0.207 F 
ATOM     14  C   UNL A   1      33.666  24.184  25.050  1.00  0.00    -0.040 A 
BRANCH  14  15
ATOM     15  C   UNL A   1      33.851  22.713  25.350  1.00  0.00     0.082 C 
BRANCH  15  16
ATOM     16  C   UNL A   1      35.279  22.247  25.298  1.00  0.00     0.009 A 
ATOM     17  C   UNL A   1      35.777  21.030  24.870  1.00  0.00     0.016 A 
ATOM     18  S   UNL A   1      36.549  23.307  25.755  1.00  0.00    -0.149 S 
ATOM     19  C   UNL A   1      37.198  20.969  24.923  1.00  0.00     0.012 A 
ATOM     20  C   UNL A   1      37.745  22.148  25.374  1.00  0.00     0.065 A 
ENDBRANCH  15  16
ENDBRANCH  14  15
ENDBRANCH   6   8
ENDBRANCH   3   6
ENDBRANCH   1   2
BRANCH   1  21
ATOM     21  C   UNL A   1      31.713  31.638  26.529  1.00  0.00     0.042 C 
BRANCH  21  22
ATOM     22  C   UNL A   1      32.838  32.385  27.240  1.00  0.00     0.118 C 
BRANCH  22  23
ATOM     23  N   UNL A   1      32.498  33.770  27.527  1.00  0.00    -0.352 N 
ATOM     24  C   UNL A   1      33.013  34.629  28.465  1.00  0.00     0.251 C 
ATOM     25  H   UNL A   1      31.787  34.149  26.961  1.00  0.00     0.163 HD
ATOM     26  O   UNL A   1      32.451  35.701  28.682  1.00  0.00    -0.269 OA
BRANCH  24  27
ATOM     27  C   UNL A   1      34.218  34.266  29.241  1.00  0.00     0.039 A 
ATOM     28  C   UNL A   1      34.056  33.683  30.502  1.00  0.00     0.014 A 
ATOM     29  C   UNL A   1      35.503  34.499  28.742  1.00  0.00     0.014 A 
ATOM     30  C   UNL A   1      35.174  33.250  31.216  1.00  0.00     0.010 A 
ATOM     31  C   UNL A   1      36.613  34.005  29.424  1.00  0.00     0.010 A 
ATOM     32  C   UNL A   1      36.459  33.356  30.658  1.00  0.00    -0.014 A 
BRANCH  32  33
ATOM     33  C   UNL A   1      37.637  32.728  31.313  1.00  0.00     0.031 A 
ATOM     34  C   UNL A   1      38.312  31.534  30.698  1.00  0.00     0.074 A 
ATOM     35  C   UNL A   1      38.039  33.186  32.515  1.00  0.00     0.049 A 
ATOM     36  N   UNL A   1      39.280  30.795  31.179  1.00  0.00    -0.248 NA
ATOM     37  C   UNL A   1      37.825  31.100  29.379  1.00  0.00     0.031 C 
ATOM     38  C   UNL A   1      37.438  34.312  33.235  1.00  0.00     0.029 A 
ATOM     39  N   UNL A   1      39.032  32.751  33.360  1.00  0.00    -0.354 N 
ATOM     40  C   UNL A   1      39.506  29.802  30.234  1.00  0.00     0.074 A 
ATOM     41  C   UNL A   1      38.556  30.014  29.163  1.00  0.00     0.031 C 
ATOM     42  C   UNL A   1      38.073  34.481  34.404  1.00  0.00     0.029 A 
ATOM     43  C   UNL A   1      39.091  33.445  34.545  1.00  0.00     0.049 A 
ATOM     44  H   UNL A   1      39.643  32.011  33.138  1.00  0.00     0.167 HD
ATOM     45  C   UNL A   1      40.430  28.813  30.259  1.00  0.00     0.037 A 
ATOM     46  C   UNL A   1      39.856  33.251  35.637  1.00  0.00     0.037 A 
ATOM     47  C   UNL A   1      41.393  28.628  31.314  1.00  0.00     0.049 A 
ATOM     48  C   UNL A   1      40.851  32.120  35.643  1.00  0.00     0.074 A 
ATOM     49  C   UNL A   1      42.433  27.715  31.377  1.00  0.00     0.029 A 
ATOM     50  N   UNL A   1      41.426  29.353  32.494  1.00  0.00    -0.354 N 
ATOM     51  N   UNL A   1      41.125  31.254  34.699  1.00  0.00    -0.248 NA
ATOM     52  C   UNL A   1      41.640  31.935  36.870  1.00  0.00     0.031 C 
ATOM     53  C   UNL A   1      43.050  27.841  32.625  1.00  0.00     0.029 A 
ATOM     54  C   UNL A   1      42.435  28.873  33.314  1.00  0.00     0.049 A 
ATOM     55  H   UNL A   1      40.823  30.099  32.717  1.00  0.00     0.167 HD
ATOM     56  C   UNL A   1      42.128  30.440  35.206  1.00  0.00     0.074 A 
ATOM     57  C   UNL A   1      42.436  30.931  36.532  1.00  0.00     0.031 C 
ATOM     58  C   UNL A   1      42.733  29.373  34.630  1.00  0.00     0.037 A 
BRANCH  45  59
ATOM     59  C   UNL A   1      40.462  27.838  29.120  1.00  0.00     0.064 A 
ATOM     60  C   UNL A   1      39.657  26.689  29.108  1.00  0.00     0.173 A 
ATOM     61  C   UNL A   1      41.225  28.117  27.974  1.00  0.00     0.173 A 
ATOM     62  F   UNL A   1      38.912  26.376  30.177  1.00  0.00    -0.203 F 
ATOM     63  C   UNL A   1      39.619  25.855  27.993  1.00  0.00     0.198 A 
ATOM     64  C   UNL A   1      41.164  27.295  26.853  1.00  0.00     0.198 A 
ATOM     65  F   UNL A   1      42.006  29.207  27.932  1.00  0.00    -0.203 F 
ATOM     66  F   UNL A   1      38.857  24.752  28.010  1.00  0.00    -0.200 F 
ATOM     67  C   UNL A   1      40.362  26.165  26.863  1.00  0.00     0.200 A 
ATOM     68  F   UNL A   1      41.870  27.606  25.757  1.00  0.00    -0.200 F 
ATOM     69  F   UNL A   1      40.303  25.374  25.783  1.00  0.00    -0.200 F 
ENDBRANCH  45  59
BRANCH  46  70
ATOM     70  C   UNL A   1      39.695  34.119  36.836  1.00  0.00     0.064 A 
ATOM     71  C   UNL A   1      40.390  35.332  36.950  1.00  0.00     0.173 A 
ATOM     72  C   UNL A   1      38.888  33.730  37.915  1.00  0.00     0.173 A 
ATOM     73  F   UNL A   1      41.194  35.739  35.956  1.00  0.00    -0.203 F 
ATOM     74  C   UNL A   1      40.315  36.100  38.111  1.00  0.00     0.198 A 
ATOM     75  C   UNL A   1      38.783  34.518  39.060  1.00  0.00     0.198 A 
ATOM     76  F   UNL A   1      38.198  32.582  37.859  1.00  0.00    -0.203 F 
ATOM     77  F   UNL A   1      41.048  37.217  38.220  1.00  0.00    -0.200 F 
ATOM     78  C   UNL A   1      39.509  35.694  39.164  1.00  0.00     0.200 A 
ATOM     79  F   UNL A   1      37.990  34.129  40.067  1.00  0.00    -0.200 F 
ATOM     80  F   UNL A   1      39.444  36.428  40.282  1.00  0.00    -0.200 F 
ENDBRANCH  46  70
BRANCH  58  81
ATOM     81  C   UNL A   1      43.801  28.673  35.420  1.00  0.00     0.064 A 
ATOM     82  C   UNL A   1      45.153  29.025  35.297  1.00  0.00     0.173 A 
ATOM     83  C   UNL A   1      43.463  27.677  36.350  1.00  0.00     0.173 A 
ATOM     84  F   UNL A   1      45.529  29.958  34.409  1.00  0.00    -0.203 F 
ATOM     85  C   UNL A   1      46.129  28.393  36.062  1.00  0.00     0.198 A 
ATOM     86  C   UNL A   1      44.438  27.072  37.137  1.00  0.00     0.198 A 
ATOM     87  F   UNL A   1      42.184  27.308  36.510  1.00  0.00    -0.203 F 
ATOM     88  F   UNL A   1      47.420  28.715  35.895  1.00  0.00    -0.200 F 
ATOM     89  C   UNL A   1      45.771  27.426  36.988  1.00  0.00     0.200 A 
ATOM     90  F   UNL A   1      44.088  26.149  38.043  1.00  0.00    -0.200 F 
ATOM     91  F   UNL A   1      46.710  26.829  37.734  1.00  0.00    -0.200 F 
ENDBRANCH  58  81
ENDBRANCH  32  33
ENDBRANCH  24  27
ENDBRANCH  22  23
ENDBRANCH  21  22
ENDBRANCH   1  21
TORSDOF 13
ENDMDL
