MODEL 1
REMARK VINA RESULT:     -13.1      0.000      0.000
REMARK SMILES CCOC(=O)c1ccc(NC(=O)[C@H]2CC=CC[C@@]2(C)C(=O)NCCCNC(=O)c2ccc(-c3c4nc(c(-c5c(F)c(F)c(F)c(F)c5F)c5ccc([nH]5)c(-c5c(F)c(F)c(F)c(F)c5F)c5nc(c(-c6c(F)c(F)c(F)c(F)c6F)c6ccc3[nH]6)C=C5)C=C4)cc2)cc1
REMARK SMILES IDX 20 1 21 2 22 3 18 5 13 6 14 7 15 8 17 9 19 10 16 11 11 12
REMARK SMILES IDX 10 13 12 15 9 16 6 17 7 18 93 19 8 20 92 21 4 22 5 23 3 24
REMARK SMILES IDX 2 25 1 26 23 27 24 28 25 29 26 30 27 31 28 33 29 34 30 35
REMARK SMILES IDX 91 36 31 37 90 38 32 39 33 40 34 41 84 42 35 43 89 44 83 45
REMARK SMILES IDX 85 46 36 47 88 48 82 49 81 50 37 52 69 53 49 54 68 55 50 56
REMARK SMILES IDX 53 57 67 58 86 59 51 60 52 61 66 63 87 64 54 65 38 66 39 67
REMARK SMILES IDX 47 68 40 69 41 70 45 71 48 72 42 73 43 74 46 75 44 76 70 77
REMARK SMILES IDX 71 78 79 79 72 80 73 81 77 82 80 83 74 84 75 85 78 86 76 87
REMARK SMILES IDX 55 88 56 89 64 90 57 91 58 92 62 93 65 94 59 95 60 96 63 97
REMARK SMILES IDX 61 98
REMARK H PARENT 22 4 10 14 26 32 85 51 53 62
REMARK Flexibility Score: inf
ROOT
ATOM      1  C   UNL A   1      33.112  26.416  24.562  1.00  0.00     0.227 C 
ATOM      2  O   UNL A   1      33.978  25.665  25.026  1.00  0.00    -0.274 OA
ATOM      3  N   UNL A   1      33.196  27.672  25.052  1.00  0.00    -0.356 N 
ATOM      4  H   UNL A   1      33.581  27.716  25.957  1.00  0.00     0.163 HD
ENDROOT
BRANCH   1   5
ATOM      5  C   UNL A   1      31.967  25.866  23.658  1.00  0.00     0.062 C 
ATOM      6  C   UNL A   1      30.700  25.524  24.562  1.00  0.00     0.098 C 
ATOM      7  C   UNL A   1      29.403  26.332  24.242  1.00  0.00     0.041 C 
ATOM      8  C   UNL A   1      29.513  27.523  23.353  1.00  0.00    -0.030 C 
ATOM      9  C   UNL A   1      31.669  26.756  22.421  1.00  0.00     0.044 C 
ATOM     10  C   UNL A   1      32.522  24.543  23.002  1.00  0.00     0.023 C 
ATOM     11  C   UNL A   1      30.535  27.714  22.521  1.00  0.00    -0.030 C 
BRANCH   6  12
ATOM     12  C   UNL A   1      30.917  25.601  26.095  1.00  0.00     0.228 C 
ATOM     13  N   UNL A   1      31.371  24.578  26.876  1.00  0.00    -0.326 N 
ATOM     14  H   UNL A   1      31.319  24.769  27.841  1.00  0.00     0.169 HD
ATOM     15  O   UNL A   1      30.730  26.666  26.703  1.00  0.00    -0.274 OA
BRANCH  13  16
ATOM     16  C   UNL A   1      31.897  23.311  26.590  1.00  0.00     0.041 A 
ATOM     17  C   UNL A   1      33.389  21.146  25.684  1.00  0.00     0.060 A 
ATOM     18  C   UNL A   1      32.058  21.290  25.277  1.00  0.00     0.018 A 
ATOM     19  C   UNL A   1      33.926  21.982  26.658  1.00  0.00     0.018 A 
ATOM     20  C   UNL A   1      31.308  22.374  25.747  1.00  0.00     0.027 A 
ATOM     21  C   UNL A   1      33.159  23.041  27.140  1.00  0.00     0.027 A 
BRANCH  17  22
ATOM     22  C   UNL A   1      34.287  20.240  24.957  1.00  0.00     0.338 C 
ATOM     23  O   UNL A   1      35.507  20.333  25.002  1.00  0.00    -0.246 OA
BRANCH  22  24
ATOM     24  O   UNL A   1      33.558  19.349  24.253  1.00  0.00    -0.462 OA
BRANCH  24  25
ATOM     25  C   UNL A   1      33.809  17.975  24.584  1.00  0.00     0.230 C 
ATOM     26  C   UNL A   1      33.703  17.150  23.316  1.00  0.00     0.049 C 
ENDBRANCH  24  25
ENDBRANCH  22  24
ENDBRANCH  17  22
ENDBRANCH  13  16
ENDBRANCH   6  12
ENDBRANCH   1   5
BRANCH   3  27
ATOM     27  C   UNL A   1      32.832  28.964  24.515  1.00  0.00     0.117 C 
BRANCH  27  28
ATOM     28  C   UNL A   1      31.793  29.690  25.350  1.00  0.00     0.042 C 
BRANCH  28  29
ATOM     29  C   UNL A   1      32.318  30.138  26.709  1.00  0.00     0.118 C 
BRANCH  29  30
ATOM     30  N   UNL A   1      32.506  31.585  26.784  1.00  0.00    -0.352 N 
ATOM     31  C   UNL A   1      33.392  32.355  27.492  1.00  0.00     0.251 C 
ATOM     32  H   UNL A   1      31.883  32.101  26.224  1.00  0.00     0.163 HD
ATOM     33  O   UNL A   1      33.167  33.556  27.626  1.00  0.00    -0.269 OA
BRANCH  31  34
ATOM     34  C   UNL A   1      34.618  31.778  28.085  1.00  0.00     0.039 A 
ATOM     35  C   UNL A   1      34.654  30.409  28.376  1.00  0.00     0.014 A 
ATOM     36  C   UNL A   1      35.692  32.588  28.453  1.00  0.00     0.014 A 
ATOM     37  C   UNL A   1      35.772  29.858  29.009  1.00  0.00     0.010 A 
ATOM     38  C   UNL A   1      36.849  32.023  28.975  1.00  0.00     0.010 A 
ATOM     39  C   UNL A   1      36.884  30.661  29.302  1.00  0.00    -0.014 A 
BRANCH  39  40
ATOM     40  C   UNL A   1      38.061  30.130  30.032  1.00  0.00     0.031 A 
ATOM     41  C   UNL A   1      38.297  30.540  31.461  1.00  0.00     0.074 A 
ATOM     42  C   UNL A   1      38.949  29.344  29.395  1.00  0.00     0.049 A 
ATOM     43  N   UNL A   1      39.304  30.264  32.252  1.00  0.00    -0.248 NA
ATOM     44  C   UNL A   1      37.286  31.419  32.070  1.00  0.00     0.031 C 
ATOM     45  C   UNL A   1      38.857  28.921  27.998  1.00  0.00     0.029 A 
ATOM     46  N   UNL A   1      40.106  28.762  29.846  1.00  0.00    -0.354 N 
ATOM     47  C   UNL A   1      39.064  30.967  33.427  1.00  0.00     0.074 A 
ATOM     48  C   UNL A   1      37.854  31.731  33.224  1.00  0.00     0.031 C 
ATOM     49  C   UNL A   1      39.892  28.113  27.716  1.00  0.00     0.029 A 
ATOM     50  C   UNL A   1      40.735  27.990  28.902  1.00  0.00     0.049 A 
ATOM     51  H   UNL A   1      40.453  28.887  30.759  1.00  0.00     0.167 HD
ATOM     52  C   UNL A   1      39.770  30.953  34.583  1.00  0.00     0.037 A 
ATOM     53  C   UNL A   1      41.857  27.253  28.994  1.00  0.00     0.037 A 
ATOM     54  C   UNL A   1      40.940  30.144  34.796  1.00  0.00     0.049 A 
ATOM     55  C   UNL A   1      42.601  27.213  30.301  1.00  0.00     0.074 A 
ATOM     56  C   UNL A   1      41.693  29.993  35.947  1.00  0.00     0.029 A 
ATOM     57  N   UNL A   1      41.523  29.338  33.828  1.00  0.00    -0.354 N 
ATOM     58  N   UNL A   1      42.332  27.829  31.426  1.00  0.00    -0.248 NA
ATOM     59  C   UNL A   1      43.797  26.363  30.351  1.00  0.00     0.031 C 
ATOM     60  C   UNL A   1      42.751  29.121  35.664  1.00  0.00     0.029 A 
ATOM     61  C   UNL A   1      42.630  28.694  34.352  1.00  0.00     0.049 A 
ATOM     62  H   UNL A   1      41.197  29.240  32.903  1.00  0.00     0.167 HD
ATOM     63  C   UNL A   1      43.300  27.413  32.330  1.00  0.00     0.074 A 
ATOM     64  C   UNL A   1      44.159  26.486  31.620  1.00  0.00     0.031 C 
ATOM     65  C   UNL A   1      43.460  27.761  33.631  1.00  0.00     0.037 A 
BRANCH  52  66
ATOM     66  C   UNL A   1      39.287  31.841  35.695  1.00  0.00     0.064 A 
ATOM     67  C   UNL A   1      39.757  33.156  35.850  1.00  0.00     0.173 A 
ATOM     68  C   UNL A   1      38.355  31.368  36.630  1.00  0.00     0.173 A 
ATOM     69  F   UNL A   1      40.659  33.656  34.992  1.00  0.00    -0.203 F 
ATOM     70  C   UNL A   1      39.353  33.941  36.927  1.00  0.00     0.198 A 
ATOM     71  C   UNL A   1      37.926  32.169  37.686  1.00  0.00     0.198 A 
ATOM     72  F   UNL A   1      37.865  30.123  36.528  1.00  0.00    -0.203 F 
ATOM     73  F   UNL A   1      39.876  35.164  37.096  1.00  0.00    -0.200 F 
ATOM     74  C   UNL A   1      38.436  33.449  37.843  1.00  0.00     0.200 A 
ATOM     75  F   UNL A   1      37.029  31.696  38.563  1.00  0.00    -0.200 F 
ATOM     76  F   UNL A   1      38.055  34.203  38.882  1.00  0.00    -0.200 F 
ENDBRANCH  52  66
BRANCH  53  77
ATOM     77  C   UNL A   1      42.293  26.430  27.837  1.00  0.00     0.064 A 
ATOM     78  C   UNL A   1      41.725  25.169  27.612  1.00  0.00     0.173 A 
ATOM     79  C   UNL A   1      43.254  26.887  26.925  1.00  0.00     0.173 A 
ATOM     80  F   UNL A   1      40.812  24.684  28.467  1.00  0.00    -0.203 F 
ATOM     81  C   UNL A   1      42.110  24.389  26.524  1.00  0.00     0.198 A 
ATOM     82  C   UNL A   1      43.622  26.116  25.824  1.00  0.00     0.198 A 
ATOM     83  F   UNL A   1      43.821  28.090  27.093  1.00  0.00    -0.203 F 
ATOM     84  F   UNL A   1      41.574  23.173  26.350  1.00  0.00    -0.200 F 
ATOM     85  C   UNL A   1      43.053  24.865  25.628  1.00  0.00     0.200 A 
ATOM     86  F   UNL A   1      44.524  26.585  24.952  1.00  0.00    -0.200 F 
ATOM     87  F   UNL A   1      43.418  24.119  24.576  1.00  0.00    -0.200 F 
ENDBRANCH  53  77
BRANCH  65  88
ATOM     88  C   UNL A   1      44.572  27.093  34.384  1.00  0.00     0.064 A 
ATOM     89  C   UNL A   1      44.392  25.865  35.036  1.00  0.00     0.173 A 
ATOM     90  C   UNL A   1      45.846  27.681  34.426  1.00  0.00     0.173 A 
ATOM     91  F   UNL A   1      43.189  25.271  35.036  1.00  0.00    -0.203 F 
ATOM     92  C   UNL A   1      45.440  25.264  35.729  1.00  0.00     0.198 A 
ATOM     93  C   UNL A   1      46.898  27.063  35.095  1.00  0.00     0.198 A 
ATOM     94  F   UNL A   1      46.071  28.853  33.812  1.00  0.00    -0.203 F 
ATOM     95  F   UNL A   1      45.232  24.117  36.389  1.00  0.00    -0.200 F 
ATOM     96  C   UNL A   1      46.692  25.860  35.753  1.00  0.00     0.200 A 
ATOM     97  F   UNL A   1      48.111  27.633  35.106  1.00  0.00    -0.200 F 
ATOM     98  F   UNL A   1      47.699  25.278  36.418  1.00  0.00    -0.200 F 
ENDBRANCH  65  88
ENDBRANCH  39  40
ENDBRANCH  31  34
ENDBRANCH  29  30
ENDBRANCH  28  29
ENDBRANCH  27  28
ENDBRANCH   3  27
TORSDOF 15
ENDMDL
MODEL 2
REMARK VINA RESULT:     -12.8      0.519      2.127
REMARK SMILES CCOC(=O)c1ccc(NC(=O)[C@H]2CC=CC[C@@]2(C)C(=O)NCCCNC(=O)c2ccc(-c3c4nc(c(-c5c(F)c(F)c(F)c(F)c5F)c5ccc([nH]5)c(-c5c(F)c(F)c(F)c(F)c5F)c5nc(c(-c6c(F)c(F)c(F)c(F)c6F)c6ccc3[nH]6)C=C5)C=C4)cc2)cc1
REMARK SMILES IDX 20 1 21 2 22 3 18 5 13 6 14 7 15 8 17 9 19 10 16 11 11 12
REMARK SMILES IDX 10 13 12 15 9 16 6 17 7 18 93 19 8 20 92 21 4 22 5 23 3 24
REMARK SMILES IDX 2 25 1 26 23 27 24 28 25 29 26 30 27 31 28 33 29 34 30 35
REMARK SMILES IDX 91 36 31 37 90 38 32 39 33 40 34 41 84 42 35 43 89 44 83 45
REMARK SMILES IDX 85 46 36 47 88 48 82 49 81 50 37 52 69 53 49 54 68 55 50 56
REMARK SMILES IDX 53 57 67 58 86 59 51 60 52 61 66 63 87 64 54 65 38 66 39 67
REMARK SMILES IDX 47 68 40 69 41 70 45 71 48 72 42 73 43 74 46 75 44 76 70 77
REMARK SMILES IDX 71 78 79 79 72 80 73 81 77 82 80 83 74 84 75 85 78 86 76 87
REMARK SMILES IDX 55 88 56 89 64 90 57 91 58 92 62 93 65 94 59 95 60 96 63 97
REMARK SMILES IDX 61 98
REMARK H PARENT 22 4 10 14 26 32 85 51 53 62
REMARK Flexibility Score: inf
ROOT
ATOM      1  C   UNL A   1      33.164  26.594  24.756  1.00  0.00     0.227 C 
ATOM      2  O   UNL A   1      34.006  25.847  25.270  1.00  0.00    -0.274 OA
ATOM      3  N   UNL A   1      33.196  27.844  25.270  1.00  0.00    -0.356 N 
ATOM      4  H   UNL A   1      33.516  27.878  26.201  1.00  0.00     0.163 HD
ENDROOT
BRANCH   1   5
ATOM      5  C   UNL A   1      32.094  26.044  23.765  1.00  0.00     0.062 C 
ATOM      6  C   UNL A   1      30.801  25.595  24.582  1.00  0.00     0.098 C 
ATOM      7  C   UNL A   1      29.484  26.359  24.239  1.00  0.00     0.041 C 
ATOM      8  C   UNL A   1      29.581  27.602  23.421  1.00  0.00    -0.030 C 
ATOM      9  C   UNL A   1      31.815  26.987  22.564  1.00  0.00     0.044 C 
ATOM     10  C   UNL A   1      32.744  24.787  23.070  1.00  0.00     0.023 C 
ATOM     11  C   UNL A   1      30.632  27.886  22.655  1.00  0.00    -0.030 C 
BRANCH   6  12
ATOM     12  C   UNL A   1      30.938  25.595  26.126  1.00  0.00     0.228 C 
ATOM     13  N   UNL A   1      31.385  24.546  26.876  1.00  0.00    -0.326 N 
ATOM     14  H   UNL A   1      31.278  24.684  27.845  1.00  0.00     0.169 HD
ATOM     15  O   UNL A   1      30.685  26.620  26.779  1.00  0.00    -0.274 OA
BRANCH  13  16
ATOM     16  C   UNL A   1      31.966  23.313  26.552  1.00  0.00     0.041 A 
ATOM     17  C   UNL A   1      33.602  21.246  25.666  1.00  0.00     0.060 A 
ATOM     18  C   UNL A   1      32.336  21.419  25.099  1.00  0.00     0.018 A 
ATOM     19  C   UNL A   1      33.990  21.993  26.774  1.00  0.00     0.018 A 
ATOM     20  C   UNL A   1      31.511  22.453  25.557  1.00  0.00     0.027 A 
ATOM     21  C   UNL A   1      33.148  23.001  27.240  1.00  0.00     0.027 A 
BRANCH  17  22
ATOM     22  C   UNL A   1      34.605  20.414  24.989  1.00  0.00     0.338 C 
ATOM     23  O   UNL A   1      34.388  19.260  24.640  1.00  0.00    -0.246 OA
BRANCH  22  24
ATOM     24  O   UNL A   1      35.751  21.111  24.851  1.00  0.00    -0.462 OA
BRANCH  24  25
ATOM     25  C   UNL A   1      35.689  22.180  23.896  1.00  0.00     0.230 C 
ATOM     26  C   UNL A   1      36.517  23.338  24.418  1.00  0.00     0.049 C 
ENDBRANCH  24  25
ENDBRANCH  22  24
ENDBRANCH  17  22
ENDBRANCH  13  16
ENDBRANCH   6  12
ENDBRANCH   1   5
BRANCH   3  27
ATOM     27  C   UNL A   1      32.854  29.139  24.728  1.00  0.00     0.117 C 
BRANCH  27  28
ATOM     28  C   UNL A   1      31.779  29.857  25.522  1.00  0.00     0.042 C 
BRANCH  28  29
ATOM     29  C   UNL A   1      32.264  30.355  26.879  1.00  0.00     0.118 C 
BRANCH  29  30
ATOM     30  N   UNL A   1      32.519  31.794  26.886  1.00  0.00    -0.352 N 
ATOM     31  C   UNL A   1      33.458  32.551  27.536  1.00  0.00     0.251 C 
ATOM     32  H   UNL A   1      31.903  32.314  26.321  1.00  0.00     0.163 HD
ATOM     33  O   UNL A   1      33.291  33.765  27.624  1.00  0.00    -0.269 OA
BRANCH  31  34
ATOM     34  C   UNL A   1      34.674  31.943  28.120  1.00  0.00     0.039 A 
ATOM     35  C   UNL A   1      34.680  30.573  28.406  1.00  0.00     0.014 A 
ATOM     36  C   UNL A   1      35.769  32.727  28.483  1.00  0.00     0.014 A 
ATOM     37  C   UNL A   1      35.788  29.994  29.031  1.00  0.00     0.010 A 
ATOM     38  C   UNL A   1      36.915  32.133  28.997  1.00  0.00     0.010 A 
ATOM     39  C   UNL A   1      36.920  30.769  29.320  1.00  0.00    -0.014 A 
BRANCH  39  40
ATOM     40  C   UNL A   1      38.089  30.209  30.041  1.00  0.00     0.031 A 
ATOM     41  C   UNL A   1      38.324  30.583  31.480  1.00  0.00     0.074 A 
ATOM     42  C   UNL A   1      38.969  29.427  29.390  1.00  0.00     0.049 A 
ATOM     43  N   UNL A   1      39.325  30.278  32.268  1.00  0.00    -0.248 NA
ATOM     44  C   UNL A   1      37.321  31.459  32.106  1.00  0.00     0.031 C 
ATOM     45  C   UNL A   1      38.878  29.037  27.983  1.00  0.00     0.029 A 
ATOM     46  N   UNL A   1      40.119  28.822  29.831  1.00  0.00    -0.354 N 
ATOM     47  C   UNL A   1      39.089  30.956  33.458  1.00  0.00     0.074 A 
ATOM     48  C   UNL A   1      37.889  31.739  33.268  1.00  0.00     0.031 C 
ATOM     49  C   UNL A   1      39.905  28.225  27.685  1.00  0.00     0.029 A 
ATOM     50  C   UNL A   1      40.742  28.064  28.871  1.00  0.00     0.049 A 
ATOM     51  H   UNL A   1      40.464  28.922  30.747  1.00  0.00     0.167 HD
ATOM     52  C   UNL A   1      39.792  30.908  34.615  1.00  0.00     0.037 A 
ATOM     53  C   UNL A   1      41.856  27.313  28.950  1.00  0.00     0.037 A 
ATOM     54  C   UNL A   1      40.952  30.082  34.814  1.00  0.00     0.049 A 
ATOM     55  C   UNL A   1      42.594  27.235  30.258  1.00  0.00     0.074 A 
ATOM     56  C   UNL A   1      41.698  29.896  35.963  1.00  0.00     0.029 A 
ATOM     57  N   UNL A   1      41.528  29.291  33.829  1.00  0.00    -0.354 N 
ATOM     58  N   UNL A   1      42.328  27.828  31.396  1.00  0.00    -0.248 NA
ATOM     59  C   UNL A   1      43.780  26.370  30.293  1.00  0.00     0.031 C 
ATOM     60  C   UNL A   1      42.748  29.018  35.664  1.00  0.00     0.029 A 
ATOM     61  C   UNL A   1      42.627  28.622  34.341  1.00  0.00     0.049 A 
ATOM     62  H   UNL A   1      41.205  29.218  32.901  1.00  0.00     0.167 HD
ATOM     63  C   UNL A   1      43.288  27.380  32.294  1.00  0.00     0.074 A 
ATOM     64  C   UNL A   1      44.140  26.461  31.565  1.00  0.00     0.031 C 
ATOM     65  C   UNL A   1      43.448  27.697  33.603  1.00  0.00     0.037 A 
BRANCH  52  66
ATOM     66  C   UNL A   1      39.314  31.776  35.746  1.00  0.00     0.064 A 
ATOM     67  C   UNL A   1      38.370  31.320  36.681  1.00  0.00     0.173 A 
ATOM     68  C   UNL A   1      39.792  33.087  35.889  1.00  0.00     0.173 A 
ATOM     69  F   UNL A   1      37.871  30.079  36.585  1.00  0.00    -0.203 F 
ATOM     70  C   UNL A   1      37.885  32.160  37.680  1.00  0.00     0.198 A 
ATOM     71  C   UNL A   1      39.331  33.913  36.911  1.00  0.00     0.198 A 
ATOM     72  F   UNL A   1      40.700  33.574  35.030  1.00  0.00    -0.203 F 
ATOM     73  F   UNL A   1      36.928  31.726  38.512  1.00  0.00    -0.200 F 
ATOM     74  C   UNL A   1      38.368  33.454  37.797  1.00  0.00     0.200 A 
ATOM     75  F   UNL A   1      39.808  35.160  37.031  1.00  0.00    -0.200 F 
ATOM     76  F   UNL A   1      37.894  34.263  38.754  1.00  0.00    -0.200 F 
ENDBRANCH  52  66
BRANCH  53  77
ATOM     77  C   UNL A   1      42.286  26.511  27.776  1.00  0.00     0.064 A 
ATOM     78  C   UNL A   1      43.279  26.995  26.914  1.00  0.00     0.173 A 
ATOM     79  C   UNL A   1      41.744  25.247  27.506  1.00  0.00     0.173 A 
ATOM     80  F   UNL A   1      43.815  28.206  27.124  1.00  0.00    -0.203 F 
ATOM     81  C   UNL A   1      43.705  26.250  25.817  1.00  0.00     0.198 A 
ATOM     82  C   UNL A   1      42.188  24.493  26.422  1.00  0.00     0.198 A 
ATOM     83  F   UNL A   1      40.797  24.737  28.307  1.00  0.00    -0.203 F 
ATOM     84  F   UNL A   1      44.633  26.751  24.990  1.00  0.00    -0.200 F 
ATOM     85  C   UNL A   1      43.164  24.998  25.575  1.00  0.00     0.200 A 
ATOM     86  F   UNL A   1      41.673  23.276  26.199  1.00  0.00    -0.200 F 
ATOM     87  F   UNL A   1      43.581  24.277  24.525  1.00  0.00    -0.200 F 
ENDBRANCH  53  77
BRANCH  65  88
ATOM     88  C   UNL A   1      44.550  27.000  34.344  1.00  0.00     0.064 A 
ATOM     89  C   UNL A   1      45.833  27.555  34.456  1.00  0.00     0.173 A 
ATOM     90  C   UNL A   1      44.305  25.771  34.976  1.00  0.00     0.173 A 
ATOM     91  F   UNL A   1      46.119  28.721  33.858  1.00  0.00    -0.203 F 
ATOM     92  C   UNL A   1      46.840  26.889  35.150  1.00  0.00     0.198 A 
ATOM     93  C   UNL A   1      45.307  25.122  35.693  1.00  0.00     0.198 A 
ATOM     94  F   UNL A   1      43.092  25.202  34.903  1.00  0.00    -0.203 F 
ATOM     95  F   UNL A   1      48.072  27.412  35.201  1.00  0.00    -0.200 F 
ATOM     96  C   UNL A   1      46.575  25.678  35.772  1.00  0.00     0.200 A 
ATOM     97  F   UNL A   1      45.046  23.959  36.304  1.00  0.00    -0.200 F 
ATOM     98  F   UNL A   1      47.546  25.040  36.441  1.00  0.00    -0.200 F 
ENDBRANCH  65  88
ENDBRANCH  39  40
ENDBRANCH  31  34
ENDBRANCH  29  30
ENDBRANCH  28  29
ENDBRANCH  27  28
ENDBRANCH   3  27
TORSDOF 15
ENDMDL
MODEL 3
REMARK VINA RESULT:     -12.6      4.302     10.061
REMARK SMILES CCOC(=O)c1ccc(NC(=O)[C@H]2CC=CC[C@@]2(C)C(=O)NCCCNC(=O)c2ccc(-c3c4nc(c(-c5c(F)c(F)c(F)c(F)c5F)c5ccc([nH]5)c(-c5c(F)c(F)c(F)c(F)c5F)c5nc(c(-c6c(F)c(F)c(F)c(F)c6F)c6ccc3[nH]6)C=C5)C=C4)cc2)cc1
REMARK SMILES IDX 20 1 21 2 22 3 18 5 13 6 14 7 15 8 17 9 19 10 16 11 11 12
REMARK SMILES IDX 10 13 12 15 9 16 6 17 7 18 93 19 8 20 92 21 4 22 5 23 3 24
REMARK SMILES IDX 2 25 1 26 23 27 24 28 25 29 26 30 27 31 28 33 29 34 30 35
REMARK SMILES IDX 91 36 31 37 90 38 32 39 33 40 34 41 84 42 35 43 89 44 83 45
REMARK SMILES IDX 85 46 36 47 88 48 82 49 81 50 37 52 69 53 49 54 68 55 50 56
REMARK SMILES IDX 53 57 67 58 86 59 51 60 52 61 66 63 87 64 54 65 38 66 39 67
REMARK SMILES IDX 47 68 40 69 41 70 45 71 48 72 42 73 43 74 46 75 44 76 70 77
REMARK SMILES IDX 71 78 79 79 72 80 73 81 77 82 80 83 74 84 75 85 78 86 76 87
REMARK SMILES IDX 55 88 56 89 64 90 57 91 58 92 62 93 65 94 59 95 60 96 63 97
REMARK SMILES IDX 61 98
REMARK H PARENT 22 4 10 14 26 32 85 51 53 62
REMARK Flexibility Score: inf
ROOT
ATOM      1  C   UNL A   1      33.565  23.807  25.731  1.00  0.00     0.227 C 
ATOM      2  O   UNL A   1      33.610  25.004  26.045  1.00  0.00    -0.274 OA
ATOM      3  N   UNL A   1      34.762  23.192  25.856  1.00  0.00    -0.356 N 
ATOM      4  H   UNL A   1      35.530  23.798  25.737  1.00  0.00     0.163 HD
ENDROOT
BRANCH   1   5
ATOM      5  C   UNL A   1      32.284  23.188  25.096  1.00  0.00     0.062 C 
ATOM      6  C   UNL A   1      32.413  23.225  23.508  1.00  0.00     0.098 C 
ATOM      7  C   UNL A   1      32.401  21.836  22.795  1.00  0.00     0.041 C 
ATOM      8  C   UNL A   1      32.562  20.612  23.630  1.00  0.00    -0.030 C 
ATOM      9  C   UNL A   1      31.901  21.805  25.690  1.00  0.00     0.044 C 
ATOM     10  C   UNL A   1      31.081  24.101  25.552  1.00  0.00     0.023 C 
ATOM     11  C   UNL A   1      32.329  20.592  24.941  1.00  0.00    -0.030 C 
BRANCH   6  12
ATOM     12  C   UNL A   1      33.619  24.017  22.942  1.00  0.00     0.228 C 
ATOM     13  N   UNL A   1      33.625  25.355  22.673  1.00  0.00    -0.326 N 
ATOM     14  H   UNL A   1      34.432  25.655  22.196  1.00  0.00     0.169 HD
ATOM     15  O   UNL A   1      34.707  23.451  22.748  1.00  0.00    -0.274 OA
BRANCH  13  16
ATOM     16  C   UNL A   1      32.719  26.391  22.937  1.00  0.00     0.041 A 
ATOM     17  C   UNL A   1      30.907  28.497  22.800  1.00  0.00     0.060 A 
ATOM     18  C   UNL A   1      32.150  28.690  23.411  1.00  0.00     0.018 A 
ATOM     19  C   UNL A   1      30.504  27.225  22.403  1.00  0.00     0.018 A 
ATOM     20  C   UNL A   1      33.053  27.623  23.489  1.00  0.00     0.027 A 
ATOM     21  C   UNL A   1      31.401  26.164  22.512  1.00  0.00     0.027 A 
BRANCH  17  22
ATOM     22  C   UNL A   1      30.095  29.652  22.400  1.00  0.00     0.338 C 
ATOM     23  O   UNL A   1      30.061  30.078  21.252  1.00  0.00    -0.246 OA
BRANCH  22  24
ATOM     24  O   UNL A   1      29.447  30.143  23.477  1.00  0.00    -0.462 OA
BRANCH  24  25
ATOM     25  C   UNL A   1      28.070  30.477  23.245  1.00  0.00     0.230 C 
ATOM     26  C   UNL A   1      27.277  29.190  23.126  1.00  0.00     0.049 C 
ENDBRANCH  24  25
ENDBRANCH  22  24
ENDBRANCH  17  22
ENDBRANCH  13  16
ENDBRANCH   6  12
ENDBRANCH   1   5
BRANCH   3  27
ATOM     27  C   UNL A   1      35.141  21.824  26.127  1.00  0.00     0.117 C 
BRANCH  27  28
ATOM     28  C   UNL A   1      36.003  21.213  25.038  1.00  0.00     0.042 C 
BRANCH  28  29
ATOM     29  C   UNL A   1      37.444  21.709  25.061  1.00  0.00     0.118 C 
BRANCH  29  30
ATOM     30  N   UNL A   1      38.338  20.791  25.764  1.00  0.00    -0.352 N 
ATOM     31  C   UNL A   1      39.542  20.988  26.389  1.00  0.00     0.251 C 
ATOM     32  H   UNL A   1      38.016  19.862  25.794  1.00  0.00     0.163 HD
ATOM     33  O   UNL A   1      40.248  20.017  26.647  1.00  0.00    -0.269 OA
BRANCH  31  34
ATOM     34  C   UNL A   1      40.004  22.341  26.770  1.00  0.00     0.039 A 
ATOM     35  C   UNL A   1      39.401  23.458  26.181  1.00  0.00     0.014 A 
ATOM     36  C   UNL A   1      41.092  22.518  27.624  1.00  0.00     0.014 A 
ATOM     37  C   UNL A   1      39.875  24.742  26.467  1.00  0.00     0.010 A 
ATOM     38  C   UNL A   1      41.488  23.796  28.000  1.00  0.00     0.010 A 
ATOM     39  C   UNL A   1      40.916  24.920  27.390  1.00  0.00    -0.014 A 
BRANCH  39  40
ATOM     40  C   UNL A   1      41.491  26.257  27.671  1.00  0.00     0.031 A 
ATOM     41  C   UNL A   1      42.875  26.590  27.179  1.00  0.00     0.074 A 
ATOM     42  C   UNL A   1      40.807  27.140  28.421  1.00  0.00     0.049 A 
ATOM     43  N   UNL A   1      43.598  27.663  27.387  1.00  0.00    -0.248 NA
ATOM     44  C   UNL A   1      43.558  25.558  26.384  1.00  0.00     0.031 C 
ATOM     45  C   UNL A   1      39.482  26.914  28.998  1.00  0.00     0.029 A 
ATOM     46  N   UNL A   1      41.137  28.408  28.829  1.00  0.00    -0.354 N 
ATOM     47  C   UNL A   1      44.826  27.412  26.786  1.00  0.00     0.074 A 
ATOM     48  C   UNL A   1      44.774  26.065  26.263  1.00  0.00     0.031 C 
ATOM     49  C   UNL A   1      39.093  28.021  29.651  1.00  0.00     0.029 A 
ATOM     50  C   UNL A   1      40.154  29.020  29.565  1.00  0.00     0.049 A 
ATOM     51  H   UNL A   1      41.997  28.837  28.614  1.00  0.00     0.167 HD
ATOM     52  C   UNL A   1      45.890  28.239  26.654  1.00  0.00     0.037 A 
ATOM     53  C   UNL A   1      40.114  30.256  30.096  1.00  0.00     0.037 A 
ATOM     54  C   UNL A   1      45.912  29.597  27.126  1.00  0.00     0.049 A 
ATOM     55  C   UNL A   1      41.287  31.176  29.896  1.00  0.00     0.074 A 
ATOM     56  C   UNL A   1      46.904  30.550  26.983  1.00  0.00     0.029 A 
ATOM     57  N   UNL A   1      44.877  30.198  27.830  1.00  0.00    -0.354 N 
ATOM     58  N   UNL A   1      42.418  30.954  29.271  1.00  0.00    -0.248 NA
ATOM     59  C   UNL A   1      41.169  32.525  30.466  1.00  0.00     0.031 C 
ATOM     60  C   UNL A   1      46.483  31.718  27.631  1.00  0.00     0.029 A 
ATOM     61  C   UNL A   1      45.210  31.507  28.136  1.00  0.00     0.049 A 
ATOM     62  H   UNL A   1      44.031  29.759  28.076  1.00  0.00     0.167 HD
ATOM     63  C   UNL A   1      43.130  32.144  29.337  1.00  0.00     0.074 A 
ATOM     64  C   UNL A   1      42.299  33.085  30.060  1.00  0.00     0.031 C 
ATOM     65  C   UNL A   1      44.359  32.432  28.840  1.00  0.00     0.037 A 
BRANCH  52  66
ATOM     66  C   UNL A   1      47.110  27.687  25.970  1.00  0.00     0.064 A 
ATOM     67  C   UNL A   1      48.180  27.138  26.696  1.00  0.00     0.173 A 
ATOM     68  C   UNL A   1      47.221  27.722  24.573  1.00  0.00     0.173 A 
ATOM     69  F   UNL A   1      48.132  27.090  28.036  1.00  0.00    -0.203 F 
ATOM     70  C   UNL A   1      49.334  26.696  26.053  1.00  0.00     0.198 A 
ATOM     71  C   UNL A   1      48.361  27.246  23.930  1.00  0.00     0.198 A 
ATOM     72  F   UNL A   1      46.227  28.228  23.827  1.00  0.00    -0.203 F 
ATOM     73  F   UNL A   1      50.372  26.248  26.773  1.00  0.00    -0.200 F 
ATOM     74  C   UNL A   1      49.423  26.747  24.670  1.00  0.00     0.200 A 
ATOM     75  F   UNL A   1      48.441  27.285  22.593  1.00  0.00    -0.200 F 
ATOM     76  F   UNL A   1      50.536  26.329  24.053  1.00  0.00    -0.200 F 
ENDBRANCH  52  66
BRANCH  53  77
ATOM     77  C   UNL A   1      38.885  30.718  30.791  1.00  0.00     0.064 A 
ATOM     78  C   UNL A   1      37.831  31.287  30.063  1.00  0.00     0.173 A 
ATOM     79  C   UNL A   1      38.724  30.578  32.176  1.00  0.00     0.173 A 
ATOM     80  F   UNL A   1      37.948  31.454  28.737  1.00  0.00    -0.203 F 
ATOM     81  C   UNL A   1      36.666  31.711  30.696  1.00  0.00     0.198 A 
ATOM     82  C   UNL A   1      37.547  30.982  32.805  1.00  0.00     0.198 A 
ATOM     83  F   UNL A   1      39.699  30.032  32.915  1.00  0.00    -0.203 F 
ATOM     84  F   UNL A   1      35.687  32.282  29.980  1.00  0.00    -0.200 F 
ATOM     85  C   UNL A   1      36.522  31.553  32.065  1.00  0.00     0.200 A 
ATOM     86  F   UNL A   1      37.406  30.815  34.127  1.00  0.00    -0.200 F 
ATOM     87  F   UNL A   1      35.397  31.954  32.673  1.00  0.00    -0.200 F 
ENDBRANCH  53  77
BRANCH  65  88
ATOM     88  C   UNL A   1      44.852  33.838  29.013  1.00  0.00     0.064 A 
ATOM     89  C   UNL A   1      44.570  34.841  28.074  1.00  0.00     0.173 A 
ATOM     90  C   UNL A   1      45.591  34.190  30.152  1.00  0.00     0.173 A 
ATOM     91  F   UNL A   1      43.878  34.550  26.962  1.00  0.00    -0.203 F 
ATOM     92  C   UNL A   1      45.038  36.140  28.255  1.00  0.00     0.198 A 
ATOM     93  C   UNL A   1      46.033  35.496  30.344  1.00  0.00     0.198 A 
ATOM     94  F   UNL A   1      45.881  33.268  31.083  1.00  0.00    -0.203 F 
ATOM     95  F   UNL A   1      44.802  37.070  27.321  1.00  0.00    -0.200 F 
ATOM     96  C   UNL A   1      45.763  36.468  29.392  1.00  0.00     0.200 A 
ATOM     97  F   UNL A   1      46.722  35.814  31.449  1.00  0.00    -0.200 F 
ATOM     98  F   UNL A   1      46.210  37.719  29.565  1.00  0.00    -0.200 F 
ENDBRANCH  65  88
ENDBRANCH  39  40
ENDBRANCH  31  34
ENDBRANCH  29  30
ENDBRANCH  28  29
ENDBRANCH  27  28
ENDBRANCH   3  27
TORSDOF 15
ENDMDL
