MODEL 1
REMARK VINA RESULT:     -12.3      0.000      0.000
REMARK SMILES O=C(Cc1ccn(C(F)F)c(=O)c1)NCCCNC(=O)c1ccc(-c2c3nc(c(-c4c(F)c(F)c(F)c(F)c4F)c4ccc([nH]4)c(-c4c(F)c(F)c(F)c(F)c4F)c4nc(c(-c5c(F)c(F)c(F)c(F)c5F)c5ccc2[nH]5)C=C4)C=C3)cc1
REMARK SMILES IDX 16 1 15 2 14 3 1 4 2 5 3 7 4 8 5 9 13 10 6 11 11 12 7 13
REMARK SMILES IDX 12 14 8 15 9 16 10 17 17 18 18 19 19 20 20 22 21 23 22 24
REMARK SMILES IDX 83 25 23 26 82 27 24 28 25 29 26 30 76 31 27 32 81 33 75 34
REMARK SMILES IDX 77 35 28 36 80 37 74 38 73 39 29 41 61 42 41 43 60 44 42 45
REMARK SMILES IDX 45 46 59 47 78 48 43 49 44 50 58 52 79 53 46 54 30 55 31 56
REMARK SMILES IDX 39 57 32 58 33 59 37 60 40 61 34 62 35 63 38 64 36 65 62 66
REMARK SMILES IDX 63 67 71 68 64 69 65 70 69 71 72 72 66 73 67 74 70 75 68 76
REMARK SMILES IDX 47 77 48 78 56 79 49 80 50 81 54 82 57 83 51 84 52 85 55 86
REMARK SMILES IDX 53 87
REMARK H PARENT 14 6 18 21 77 40 45 51
REMARK Flexibility Score: inf
ROOT
ATOM      1  C   UNL A   1      31.679  29.178  27.236  1.00  0.00     0.042 C 
ENDROOT
BRANCH   1   2
ATOM      2  C   UNL A   1      31.967  27.693  27.078  1.00  0.00     0.117 C 
BRANCH   2   3
ATOM      3  N   UNL A   1      31.622  27.195  25.762  1.00  0.00    -0.356 N 
ATOM      4  O   UNL A   1      30.183  25.544  26.463  1.00  0.00    -0.275 OA
ATOM      5  C   UNL A   1      30.679  26.207  25.559  1.00  0.00     0.224 C 
ATOM      6  H   UNL A   1      32.079  27.577  24.979  1.00  0.00     0.163 HD
BRANCH   5   7
ATOM      7  C   UNL A   1      30.303  26.000  24.091  1.00  0.00     0.135 C 
BRANCH   7   8
ATOM      8  C   UNL A   1      29.597  27.178  23.452  1.00  0.00    -0.032 A 
ATOM      9  C   UNL A   1      30.423  28.087  22.677  1.00  0.00     0.022 A 
ATOM     10  C   UNL A   1      28.284  27.447  23.573  1.00  0.00     0.076 A 
ATOM     11  C   UNL A   1      29.898  29.201  22.150  1.00  0.00     0.095 A 
ATOM     12  C   UNL A   1      27.692  28.699  23.024  1.00  0.00     0.255 A 
ATOM     13  N   UNL A   1      28.562  29.513  22.322  1.00  0.00    -0.258 N 
ATOM     14  O   UNL A   1      26.509  28.930  23.250  1.00  0.00    -0.269 OA
BRANCH  13  15
ATOM     15  C   UNL A   1      28.025  30.750  21.815  1.00  0.00     0.451 C 
ATOM     16  F   UNL A   1      27.865  31.663  22.804  1.00  0.00    -0.185 F 
ATOM     17  F   UNL A   1      28.853  31.282  20.882  1.00  0.00    -0.185 F 
ENDBRANCH  13  15
ENDBRANCH   7   8
ENDBRANCH   5   7
ENDBRANCH   2   3
ENDBRANCH   1   2
BRANCH   1  18
ATOM     18  C   UNL A   1      32.501  30.080  26.321  1.00  0.00     0.118 C 
BRANCH  18  19
ATOM     19  N   UNL A   1      32.411  31.497  26.651  1.00  0.00    -0.352 N 
ATOM     20  C   UNL A   1      33.287  32.290  27.357  1.00  0.00     0.251 C 
ATOM     21  H   UNL A   1      31.605  31.955  26.319  1.00  0.00     0.163 HD
ATOM     22  O   UNL A   1      33.000  33.454  27.617  1.00  0.00    -0.269 OA
BRANCH  20  23
ATOM     23  C   UNL A   1      34.559  31.721  27.851  1.00  0.00     0.039 A 
ATOM     24  C   UNL A   1      34.673  30.357  28.128  1.00  0.00     0.014 A 
ATOM     25  C   UNL A   1      35.635  32.580  28.090  1.00  0.00     0.014 A 
ATOM     26  C   UNL A   1      35.783  29.890  28.823  1.00  0.00     0.010 A 
ATOM     27  C   UNL A   1      36.784  32.092  28.717  1.00  0.00     0.010 A 
ATOM     28  C   UNL A   1      36.840  30.757  29.147  1.00  0.00    -0.014 A 
BRANCH  28  29
ATOM     29  C   UNL A   1      37.968  30.266  29.979  1.00  0.00     0.031 A 
ATOM     30  C   UNL A   1      39.007  29.350  29.387  1.00  0.00     0.074 A 
ATOM     31  C   UNL A   1      38.095  30.692  31.249  1.00  0.00     0.049 A 
ATOM     32  N   UNL A   1      40.050  28.802  29.961  1.00  0.00    -0.248 NA
ATOM     33  C   UNL A   1      38.856  29.000  27.966  1.00  0.00     0.031 C 
ATOM     34  C   UNL A   1      37.174  31.605  31.927  1.00  0.00     0.029 A 
ATOM     35  N   UNL A   1      39.061  30.434  32.188  1.00  0.00    -0.354 N 
ATOM     36  C   UNL A   1      40.663  28.032  28.981  1.00  0.00     0.074 A 
ATOM     37  C   UNL A   1      39.867  28.162  27.780  1.00  0.00     0.031 C 
ATOM     38  C   UNL A   1      37.642  31.867  33.156  1.00  0.00     0.029 A 
ATOM     39  C   UNL A   1      38.863  31.096  33.374  1.00  0.00     0.049 A 
ATOM     40  H   UNL A   1      39.822  29.831  32.027  1.00  0.00     0.167 HD
ATOM     41  C   UNL A   1      41.794  27.292  29.073  1.00  0.00     0.037 A 
ATOM     42  C   UNL A   1      39.575  31.074  34.514  1.00  0.00     0.037 A 
ATOM     43  C   UNL A   1      42.603  27.183  30.258  1.00  0.00     0.049 A 
ATOM     44  C   UNL A   1      40.802  30.212  34.602  1.00  0.00     0.074 A 
ATOM     45  C   UNL A   1      43.768  26.458  30.444  1.00  0.00     0.029 A 
ATOM     46  N   UNL A   1      42.337  27.826  31.457  1.00  0.00    -0.354 N 
ATOM     47  N   UNL A   1      41.353  29.465  33.678  1.00  0.00    -0.248 NA
ATOM     48  C   UNL A   1      41.497  30.181  35.896  1.00  0.00     0.031 C 
ATOM     49  C   UNL A   1      44.190  26.639  31.765  1.00  0.00     0.029 A 
ATOM     50  C   UNL A   1      43.309  27.506  32.391  1.00  0.00     0.049 A 
ATOM     51  H   UNL A   1      41.570  28.421  31.620  1.00  0.00     0.167 HD
ATOM     52  C   UNL A   1      42.462  28.880  34.273  1.00  0.00     0.074 A 
ATOM     53  C   UNL A   1      42.518  29.377  35.632  1.00  0.00     0.031 C 
ATOM     54  C   UNL A   1      43.349  28.004  33.741  1.00  0.00     0.037 A 
BRANCH  41  55
ATOM     55  C   UNL A   1      42.229  26.528  27.856  1.00  0.00     0.064 A 
ATOM     56  C   UNL A   1      43.168  27.054  26.958  1.00  0.00     0.173 A 
ATOM     57  C   UNL A   1      41.749  25.230  27.623  1.00  0.00     0.173 A 
ATOM     58  F   UNL A   1      43.647  28.295  27.131  1.00  0.00    -0.203 F 
ATOM     59  C   UNL A   1      43.604  26.311  25.864  1.00  0.00     0.198 A 
ATOM     60  C   UNL A   1      42.203  24.482  26.540  1.00  0.00     0.198 A 
ATOM     61  F   UNL A   1      40.853  24.681  28.456  1.00  0.00    -0.203 F 
ATOM     62  F   UNL A   1      44.482  26.842  25.002  1.00  0.00    -0.200 F 
ATOM     63  C   UNL A   1      43.128  25.023  25.661  1.00  0.00     0.200 A 
ATOM     64  F   UNL A   1      41.752  23.235  26.352  1.00  0.00    -0.200 F 
ATOM     65  F   UNL A   1      43.559  24.306  24.614  1.00  0.00    -0.200 F 
ENDBRANCH  41  55
BRANCH  42  66
ATOM     66  C   UNL A   1      39.137  31.902  35.666  1.00  0.00     0.064 A 
ATOM     67  C   UNL A   1      38.279  31.378  36.641  1.00  0.00     0.173 A 
ATOM     68  C   UNL A   1      39.594  33.217  35.833  1.00  0.00     0.173 A 
ATOM     69  F   UNL A   1      37.801  30.131  36.512  1.00  0.00    -0.203 F 
ATOM     70  C   UNL A   1      37.889  32.141  37.739  1.00  0.00     0.198 A 
ATOM     71  C   UNL A   1      39.224  33.971  36.943  1.00  0.00     0.198 A 
ATOM     72  F   UNL A   1      40.419  33.761  34.926  1.00  0.00    -0.203 F 
ATOM     73  F   UNL A   1      37.047  31.627  38.645  1.00  0.00    -0.200 F 
ATOM     74  C   UNL A   1      38.369  33.434  37.894  1.00  0.00     0.200 A 
ATOM     75  F   UNL A   1      39.700  35.214  37.096  1.00  0.00    -0.200 F 
ATOM     76  F   UNL A   1      38.006  34.162  38.958  1.00  0.00    -0.200 F 
ENDBRANCH  42  66
BRANCH  54  77
ATOM     77  C   UNL A   1      44.462  27.534  34.626  1.00  0.00     0.064 A 
ATOM     78  C   UNL A   1      44.344  26.359  35.382  1.00  0.00     0.173 A 
ATOM     79  C   UNL A   1      45.674  28.237  34.683  1.00  0.00     0.173 A 
ATOM     80  F   UNL A   1      43.198  25.661  35.371  1.00  0.00    -0.203 F 
ATOM     81  C   UNL A   1      45.396  25.914  36.179  1.00  0.00     0.198 A 
ATOM     82  C   UNL A   1      46.732  27.777  35.461  1.00  0.00     0.198 A 
ATOM     83  F   UNL A   1      45.836  29.364  33.972  1.00  0.00    -0.203 F 
ATOM     84  F   UNL A   1      45.251  24.809  36.921  1.00  0.00    -0.200 F 
ATOM     85  C   UNL A   1      46.590  26.619  36.212  1.00  0.00     0.200 A 
ATOM     86  F   UNL A   1      47.887  28.454  35.487  1.00  0.00    -0.200 F 
ATOM     87  F   UNL A   1      47.603  26.187  36.974  1.00  0.00    -0.200 F 
ENDBRANCH  54  77
ENDBRANCH  28  29
ENDBRANCH  20  23
ENDBRANCH  18  19
ENDBRANCH   1  18
TORSDOF 12
ENDMDL
MODEL 2
REMARK VINA RESULT:     -12.3      2.700      8.317
REMARK SMILES O=C(Cc1ccn(C(F)F)c(=O)c1)NCCCNC(=O)c1ccc(-c2c3nc(c(-c4c(F)c(F)c(F)c(F)c4F)c4ccc([nH]4)c(-c4c(F)c(F)c(F)c(F)c4F)c4nc(c(-c5c(F)c(F)c(F)c(F)c5F)c5ccc2[nH]5)C=C4)C=C3)cc1
REMARK SMILES IDX 16 1 15 2 14 3 1 4 2 5 3 7 4 8 5 9 13 10 6 11 11 12 7 13
REMARK SMILES IDX 12 14 8 15 9 16 10 17 17 18 18 19 19 20 20 22 21 23 22 24
REMARK SMILES IDX 83 25 23 26 82 27 24 28 25 29 26 30 76 31 27 32 81 33 75 34
REMARK SMILES IDX 77 35 28 36 80 37 74 38 73 39 29 41 61 42 41 43 60 44 42 45
REMARK SMILES IDX 45 46 59 47 78 48 43 49 44 50 58 52 79 53 46 54 30 55 31 56
REMARK SMILES IDX 39 57 32 58 33 59 37 60 40 61 34 62 35 63 38 64 36 65 62 66
REMARK SMILES IDX 63 67 71 68 64 69 65 70 69 71 72 72 66 73 67 74 70 75 68 76
REMARK SMILES IDX 47 77 48 78 56 79 49 80 50 81 54 82 57 83 51 84 52 85 55 86
REMARK SMILES IDX 53 87
REMARK H PARENT 14 6 18 21 77 40 45 51
REMARK Flexibility Score: inf
ROOT
ATOM      1  C   UNL A   1      31.722  31.937  26.639  1.00  0.00     0.042 C 
ENDROOT
BRANCH   1   2
ATOM      2  C   UNL A   1      31.801  30.435  26.857  1.00  0.00     0.117 C 
BRANCH   2   3
ATOM      3  N   UNL A   1      32.719  29.786  25.942  1.00  0.00    -0.356 N 
ATOM      4  O   UNL A   1      31.157  29.194  24.361  1.00  0.00    -0.275 OA
ATOM      5  C   UNL A   1      32.327  29.291  24.714  1.00  0.00     0.224 C 
ATOM      6  H   UNL A   1      33.662  29.694  26.208  1.00  0.00     0.163 HD
BRANCH   5   7
ATOM      7  C   UNL A   1      33.491  28.862  23.818  1.00  0.00     0.135 C 
BRANCH   7   8
ATOM      8  C   UNL A   1      33.438  27.416  23.370  1.00  0.00    -0.032 A 
ATOM      9  C   UNL A   1      33.728  26.413  24.378  1.00  0.00     0.022 A 
ATOM     10  C   UNL A   1      33.170  27.009  22.116  1.00  0.00     0.076 A 
ATOM     11  C   UNL A   1      33.788  25.116  24.050  1.00  0.00     0.095 A 
ATOM     12  C   UNL A   1      33.268  25.574  21.726  1.00  0.00     0.255 A 
ATOM     13  N   UNL A   1      33.573  24.696  22.750  1.00  0.00    -0.258 N 
ATOM     14  O   UNL A   1      33.104  25.280  20.547  1.00  0.00    -0.269 OA
BRANCH  13  15
ATOM     15  C   UNL A   1      33.714  23.308  22.393  1.00  0.00     0.451 C 
ATOM     16  F   UNL A   1      34.453  22.634  23.308  1.00  0.00    -0.185 F 
ATOM     17  F   UNL A   1      32.500  22.712  22.310  1.00  0.00    -0.185 F 
ENDBRANCH  13  15
ENDBRANCH   7   8
ENDBRANCH   5   7
ENDBRANCH   2   3
ENDBRANCH   1   2
BRANCH   1  18
ATOM     18  C   UNL A   1      32.823  32.733  27.333  1.00  0.00     0.118 C 
BRANCH  18  19
ATOM     19  N   UNL A   1      32.439  34.096  27.679  1.00  0.00    -0.352 N 
ATOM     20  C   UNL A   1      32.997  34.957  28.598  1.00  0.00     0.251 C 
ATOM     21  H   UNL A   1      31.668  34.455  27.183  1.00  0.00     0.163 HD
ATOM     22  O   UNL A   1      32.479  36.046  28.822  1.00  0.00    -0.269 OA
BRANCH  20  23
ATOM     23  C   UNL A   1      34.197  34.545  29.357  1.00  0.00     0.039 A 
ATOM     24  C   UNL A   1      35.476  34.718  28.825  1.00  0.00     0.014 A 
ATOM     25  C   UNL A   1      34.029  33.925  30.599  1.00  0.00     0.014 A 
ATOM     26  C   UNL A   1      36.562  34.101  29.435  1.00  0.00     0.010 A 
ATOM     27  C   UNL A   1      35.134  33.375  31.251  1.00  0.00     0.010 A 
ATOM     28  C   UNL A   1      36.399  33.401  30.643  1.00  0.00    -0.014 A 
BRANCH  28  29
ATOM     29  C   UNL A   1      37.547  32.661  31.227  1.00  0.00     0.031 A 
ATOM     30  C   UNL A   1      38.023  32.974  32.621  1.00  0.00     0.074 A 
ATOM     31  C   UNL A   1      38.123  31.665  30.528  1.00  0.00     0.049 A 
ATOM     32  N   UNL A   1      39.020  32.450  33.292  1.00  0.00    -0.248 NA
ATOM     33  C   UNL A   1      37.286  34.010  33.361  1.00  0.00     0.031 C 
ATOM     34  C   UNL A   1      37.732  31.245  29.183  1.00  0.00     0.029 A 
ATOM     35  N   UNL A   1      39.142  30.811  30.862  1.00  0.00    -0.354 N 
ATOM     36  C   UNL A   1      39.041  33.105  34.516  1.00  0.00     0.074 A 
ATOM     37  C   UNL A   1      37.973  34.081  34.493  1.00  0.00     0.031 C 
ATOM     38  C   UNL A   1      38.470  30.185  28.823  1.00  0.00     0.029 A 
ATOM     39  C   UNL A   1      39.424  29.888  29.887  1.00  0.00     0.049 A 
ATOM     40  H   UNL A   1      39.626  30.856  31.719  1.00  0.00     0.167 HD
ATOM     41  C   UNL A   1      39.870  32.903  35.568  1.00  0.00     0.037 A 
ATOM     42  C   UNL A   1      40.358  28.920  29.846  1.00  0.00     0.037 A 
ATOM     43  C   UNL A   1      40.916  31.914  35.604  1.00  0.00     0.049 A 
ATOM     44  C   UNL A   1      41.291  28.745  31.010  1.00  0.00     0.074 A 
ATOM     45  C   UNL A   1      41.804  31.634  36.629  1.00  0.00     0.029 A 
ATOM     46  N   UNL A   1      41.206  31.035  34.572  1.00  0.00    -0.354 N 
ATOM     47  N   UNL A   1      41.320  29.391  32.149  1.00  0.00    -0.248 NA
ATOM     48  C   UNL A   1      42.329  27.714  30.875  1.00  0.00     0.031 C 
ATOM     49  C   UNL A   1      42.652  30.606  36.204  1.00  0.00     0.029 A 
ATOM     50  C   UNL A   1      42.267  30.219  34.930  1.00  0.00     0.049 A 
ATOM     51  H   UNL A   1      40.728  30.996  33.712  1.00  0.00     0.167 HD
ATOM     52  C   UNL A   1      42.372  28.844  32.870  1.00  0.00     0.074 A 
ATOM     53  C   UNL A   1      42.943  27.797  32.048  1.00  0.00     0.031 C 
ATOM     54  C   UNL A   1      42.827  29.185  34.100  1.00  0.00     0.037 A 
BRANCH  41  55
ATOM     55  C   UNL A   1      39.690  33.774  36.776  1.00  0.00     0.064 A 
ATOM     56  C   UNL A   1      40.284  35.042  36.859  1.00  0.00     0.173 A 
ATOM     57  C   UNL A   1      38.864  33.363  37.833  1.00  0.00     0.173 A 
ATOM     58  F   UNL A   1      41.093  35.475  35.881  1.00  0.00    -0.203 F 
ATOM     59  C   UNL A   1      40.063  35.863  37.962  1.00  0.00     0.198 A 
ATOM     60  C   UNL A   1      38.628  34.196  38.924  1.00  0.00     0.198 A 
ATOM     61  F   UNL A   1      38.270  32.161  37.798  1.00  0.00    -0.203 F 
ATOM     62  F   UNL A   1      40.661  37.060  38.035  1.00  0.00    -0.200 F 
ATOM     63  C   UNL A   1      39.229  35.443  38.989  1.00  0.00     0.200 A 
ATOM     64  F   UNL A   1      37.813  33.793  39.909  1.00  0.00    -0.200 F 
ATOM     65  F   UNL A   1      39.008  36.240  40.043  1.00  0.00    -0.200 F 
ENDBRANCH  41  55
BRANCH  42  66
ATOM     66  C   UNL A   1      40.448  28.041  28.653  1.00  0.00     0.064 A 
ATOM     67  C   UNL A   1      41.212  28.418  27.541  1.00  0.00     0.173 A 
ATOM     68  C   UNL A   1      39.803  26.796  28.615  1.00  0.00     0.173 A 
ATOM     69  F   UNL A   1      41.829  29.608  27.526  1.00  0.00    -0.203 F 
ATOM     70  C   UNL A   1      41.324  27.583  26.432  1.00  0.00     0.198 A 
ATOM     71  C   UNL A   1      39.936  25.952  27.517  1.00  0.00     0.198 A 
ATOM     72  F   UNL A   1      39.063  26.392  29.657  1.00  0.00    -0.203 F 
ATOM     73  F   UNL A   1      42.039  27.977  25.370  1.00  0.00    -0.200 F 
ATOM     74  C   UNL A   1      40.694  26.347  26.424  1.00  0.00     0.200 A 
ATOM     75  F   UNL A   1      39.337  24.754  27.519  1.00  0.00    -0.200 F 
ATOM     76  F   UNL A   1      40.814  25.538  25.363  1.00  0.00    -0.200 F 
ENDBRANCH  42  66
BRANCH  54  77
ATOM     77  C   UNL A   1      43.993  28.413  34.638  1.00  0.00     0.064 A 
ATOM     78  C   UNL A   1      45.308  28.864  34.461  1.00  0.00     0.173 A 
ATOM     79  C   UNL A   1      43.791  27.238  35.377  1.00  0.00     0.173 A 
ATOM     80  F   UNL A   1      45.551  29.974  33.749  1.00  0.00    -0.203 F 
ATOM     81  C   UNL A   1      46.384  28.155  34.990  1.00  0.00     0.198 A 
ATOM     82  C   UNL A   1      44.865  26.545  35.924  1.00  0.00     0.198 A 
ATOM     83  F   UNL A   1      42.549  26.771  35.577  1.00  0.00    -0.203 F 
ATOM     84  F   UNL A   1      47.635  28.582  34.780  1.00  0.00    -0.200 F 
ATOM     85  C   UNL A   1      46.161  27.000  35.727  1.00  0.00     0.200 A 
ATOM     86  F   UNL A   1      44.649  25.434  36.642  1.00  0.00    -0.200 F 
ATOM     87  F   UNL A   1      47.195  26.322  36.241  1.00  0.00    -0.200 F 
ENDBRANCH  54  77
ENDBRANCH  28  29
ENDBRANCH  20  23
ENDBRANCH  18  19
ENDBRANCH   1  18
TORSDOF 12
ENDMDL
MODEL 3
REMARK VINA RESULT:     -12.3      0.503      7.581
REMARK SMILES O=C(Cc1ccn(C(F)F)c(=O)c1)NCCCNC(=O)c1ccc(-c2c3nc(c(-c4c(F)c(F)c(F)c(F)c4F)c4ccc([nH]4)c(-c4c(F)c(F)c(F)c(F)c4F)c4nc(c(-c5c(F)c(F)c(F)c(F)c5F)c5ccc2[nH]5)C=C4)C=C3)cc1
REMARK SMILES IDX 16 1 15 2 14 3 1 4 2 5 3 7 4 8 5 9 13 10 6 11 11 12 7 13
REMARK SMILES IDX 12 14 8 15 9 16 10 17 17 18 18 19 19 20 20 22 21 23 22 24
REMARK SMILES IDX 83 25 23 26 82 27 24 28 25 29 26 30 76 31 27 32 81 33 75 34
REMARK SMILES IDX 77 35 28 36 80 37 74 38 73 39 29 41 61 42 41 43 60 44 42 45
REMARK SMILES IDX 45 46 59 47 78 48 43 49 44 50 58 52 79 53 46 54 30 55 31 56
REMARK SMILES IDX 39 57 32 58 33 59 37 60 40 61 34 62 35 63 38 64 36 65 62 66
REMARK SMILES IDX 63 67 71 68 64 69 65 70 69 71 72 72 66 73 67 74 70 75 68 76
REMARK SMILES IDX 47 77 48 78 56 79 49 80 50 81 54 82 57 83 51 84 52 85 55 86
REMARK SMILES IDX 53 87
REMARK H PARENT 14 6 18 21 77 40 45 51
REMARK Flexibility Score: inf
ROOT
ATOM      1  C   UNL A   1      31.713  29.045  27.233  1.00  0.00     0.042 C 
ENDROOT
BRANCH   1   2
ATOM      2  C   UNL A   1      31.969  27.566  26.991  1.00  0.00     0.117 C 
BRANCH   2   3
ATOM      3  N   UNL A   1      31.563  27.139  25.668  1.00  0.00    -0.356 N 
ATOM      4  O   UNL A   1      29.923  25.675  26.344  1.00  0.00    -0.275 OA
ATOM      5  C   UNL A   1      30.500  26.284  25.451  1.00  0.00     0.224 C 
ATOM      6  H   UNL A   1      32.066  27.471  24.890  1.00  0.00     0.163 HD
BRANCH   5   7
ATOM      7  C   UNL A   1      30.101  26.152  23.980  1.00  0.00     0.135 C 
BRANCH   7   8
ATOM      8  C   UNL A   1      29.623  27.439  23.341  1.00  0.00    -0.032 A 
ATOM      9  C   UNL A   1      30.620  28.224  22.637  1.00  0.00     0.022 A 
ATOM     10  C   UNL A   1      28.363  27.907  23.404  1.00  0.00     0.076 A 
ATOM     11  C   UNL A   1      30.304  29.417  22.117  1.00  0.00     0.095 A 
ATOM     12  C   UNL A   1      28.003  29.247  22.863  1.00  0.00     0.255 A 
ATOM     13  N   UNL A   1      29.026  29.931  22.230  1.00  0.00    -0.258 N 
ATOM     14  O   UNL A   1      26.859  29.656  23.035  1.00  0.00    -0.269 OA
BRANCH  13  15
ATOM     15  C   UNL A   1      28.715  31.247  21.734  1.00  0.00     0.451 C 
ATOM     16  F   UNL A   1      27.674  31.218  20.869  1.00  0.00    -0.185 F 
ATOM     17  F   UNL A   1      28.391  32.077  22.756  1.00  0.00    -0.185 F 
ENDBRANCH  13  15
ENDBRANCH   7   8
ENDBRANCH   5   7
ENDBRANCH   2   3
ENDBRANCH   1   2
BRANCH   1  18
ATOM     18  C   UNL A   1      32.587  29.980  26.402  1.00  0.00     0.118 C 
BRANCH  18  19
ATOM     19  N   UNL A   1      32.477  31.383  26.779  1.00  0.00    -0.352 N 
ATOM     20  C   UNL A   1      33.368  32.179  27.464  1.00  0.00     0.251 C 
ATOM     21  H   UNL A   1      31.644  31.829  26.502  1.00  0.00     0.163 HD
ATOM     22  O   UNL A   1      33.064  33.326  27.774  1.00  0.00    -0.269 OA
BRANCH  20  23
ATOM     23  C   UNL A   1      34.677  31.631  27.875  1.00  0.00     0.039 A 
ATOM     24  C   UNL A   1      34.813  30.285  28.222  1.00  0.00     0.014 A 
ATOM     25  C   UNL A   1      35.772  32.495  27.967  1.00  0.00     0.014 A 
ATOM     26  C   UNL A   1      35.979  29.851  28.842  1.00  0.00     0.010 A 
ATOM     27  C   UNL A   1      36.970  32.037  28.517  1.00  0.00     0.010 A 
ATOM     28  C   UNL A   1      37.062  30.729  29.019  1.00  0.00    -0.014 A 
BRANCH  28  29
ATOM     29  C   UNL A   1      38.259  30.279  29.774  1.00  0.00     0.031 A 
ATOM     30  C   UNL A   1      38.475  30.729  31.195  1.00  0.00     0.074 A 
ATOM     31  C   UNL A   1      39.122  29.417  29.205  1.00  0.00     0.049 A 
ATOM     32  N   UNL A   1      39.468  30.459  32.007  1.00  0.00    -0.248 NA
ATOM     33  C   UNL A   1      37.443  31.597  31.785  1.00  0.00     0.031 C 
ATOM     34  C   UNL A   1      39.006  28.882  27.849  1.00  0.00     0.029 A 
ATOM     35  N   UNL A   1      40.252  28.820  29.705  1.00  0.00    -0.354 N 
ATOM     36  C   UNL A   1      39.191  31.138  33.187  1.00  0.00     0.074 A 
ATOM     37  C   UNL A   1      37.948  31.850  32.984  1.00  0.00     0.031 C 
ATOM     38  C   UNL A   1      39.996  28.002  27.639  1.00  0.00     0.029 A 
ATOM     39  C   UNL A   1      40.849  27.955  28.822  1.00  0.00     0.049 A 
ATOM     40  H   UNL A   1      40.601  28.996  30.608  1.00  0.00     0.167 HD
ATOM     41  C   UNL A   1      39.903  31.154  34.339  1.00  0.00     0.037 A 
ATOM     42  C   UNL A   1      41.968  27.218  28.946  1.00  0.00     0.037 A 
ATOM     43  C   UNL A   1      41.125  30.424  34.553  1.00  0.00     0.049 A 
ATOM     44  C   UNL A   1      42.760  27.288  30.220  1.00  0.00     0.074 A 
ATOM     45  C   UNL A   1      41.915  30.378  35.689  1.00  0.00     0.029 A 
ATOM     46  N   UNL A   1      41.728  29.603  33.614  1.00  0.00    -0.354 N 
ATOM     47  N   UNL A   1      42.504  27.956  31.316  1.00  0.00    -0.248 NA
ATOM     48  C   UNL A   1      44.006  26.511  30.266  1.00  0.00     0.031 C 
ATOM     49  C   UNL A   1      43.013  29.552  35.426  1.00  0.00     0.029 A 
ATOM     50  C   UNL A   1      42.886  29.054  34.139  1.00  0.00     0.049 A 
ATOM     51  H   UNL A   1      41.384  29.434  32.706  1.00  0.00     0.167 HD
ATOM     52  C   UNL A   1      43.548  27.678  32.186  1.00  0.00     0.074 A 
ATOM     53  C   UNL A   1      44.433  26.761  31.497  1.00  0.00     0.031 C 
ATOM     54  C   UNL A   1      43.758  28.147  33.440  1.00  0.00     0.037 A 
BRANCH  41  55
ATOM     55  C   UNL A   1      39.386  31.999  35.467  1.00  0.00     0.064 A 
ATOM     56  C   UNL A   1      38.509  31.478  36.429  1.00  0.00     0.173 A 
ATOM     57  C   UNL A   1      39.824  33.323  35.622  1.00  0.00     0.173 A 
ATOM     58  F   UNL A   1      38.052  30.222  36.317  1.00  0.00    -0.203 F 
ATOM     59  C   UNL A   1      38.082  32.256  37.502  1.00  0.00     0.198 A 
ATOM     60  C   UNL A   1      39.411  34.091  36.708  1.00  0.00     0.198 A 
ATOM     61  F   UNL A   1      40.667  33.865  34.731  1.00  0.00    -0.203 F 
ATOM     62  F   UNL A   1      37.222  31.749  38.396  1.00  0.00    -0.200 F 
ATOM     63  C   UNL A   1      38.539  33.559  37.645  1.00  0.00     0.200 A 
ATOM     64  F   UNL A   1      39.863  35.344  36.851  1.00  0.00    -0.200 F 
ATOM     65  F   UNL A   1      38.136  34.302  38.685  1.00  0.00    -0.200 F 
ENDBRANCH  41  55
BRANCH  42  66
ATOM     66  C   UNL A   1      42.398  26.348  27.823  1.00  0.00     0.064 A 
ATOM     67  C   UNL A   1      41.862  25.063  27.665  1.00  0.00     0.173 A 
ATOM     68  C   UNL A   1      43.326  26.793  26.871  1.00  0.00     0.173 A 
ATOM     69  F   UNL A   1      40.987  24.588  28.564  1.00  0.00    -0.203 F 
ATOM     70  C   UNL A   1      42.241  24.255  26.597  1.00  0.00     0.198 A 
ATOM     71  C   UNL A   1      43.685  25.994  25.790  1.00  0.00     0.198 A 
ATOM     72  F   UNL A   1      43.865  28.017  26.980  1.00  0.00    -0.203 F 
ATOM     73  F   UNL A   1      41.734  23.020  26.481  1.00  0.00    -0.200 F 
ATOM     74  C   UNL A   1      43.145  24.724  25.654  1.00  0.00     0.200 A 
ATOM     75  F   UNL A   1      44.548  26.456  24.875  1.00  0.00    -0.200 F 
ATOM     76  F   UNL A   1      43.498  23.951  24.618  1.00  0.00    -0.200 F 
ENDBRANCH  42  66
BRANCH  54  77
ATOM     77  C   UNL A   1      44.985  27.669  34.154  1.00  0.00     0.064 A 
ATOM     78  C   UNL A   1      44.979  26.482  34.899  1.00  0.00     0.173 A 
ATOM     79  C   UNL A   1      46.191  28.379  34.052  1.00  0.00     0.173 A 
ATOM     80  F   UNL A   1      43.846  25.778  35.037  1.00  0.00    -0.203 F 
ATOM     81  C   UNL A   1      46.133  26.031  35.534  1.00  0.00     0.198 A 
ATOM     82  C   UNL A   1      47.349  27.913  34.669  1.00  0.00     0.198 A 
ATOM     83  F   UNL A   1      46.248  29.518  33.345  1.00  0.00    -0.203 F 
ATOM     84  F   UNL A   1      46.097  24.914  36.272  1.00  0.00    -0.200 F 
ATOM     85  C   UNL A   1      47.318  26.743  35.413  1.00  0.00     0.200 A 
ATOM     86  F   UNL A   1      48.494  28.597  34.544  1.00  0.00    -0.200 F 
ATOM     87  F   UNL A   1      48.429  26.305  36.019  1.00  0.00    -0.200 F 
ENDBRANCH  54  77
ENDBRANCH  28  29
ENDBRANCH  20  23
ENDBRANCH  18  19
ENDBRANCH   1  18
TORSDOF 12
ENDMDL
