MODEL 1
REMARK VINA RESULT:     -12.0      0.000      0.000
REMARK SMILES CCOc1ccccc1NC(=O)N[C@@](C)(CC)C(=O)NCCCNC(=O)c1ccc(-c2c3nc(c(-c4c(F)c(F)c(F)c(F)c4F)c4ccc([nH]4)c(-c4c(F)c(F)c(F)c(F)c4F)c4nc(c(-c5c(F)c(F)c(F)c(F)c5F)c5ccc2[nH]5)C=C4)C=C3)cc1
REMARK SMILES IDX 21 1 20 2 18 3 19 4 14 6 15 7 13 8 10 9 11 10 12 12 9 14
REMARK SMILES IDX 4 15 5 16 6 17 8 18 7 19 3 20 2 21 1 22 16 23 17 24 22 25
REMARK SMILES IDX 23 26 24 27 25 28 26 30 27 31 28 32 89 33 29 34 88 35 30 36
REMARK SMILES IDX 31 37 32 38 82 39 33 40 87 41 81 42 83 43 34 44 86 45 80 46
REMARK SMILES IDX 79 47 35 49 67 50 47 51 66 52 48 53 51 54 65 55 84 56 49 57
REMARK SMILES IDX 50 58 64 60 85 61 52 62 36 63 37 64 45 65 38 66 39 67 43 68
REMARK SMILES IDX 46 69 40 70 41 71 44 72 42 73 68 74 69 75 77 76 70 77 71 78
REMARK SMILES IDX 75 79 78 80 72 81 73 82 76 83 74 84 53 85 54 86 62 87 55 88
REMARK SMILES IDX 56 89 60 90 63 91 57 92 58 93 61 94 59 95
REMARK H PARENT 20 5 10 11 13 13 24 29 83 48 51 59
REMARK Flexibility Score: inf
ROOT
ATOM      1  C   UNL A   1      31.274  31.070  26.483  1.00  0.00     0.117 C 
ENDROOT
BRANCH   1   2
ATOM      2  N   UNL A   1      32.175  30.347  25.626  1.00  0.00    -0.354 N 
ATOM      3  C   UNL A   1      32.214  28.979  25.736  1.00  0.00     0.245 C 
ATOM      4  O   UNL A   1      31.211  28.350  26.082  1.00  0.00    -0.272 OA
ATOM      5  H   UNL A   1      32.748  30.819  24.978  1.00  0.00     0.163 HD
BRANCH   3   6
ATOM      6  C   UNL A   1      33.582  28.301  25.452  1.00  0.00     0.117 C 
ATOM      7  C   UNL A   1      33.429  26.966  26.256  1.00  0.00     0.045 C 
BRANCH   6   8
ATOM      8  N   UNL A   1      33.897  27.855  24.075  1.00  0.00    -0.324 N 
ATOM      9  N   UNL A   1      32.185  28.225  22.469  1.00  0.00    -0.305 N 
ATOM     10  C   UNL A   1      33.454  28.216  22.872  1.00  0.00     0.320 C 
ATOM     11  H   UNL A   1      32.055  28.850  21.719  1.00  0.00     0.172 HD
ATOM     12  O   UNL A   1      34.310  28.569  22.054  1.00  0.00    -0.248 OA
ATOM     13  H   UNL A   1      34.577  27.144  24.042  1.00  0.00     0.166 HD
BRANCH   9  14
ATOM     14  C   UNL A   1      30.985  27.593  22.815  1.00  0.00     0.085 A 
ATOM     15  C   UNL A   1      29.813  28.335  22.597  1.00  0.00     0.142 A 
ATOM     16  C   UNL A   1      28.591  27.960  23.151  1.00  0.00     0.048 A 
ATOM     17  C   UNL A   1      28.502  26.736  23.803  1.00  0.00     0.004 A 
ATOM     18  C   UNL A   1      30.841  26.302  23.287  1.00  0.00     0.030 A 
ATOM     19  C   UNL A   1      29.608  25.883  23.811  1.00  0.00     0.002 A 
BRANCH  15  20
ATOM     20  O   UNL A   1      29.860  29.420  21.747  1.00  0.00    -0.492 OA
BRANCH  20  21
ATOM     21  C   UNL A   1      28.887  30.403  22.177  1.00  0.00     0.226 C 
ATOM     22  C   UNL A   1      28.051  30.908  21.008  1.00  0.00     0.049 C 
ENDBRANCH  20  21
ENDBRANCH  15  20
ENDBRANCH   9  14
ENDBRANCH   6   8
BRANCH   6  23
ATOM     23  C   UNL A   1      34.743  29.068  26.167  1.00  0.00     0.035 C 
ATOM     24  C   UNL A   1      34.670  29.248  27.678  1.00  0.00     0.007 C 
ENDBRANCH   6  23
ENDBRANCH   3   6
ENDBRANCH   1   2
BRANCH   1  25
ATOM     25  C   UNL A   1      31.490  32.568  26.417  1.00  0.00     0.042 C 
BRANCH  25  26
ATOM     26  C   UNL A   1      32.595  33.020  27.358  1.00  0.00     0.118 C 
BRANCH  26  27
ATOM     27  N   UNL A   1      32.465  34.431  27.721  1.00  0.00    -0.352 N 
ATOM     28  C   UNL A   1      33.037  35.144  28.744  1.00  0.00     0.251 C 
ATOM     29  H   UNL A   1      31.871  34.955  27.135  1.00  0.00     0.163 HD
ATOM     30  O   UNL A   1      32.617  36.261  29.041  1.00  0.00    -0.269 OA
BRANCH  28  31
ATOM     31  C   UNL A   1      34.151  34.550  29.505  1.00  0.00     0.039 A 
ATOM     32  C   UNL A   1      33.903  33.923  30.728  1.00  0.00     0.014 A 
ATOM     33  C   UNL A   1      35.443  34.594  28.984  1.00  0.00     0.014 A 
ATOM     34  C   UNL A   1      34.940  33.248  31.376  1.00  0.00     0.010 A 
ATOM     35  C   UNL A   1      36.442  33.831  29.567  1.00  0.00     0.010 A 
ATOM     36  C   UNL A   1      36.203  33.150  30.771  1.00  0.00    -0.014 A 
BRANCH  36  37
ATOM     37  C   UNL A   1      37.306  32.354  31.364  1.00  0.00     0.031 A 
ATOM     38  C   UNL A   1      37.835  32.722  32.722  1.00  0.00     0.074 A 
ATOM     39  C   UNL A   1      37.896  31.381  30.643  1.00  0.00     0.049 A 
ATOM     40  N   UNL A   1      38.889  32.271  33.352  1.00  0.00    -0.248 NA
ATOM     41  C   UNL A   1      37.102  33.769  33.453  1.00  0.00     0.031 C 
ATOM     42  C   UNL A   1      37.499  30.962  29.297  1.00  0.00     0.029 A 
ATOM     43  N   UNL A   1      38.972  30.581  30.934  1.00  0.00    -0.354 N 
ATOM     44  C   UNL A   1      38.957  32.995  34.535  1.00  0.00     0.074 A 
ATOM     45  C   UNL A   1      37.879  33.957  34.509  1.00  0.00     0.031 C 
ATOM     46  C   UNL A   1      38.305  29.969  28.889  1.00  0.00     0.029 A 
ATOM     47  C   UNL A   1      39.307  29.716  29.919  1.00  0.00     0.049 A 
ATOM     48  H   UNL A   1      39.457  30.620  31.790  1.00  0.00     0.167 HD
ATOM     49  C   UNL A   1      39.825  32.850  35.564  1.00  0.00     0.037 A 
ATOM     50  C   UNL A   1      40.321  28.835  29.826  1.00  0.00     0.037 A 
ATOM     51  C   UNL A   1      40.877  31.869  35.594  1.00  0.00     0.049 A 
ATOM     52  C   UNL A   1      41.284  28.705  30.978  1.00  0.00     0.074 A 
ATOM     53  C   UNL A   1      41.781  31.605  36.607  1.00  0.00     0.029 A 
ATOM     54  N   UNL A   1      41.165  30.990  34.559  1.00  0.00    -0.354 N 
ATOM     55  N   UNL A   1      41.306  29.355  32.116  1.00  0.00    -0.248 NA
ATOM     56  C   UNL A   1      42.359  27.716  30.833  1.00  0.00     0.031 C 
ATOM     57  C   UNL A   1      42.648  30.602  36.167  1.00  0.00     0.029 A 
ATOM     58  C   UNL A   1      42.245  30.195  34.905  1.00  0.00     0.049 A 
ATOM     59  H   UNL A   1      40.675  30.940  33.707  1.00  0.00     0.167 HD
ATOM     60  C   UNL A   1      42.366  28.825  32.839  1.00  0.00     0.074 A 
ATOM     61  C   UNL A   1      42.960  27.795  32.012  1.00  0.00     0.031 C 
ATOM     62  C   UNL A   1      42.804  29.156  34.078  1.00  0.00     0.037 A 
BRANCH  49  63
ATOM     63  C   UNL A   1      39.668  33.769  36.741  1.00  0.00     0.064 A 
ATOM     64  C   UNL A   1      40.289  35.027  36.782  1.00  0.00     0.173 A 
ATOM     65  C   UNL A   1      38.861  33.403  37.827  1.00  0.00     0.173 A 
ATOM     66  F   UNL A   1      41.083  35.423  35.774  1.00  0.00    -0.203 F 
ATOM     67  C   UNL A   1      40.134  35.869  37.880  1.00  0.00     0.198 A 
ATOM     68  C   UNL A   1      38.679  34.262  38.908  1.00  0.00     0.198 A 
ATOM     69  F   UNL A   1      38.239  32.214  37.839  1.00  0.00    -0.203 F 
ATOM     70  F   UNL A   1      40.783  37.040  37.921  1.00  0.00    -0.200 F 
ATOM     71  C   UNL A   1      39.322  35.490  38.938  1.00  0.00     0.200 A 
ATOM     72  F   UNL A   1      37.881  33.899  39.923  1.00  0.00    -0.200 F 
ATOM     73  F   UNL A   1      39.166  36.304  39.991  1.00  0.00    -0.200 F 
ENDBRANCH  49  63
BRANCH  50  74
ATOM     74  C   UNL A   1      40.471  27.991  28.610  1.00  0.00     0.064 A 
ATOM     75  C   UNL A   1      39.862  26.731  28.531  1.00  0.00     0.173 A 
ATOM     76  C   UNL A   1      41.238  28.413  27.514  1.00  0.00     0.173 A 
ATOM     77  F   UNL A   1      39.133  26.274  29.560  1.00  0.00    -0.203 F 
ATOM     78  C   UNL A   1      40.036  25.913  27.416  1.00  0.00     0.198 A 
ATOM     79  C   UNL A   1      41.385  27.608  26.386  1.00  0.00     0.198 A 
ATOM     80  F   UNL A   1      41.836  29.613  27.534  1.00  0.00    -0.203 F 
ATOM     81  F   UNL A   1      39.489  24.691  27.393  1.00  0.00    -0.200 F 
ATOM     82  C   UNL A   1      40.795  26.354  26.343  1.00  0.00     0.200 A 
ATOM     83  F   UNL A   1      42.105  28.045  25.343  1.00  0.00    -0.200 F 
ATOM     84  F   UNL A   1      40.965  25.568  25.271  1.00  0.00    -0.200 F 
ENDBRANCH  50  74
BRANCH  62  85
ATOM     85  C   UNL A   1      43.940  28.357  34.649  1.00  0.00     0.064 A 
ATOM     86  C   UNL A   1      45.275  28.766  34.522  1.00  0.00     0.173 A 
ATOM     87  C   UNL A   1      43.677  27.194  35.389  1.00  0.00     0.173 A 
ATOM     88  F   UNL A   1      45.580  29.863  33.813  1.00  0.00    -0.203 F 
ATOM     89  C   UNL A   1      46.306  28.028  35.096  1.00  0.00     0.198 A 
ATOM     90  C   UNL A   1      44.707  26.477  35.991  1.00  0.00     0.198 A 
ATOM     91  F   UNL A   1      42.415  26.763  35.548  1.00  0.00    -0.203 F 
ATOM     92  F   UNL A   1      47.578  28.412  34.925  1.00  0.00    -0.200 F 
ATOM     93  C   UNL A   1      46.021  26.891  35.838  1.00  0.00     0.200 A 
ATOM     94  F   UNL A   1      44.426  25.390  36.723  1.00  0.00    -0.200 F 
ATOM     95  F   UNL A   1      47.014  26.191  36.403  1.00  0.00    -0.200 F 
ENDBRANCH  62  85
ENDBRANCH  36  37
ENDBRANCH  28  31
ENDBRANCH  26  27
ENDBRANCH  25  26
ENDBRANCH   1  25
TORSDOF 15
ENDMDL
MODEL 2
REMARK VINA RESULT:     -11.8      5.329      9.503
REMARK SMILES CCOc1ccccc1NC(=O)N[C@@](C)(CC)C(=O)NCCCNC(=O)c1ccc(-c2c3nc(c(-c4c(F)c(F)c(F)c(F)c4F)c4ccc([nH]4)c(-c4c(F)c(F)c(F)c(F)c4F)c4nc(c(-c5c(F)c(F)c(F)c(F)c5F)c5ccc2[nH]5)C=C4)C=C3)cc1
REMARK SMILES IDX 21 1 20 2 18 3 19 4 14 6 15 7 13 8 10 9 11 10 12 12 9 14
REMARK SMILES IDX 4 15 5 16 6 17 8 18 7 19 3 20 2 21 1 22 16 23 17 24 22 25
REMARK SMILES IDX 23 26 24 27 25 28 26 30 27 31 28 32 89 33 29 34 88 35 30 36
REMARK SMILES IDX 31 37 32 38 82 39 33 40 87 41 81 42 83 43 34 44 86 45 80 46
REMARK SMILES IDX 79 47 35 49 67 50 47 51 66 52 48 53 51 54 65 55 84 56 49 57
REMARK SMILES IDX 50 58 64 60 85 61 52 62 36 63 37 64 45 65 38 66 39 67 43 68
REMARK SMILES IDX 46 69 40 70 41 71 44 72 42 73 68 74 69 75 77 76 70 77 71 78
REMARK SMILES IDX 75 79 78 80 72 81 73 82 76 83 74 84 53 85 54 86 62 87 55 88
REMARK SMILES IDX 56 89 60 90 63 91 57 92 58 93 61 94 59 95
REMARK H PARENT 20 5 10 11 13 13 24 29 83 48 51 59
REMARK Flexibility Score: inf
ROOT
ATOM      1  C   UNL A   1      36.405  20.334  25.135  1.00  0.00     0.117 C 
ENDROOT
BRANCH   1   2
ATOM      2  N   UNL A   1      35.677  21.451  25.678  1.00  0.00    -0.354 N 
ATOM      3  C   UNL A   1      34.609  21.935  24.965  1.00  0.00     0.245 C 
ATOM      4  O   UNL A   1      33.944  21.184  24.247  1.00  0.00    -0.272 OA
ATOM      5  H   UNL A   1      35.939  21.857  26.536  1.00  0.00     0.163 HD
BRANCH   3   6
ATOM      6  C   UNL A   1      34.331  23.458  25.083  1.00  0.00     0.117 C 
ATOM      7  C   UNL A   1      35.785  24.035  25.010  1.00  0.00     0.045 C 
BRANCH   6   8
ATOM      8  N   UNL A   1      33.615  24.151  23.987  1.00  0.00    -0.324 N 
ATOM      9  N   UNL A   1      33.766  26.522  24.012  1.00  0.00    -0.305 N 
ATOM     10  C   UNL A   1      33.765  25.338  23.403  1.00  0.00     0.320 C 
ATOM     11  H   UNL A   1      34.244  27.197  23.476  1.00  0.00     0.172 HD
ATOM     12  O   UNL A   1      33.908  25.333  22.175  1.00  0.00    -0.248 OA
ATOM     13  H   UNL A   1      32.875  23.623  23.611  1.00  0.00     0.166 HD
BRANCH   9  14
ATOM     14  C   UNL A   1      33.279  27.075  25.201  1.00  0.00     0.085 A 
ATOM     15  C   UNL A   1      31.893  26.978  25.402  1.00  0.00     0.142 A 
ATOM     16  C   UNL A   1      31.237  27.723  26.380  1.00  0.00     0.048 A 
ATOM     17  C   UNL A   1      31.999  28.459  27.281  1.00  0.00     0.004 A 
ATOM     18  C   UNL A   1      34.029  27.645  26.213  1.00  0.00     0.030 A 
ATOM     19  C   UNL A   1      33.392  28.364  27.235  1.00  0.00     0.002 A 
BRANCH  15  20
ATOM     20  O   UNL A   1      31.174  26.062  24.663  1.00  0.00    -0.492 OA
BRANCH  20  21
ATOM     21  C   UNL A   1      30.032  26.723  24.067  1.00  0.00     0.226 C 
ATOM     22  C   UNL A   1      30.401  27.392  22.748  1.00  0.00     0.049 C 
ENDBRANCH  20  21
ENDBRANCH  15  20
ENDBRANCH   9  14
ENDBRANCH   6   8
BRANCH   6  23
ATOM     23  C   UNL A   1      33.829  23.823  26.519  1.00  0.00     0.035 C 
ATOM     24  C   UNL A   1      32.367  23.569  26.863  1.00  0.00     0.007 C 
ENDBRANCH   6  23
ENDBRANCH   3   6
ENDBRANCH   1   2
BRANCH   1  25
ATOM     25  C   UNL A   1      37.788  20.722  24.657  1.00  0.00     0.042 C 
BRANCH  25  26
ATOM     26  C   UNL A   1      38.771  20.842  25.811  1.00  0.00     0.118 C 
BRANCH  26  27
ATOM     27  N   UNL A   1      39.687  19.704  25.873  1.00  0.00    -0.352 N 
ATOM     28  C   UNL A   1      41.048  19.665  26.039  1.00  0.00     0.251 C 
ATOM     29  H   UNL A   1      39.257  18.823  25.782  1.00  0.00     0.163 HD
ATOM     30  O   UNL A   1      41.677  18.632  25.817  1.00  0.00    -0.269 OA
BRANCH  28  31
ATOM     31  C   UNL A   1      41.760  20.882  26.468  1.00  0.00     0.039 A 
ATOM     32  C   UNL A   1      42.234  21.785  25.513  1.00  0.00     0.014 A 
ATOM     33  C   UNL A   1      41.931  21.140  27.827  1.00  0.00     0.014 A 
ATOM     34  C   UNL A   1      42.789  22.997  25.930  1.00  0.00     0.010 A 
ATOM     35  C   UNL A   1      42.373  22.387  28.237  1.00  0.00     0.010 A 
ATOM     36  C   UNL A   1      42.809  23.330  27.293  1.00  0.00    -0.014 A 
BRANCH  36  37
ATOM     37  C   UNL A   1      43.285  24.649  27.779  1.00  0.00     0.031 A 
ATOM     38  C   UNL A   1      42.282  25.715  28.123  1.00  0.00     0.074 A 
ATOM     39  C   UNL A   1      44.604  24.919  27.807  1.00  0.00     0.049 A 
ATOM     40  N   UNL A   1      42.478  26.977  28.408  1.00  0.00    -0.248 NA
ATOM     41  C   UNL A   1      40.865  25.316  28.105  1.00  0.00     0.031 C 
ATOM     42  C   UNL A   1      45.671  23.980  27.455  1.00  0.00     0.029 A 
ATOM     43  N   UNL A   1      45.273  26.074  28.127  1.00  0.00    -0.354 N 
ATOM     44  C   UNL A   1      41.212  27.523  28.576  1.00  0.00     0.074 A 
ATOM     45  C   UNL A   1      40.255  26.476  28.301  1.00  0.00     0.031 C 
ATOM     46  C   UNL A   1      46.858  24.588  27.598  1.00  0.00     0.029 A 
ATOM     47  C   UNL A   1      46.638  25.974  28.001  1.00  0.00     0.049 A 
ATOM     48  H   UNL A   1      44.819  26.896  28.420  1.00  0.00     0.167 HD
ATOM     49  C   UNL A   1      40.880  28.780  28.954  1.00  0.00     0.037 A 
ATOM     50  C   UNL A   1      47.599  26.901  28.173  1.00  0.00     0.037 A 
ATOM     51  C   UNL A   1      41.840  29.808  29.255  1.00  0.00     0.049 A 
ATOM     52  C   UNL A   1      47.201  28.297  28.577  1.00  0.00     0.074 A 
ATOM     53  C   UNL A   1      41.611  31.099  29.693  1.00  0.00     0.029 A 
ATOM     54  N   UNL A   1      43.215  29.658  29.146  1.00  0.00    -0.354 N 
ATOM     55  N   UNL A   1      46.004  28.789  28.789  1.00  0.00    -0.248 NA
ATOM     56  C   UNL A   1      48.289  29.265  28.771  1.00  0.00     0.031 C 
ATOM     57  C   UNL A   1      42.844  31.748  29.802  1.00  0.00     0.029 A 
ATOM     58  C   UNL A   1      43.847  30.841  29.494  1.00  0.00     0.049 A 
ATOM     59  H   UNL A   1      43.673  28.834  28.864  1.00  0.00     0.167 HD
ATOM     60  C   UNL A   1      46.196  30.107  29.182  1.00  0.00     0.074 A 
ATOM     61  C   UNL A   1      47.626  30.337  29.184  1.00  0.00     0.031 C 
ATOM     62  C   UNL A   1      45.273  31.041  29.516  1.00  0.00     0.037 A 
BRANCH  49  63
ATOM     63  C   UNL A   1      39.419  29.108  29.068  1.00  0.00     0.064 A 
ATOM     64  C   UNL A   1      38.646  29.434  27.943  1.00  0.00     0.173 A 
ATOM     65  C   UNL A   1      38.774  29.065  30.313  1.00  0.00     0.173 A 
ATOM     66  F   UNL A   1      39.215  29.504  26.729  1.00  0.00    -0.203 F 
ATOM     67  C   UNL A   1      37.292  29.736  28.065  1.00  0.00     0.198 A 
ATOM     68  C   UNL A   1      37.413  29.332  30.427  1.00  0.00     0.198 A 
ATOM     69  F   UNL A   1      39.463  28.754  31.422  1.00  0.00    -0.203 F 
ATOM     70  F   UNL A   1      36.589  30.101  26.984  1.00  0.00    -0.200 F 
ATOM     71  C   UNL A   1      36.675  29.676  29.304  1.00  0.00     0.200 A 
ATOM     72  F   UNL A   1      36.814  29.258  31.624  1.00  0.00    -0.200 F 
ATOM     73  F   UNL A   1      35.370  29.958  29.420  1.00  0.00    -0.200 F 
ENDBRANCH  49  63
BRANCH  50  74
ATOM     74  C   UNL A   1      49.030  26.542  27.985  1.00  0.00     0.064 A 
ATOM     75  C   UNL A   1      49.858  26.292  29.088  1.00  0.00     0.173 A 
ATOM     76  C   UNL A   1      49.605  26.461  26.708  1.00  0.00     0.173 A 
ATOM     77  F   UNL A   1      49.361  26.375  30.331  1.00  0.00    -0.203 F 
ATOM     78  C   UNL A   1      51.212  26.002  28.924  1.00  0.00     0.198 A 
ATOM     79  C   UNL A   1      50.951  26.139  26.544  1.00  0.00     0.198 A 
ATOM     80  F   UNL A   1      48.856  26.683  25.619  1.00  0.00    -0.203 F 
ATOM     81  F   UNL A   1      51.991  25.823  29.999  1.00  0.00    -0.200 F 
ATOM     82  C   UNL A   1      51.756  25.922  27.652  1.00  0.00     0.200 A 
ATOM     83  F   UNL A   1      51.469  26.046  25.312  1.00  0.00    -0.200 F 
ATOM     84  F   UNL A   1      53.058  25.645  27.493  1.00  0.00    -0.200 F 
ENDBRANCH  50  74
BRANCH  62  85
ATOM     85  C   UNL A   1      45.774  32.378  29.978  1.00  0.00     0.064 A 
ATOM     86  C   UNL A   1      45.959  33.450  29.094  1.00  0.00     0.173 A 
ATOM     87  C   UNL A   1      46.013  32.604  31.343  1.00  0.00     0.173 A 
ATOM     88  F   UNL A   1      45.758  33.281  27.778  1.00  0.00    -0.203 F 
ATOM     89  C   UNL A   1      46.386  34.692  29.555  1.00  0.00     0.198 A 
ATOM     90  C   UNL A   1      46.407  33.857  31.805  1.00  0.00     0.198 A 
ATOM     91  F   UNL A   1      45.843  31.614  32.233  1.00  0.00    -0.203 F 
ATOM     92  F   UNL A   1      46.600  35.690  28.686  1.00  0.00    -0.200 F 
ATOM     93  C   UNL A   1      46.600  34.897  30.910  1.00  0.00     0.200 A 
ATOM     94  F   UNL A   1      46.594  34.056  33.117  1.00  0.00    -0.200 F 
ATOM     95  F   UNL A   1      46.995  36.098  31.353  1.00  0.00    -0.200 F 
ENDBRANCH  62  85
ENDBRANCH  36  37
ENDBRANCH  28  31
ENDBRANCH  26  27
ENDBRANCH  25  26
ENDBRANCH   1  25
TORSDOF 15
ENDMDL
MODEL 3
REMARK VINA RESULT:     -11.7      5.543      9.829
REMARK SMILES CCOc1ccccc1NC(=O)N[C@@](C)(CC)C(=O)NCCCNC(=O)c1ccc(-c2c3nc(c(-c4c(F)c(F)c(F)c(F)c4F)c4ccc([nH]4)c(-c4c(F)c(F)c(F)c(F)c4F)c4nc(c(-c5c(F)c(F)c(F)c(F)c5F)c5ccc2[nH]5)C=C4)C=C3)cc1
REMARK SMILES IDX 21 1 20 2 18 3 19 4 14 6 15 7 13 8 10 9 11 10 12 12 9 14
REMARK SMILES IDX 4 15 5 16 6 17 8 18 7 19 3 20 2 21 1 22 16 23 17 24 22 25
REMARK SMILES IDX 23 26 24 27 25 28 26 30 27 31 28 32 89 33 29 34 88 35 30 36
REMARK SMILES IDX 31 37 32 38 82 39 33 40 87 41 81 42 83 43 34 44 86 45 80 46
REMARK SMILES IDX 79 47 35 49 67 50 47 51 66 52 48 53 51 54 65 55 84 56 49 57
REMARK SMILES IDX 50 58 64 60 85 61 52 62 36 63 37 64 45 65 38 66 39 67 43 68
REMARK SMILES IDX 46 69 40 70 41 71 44 72 42 73 68 74 69 75 77 76 70 77 71 78
REMARK SMILES IDX 75 79 78 80 72 81 73 82 76 83 74 84 53 85 54 86 62 87 55 88
REMARK SMILES IDX 56 89 60 90 63 91 57 92 58 93 61 94 59 95
REMARK H PARENT 20 5 10 11 13 13 24 29 83 48 51 59
REMARK Flexibility Score: inf
ROOT
ATOM      1  C   UNL A   1      36.976  21.512  24.730  1.00  0.00     0.117 C 
ENDROOT
BRANCH   1   2
ATOM      2  N   UNL A   1      35.568  21.225  24.816  1.00  0.00    -0.354 N 
ATOM      3  C   UNL A   1      34.693  22.283  24.845  1.00  0.00     0.245 C 
ATOM      4  O   UNL A   1      34.973  23.341  24.276  1.00  0.00    -0.272 OA
ATOM      5  H   UNL A   1      35.241  20.297  24.853  1.00  0.00     0.163 HD
BRANCH   3   6
ATOM      6  C   UNL A   1      33.387  22.078  25.659  1.00  0.00     0.117 C 
ATOM      7  C   UNL A   1      33.867  21.057  26.745  1.00  0.00     0.045 C 
BRANCH   6   8
ATOM      8  N   UNL A   1      32.840  23.207  26.446  1.00  0.00    -0.324 N 
ATOM      9  N   UNL A   1      31.475  24.726  25.231  1.00  0.00    -0.305 N 
ATOM     10  C   UNL A   1      31.774  23.992  26.301  1.00  0.00     0.320 C 
ATOM     11  H   UNL A   1      30.509  24.918  25.192  1.00  0.00     0.172 HD
ATOM     12  O   UNL A   1      30.996  24.044  27.260  1.00  0.00    -0.248 OA
ATOM     13  H   UNL A   1      33.376  23.422  27.243  1.00  0.00     0.166 HD
BRANCH   9  14
ATOM     14  C   UNL A   1      32.149  25.301  24.149  1.00  0.00     0.085 A 
ATOM     15  C   UNL A   1      33.132  26.251  24.470  1.00  0.00     0.142 A 
ATOM     16  C   UNL A   1      33.673  27.103  23.510  1.00  0.00     0.048 A 
ATOM     17  C   UNL A   1      33.345  26.898  22.175  1.00  0.00     0.004 A 
ATOM     18  C   UNL A   1      31.987  24.982  22.814  1.00  0.00     0.030 A 
ATOM     19  C   UNL A   1      32.557  25.799  21.826  1.00  0.00     0.002 A 
BRANCH  15  20
ATOM     20  O   UNL A   1      33.630  26.287  25.756  1.00  0.00    -0.492 OA
BRANCH  20  21
ATOM     21  C   UNL A   1      33.496  27.630  26.281  1.00  0.00     0.226 C 
ATOM     22  C   UNL A   1      32.175  27.811  27.018  1.00  0.00     0.049 C 
ENDBRANCH  20  21
ENDBRANCH  15  20
ENDBRANCH   9  14
ENDBRANCH   6   8
BRANCH   6  23
ATOM     23  C   UNL A   1      32.324  21.297  24.819  1.00  0.00     0.035 C 
ATOM     24  C   UNL A   1      32.378  21.403  23.300  1.00  0.00     0.007 C 
ENDBRANCH   6  23
ENDBRANCH   3   6
ENDBRANCH   1   2
BRANCH   1  25
ATOM     25  C   UNL A   1      37.832  20.294  25.012  1.00  0.00     0.042 C 
BRANCH  25  26
ATOM     26  C   UNL A   1      39.085  20.655  25.793  1.00  0.00     0.118 C 
BRANCH  26  27
ATOM     27  N   UNL A   1      40.010  19.527  25.902  1.00  0.00    -0.352 N 
ATOM     28  C   UNL A   1      41.369  19.505  26.087  1.00  0.00     0.251 C 
ATOM     29  H   UNL A   1      39.588  18.640  25.831  1.00  0.00     0.163 HD
ATOM     30  O   UNL A   1      42.009  18.471  25.903  1.00  0.00    -0.269 OA
BRANCH  28  31
ATOM     31  C   UNL A   1      42.065  20.740  26.490  1.00  0.00     0.039 A 
ATOM     32  C   UNL A   1      42.536  21.623  25.515  1.00  0.00     0.014 A 
ATOM     33  C   UNL A   1      42.224  21.033  27.843  1.00  0.00     0.014 A 
ATOM     34  C   UNL A   1      43.075  22.851  25.905  1.00  0.00     0.010 A 
ATOM     35  C   UNL A   1      42.651  22.295  28.224  1.00  0.00     0.010 A 
ATOM     36  C   UNL A   1      43.082  23.219  27.259  1.00  0.00    -0.014 A 
BRANCH  36  37
ATOM     37  C   UNL A   1      43.541  24.554  27.715  1.00  0.00     0.031 A 
ATOM     38  C   UNL A   1      42.524  25.606  28.062  1.00  0.00     0.074 A 
ATOM     39  C   UNL A   1      44.855  24.851  27.712  1.00  0.00     0.049 A 
ATOM     40  N   UNL A   1      42.700  26.876  28.323  1.00  0.00    -0.248 NA
ATOM     41  C   UNL A   1      41.115  25.179  28.079  1.00  0.00     0.031 C 
ATOM     42  C   UNL A   1      45.933  23.928  27.353  1.00  0.00     0.029 A 
ATOM     43  N   UNL A   1      45.507  26.024  28.000  1.00  0.00    -0.354 N 
ATOM     44  C   UNL A   1      41.427  27.400  28.508  1.00  0.00     0.074 A 
ATOM     45  C   UNL A   1      40.486  26.329  28.268  1.00  0.00     0.031 C 
ATOM     46  C   UNL A   1      47.111  24.562  27.463  1.00  0.00     0.029 A 
ATOM     47  C   UNL A   1      46.871  25.949  27.848  1.00  0.00     0.049 A 
ATOM     48  H   UNL A   1      45.042  26.842  28.289  1.00  0.00     0.167 HD
ATOM     49  C   UNL A   1      41.077  28.656  28.873  1.00  0.00     0.037 A 
ATOM     50  C   UNL A   1      47.816  26.898  27.986  1.00  0.00     0.037 A 
ATOM     51  C   UNL A   1      42.022  29.707  29.138  1.00  0.00     0.049 A 
ATOM     52  C   UNL A   1      47.398  28.292  28.376  1.00  0.00     0.074 A 
ATOM     53  C   UNL A   1      41.776  31.000  29.561  1.00  0.00     0.029 A 
ATOM     54  N   UNL A   1      43.398  29.583  29.004  1.00  0.00    -0.354 N 
ATOM     55  N   UNL A   1      46.196  28.764  28.604  1.00  0.00    -0.248 NA
ATOM     56  C   UNL A   1      48.469  29.285  28.533  1.00  0.00     0.031 C 
ATOM     57  C   UNL A   1      42.998  31.675  29.634  1.00  0.00     0.029 A 
ATOM     58  C   UNL A   1      44.012  30.783  29.320  1.00  0.00     0.049 A 
ATOM     59  H   UNL A   1      43.866  28.763  28.726  1.00  0.00     0.167 HD
ATOM     60  C   UNL A   1      46.369  30.091  28.973  1.00  0.00     0.074 A 
ATOM     61  C   UNL A   1      47.794  30.349  28.943  1.00  0.00     0.031 C 
ATOM     62  C   UNL A   1      45.434  31.012  29.311  1.00  0.00     0.037 A 
BRANCH  49  63
ATOM     63  C   UNL A   1      39.612  28.956  29.011  1.00  0.00     0.064 A 
ATOM     64  C   UNL A   1      38.832  29.343  27.911  1.00  0.00     0.173 A 
ATOM     65  C   UNL A   1      38.973  28.825  30.252  1.00  0.00     0.173 A 
ATOM     66  F   UNL A   1      39.396  29.498  26.702  1.00  0.00    -0.203 F 
ATOM     67  C   UNL A   1      37.475  29.619  28.054  1.00  0.00     0.198 A 
ATOM     68  C   UNL A   1      37.608  29.066  30.386  1.00  0.00     0.198 A 
ATOM     69  F   UNL A   1      39.669  28.453  31.337  1.00  0.00    -0.203 F 
ATOM     70  F   UNL A   1      36.763  30.042  27.001  1.00  0.00    -0.200 F 
ATOM     71  C   UNL A   1      36.862  29.471  29.289  1.00  0.00     0.200 A 
ATOM     72  F   UNL A   1      37.014  28.909  31.577  1.00  0.00    -0.200 F 
ATOM     73  F   UNL A   1      35.554  29.729  29.426  1.00  0.00    -0.200 F 
ENDBRANCH  49  63
BRANCH  50  74
ATOM     74  C   UNL A   1      49.250  26.564  27.775  1.00  0.00     0.064 A 
ATOM     75  C   UNL A   1      49.770  26.418  26.481  1.00  0.00     0.173 A 
ATOM     76  C   UNL A   1      50.124  26.364  28.854  1.00  0.00     0.173 A 
ATOM     77  F   UNL A   1      48.972  26.581  25.416  1.00  0.00    -0.203 F 
ATOM     78  C   UNL A   1      51.101  26.058  26.274  1.00  0.00     0.198 A 
ATOM     79  C   UNL A   1      51.462  26.036  28.646  1.00  0.00     0.198 A 
ATOM     80  F   UNL A   1      49.680  26.499  30.112  1.00  0.00    -0.203 F 
ATOM     81  F   UNL A   1      51.555  25.871  25.028  1.00  0.00    -0.200 F 
ATOM     82  C   UNL A   1      51.946  25.871  27.357  1.00  0.00     0.200 A 
ATOM     83  F   UNL A   1      52.281  25.873  29.694  1.00  0.00    -0.200 F 
ATOM     84  F   UNL A   1      53.226  25.524  27.159  1.00  0.00    -0.200 F 
ENDBRANCH  50  74
BRANCH  62  85
ATOM     85  C   UNL A   1      45.917  32.366  29.742  1.00  0.00     0.064 A 
ATOM     86  C   UNL A   1      46.063  33.427  28.837  1.00  0.00     0.173 A 
ATOM     87  C   UNL A   1      46.179  32.619  31.098  1.00  0.00     0.173 A 
ATOM     88  F   UNL A   1      45.839  33.233  27.528  1.00  0.00    -0.203 F 
ATOM     89  C   UNL A   1      46.474  34.684  29.269  1.00  0.00     0.198 A 
ATOM     90  C   UNL A   1      46.556  33.886  31.532  1.00  0.00     0.198 A 
ATOM     91  F   UNL A   1      46.046  31.640  32.007  1.00  0.00    -0.203 F 
ATOM     92  F   UNL A   1      46.650  35.672  28.381  1.00  0.00    -0.200 F 
ATOM     93  C   UNL A   1      46.710  34.916  30.617  1.00  0.00     0.200 A 
ATOM     94  F   UNL A   1      46.765  34.110  32.837  1.00  0.00    -0.200 F 
ATOM     95  F   UNL A   1      47.090  36.131  31.033  1.00  0.00    -0.200 F 
ENDBRANCH  62  85
ENDBRANCH  36  37
ENDBRANCH  28  31
ENDBRANCH  26  27
ENDBRANCH  25  26
ENDBRANCH   1  25
TORSDOF 15
ENDMDL
