MODEL 1
REMARK VINA RESULT:     -12.1      0.000      0.000
REMARK SMILES COCCC(=O)N1[C@@H](C(=O)NCCCNC(=O)c2ccc(-c3c4nc(c(-c5c(F)c(F)c(F)c(F)c5F)c5ccc([nH]5)c(-c5c(F)c(F)c(F)c(F)c5F)c5nc(c(-c6c(F)c(F)c(F)c(F)c6F)c6ccc3[nH]6)C=C5)C=C4)cc2)CC[C@H]2CCCC[C@@H]21
REMARK SMILES IDX 12 1 11 2 9 3 10 4 8 6 7 7 88 8 81 9 83 10 87 11 82 12 84 13
REMARK SMILES IDX 86 14 85 15 5 16 6 17 4 18 3 19 2 20 1 21 13 22 14 23 15 24
REMARK SMILES IDX 16 25 17 27 18 28 19 29 80 30 20 31 79 32 21 33 22 34 23 35
REMARK SMILES IDX 73 36 24 37 78 38 72 39 74 40 25 41 77 42 71 43 70 44 26 46
REMARK SMILES IDX 58 47 38 48 57 49 39 50 42 51 56 52 75 53 40 54 41 55 55 57
REMARK SMILES IDX 76 58 43 59 27 60 28 61 36 62 29 63 30 64 34 65 37 66 31 67
REMARK SMILES IDX 32 68 35 69 33 70 59 71 60 72 68 73 61 74 62 75 66 76 69 77
REMARK SMILES IDX 63 78 64 79 67 80 65 81 44 82 45 83 53 84 46 85 47 86 51 87
REMARK SMILES IDX 54 88 48 89 49 90 52 91 50 92
REMARK H PARENT 11 5 15 26 74 45 42 56
REMARK Flexibility Score: inf
ROOT
ATOM      1  C   UNL A   1      32.062  30.376  26.118  1.00  0.00     0.117 C 
ENDROOT
BRANCH   1   2
ATOM      2  N   UNL A   1      31.401  30.178  24.853  1.00  0.00    -0.354 N 
ATOM      3  C   UNL A   1      30.943  29.002  24.324  1.00  0.00     0.242 C 
ATOM      4  O   UNL A   1      30.362  29.071  23.236  1.00  0.00    -0.273 OA
ATOM      5  H   UNL A   1      31.262  30.985  24.305  1.00  0.00     0.163 HD
BRANCH   3   6
ATOM      6  C   UNL A   1      31.386  27.627  24.897  1.00  0.00     0.174 C 
ATOM      7  N   UNL A   1      32.502  26.887  24.267  1.00  0.00    -0.327 N 
ATOM      8  C   UNL A   1      32.786  25.557  24.822  1.00  0.00     0.089 C 
ATOM      9  C   UNL A   1      30.083  26.759  24.840  1.00  0.00     0.036 C 
ATOM     10  C   UNL A   1      31.582  24.925  25.543  1.00  0.00     0.012 C 
ATOM     11  C   UNL A   1      33.965  25.517  25.812  1.00  0.00     0.025 C 
ATOM     12  C   UNL A   1      30.316  25.246  24.778  1.00  0.00     0.008 C 
ATOM     13  C   UNL A   1      31.854  23.434  25.735  1.00  0.00     0.006 C 
ATOM     14  C   UNL A   1      34.293  24.072  26.208  1.00  0.00     0.002 C 
ATOM     15  C   UNL A   1      33.077  23.247  26.639  1.00  0.00     0.000 C 
BRANCH   7  16
ATOM     16  C   UNL A   1      33.556  27.563  23.648  1.00  0.00     0.225 C 
ATOM     17  O   UNL A   1      34.219  28.430  24.209  1.00  0.00    -0.275 OA
BRANCH  16  18
ATOM     18  C   UNL A   1      33.655  27.322  22.138  1.00  0.00     0.128 C 
BRANCH  18  19
ATOM     19  C   UNL A   1      32.624  26.404  21.515  1.00  0.00     0.169 C 
BRANCH  19  20
ATOM     20  O   UNL A   1      33.202  25.548  20.520  1.00  0.00    -0.384 OA
ATOM     21  C   UNL A   1      32.407  25.403  19.354  1.00  0.00     0.194 C 
ENDBRANCH  19  20
ENDBRANCH  18  19
ENDBRANCH  16  18
ENDBRANCH   7  16
ENDBRANCH   3   6
ENDBRANCH   1   2
BRANCH   1  22
ATOM     22  C   UNL A   1      31.658  31.619  26.873  1.00  0.00     0.042 C 
BRANCH  22  23
ATOM     23  C   UNL A   1      32.835  32.483  27.284  1.00  0.00     0.118 C 
BRANCH  23  24
ATOM     24  N   UNL A   1      32.480  33.873  27.563  1.00  0.00    -0.352 N 
ATOM     25  C   UNL A   1      32.994  34.769  28.476  1.00  0.00     0.251 C 
ATOM     26  H   UNL A   1      31.750  34.229  27.006  1.00  0.00     0.163 HD
ATOM     27  O   UNL A   1      32.468  35.856  28.634  1.00  0.00    -0.269 OA
BRANCH  25  28
ATOM     28  C   UNL A   1      34.167  34.387  29.295  1.00  0.00     0.039 A 
ATOM     29  C   UNL A   1      33.961  33.838  30.563  1.00  0.00     0.014 A 
ATOM     30  C   UNL A   1      35.460  34.530  28.799  1.00  0.00     0.014 A 
ATOM     31  C   UNL A   1      35.048  33.333  31.278  1.00  0.00     0.010 A 
ATOM     32  C   UNL A   1      36.516  33.904  29.444  1.00  0.00     0.010 A 
ATOM     33  C   UNL A   1      36.326  33.305  30.696  1.00  0.00    -0.014 A 
BRANCH  33  34
ATOM     34  C   UNL A   1      37.478  32.658  31.371  1.00  0.00     0.031 A 
ATOM     35  C   UNL A   1      38.181  31.499  30.716  1.00  0.00     0.074 A 
ATOM     36  C   UNL A   1      37.830  33.048  32.612  1.00  0.00     0.049 A 
ATOM     37  N   UNL A   1      39.148  30.747  31.178  1.00  0.00    -0.248 NA
ATOM     38  C   UNL A   1      37.705  31.105  29.380  1.00  0.00     0.031 C 
ATOM     39  C   UNL A   1      37.173  34.104  33.387  1.00  0.00     0.029 A 
ATOM     40  N   UNL A   1      38.821  32.595  33.446  1.00  0.00    -0.354 N 
ATOM     41  C   UNL A   1      39.371  29.782  30.206  1.00  0.00     0.074 A 
ATOM     42  C   UNL A   1      38.397  29.998  29.160  1.00  0.00     0.031 C 
ATOM     43  C   UNL A   1      37.797  34.236  34.567  1.00  0.00     0.029 A 
ATOM     44  C   UNL A   1      38.869  33.250  34.653  1.00  0.00     0.049 A 
ATOM     45  H   UNL A   1      39.439  31.867  33.204  1.00  0.00     0.167 HD
ATOM     46  C   UNL A   1      40.323  28.820  30.172  1.00  0.00     0.037 A 
ATOM     47  C   UNL A   1      39.681  33.072  35.711  1.00  0.00     0.037 A 
ATOM     48  C   UNL A   1      41.316  28.637  31.198  1.00  0.00     0.049 A 
ATOM     49  C   UNL A   1      40.751  32.018  35.638  1.00  0.00     0.074 A 
ATOM     50  C   UNL A   1      42.382  27.758  31.219  1.00  0.00     0.029 A 
ATOM     51  N   UNL A   1      41.359  29.349  32.388  1.00  0.00    -0.354 N 
ATOM     52  N   UNL A   1      41.017  31.173  34.671  1.00  0.00    -0.248 NA
ATOM     53  C   UNL A   1      41.643  31.898  36.800  1.00  0.00     0.031 C 
ATOM     54  C   UNL A   1      43.038  27.897  32.446  1.00  0.00     0.029 A 
ATOM     55  C   UNL A   1      42.416  28.905  33.165  1.00  0.00     0.049 A 
ATOM     56  H   UNL A   1      40.730  30.062  32.644  1.00  0.00     0.167 HD
ATOM     57  C   UNL A   1      42.114  30.437  35.096  1.00  0.00     0.074 A 
ATOM     58  C   UNL A   1      42.479  30.951  36.400  1.00  0.00     0.031 C 
ATOM     59  C   UNL A   1      42.761  29.426  34.465  1.00  0.00     0.037 A 
BRANCH  46  60
ATOM     60  C   UNL A   1      40.337  27.896  28.989  1.00  0.00     0.064 A 
ATOM     61  C   UNL A   1      41.081  28.182  27.833  1.00  0.00     0.173 A 
ATOM     62  C   UNL A   1      39.612  26.695  29.017  1.00  0.00     0.173 A 
ATOM     63  F   UNL A   1      41.783  29.322  27.747  1.00  0.00    -0.203 F 
ATOM     64  C   UNL A   1      41.068  27.321  26.739  1.00  0.00     0.198 A 
ATOM     65  C   UNL A   1      39.630  25.819  27.934  1.00  0.00     0.198 A 
ATOM     66  F   UNL A   1      38.886  26.368  30.097  1.00  0.00    -0.203 F 
ATOM     67  F   UNL A   1      41.736  27.648  25.624  1.00  0.00    -0.200 F 
ATOM     68  C   UNL A   1      40.348  26.137  26.793  1.00  0.00     0.200 A 
ATOM     69  F   UNL A   1      38.944  24.669  27.994  1.00  0.00    -0.200 F 
ATOM     70  F   UNL A   1      40.341  25.308  25.740  1.00  0.00    -0.200 F 
ENDBRANCH  46  60
BRANCH  47  71
ATOM     71  C   UNL A   1      39.528  33.929  36.916  1.00  0.00     0.064 A 
ATOM     72  C   UNL A   1      38.775  33.497  38.018  1.00  0.00     0.173 A 
ATOM     73  C   UNL A   1      40.138  35.188  36.998  1.00  0.00     0.173 A 
ATOM     74  F   UNL A   1      38.158  32.307  37.981  1.00  0.00    -0.203 F 
ATOM     75  C   UNL A   1      38.622  34.300  39.145  1.00  0.00     0.198 A 
ATOM     76  C   UNL A   1      40.010  35.978  38.139  1.00  0.00     0.198 A 
ATOM     77  F   UNL A   1      40.876  35.645  35.976  1.00  0.00    -0.203 F 
ATOM     78  F   UNL A   1      37.861  33.880  40.165  1.00  0.00    -0.200 F 
ATOM     79  C   UNL A   1      39.245  35.537  39.208  1.00  0.00     0.200 A 
ATOM     80  F   UNL A   1      40.628  37.165  38.203  1.00  0.00    -0.200 F 
ATOM     81  F   UNL A   1      39.105  36.306  40.297  1.00  0.00    -0.200 F 
ENDBRANCH  47  71
BRANCH  59  82
ATOM     82  C   UNL A   1      43.943  28.823  35.167  1.00  0.00     0.064 A 
ATOM     83  C   UNL A   1      45.241  29.323  34.987  1.00  0.00     0.173 A 
ATOM     84  C   UNL A   1      43.769  27.756  36.062  1.00  0.00     0.173 A 
ATOM     85  F   UNL A   1      45.463  30.333  34.131  1.00  0.00    -0.203 F 
ATOM     86  C   UNL A   1      46.325  28.756  35.652  1.00  0.00     0.198 A 
ATOM     87  C   UNL A   1      44.849  27.214  36.752  1.00  0.00     0.198 A 
ATOM     88  F   UNL A   1      42.547  27.245  36.277  1.00  0.00    -0.203 F 
ATOM     89  F   UNL A   1      47.563  29.215  35.424  1.00  0.00    -0.200 F 
ATOM     90  C   UNL A   1      46.127  27.709  36.539  1.00  0.00     0.200 A 
ATOM     91  F   UNL A   1      44.655  26.212  37.620  1.00  0.00    -0.200 F 
ATOM     92  F   UNL A   1      47.171  27.170  37.185  1.00  0.00    -0.200 F 
ENDBRANCH  59  82
ENDBRANCH  33  34
ENDBRANCH  25  28
ENDBRANCH  23  24
ENDBRANCH  22  23
ENDBRANCH   1  22
TORSDOF 14
ENDMDL
MODEL 2
REMARK VINA RESULT:     -12.1      2.128      3.551
REMARK SMILES COCCC(=O)N1[C@@H](C(=O)NCCCNC(=O)c2ccc(-c3c4nc(c(-c5c(F)c(F)c(F)c(F)c5F)c5ccc([nH]5)c(-c5c(F)c(F)c(F)c(F)c5F)c5nc(c(-c6c(F)c(F)c(F)c(F)c6F)c6ccc3[nH]6)C=C5)C=C4)cc2)CC[C@H]2CCCC[C@@H]21
REMARK SMILES IDX 12 1 11 2 9 3 10 4 8 6 7 7 88 8 81 9 83 10 87 11 82 12 84 13
REMARK SMILES IDX 86 14 85 15 5 16 6 17 4 18 3 19 2 20 1 21 13 22 14 23 15 24
REMARK SMILES IDX 16 25 17 27 18 28 19 29 80 30 20 31 79 32 21 33 22 34 23 35
REMARK SMILES IDX 73 36 24 37 78 38 72 39 74 40 25 41 77 42 71 43 70 44 26 46
REMARK SMILES IDX 58 47 38 48 57 49 39 50 42 51 56 52 75 53 40 54 41 55 55 57
REMARK SMILES IDX 76 58 43 59 27 60 28 61 36 62 29 63 30 64 34 65 37 66 31 67
REMARK SMILES IDX 32 68 35 69 33 70 59 71 60 72 68 73 61 74 62 75 66 76 69 77
REMARK SMILES IDX 63 78 64 79 67 80 65 81 44 82 45 83 53 84 46 85 47 86 51 87
REMARK SMILES IDX 54 88 48 89 49 90 52 91 50 92
REMARK H PARENT 11 5 15 26 74 45 42 56
REMARK Flexibility Score: inf
ROOT
ATOM      1  C   UNL A   1      32.411  26.865  26.553  1.00  0.00     0.117 C 
ENDROOT
BRANCH   1   2
ATOM      2  N   UNL A   1      31.454  25.810  26.765  1.00  0.00    -0.354 N 
ATOM      3  C   UNL A   1      31.693  24.464  26.821  1.00  0.00     0.242 C 
ATOM      4  O   UNL A   1      30.723  23.736  27.061  1.00  0.00    -0.273 OA
ATOM      5  H   UNL A   1      30.518  26.090  26.884  1.00  0.00     0.163 HD
BRANCH   3   6
ATOM      6  C   UNL A   1      33.031  23.854  26.319  1.00  0.00     0.174 C 
ATOM      7  N   UNL A   1      33.107  23.240  24.975  1.00  0.00    -0.327 N 
ATOM      8  C   UNL A   1      34.388  22.611  24.627  1.00  0.00     0.089 C 
ATOM      9  C   UNL A   1      33.389  22.784  27.406  1.00  0.00     0.036 C 
ATOM     10  C   UNL A   1      35.219  22.194  25.854  1.00  0.00     0.012 C 
ATOM     11  C   UNL A   1      35.306  23.478  23.745  1.00  0.00     0.025 C 
ATOM     12  C   UNL A   1      34.294  21.647  26.921  1.00  0.00     0.008 C 
ATOM     13  C   UNL A   1      36.314  21.230  25.400  1.00  0.00     0.006 C 
ATOM     14  C   UNL A   1      36.538  22.681  23.296  1.00  0.00     0.002 C 
ATOM     15  C   UNL A   1      37.260  21.947  24.430  1.00  0.00     0.000 C 
BRANCH   7  16
ATOM     16  C   UNL A   1      32.314  23.707  23.924  1.00  0.00     0.225 C 
ATOM     17  O   UNL A   1      31.540  22.990  23.299  1.00  0.00    -0.275 OA
BRANCH  16  18
ATOM     18  C   UNL A   1      32.672  25.118  23.447  1.00  0.00     0.128 C 
BRANCH  18  19
ATOM     19  C   UNL A   1      32.668  25.365  21.953  1.00  0.00     0.169 C 
BRANCH  19  20
ATOM     20  O   UNL A   1      33.699  26.281  21.559  1.00  0.00    -0.384 OA
ATOM     21  C   UNL A   1      33.638  27.534  22.221  1.00  0.00     0.194 C 
ENDBRANCH  19  20
ENDBRANCH  18  19
ENDBRANCH  16  18
ENDBRANCH   7  16
ENDBRANCH   3   6
ENDBRANCH   1   2
BRANCH   1  22
ATOM     22  C   UNL A   1      31.845  28.264  26.549  1.00  0.00     0.042 C 
BRANCH  22  23
ATOM     23  C   UNL A   1      32.793  29.297  25.972  1.00  0.00     0.118 C 
BRANCH  23  24
ATOM     24  N   UNL A   1      32.500  30.667  26.386  1.00  0.00    -0.352 N 
ATOM     25  C   UNL A   1      33.201  31.532  27.200  1.00  0.00     0.251 C 
ATOM     26  H   UNL A   1      31.660  31.033  26.026  1.00  0.00     0.163 HD
ATOM     27  O   UNL A   1      32.716  32.602  27.522  1.00  0.00    -0.269 OA
BRANCH  25  28
ATOM     28  C   UNL A   1      34.532  31.136  27.715  1.00  0.00     0.039 A 
ATOM     29  C   UNL A   1      35.544  32.096  27.791  1.00  0.00     0.014 A 
ATOM     30  C   UNL A   1      34.766  29.838  28.161  1.00  0.00     0.014 A 
ATOM     31  C   UNL A   1      36.750  31.774  28.416  1.00  0.00     0.010 A 
ATOM     32  C   UNL A   1      35.904  29.562  28.904  1.00  0.00     0.010 A 
ATOM     33  C   UNL A   1      36.915  30.524  29.034  1.00  0.00    -0.014 A 
BRANCH  33  34
ATOM     34  C   UNL A   1      38.129  30.195  29.821  1.00  0.00     0.031 A 
ATOM     35  C   UNL A   1      39.153  29.243  29.264  1.00  0.00     0.074 A 
ATOM     36  C   UNL A   1      38.264  30.677  31.072  1.00  0.00     0.049 A 
ATOM     37  N   UNL A   1      40.233  28.764  29.828  1.00  0.00    -0.248 NA
ATOM     38  C   UNL A   1      38.908  28.725  27.908  1.00  0.00     0.031 C 
ATOM     39  C   UNL A   1      37.300  31.543  31.756  1.00  0.00     0.029 A 
ATOM     40  N   UNL A   1      39.260  30.497  31.999  1.00  0.00    -0.354 N 
ATOM     41  C   UNL A   1      40.773  27.874  28.910  1.00  0.00     0.074 A 
ATOM     42  C   UNL A   1      39.870  27.825  27.782  1.00  0.00     0.031 C 
ATOM     43  C   UNL A   1      37.765  31.842  32.978  1.00  0.00     0.029 A 
ATOM     44  C   UNL A   1      39.038  31.158  33.183  1.00  0.00     0.049 A 
ATOM     45  H   UNL A   1      40.058  29.945  31.832  1.00  0.00     0.167 HD
ATOM     46  C   UNL A   1      41.934  27.182  28.986  1.00  0.00     0.037 A 
ATOM     47  C   UNL A   1      39.775  31.203  34.309  1.00  0.00     0.037 A 
ATOM     48  C   UNL A   1      42.849  27.267  30.094  1.00  0.00     0.049 A 
ATOM     49  C   UNL A   1      41.076  30.451  34.358  1.00  0.00     0.074 A 
ATOM     50  C   UNL A   1      44.095  26.685  30.230  1.00  0.00     0.029 A 
ATOM     51  N   UNL A   1      42.609  27.981  31.259  1.00  0.00    -0.354 N 
ATOM     52  N   UNL A   1      41.626  29.688  33.444  1.00  0.00    -0.248 NA
ATOM     53  C   UNL A   1      41.865  30.573  35.592  1.00  0.00     0.031 C 
ATOM     54  C   UNL A   1      44.586  26.999  31.501  1.00  0.00     0.029 A 
ATOM     55  C   UNL A   1      43.672  27.827  32.133  1.00  0.00     0.049 A 
ATOM     56  H   UNL A   1      41.803  28.517  31.439  1.00  0.00     0.167 HD
ATOM     57  C   UNL A   1      42.832  29.257  33.981  1.00  0.00     0.074 A 
ATOM     58  C   UNL A   1      42.943  29.862  35.292  1.00  0.00     0.031 C 
ATOM     59  C   UNL A   1      43.763  28.433  33.438  1.00  0.00     0.037 A 
BRANCH  46  60
ATOM     60  C   UNL A   1      42.281  26.276  27.839  1.00  0.00     0.064 A 
ATOM     61  C   UNL A   1      43.203  26.653  26.850  1.00  0.00     0.173 A 
ATOM     62  C   UNL A   1      41.698  25.004  27.737  1.00  0.00     0.173 A 
ATOM     63  F   UNL A   1      43.781  27.863  26.890  1.00  0.00    -0.203 F 
ATOM     64  C   UNL A   1      43.499  25.807  25.784  1.00  0.00     0.198 A 
ATOM     65  C   UNL A   1      42.023  24.147  26.689  1.00  0.00     0.198 A 
ATOM     66  F   UNL A   1      40.812  24.590  28.656  1.00  0.00    -0.203 F 
ATOM     67  F   UNL A   1      44.335  26.215  24.819  1.00  0.00    -0.200 F 
ATOM     68  C   UNL A   1      42.914  24.552  25.708  1.00  0.00     0.200 A 
ATOM     69  F   UNL A   1      41.467  22.929  26.625  1.00  0.00    -0.200 F 
ATOM     70  F   UNL A   1      43.204  23.737  24.685  1.00  0.00    -0.200 F 
ENDBRANCH  46  60
BRANCH  47  71
ATOM     71  C   UNL A   1      39.308  32.008  35.468  1.00  0.00     0.064 A 
ATOM     72  C   UNL A   1      39.686  33.351  35.613  1.00  0.00     0.173 A 
ATOM     73  C   UNL A   1      38.468  31.460  36.447  1.00  0.00     0.173 A 
ATOM     74  F   UNL A   1      40.503  33.917  34.712  1.00  0.00    -0.203 F 
ATOM     75  C   UNL A   1      39.258  34.107  36.702  1.00  0.00     0.198 A 
ATOM     76  C   UNL A   1      38.015  32.225  37.519  1.00  0.00     0.198 A 
ATOM     77  F   UNL A   1      38.069  30.183  36.351  1.00  0.00    -0.203 F 
ATOM     78  F   UNL A   1      39.670  35.374  36.837  1.00  0.00    -0.200 F 
ATOM     79  C   UNL A   1      38.417  33.546  37.651  1.00  0.00     0.200 A 
ATOM     80  F   UNL A   1      37.187  31.684  38.424  1.00  0.00    -0.200 F 
ATOM     81  F   UNL A   1      37.998  34.276  38.693  1.00  0.00    -0.200 F 
ENDBRANCH  47  71
BRANCH  59  82
ATOM     82  C   UNL A   1      44.992  28.156  34.254  1.00  0.00     0.064 A 
ATOM     83  C   UNL A   1      45.074  27.047  35.108  1.00  0.00     0.173 A 
ATOM     84  C   UNL A   1      46.116  28.990  34.150  1.00  0.00     0.173 A 
ATOM     85  F   UNL A   1      44.022  26.227  35.254  1.00  0.00    -0.203 F 
ATOM     86  C   UNL A   1      46.225  26.801  35.853  1.00  0.00     0.198 A 
ATOM     87  C   UNL A   1      47.277  28.722  34.869  1.00  0.00     0.198 A 
ATOM     88  F   UNL A   1      46.093  30.060  33.342  1.00  0.00    -0.203 F 
ATOM     89  F   UNL A   1      46.262  25.765  36.702  1.00  0.00    -0.200 F 
ATOM     90  C   UNL A   1      47.328  27.633  35.726  1.00  0.00     0.200 A 
ATOM     91  F   UNL A   1      48.347  29.518  34.734  1.00  0.00    -0.200 F 
ATOM     92  F   UNL A   1      48.438  27.389  36.437  1.00  0.00    -0.200 F 
ENDBRANCH  59  82
ENDBRANCH  33  34
ENDBRANCH  25  28
ENDBRANCH  23  24
ENDBRANCH  22  23
ENDBRANCH   1  22
TORSDOF 14
ENDMDL
MODEL 3
REMARK VINA RESULT:     -12.1      5.894     11.207
REMARK SMILES COCCC(=O)N1[C@@H](C(=O)NCCCNC(=O)c2ccc(-c3c4nc(c(-c5c(F)c(F)c(F)c(F)c5F)c5ccc([nH]5)c(-c5c(F)c(F)c(F)c(F)c5F)c5nc(c(-c6c(F)c(F)c(F)c(F)c6F)c6ccc3[nH]6)C=C5)C=C4)cc2)CC[C@H]2CCCC[C@@H]21
REMARK SMILES IDX 12 1 11 2 9 3 10 4 8 6 7 7 88 8 81 9 83 10 87 11 82 12 84 13
REMARK SMILES IDX 86 14 85 15 5 16 6 17 4 18 3 19 2 20 1 21 13 22 14 23 15 24
REMARK SMILES IDX 16 25 17 27 18 28 19 29 80 30 20 31 79 32 21 33 22 34 23 35
REMARK SMILES IDX 73 36 24 37 78 38 72 39 74 40 25 41 77 42 71 43 70 44 26 46
REMARK SMILES IDX 58 47 38 48 57 49 39 50 42 51 56 52 75 53 40 54 41 55 55 57
REMARK SMILES IDX 76 58 43 59 27 60 28 61 36 62 29 63 30 64 34 65 37 66 31 67
REMARK SMILES IDX 32 68 35 69 33 70 59 71 60 72 68 73 61 74 62 75 66 76 69 77
REMARK SMILES IDX 63 78 64 79 67 80 65 81 44 82 45 83 53 84 46 85 47 86 51 87
REMARK SMILES IDX 54 88 48 89 49 90 52 91 50 92
REMARK H PARENT 11 5 15 26 74 45 42 56
REMARK Flexibility Score: inf
ROOT
ATOM      1  C   UNL A   1      36.773  21.046  25.274  1.00  0.00     0.117 C 
ENDROOT
BRANCH   1   2
ATOM      2  N   UNL A   1      35.487  20.397  25.288  1.00  0.00    -0.354 N 
ATOM      3  C   UNL A   1      34.304  20.877  24.797  1.00  0.00     0.242 C 
ATOM      4  O   UNL A   1      33.325  20.127  24.874  1.00  0.00    -0.273 OA
ATOM      5  H   UNL A   1      35.457  19.503  25.699  1.00  0.00     0.163 HD
BRANCH   3   6
ATOM      6  C   UNL A   1      34.122  22.379  24.439  1.00  0.00     0.174 C 
ATOM      7  N   UNL A   1      33.456  23.292  25.394  1.00  0.00    -0.327 N 
ATOM      8  C   UNL A   1      33.250  24.670  24.928  1.00  0.00     0.089 C 
ATOM      9  C   UNL A   1      33.319  22.351  23.094  1.00  0.00     0.036 C 
ATOM     10  C   UNL A   1      33.228  24.801  23.395  1.00  0.00     0.012 C 
ATOM     11  C   UNL A   1      34.292  25.681  25.443  1.00  0.00     0.025 C 
ATOM     12  C   UNL A   1      32.501  23.613  22.802  1.00  0.00     0.008 C 
ATOM     13  C   UNL A   1      32.636  26.161  23.028  1.00  0.00     0.006 C 
ATOM     14  C   UNL A   1      33.903  27.111  25.047  1.00  0.00     0.002 C 
ATOM     15  C   UNL A   1      33.538  27.276  23.569  1.00  0.00     0.000 C 
BRANCH   7  16
ATOM     16  C   UNL A   1      33.552  23.087  26.772  1.00  0.00     0.225 C 
ATOM     17  O   UNL A   1      34.617  22.894  27.349  1.00  0.00    -0.275 OA
BRANCH  16  18
ATOM     18  C   UNL A   1      32.204  22.869  27.469  1.00  0.00     0.128 C 
BRANCH  18  19
ATOM     19  C   UNL A   1      30.967  22.864  26.596  1.00  0.00     0.169 C 
BRANCH  19  20
ATOM     20  O   UNL A   1      29.829  23.409  27.276  1.00  0.00    -0.384 OA
ATOM     21  C   UNL A   1      28.805  22.463  27.534  1.00  0.00     0.194 C 
ENDBRANCH  19  20
ENDBRANCH  18  19
ENDBRANCH  16  18
ENDBRANCH   7  16
ENDBRANCH   3   6
ENDBRANCH   1   2
BRANCH   1  22
ATOM     22  C   UNL A   1      37.943  20.159  24.924  1.00  0.00     0.042 C 
BRANCH  22  23
ATOM     23  C   UNL A   1      39.182  20.440  25.752  1.00  0.00     0.118 C 
BRANCH  23  24
ATOM     24  N   UNL A   1      40.102  19.308  25.844  1.00  0.00    -0.352 N 
ATOM     25  C   UNL A   1      41.462  19.269  26.073  1.00  0.00     0.251 C 
ATOM     26  H   UNL A   1      39.681  18.427  25.721  1.00  0.00     0.163 HD
ATOM     27  O   UNL A   1      42.068  18.215  25.989  1.00  0.00    -0.269 OA
BRANCH  25  28
ATOM     28  C   UNL A   1      42.190  20.520  26.381  1.00  0.00     0.039 A 
ATOM     29  C   UNL A   1      42.725  21.271  25.332  1.00  0.00     0.014 A 
ATOM     30  C   UNL A   1      42.305  20.972  27.693  1.00  0.00     0.014 A 
ATOM     31  C   UNL A   1      43.276  22.526  25.598  1.00  0.00     0.010 A 
ATOM     32  C   UNL A   1      42.722  22.272  27.937  1.00  0.00     0.010 A 
ATOM     33  C   UNL A   1      43.221  23.064  26.894  1.00  0.00    -0.014 A 
BRANCH  33  34
ATOM     34  C   UNL A   1      43.676  24.445  27.187  1.00  0.00     0.031 A 
ATOM     35  C   UNL A   1      42.697  25.467  27.701  1.00  0.00     0.074 A 
ATOM     36  C   UNL A   1      44.942  24.805  26.902  1.00  0.00     0.049 A 
ATOM     37  N   UNL A   1      42.876  26.742  27.935  1.00  0.00    -0.248 NA
ATOM     38  C   UNL A   1      41.321  25.004  27.943  1.00  0.00     0.031 C 
ATOM     39  C   UNL A   1      45.963  23.929  26.323  1.00  0.00     0.029 A 
ATOM     40  N   UNL A   1      45.586  26.009  27.047  1.00  0.00    -0.354 N 
ATOM     41  C   UNL A   1      41.636  27.232  28.321  1.00  0.00     0.074 A 
ATOM     42  C   UNL A   1      40.697  26.137  28.225  1.00  0.00     0.031 C 
ATOM     43  C   UNL A   1      47.109  24.614  26.192  1.00  0.00     0.029 A 
ATOM     44  C   UNL A   1      46.896  25.987  26.636  1.00  0.00     0.049 A 
ATOM     45  H   UNL A   1      45.149  26.813  27.412  1.00  0.00     0.167 HD
ATOM     46  C   UNL A   1      41.314  28.476  28.747  1.00  0.00     0.037 A 
ATOM     47  C   UNL A   1      47.820  26.966  26.614  1.00  0.00     0.037 A 
ATOM     48  C   UNL A   1      42.262  29.550  28.880  1.00  0.00     0.049 A 
ATOM     49  C   UNL A   1      47.448  28.331  27.122  1.00  0.00     0.074 A 
ATOM     50  C   UNL A   1      42.062  30.818  29.392  1.00  0.00     0.029 A 
ATOM     51  N   UNL A   1      43.593  29.478  28.493  1.00  0.00    -0.354 N 
ATOM     52  N   UNL A   1      46.294  28.758  27.578  1.00  0.00    -0.248 NA
ATOM     53  C   UNL A   1      48.507  29.350  27.123  1.00  0.00     0.031 C 
ATOM     54  C   UNL A   1      43.257  31.534  29.262  1.00  0.00     0.029 A 
ATOM     55  C   UNL A   1      44.218  30.692  28.725  1.00  0.00     0.049 A 
ATOM     56  H   UNL A   1      44.028  28.683  28.108  1.00  0.00     0.167 HD
ATOM     57  C   UNL A   1      46.492  30.084  27.938  1.00  0.00     0.074 A 
ATOM     58  C   UNL A   1      47.884  30.384  27.668  1.00  0.00     0.031 C 
ATOM     59  C   UNL A   1      45.604  30.974  28.445  1.00  0.00     0.037 A 
BRANCH  46  60
ATOM     60  C   UNL A   1      39.879  28.739  29.104  1.00  0.00     0.064 A 
ATOM     61  C   UNL A   1      38.960  29.233  28.165  1.00  0.00     0.173 A 
ATOM     62  C   UNL A   1      39.409  28.472  30.399  1.00  0.00     0.173 A 
ATOM     63  F   UNL A   1      39.358  29.517  26.915  1.00  0.00    -0.203 F 
ATOM     64  C   UNL A   1      37.637  29.487  28.519  1.00  0.00     0.198 A 
ATOM     65  C   UNL A   1      38.077  28.694  30.739  1.00  0.00     0.198 A 
ATOM     66  F   UNL A   1      40.242  27.995  31.336  1.00  0.00    -0.203 F 
ATOM     67  F   UNL A   1      36.796  30.018  27.621  1.00  0.00    -0.200 F 
ATOM     68  C   UNL A   1      37.195  29.210  29.803  1.00  0.00     0.200 A 
ATOM     69  F   UNL A   1      37.648  28.413  31.978  1.00  0.00    -0.200 F 
ATOM     70  F   UNL A   1      35.921  29.450  30.141  1.00  0.00    -0.200 F 
ENDBRANCH  46  60
BRANCH  47  71
ATOM     71  C   UNL A   1      49.191  26.679  26.117  1.00  0.00     0.064 A 
ATOM     72  C   UNL A   1      49.560  26.987  24.799  1.00  0.00     0.173 A 
ATOM     73  C   UNL A   1      50.164  26.105  26.948  1.00  0.00     0.173 A 
ATOM     74  F   UNL A   1      48.661  27.521  23.960  1.00  0.00    -0.203 F 
ATOM     75  C   UNL A   1      50.842  26.712  24.327  1.00  0.00     0.198 A 
ATOM     76  C   UNL A   1      51.455  25.859  26.483  1.00  0.00     0.198 A 
ATOM     77  F   UNL A   1      49.866  25.800  28.219  1.00  0.00    -0.203 F 
ATOM     78  F   UNL A   1      51.153  26.977  23.051  1.00  0.00    -0.200 F 
ATOM     79  C   UNL A   1      51.791  26.155  25.171  1.00  0.00     0.200 A 
ATOM     80  F   UNL A   1      52.373  25.338  27.308  1.00  0.00    -0.200 F 
ATOM     81  F   UNL A   1      53.026  25.900  24.719  1.00  0.00    -0.200 F 
ENDBRANCH  47  71
BRANCH  59  82
ATOM     82  C   UNL A   1      46.114  32.350  28.760  1.00  0.00     0.064 A 
ATOM     83  C   UNL A   1      46.684  32.657  30.005  1.00  0.00     0.173 A 
ATOM     84  C   UNL A   1      46.067  33.364  27.791  1.00  0.00     0.173 A 
ATOM     85  F   UNL A   1      46.739  31.727  30.970  1.00  0.00    -0.203 F 
ATOM     86  C   UNL A   1      47.158  33.937  30.278  1.00  0.00     0.198 A 
ATOM     87  C   UNL A   1      46.574  34.633  28.056  1.00  0.00     0.198 A 
ATOM     88  F   UNL A   1      45.540  33.121  26.582  1.00  0.00    -0.203 F 
ATOM     89  F   UNL A   1      47.650  34.222  31.492  1.00  0.00    -0.200 F 
ATOM     90  C   UNL A   1      47.111  34.921  29.301  1.00  0.00     0.200 A 
ATOM     91  F   UNL A   1      46.542  35.578  27.106  1.00  0.00    -0.200 F 
ATOM     92  F   UNL A   1      47.577  36.150  29.564  1.00  0.00    -0.200 F 
ENDBRANCH  59  82
ENDBRANCH  33  34
ENDBRANCH  25  28
ENDBRANCH  23  24
ENDBRANCH  22  23
ENDBRANCH   1  22
TORSDOF 14
ENDMDL
