MODEL 1
REMARK VINA RESULT:     -12.9      0.000      0.000
REMARK SMILES Cc1ccc(O[C@H](C)C(=O)NNC(=O)[C@@H]2[C@@H](C(=O)NCCCNC(=O)c3ccc(-c4c5nc(c(-c6c(F)c(F)c(F)c(F)c6F)c6ccc([nH]6)c(-c6c(F)c(F)c(F)c(F)c6F)c6nc(c(-c7c(F)c(F)c(F)c(F)c7F)c7ccc4[nH]7)C=C6)C=C5)cc3)[C@@H]3C=C[C@H]2C3)cc1C
REMARK SMILES IDX 17 1 18 2 19 3 16 5 15 6 92 7 89 8 91 9 93 10 90 11 13 12
REMARK SMILES IDX 12 13 14 15 11 16 9 17 10 18 7 20 8 21 6 22 5 23 1 24 2 25
REMARK SMILES IDX 3 26 95 27 4 28 94 29 96 30 20 31 21 32 22 33 23 34 24 35
REMARK SMILES IDX 25 37 26 38 27 39 88 40 28 41 87 42 29 43 30 44 31 45 81 46
REMARK SMILES IDX 32 47 86 48 80 49 82 50 33 51 85 52 79 53 78 54 34 56 66 57
REMARK SMILES IDX 46 58 65 59 47 60 50 61 64 62 83 63 48 64 49 65 63 67 84 68
REMARK SMILES IDX 51 69 35 70 36 71 44 72 37 73 38 74 42 75 45 76 39 77 40 78
REMARK SMILES IDX 43 79 41 80 67 81 68 82 76 83 69 84 70 85 74 86 77 87 71 88
REMARK SMILES IDX 72 89 75 90 73 91 52 92 53 93 61 94 54 95 55 96 59 97 62 98
REMARK SMILES IDX 56 99 57 100 60 101 58 102
REMARK H PARENT 19 4 12 14 11 19 23 36 82 55 50 66
REMARK Flexibility Score: inf
ROOT
ATOM      1  C   UNL A   1      33.458  29.217  26.085  1.00  0.00     0.224 C 
ATOM      2  O   UNL A   1      34.644  29.080  26.391  1.00  0.00    -0.275 OA
ATOM      3  N   UNL A   1      32.816  30.294  26.608  1.00  0.00    -0.356 N 
ATOM      4  H   UNL A   1      33.369  30.863  27.191  1.00  0.00     0.163 HD
ENDROOT
BRANCH   1   5
ATOM      5  C   UNL A   1      32.731  28.240  25.164  1.00  0.00     0.098 C 
ATOM      6  C   UNL A   1      33.665  27.092  24.594  1.00  0.00     0.100 C 
ATOM      7  C   UNL A   1      33.598  27.362  23.065  1.00  0.00     0.025 C 
ATOM      8  C   UNL A   1      32.283  28.973  23.868  1.00  0.00     0.025 C 
ATOM      9  C   UNL A   1      32.203  27.071  22.573  1.00  0.00    -0.027 C 
ATOM     10  C   UNL A   1      33.544  28.890  23.007  1.00  0.00     0.017 C 
ATOM     11  C   UNL A   1      31.407  28.028  23.071  1.00  0.00    -0.027 C 
BRANCH   6  12
ATOM     12  C   UNL A   1      33.195  25.714  25.089  1.00  0.00     0.242 C 
ATOM     13  N   UNL A   1      33.842  24.548  24.790  1.00  0.00    -0.267 N 
ATOM     14  H   UNL A   1      33.605  23.764  25.337  1.00  0.00     0.191 HD
ATOM     15  O   UNL A   1      32.262  25.615  25.892  1.00  0.00    -0.273 OA
BRANCH  13  16
ATOM     16  N   UNL A   1      34.789  24.348  23.806  1.00  0.00    -0.264 N 
ATOM     17  C   UNL A   1      35.659  23.283  23.789  1.00  0.00     0.279 C 
ATOM     18  O   UNL A   1      36.303  23.065  22.758  1.00  0.00    -0.269 OA
ATOM     19  H   UNL A   1      34.844  25.005  23.074  1.00  0.00     0.191 HD
BRANCH  17  20
ATOM     20  C   UNL A   1      35.920  22.482  25.079  1.00  0.00     0.260 C 
ATOM     21  C   UNL A   1      36.642  23.413  26.061  1.00  0.00     0.064 C 
BRANCH  20  22
ATOM     22  O   UNL A   1      34.714  21.963  25.644  1.00  0.00    -0.481 OA
BRANCH  22  23
ATOM     23  C   UNL A   1      34.042  20.984  24.957  1.00  0.00     0.120 A 
ATOM     24  C   UNL A   1      32.279  17.705  22.735  1.00  0.00     0.044 C 
ATOM     25  C   UNL A   1      32.911  18.811  23.536  1.00  0.00    -0.048 A 
ATOM     26  C   UNL A   1      32.306  20.076  23.532  1.00  0.00     0.007 A 
ATOM     27  C   UNL A   1      34.083  18.622  24.290  1.00  0.00    -0.045 A 
ATOM     28  C   UNL A   1      32.859  21.146  24.242  1.00  0.00     0.047 A 
ATOM     29  C   UNL A   1      34.634  19.717  24.989  1.00  0.00     0.050 A 
ATOM     30  C   UNL A   1      34.777  17.291  24.399  1.00  0.00     0.045 C 
ENDBRANCH  22  23
ENDBRANCH  20  22
ENDBRANCH  17  20
ENDBRANCH  13  16
ENDBRANCH   6  12
ENDBRANCH   1   5
BRANCH   3  31
ATOM     31  C   UNL A   1      31.445  30.740  26.447  1.00  0.00     0.117 C 
BRANCH  31  32
ATOM     32  C   UNL A   1      31.323  32.249  26.636  1.00  0.00     0.042 C 
BRANCH  32  33
ATOM     33  C   UNL A   1      32.652  32.941  26.928  1.00  0.00     0.118 C 
BRANCH  33  34
ATOM     34  N   UNL A   1      32.478  34.205  27.627  1.00  0.00    -0.352 N 
ATOM     35  C   UNL A   1      33.092  34.697  28.750  1.00  0.00     0.251 C 
ATOM     36  H   UNL A   1      31.808  34.807  27.227  1.00  0.00     0.163 HD
ATOM     37  O   UNL A   1      32.638  35.703  29.290  1.00  0.00    -0.269 OA
BRANCH  35  38
ATOM     38  C   UNL A   1      34.286  34.039  29.327  1.00  0.00     0.039 A 
ATOM     39  C   UNL A   1      34.092  33.021  30.267  1.00  0.00     0.014 A 
ATOM     40  C   UNL A   1      35.582  34.458  29.015  1.00  0.00     0.014 A 
ATOM     41  C   UNL A   1      35.193  32.400  30.861  1.00  0.00     0.010 A 
ATOM     42  C   UNL A   1      36.682  33.793  29.558  1.00  0.00     0.010 A 
ATOM     43  C   UNL A   1      36.498  32.767  30.496  1.00  0.00    -0.014 A 
BRANCH  43  44
ATOM     44  C   UNL A   1      37.672  32.084  31.096  1.00  0.00     0.031 A 
ATOM     45  C   UNL A   1      38.135  32.431  32.482  1.00  0.00     0.074 A 
ATOM     46  C   UNL A   1      38.347  31.173  30.370  1.00  0.00     0.049 A 
ATOM     47  N   UNL A   1      39.138  31.940  33.168  1.00  0.00    -0.248 NA
ATOM     48  C   UNL A   1      37.392  33.489  33.182  1.00  0.00     0.031 C 
ATOM     49  C   UNL A   1      38.036  30.795  28.991  1.00  0.00     0.029 A 
ATOM     50  N   UNL A   1      39.437  30.403  30.689  1.00  0.00    -0.354 N 
ATOM     51  C   UNL A   1      39.155  32.637  34.368  1.00  0.00     0.074 A 
ATOM     52  C   UNL A   1      38.092  33.618  34.299  1.00  0.00     0.031 C 
ATOM     53  C   UNL A   1      38.898  29.847  28.591  1.00  0.00     0.029 A 
ATOM     54  C   UNL A   1      39.833  29.566  29.677  1.00  0.00     0.049 A 
ATOM     55  H   UNL A   1      39.891  30.447  31.562  1.00  0.00     0.167 HD
ATOM     56  C   UNL A   1      39.967  32.463  35.438  1.00  0.00     0.037 A 
ATOM     57  C   UNL A   1      40.833  28.665  29.632  1.00  0.00     0.037 A 
ATOM     58  C   UNL A   1      41.004  31.466  35.515  1.00  0.00     0.049 A 
ATOM     59  C   UNL A   1      41.690  28.453  30.847  1.00  0.00     0.074 A 
ATOM     60  C   UNL A   1      41.834  31.163  36.581  1.00  0.00     0.029 A 
ATOM     61  N   UNL A   1      41.352  30.610  34.482  1.00  0.00    -0.354 N 
ATOM     62  N   UNL A   1      41.647  29.066  32.004  1.00  0.00    -0.248 NA
ATOM     63  C   UNL A   1      42.723  27.413  30.754  1.00  0.00     0.031 C 
ATOM     64  C   UNL A   1      42.707  30.145  36.180  1.00  0.00     0.029 A 
ATOM     65  C   UNL A   1      42.395  29.787  34.879  1.00  0.00     0.049 A 
ATOM     66  H   UNL A   1      40.922  30.588  33.597  1.00  0.00     0.167 HD
ATOM     67  C   UNL A   1      42.633  28.479  32.784  1.00  0.00     0.074 A 
ATOM     68  C   UNL A   1      43.245  27.446  31.973  1.00  0.00     0.031 C 
ATOM     69  C   UNL A   1      42.998  28.769  34.057  1.00  0.00     0.037 A 
BRANCH  56  70
ATOM     70  C   UNL A   1      39.761  33.371  36.614  1.00  0.00     0.064 A 
ATOM     71  C   UNL A   1      38.874  33.042  37.651  1.00  0.00     0.173 A 
ATOM     72  C   UNL A   1      40.469  34.578  36.716  1.00  0.00     0.173 A 
ATOM     73  F   UNL A   1      38.164  31.905  37.596  1.00  0.00    -0.203 F 
ATOM     74  C   UNL A   1      38.679  33.903  38.728  1.00  0.00     0.198 A 
ATOM     75  C   UNL A   1      40.292  35.424  37.808  1.00  0.00     0.198 A 
ATOM     76  F   UNL A   1      41.335  34.938  35.756  1.00  0.00    -0.203 F 
ATOM     77  F   UNL A   1      37.787  33.592  39.679  1.00  0.00    -0.200 F 
ATOM     78  C   UNL A   1      39.390  35.090  38.808  1.00  0.00     0.200 A 
ATOM     79  F   UNL A   1      40.988  36.566  37.890  1.00  0.00    -0.200 F 
ATOM     80  F   UNL A   1      39.201  35.918  39.844  1.00  0.00    -0.200 F 
ENDBRANCH  56  70
BRANCH  57  81
ATOM     81  C   UNL A   1      41.034  27.862  28.400  1.00  0.00     0.064 A 
ATOM     82  C   UNL A   1      41.920  28.290  27.402  1.00  0.00     0.173 A 
ATOM     83  C   UNL A   1      40.374  26.640  28.211  1.00  0.00     0.173 A 
ATOM     84  F   UNL A   1      42.558  29.462  27.533  1.00  0.00    -0.203 F 
ATOM     85  C   UNL A   1      42.135  27.528  26.257  1.00  0.00     0.198 A 
ATOM     86  C   UNL A   1      40.607  25.867  27.075  1.00  0.00     0.198 A 
ATOM     87  F   UNL A   1      39.523  26.185  29.142  1.00  0.00    -0.203 F 
ATOM     88  F   UNL A   1      42.968  27.971  25.306  1.00  0.00    -0.200 F 
ATOM     89  C   UNL A   1      41.484  26.314  26.098  1.00  0.00     0.200 A 
ATOM     90  F   UNL A   1      39.989  24.687  26.933  1.00  0.00    -0.200 F 
ATOM     91  F   UNL A   1      41.701  25.574  25.002  1.00  0.00    -0.200 F 
ENDBRANCH  57  81
BRANCH  69  92
ATOM     92  C   UNL A   1      44.103  27.949  34.653  1.00  0.00     0.064 A 
ATOM     93  C   UNL A   1      43.843  26.739  35.314  1.00  0.00     0.173 A 
ATOM     94  C   UNL A   1      45.438  28.365  34.542  1.00  0.00     0.173 A 
ATOM     95  F   UNL A   1      42.581  26.309  35.460  1.00  0.00    -0.203 F 
ATOM     96  C   UNL A   1      44.878  25.988  35.863  1.00  0.00     0.198 A 
ATOM     97  C   UNL A   1      46.472  27.599  35.071  1.00  0.00     0.198 A 
ATOM     98  F   UNL A   1      45.738  29.513  33.915  1.00  0.00    -0.203 F 
ATOM     99  F   UNL A   1      44.602  24.859  36.531  1.00  0.00    -0.200 F 
ATOM    100  C   UNL A   1      46.191  26.416  35.738  1.00  0.00     0.200 A 
ATOM    101  F   UNL A   1      47.741  28.010  34.943  1.00  0.00    -0.200 F 
ATOM    102  F   UNL A   1      47.186  25.692  36.268  1.00  0.00    -0.200 F 
ENDBRANCH  69  92
ENDBRANCH  43  44
ENDBRANCH  35  38
ENDBRANCH  33  34
ENDBRANCH  32  33
ENDBRANCH  31  32
ENDBRANCH   3  31
TORSDOF 15
ENDMDL
MODEL 2
REMARK VINA RESULT:     -12.8      1.045      2.041
REMARK SMILES Cc1ccc(O[C@H](C)C(=O)NNC(=O)[C@@H]2[C@@H](C(=O)NCCCNC(=O)c3ccc(-c4c5nc(c(-c6c(F)c(F)c(F)c(F)c6F)c6ccc([nH]6)c(-c6c(F)c(F)c(F)c(F)c6F)c6nc(c(-c7c(F)c(F)c(F)c(F)c7F)c7ccc4[nH]7)C=C6)C=C5)cc3)[C@@H]3C=C[C@H]2C3)cc1C
REMARK SMILES IDX 17 1 18 2 19 3 16 5 15 6 92 7 89 8 91 9 93 10 90 11 13 12
REMARK SMILES IDX 12 13 14 15 11 16 9 17 10 18 7 20 8 21 6 22 5 23 1 24 2 25
REMARK SMILES IDX 3 26 95 27 4 28 94 29 96 30 20 31 21 32 22 33 23 34 24 35
REMARK SMILES IDX 25 37 26 38 27 39 88 40 28 41 87 42 29 43 30 44 31 45 81 46
REMARK SMILES IDX 32 47 86 48 80 49 82 50 33 51 85 52 79 53 78 54 34 56 66 57
REMARK SMILES IDX 46 58 65 59 47 60 50 61 64 62 83 63 48 64 49 65 63 67 84 68
REMARK SMILES IDX 51 69 35 70 36 71 44 72 37 73 38 74 42 75 45 76 39 77 40 78
REMARK SMILES IDX 43 79 41 80 67 81 68 82 76 83 69 84 70 85 74 86 77 87 71 88
REMARK SMILES IDX 72 89 75 90 73 91 52 92 53 93 61 94 54 95 55 96 59 97 62 98
REMARK SMILES IDX 56 99 57 100 60 101 58 102
REMARK H PARENT 19 4 12 14 11 19 23 36 82 55 50 66
REMARK Flexibility Score: inf
ROOT
ATOM      1  C   UNL A   1      32.506  29.260  24.899  1.00  0.00     0.224 C 
ATOM      2  O   UNL A   1      33.528  29.039  24.246  1.00  0.00    -0.275 OA
ATOM      3  N   UNL A   1      32.641  30.065  25.984  1.00  0.00    -0.356 N 
ATOM      4  H   UNL A   1      33.554  30.394  26.145  1.00  0.00     0.163 HD
ENDROOT
BRANCH   1   5
ATOM      5  C   UNL A   1      31.149  28.669  24.521  1.00  0.00     0.098 C 
ATOM      6  C   UNL A   1      31.243  27.490  23.465  1.00  0.00     0.100 C 
ATOM      7  C   UNL A   1      30.442  28.075  22.268  1.00  0.00     0.025 C 
ATOM      8  C   UNL A   1      30.309  29.731  23.756  1.00  0.00     0.025 C 
ATOM      9  C   UNL A   1      28.990  28.195  22.657  1.00  0.00    -0.027 C 
ATOM     10  C   UNL A   1      30.814  29.558  22.323  1.00  0.00     0.017 C 
ATOM     11  C   UNL A   1      28.911  29.178  23.567  1.00  0.00    -0.027 C 
BRANCH   6  12
ATOM     12  C   UNL A   1      30.738  26.173  24.076  1.00  0.00     0.242 C 
ATOM     13  N   UNL A   1      31.116  24.940  23.623  1.00  0.00    -0.267 N 
ATOM     14  H   UNL A   1      30.929  24.179  24.218  1.00  0.00     0.191 HD
ATOM     15  O   UNL A   1      30.046  26.174  25.100  1.00  0.00    -0.273 OA
BRANCH  13  16
ATOM     16  N   UNL A   1      31.731  24.646  22.422  1.00  0.00    -0.264 N 
ATOM     17  C   UNL A   1      32.957  24.032  22.323  1.00  0.00     0.279 C 
ATOM     18  O   UNL A   1      33.314  23.604  21.222  1.00  0.00    -0.269 OA
ATOM     19  H   UNL A   1      31.265  24.890  21.589  1.00  0.00     0.191 HD
BRANCH  17  20
ATOM     20  C   UNL A   1      33.911  24.018  23.533  1.00  0.00     0.260 C 
ATOM     21  C   UNL A   1      34.201  25.477  23.908  1.00  0.00     0.064 C 
BRANCH  20  22
ATOM     22  O   UNL A   1      33.367  23.295  24.639  1.00  0.00    -0.481 OA
BRANCH  22  23
ATOM     23  C   UNL A   1      33.473  21.927  24.637  1.00  0.00     0.120 A 
ATOM     24  C   UNL A   1      34.183  17.653  24.484  1.00  0.00     0.044 C 
ATOM     25  C   UNL A   1      33.976  19.141  24.563  1.00  0.00    -0.048 A 
ATOM     26  C   UNL A   1      32.673  19.647  24.450  1.00  0.00     0.007 A 
ATOM     27  C   UNL A   1      35.040  20.042  24.749  1.00  0.00    -0.045 A 
ATOM     28  C   UNL A   1      32.424  21.023  24.497  1.00  0.00     0.047 A 
ATOM     29  C   UNL A   1      34.771  21.426  24.780  1.00  0.00     0.050 A 
ATOM     30  C   UNL A   1      36.465  19.594  24.932  1.00  0.00     0.045 C 
ENDBRANCH  22  23
ENDBRANCH  20  22
ENDBRANCH  17  20
ENDBRANCH  13  16
ENDBRANCH   6  12
ENDBRANCH   1   5
BRANCH   3  31
ATOM     31  C   UNL A   1      31.653  30.519  26.944  1.00  0.00     0.117 C 
BRANCH  31  32
ATOM     32  C   UNL A   1      31.415  32.023  26.833  1.00  0.00     0.042 C 
BRANCH  32  33
ATOM     33  C   UNL A   1      32.695  32.852  26.888  1.00  0.00     0.118 C 
BRANCH  33  34
ATOM     34  N   UNL A   1      32.508  34.117  27.583  1.00  0.00    -0.352 N 
ATOM     35  C   UNL A   1      33.121  34.622  28.700  1.00  0.00     0.251 C 
ATOM     36  H   UNL A   1      31.828  34.708  27.183  1.00  0.00     0.163 HD
ATOM     37  O   UNL A   1      32.657  35.624  29.238  1.00  0.00    -0.269 OA
BRANCH  35  38
ATOM     38  C   UNL A   1      34.326  33.982  29.274  1.00  0.00     0.039 A 
ATOM     39  C   UNL A   1      34.151  32.936  30.187  1.00  0.00     0.014 A 
ATOM     40  C   UNL A   1      35.613  34.444  28.987  1.00  0.00     0.014 A 
ATOM     41  C   UNL A   1      35.262  32.331  30.777  1.00  0.00     0.010 A 
ATOM     42  C   UNL A   1      36.725  33.796  29.526  1.00  0.00     0.010 A 
ATOM     43  C   UNL A   1      36.559  32.742  30.436  1.00  0.00    -0.014 A 
BRANCH  43  44
ATOM     44  C   UNL A   1      37.745  32.076  31.032  1.00  0.00     0.031 A 
ATOM     45  C   UNL A   1      38.226  32.452  32.405  1.00  0.00     0.074 A 
ATOM     46  C   UNL A   1      38.415  31.154  30.314  1.00  0.00     0.049 A 
ATOM     47  N   UNL A   1      39.241  31.979  33.085  1.00  0.00    -0.248 NA
ATOM     48  C   UNL A   1      37.488  33.519  33.095  1.00  0.00     0.031 C 
ATOM     49  C   UNL A   1      38.086  30.748  28.948  1.00  0.00     0.029 A 
ATOM     50  N   UNL A   1      39.513  30.396  30.633  1.00  0.00    -0.354 N 
ATOM     51  C   UNL A   1      39.272  32.699  34.271  1.00  0.00     0.074 A 
ATOM     52  C   UNL A   1      38.204  33.674  34.199  1.00  0.00     0.031 C 
ATOM     53  C   UNL A   1      38.947  29.797  28.554  1.00  0.00     0.029 A 
ATOM     54  C   UNL A   1      39.899  29.542  29.631  1.00  0.00     0.049 A 
ATOM     55  H   UNL A   1      39.979  30.459  31.498  1.00  0.00     0.167 HD
ATOM     56  C   UNL A   1      40.101  32.549  35.333  1.00  0.00     0.037 A 
ATOM     57  C   UNL A   1      40.902  28.645  29.589  1.00  0.00     0.037 A 
ATOM     58  C   UNL A   1      41.143  31.560  35.415  1.00  0.00     0.049 A 
ATOM     59  C   UNL A   1      41.778  28.460  30.796  1.00  0.00     0.074 A 
ATOM     60  C   UNL A   1      41.990  31.281  36.474  1.00  0.00     0.029 A 
ATOM     61  N   UNL A   1      41.481  30.685  34.393  1.00  0.00    -0.354 N 
ATOM     62  N   UNL A   1      41.749  29.096  31.941  1.00  0.00    -0.248 NA
ATOM     63  C   UNL A   1      42.815  27.424  30.708  1.00  0.00     0.031 C 
ATOM     64  C   UNL A   1      42.863  30.260  36.080  1.00  0.00     0.029 A 
ATOM     65  C   UNL A   1      42.533  29.875  34.790  1.00  0.00     0.049 A 
ATOM     66  H   UNL A   1      41.038  30.644  33.515  1.00  0.00     0.167 HD
ATOM     67  C   UNL A   1      42.748  28.528  32.718  1.00  0.00     0.074 A 
ATOM     68  C   UNL A   1      43.354  27.483  31.918  1.00  0.00     0.031 C 
ATOM     69  C   UNL A   1      43.130  28.844  33.980  1.00  0.00     0.037 A 
BRANCH  56  70
ATOM     70  C   UNL A   1      39.906  33.479  36.494  1.00  0.00     0.064 A 
ATOM     71  C   UNL A   1      40.600  34.696  36.586  1.00  0.00     0.173 A 
ATOM     72  C   UNL A   1      39.004  33.161  37.520  1.00  0.00     0.173 A 
ATOM     73  F   UNL A   1      41.484  35.043  35.638  1.00  0.00    -0.203 F 
ATOM     74  C   UNL A   1      40.424  35.542  37.679  1.00  0.00     0.198 A 
ATOM     75  C   UNL A   1      38.809  34.021  38.598  1.00  0.00     0.198 A 
ATOM     76  F   UNL A   1      38.309  32.013  37.478  1.00  0.00    -0.203 F 
ATOM     77  F   UNL A   1      41.137  36.672  37.771  1.00  0.00    -0.200 F 
ATOM     78  C   UNL A   1      39.526  35.206  38.681  1.00  0.00     0.200 A 
ATOM     79  F   UNL A   1      37.933  33.701  39.559  1.00  0.00    -0.200 F 
ATOM     80  F   UNL A   1      39.357  36.019  39.732  1.00  0.00    -0.200 F 
ENDBRANCH  56  70
BRANCH  57  81
ATOM     81  C   UNL A   1      41.090  27.819  28.370  1.00  0.00     0.064 A 
ATOM     82  C   UNL A   1      41.950  28.239  27.346  1.00  0.00     0.173 A 
ATOM     83  C   UNL A   1      40.444  26.584  28.220  1.00  0.00     0.173 A 
ATOM     84  F   UNL A   1      42.574  29.421  27.440  1.00  0.00    -0.203 F 
ATOM     85  C   UNL A   1      42.152  27.456  26.213  1.00  0.00     0.198 A 
ATOM     86  C   UNL A   1      40.664  25.792  27.096  1.00  0.00     0.198 A 
ATOM     87  F   UNL A   1      39.617  26.138  29.177  1.00  0.00    -0.203 F 
ATOM     88  F   UNL A   1      42.960  27.890  25.236  1.00  0.00    -0.200 F 
ATOM     89  C   UNL A   1      41.515  26.229  26.092  1.00  0.00     0.200 A 
ATOM     90  F   UNL A   1      40.060  24.601  26.990  1.00  0.00    -0.200 F 
ATOM     91  F   UNL A   1      41.721  25.470  25.007  1.00  0.00    -0.200 F 
ENDBRANCH  57  81
BRANCH  69  92
ATOM     92  C   UNL A   1      44.248  28.041  34.575  1.00  0.00     0.064 A 
ATOM     93  C   UNL A   1      45.583  28.459  34.476  1.00  0.00     0.173 A 
ATOM     94  C   UNL A   1      43.979  26.853  35.272  1.00  0.00     0.173 A 
ATOM     95  F   UNL A   1      45.891  29.579  33.805  1.00  0.00    -0.203 F 
ATOM     96  C   UNL A   1      46.611  27.703  35.032  1.00  0.00     0.198 A 
ATOM     97  C   UNL A   1      45.007  26.113  35.847  1.00  0.00     0.198 A 
ATOM     98  F   UNL A   1      42.717  26.414  35.397  1.00  0.00    -0.203 F 
ATOM     99  F   UNL A   1      47.884  28.097  34.885  1.00  0.00    -0.200 F 
ATOM    100  C   UNL A   1      46.323  26.534  35.720  1.00  0.00     0.200 A 
ATOM    101  F   UNL A   1      44.726  24.988  36.518  1.00  0.00    -0.200 F 
ATOM    102  F   UNL A   1      47.314  25.807  36.253  1.00  0.00    -0.200 F 
ENDBRANCH  69  92
ENDBRANCH  43  44
ENDBRANCH  35  38
ENDBRANCH  33  34
ENDBRANCH  32  33
ENDBRANCH  31  32
ENDBRANCH   3  31
TORSDOF 15
ENDMDL
MODEL 3
REMARK VINA RESULT:     -12.8      4.973      9.792
REMARK SMILES Cc1ccc(O[C@H](C)C(=O)NNC(=O)[C@@H]2[C@@H](C(=O)NCCCNC(=O)c3ccc(-c4c5nc(c(-c6c(F)c(F)c(F)c(F)c6F)c6ccc([nH]6)c(-c6c(F)c(F)c(F)c(F)c6F)c6nc(c(-c7c(F)c(F)c(F)c(F)c7F)c7ccc4[nH]7)C=C6)C=C5)cc3)[C@@H]3C=C[C@H]2C3)cc1C
REMARK SMILES IDX 17 1 18 2 19 3 16 5 15 6 92 7 89 8 91 9 93 10 90 11 13 12
REMARK SMILES IDX 12 13 14 15 11 16 9 17 10 18 7 20 8 21 6 22 5 23 1 24 2 25
REMARK SMILES IDX 3 26 95 27 4 28 94 29 96 30 20 31 21 32 22 33 23 34 24 35
REMARK SMILES IDX 25 37 26 38 27 39 88 40 28 41 87 42 29 43 30 44 31 45 81 46
REMARK SMILES IDX 32 47 86 48 80 49 82 50 33 51 85 52 79 53 78 54 34 56 66 57
REMARK SMILES IDX 46 58 65 59 47 60 50 61 64 62 83 63 48 64 49 65 63 67 84 68
REMARK SMILES IDX 51 69 35 70 36 71 44 72 37 73 38 74 42 75 45 76 39 77 40 78
REMARK SMILES IDX 43 79 41 80 67 81 68 82 76 83 69 84 70 85 74 86 77 87 71 88
REMARK SMILES IDX 72 89 75 90 73 91 52 92 53 93 61 94 54 95 55 96 59 97 62 98
REMARK SMILES IDX 56 99 57 100 60 101 58 102
REMARK H PARENT 19 4 12 14 11 19 23 36 82 55 50 66
REMARK Flexibility Score: inf
ROOT
ATOM      1  C   UNL A   1      36.643  22.759  25.770  1.00  0.00     0.224 C 
ATOM      2  O   UNL A   1      37.124  23.659  26.462  1.00  0.00    -0.275 OA
ATOM      3  N   UNL A   1      37.498  21.786  25.360  1.00  0.00    -0.356 N 
ATOM      4  H   UNL A   1      38.429  21.901  25.656  1.00  0.00     0.163 HD
ENDROOT
BRANCH   1   5
ATOM      5  C   UNL A   1      35.165  22.720  25.387  1.00  0.00     0.098 C 
ATOM      6  C   UNL A   1      34.309  23.881  26.045  1.00  0.00     0.100 C 
ATOM      7  C   UNL A   1      33.299  23.077  26.910  1.00  0.00     0.025 C 
ATOM      8  C   UNL A   1      34.502  21.445  25.982  1.00  0.00     0.025 C 
ATOM      9  C   UNL A   1      32.369  22.314  26.001  1.00  0.00    -0.027 C 
ATOM     10  C   UNL A   1      34.152  21.904  27.398  1.00  0.00     0.017 C 
ATOM     11  C   UNL A   1      33.096  21.344  25.427  1.00  0.00    -0.027 C 
BRANCH   6  12
ATOM     12  C   UNL A   1      33.731  24.808  24.964  1.00  0.00     0.242 C 
ATOM     13  N   UNL A   1      32.998  25.927  25.246  1.00  0.00    -0.267 N 
ATOM     14  H   UNL A   1      32.878  26.569  24.509  1.00  0.00     0.191 HD
ATOM     15  O   UNL A   1      34.011  24.642  23.772  1.00  0.00    -0.273 OA
BRANCH  13  16
ATOM     16  N   UNL A   1      32.407  26.254  26.450  1.00  0.00    -0.264 N 
ATOM     17  C   UNL A   1      32.014  27.529  26.785  1.00  0.00     0.279 C 
ATOM     18  O   UNL A   1      31.292  27.681  27.774  1.00  0.00    -0.269 OA
ATOM     19  H   UNL A   1      32.258  25.535  27.106  1.00  0.00     0.191 HD
BRANCH  17  20
ATOM     20  C   UNL A   1      32.590  28.738  26.023  1.00  0.00     0.260 C 
ATOM     21  C   UNL A   1      34.063  28.877  26.425  1.00  0.00     0.064 C 
BRANCH  20  22
ATOM     22  O   UNL A   1      32.448  28.599  24.607  1.00  0.00    -0.481 OA
BRANCH  22  23
ATOM     23  C   UNL A   1      31.194  28.719  24.064  1.00  0.00     0.120 A 
ATOM     24  C   UNL A   1      27.172  29.412  22.603  1.00  0.00     0.044 C 
ATOM     25  C   UNL A   1      28.578  29.218  23.101  1.00  0.00    -0.048 A 
ATOM     26  C   UNL A   1      29.146  27.937  23.033  1.00  0.00     0.007 A 
ATOM     27  C   UNL A   1      29.344  30.273  23.629  1.00  0.00    -0.045 A 
ATOM     28  C   UNL A   1      30.441  27.694  23.499  1.00  0.00     0.047 A 
ATOM     29  C   UNL A   1      30.644  30.005  24.107  1.00  0.00     0.050 A 
ATOM     30  C   UNL A   1      28.844  31.690  23.697  1.00  0.00     0.045 C 
ENDBRANCH  22  23
ENDBRANCH  20  22
ENDBRANCH  17  20
ENDBRANCH  13  16
ENDBRANCH   6  12
ENDBRANCH   1   5
BRANCH   3  31
ATOM     31  C   UNL A   1      37.258  20.604  24.554  1.00  0.00     0.117 C 
BRANCH  31  32
ATOM     32  C   UNL A   1      38.218  19.475  24.917  1.00  0.00     0.042 C 
BRANCH  32  33
ATOM     33  C   UNL A   1      39.197  19.838  26.031  1.00  0.00     0.118 C 
BRANCH  33  34
ATOM     34  N   UNL A   1      40.379  18.989  26.028  1.00  0.00    -0.352 N 
ATOM     35  C   UNL A   1      41.711  19.312  26.080  1.00  0.00     0.251 C 
ATOM     36  H   UNL A   1      40.191  18.023  25.981  1.00  0.00     0.163 HD
ATOM     37  O   UNL A   1      42.549  18.443  25.852  1.00  0.00    -0.269 OA
BRANCH  35  38
ATOM     38  C   UNL A   1      42.159  20.686  26.402  1.00  0.00     0.039 A 
ATOM     39  C   UNL A   1      42.281  21.605  25.354  1.00  0.00     0.014 A 
ATOM     40  C   UNL A   1      42.531  21.056  27.697  1.00  0.00     0.014 A 
ATOM     41  C   UNL A   1      42.735  22.900  25.611  1.00  0.00     0.010 A 
ATOM     42  C   UNL A   1      42.920  22.369  27.964  1.00  0.00     0.010 A 
ATOM     43  C   UNL A   1      43.039  23.299  26.922  1.00  0.00    -0.014 A 
BRANCH  43  44
ATOM     44  C   UNL A   1      43.486  24.687  27.206  1.00  0.00     0.031 A 
ATOM     45  C   UNL A   1      42.534  25.694  27.788  1.00  0.00     0.074 A 
ATOM     46  C   UNL A   1      44.745  25.051  26.900  1.00  0.00     0.049 A 
ATOM     47  N   UNL A   1      42.746  26.949  28.101  1.00  0.00    -0.248 NA
ATOM     48  C   UNL A   1      41.156  25.242  28.024  1.00  0.00     0.031 C 
ATOM     49  C   UNL A   1      45.744  24.184  26.274  1.00  0.00     0.029 A 
ATOM     50  N   UNL A   1      45.399  26.245  27.071  1.00  0.00    -0.354 N 
ATOM     51  C   UNL A   1      41.528  27.437  28.554  1.00  0.00     0.074 A 
ATOM     52  C   UNL A   1      40.570  26.359  28.431  1.00  0.00     0.031 C 
ATOM     53  C   UNL A   1      46.891  24.867  26.136  1.00  0.00     0.029 A 
ATOM     54  C   UNL A   1      46.703  26.222  26.645  1.00  0.00     0.049 A 
ATOM     55  H   UNL A   1      44.973  27.042  27.462  1.00  0.00     0.167 HD
ATOM     56  C   UNL A   1      41.239  28.665  29.048  1.00  0.00     0.037 A 
ATOM     57  C   UNL A   1      47.645  27.184  26.671  1.00  0.00     0.037 A 
ATOM     58  C   UNL A   1      42.200  29.727  29.197  1.00  0.00     0.049 A 
ATOM     59  C   UNL A   1      47.316  28.522  27.268  1.00  0.00     0.074 A 
ATOM     60  C   UNL A   1      42.022  30.983  29.751  1.00  0.00     0.029 A 
ATOM     61  N   UNL A   1      43.523  29.655  28.789  1.00  0.00    -0.354 N 
ATOM     62  N   UNL A   1      46.180  28.948  27.764  1.00  0.00    -0.248 NA
ATOM     63  C   UNL A   1      48.405  29.508  27.322  1.00  0.00     0.031 C 
ATOM     64  C   UNL A   1      43.230  31.683  29.646  1.00  0.00     0.029 A 
ATOM     65  C   UNL A   1      44.171  30.849  29.064  1.00  0.00     0.049 A 
ATOM     66  H   UNL A   1      43.942  28.871  28.366  1.00  0.00     0.167 HD
ATOM     67  C   UNL A   1      46.418  30.242  28.205  1.00  0.00     0.074 A 
ATOM     68  C   UNL A   1      47.813  30.525  27.934  1.00  0.00     0.031 C 
ATOM     69  C   UNL A   1      45.558  31.117  28.782  1.00  0.00     0.037 A 
BRANCH  56  70
ATOM     70  C   UNL A   1      39.821  28.922  29.466  1.00  0.00     0.064 A 
ATOM     71  C   UNL A   1      39.383  28.668  30.775  1.00  0.00     0.173 A 
ATOM     72  C   UNL A   1      38.892  29.445  28.554  1.00  0.00     0.173 A 
ATOM     73  F   UNL A   1      40.228  28.157  31.683  1.00  0.00    -0.203 F 
ATOM     74  C   UNL A   1      38.059  28.894  31.145  1.00  0.00     0.198 A 
ATOM     75  C   UNL A   1      37.576  29.695  28.934  1.00  0.00     0.198 A 
ATOM     76  F   UNL A   1      39.260  29.712  27.291  1.00  0.00    -0.203 F 
ATOM     77  F   UNL A   1      37.651  28.593  32.385  1.00  0.00    -0.200 F 
ATOM     78  C   UNL A   1      37.159  29.411  30.226  1.00  0.00     0.200 A 
ATOM     79  F   UNL A   1      36.709  30.206  28.049  1.00  0.00    -0.200 F 
ATOM     80  F   UNL A   1      35.885  29.628  30.582  1.00  0.00    -0.200 F 
ENDBRANCH  56  70
BRANCH  57  81
ATOM     81  C   UNL A   1      49.005  26.884  26.157  1.00  0.00     0.064 A 
ATOM     82  C   UNL A   1      49.975  26.309  26.990  1.00  0.00     0.173 A 
ATOM     83  C   UNL A   1      49.350  27.133  24.821  1.00  0.00     0.173 A 
ATOM     84  F   UNL A   1      49.693  26.071  28.279  1.00  0.00    -0.203 F 
ATOM     85  C   UNL A   1      51.243  26.000  26.507  1.00  0.00     0.198 A 
ATOM     86  C   UNL A   1      50.612  26.803  24.334  1.00  0.00     0.198 A 
ATOM     87  F   UNL A   1      48.453  27.675  23.985  1.00  0.00    -0.203 F 
ATOM     88  F   UNL A   1      52.161  25.474  27.328  1.00  0.00    -0.200 F 
ATOM     89  C   UNL A   1      51.559  26.239  25.177  1.00  0.00     0.200 A 
ATOM     90  F   UNL A   1      50.908  27.021  23.046  1.00  0.00    -0.200 F 
ATOM     91  F   UNL A   1      52.776  25.929  24.709  1.00  0.00    -0.200 F 
ENDBRANCH  57  81
BRANCH  69  92
ATOM     92  C   UNL A   1      46.107  32.458  29.169  1.00  0.00     0.064 A 
ATOM     93  C   UNL A   1      46.693  32.674  30.425  1.00  0.00     0.173 A 
ATOM     94  C   UNL A   1      46.068  33.531  28.266  1.00  0.00     0.173 A 
ATOM     95  F   UNL A   1      46.738  31.683  31.327  1.00  0.00    -0.203 F 
ATOM     96  C   UNL A   1      47.198  33.924  30.772  1.00  0.00     0.198 A 
ATOM     97  C   UNL A   1      46.596  34.772  28.608  1.00  0.00     0.198 A 
ATOM     98  F   UNL A   1      45.521  33.373  27.051  1.00  0.00    -0.203 F 
ATOM     99  F   UNL A   1      47.711  34.121  31.994  1.00  0.00    -0.200 F 
ATOM    100  C   UNL A   1      47.153  34.970  29.863  1.00  0.00     0.200 A 
ATOM    101  F   UNL A   1      46.559  35.780  27.726  1.00  0.00    -0.200 F 
ATOM    102  F   UNL A   1      47.639  36.173  30.199  1.00  0.00    -0.200 F 
ENDBRANCH  69  92
ENDBRANCH  43  44
ENDBRANCH  35  38
ENDBRANCH  33  34
ENDBRANCH  32  33
ENDBRANCH  31  32
ENDBRANCH   3  31
TORSDOF 15
ENDMDL
