MODEL 1
REMARK VINA RESULT:     -12.7      0.000      0.000
REMARK SMILES O=C(CC[N@H+]1CCC[C@@H](C(=O)NCCCNC(=O)c2ccc(-c3c4nc(c(-c5c(F)c(F)c(F)c(F)c5F)c5ccc([nH]5)c(-c5c(F)c(F)c(F)c(F)c5F)c5nc(c(-c6c(F)c(F)c(F)c(F)c6F)c6ccc3[nH]6)C=C5)C=C4)cc2)C1)Nc1cccc(F)c1
REMARK SMILES IDX 13 1 12 2 10 3 11 4 9 6 5 7 6 8 82 9 7 11 8 12 4 13 3 14
REMARK SMILES IDX 2 15 1 16 83 17 84 19 85 20 90 21 86 22 88 23 87 24 89 25
REMARK SMILES IDX 14 26 15 27 16 28 17 29 18 31 19 32 20 33 81 34 21 35 80 36
REMARK SMILES IDX 22 37 23 38 24 39 74 40 25 41 79 42 73 43 75 44 26 45 78 46
REMARK SMILES IDX 72 47 71 48 27 50 59 51 39 52 58 53 40 54 43 55 57 56 76 57
REMARK SMILES IDX 41 58 42 59 56 61 77 62 44 63 28 64 29 65 37 66 30 67 31 68
REMARK SMILES IDX 35 69 38 70 32 71 33 72 36 73 34 74 60 75 61 76 69 77 62 78
REMARK SMILES IDX 63 79 67 80 70 81 64 82 65 83 68 84 66 85 45 86 46 87 54 88
REMARK SMILES IDX 47 89 48 90 52 91 55 92 49 93 50 94 53 95 51 96
REMARK H PARENT 12 5 5 10 83 18 16 30 75 49 43 60
REMARK Flexibility Score: inf
ROOT
ATOM      1  C   UNL A   1      31.403  30.816  26.000  1.00  0.00     0.117 C 
ENDROOT
BRANCH   1   2
ATOM      2  N   UNL A   1      32.732  30.332  26.324  1.00  0.00    -0.356 N 
ATOM      3  C   UNL A   1      33.074  29.072  26.725  1.00  0.00     0.228 C 
ATOM      4  O   UNL A   1      33.939  28.965  27.596  1.00  0.00    -0.275 OA
ATOM      5  H   UNL A   1      33.467  30.982  26.249  1.00  0.00     0.163 HD
BRANCH   3   6
ATOM      6  C   UNL A   1      32.520  27.873  25.959  1.00  0.00     0.133 C 
ATOM      7  N   UNL A   1      33.404  25.535  25.381  1.00  0.00    -0.334 N 
ATOM      8  C   UNL A   1      32.265  24.954  26.126  1.00  0.00     0.262 C 
ATOM      9  C   UNL A   1      33.696  26.890  25.867  1.00  0.00     0.275 C 
ATOM     10  H   UNL A   1      33.181  25.628  24.391  1.00  0.00     0.348 HD
ATOM     11  C   UNL A   1      31.033  25.859  26.122  1.00  0.00     0.062 C 
ATOM     12  C   UNL A   1      31.356  27.228  26.710  1.00  0.00     0.025 C 
BRANCH   7  13
ATOM     13  C   UNL A   1      34.571  24.611  25.530  1.00  0.00     0.272 C 
BRANCH  13  14
ATOM     14  C   UNL A   1      34.330  23.231  26.176  1.00  0.00     0.161 C 
BRANCH  14  15
ATOM     15  C   UNL A   1      34.528  22.142  25.132  1.00  0.00     0.230 C 
ATOM     16  O   UNL A   1      35.029  22.382  24.037  1.00  0.00    -0.275 OA
ATOM     17  N   UNL A   1      34.077  20.896  25.523  1.00  0.00    -0.326 N 
ATOM     18  H   UNL A   1      34.011  20.711  26.487  1.00  0.00     0.169 HD
BRANCH  17  19
ATOM     19  C   UNL A   1      33.706  19.870  24.628  1.00  0.00     0.044 A 
ATOM     20  C   UNL A   1      32.582  19.973  23.798  1.00  0.00     0.026 A 
ATOM     21  C   UNL A   1      34.431  18.681  24.646  1.00  0.00     0.065 A 
ATOM     22  C   UNL A   1      32.153  18.880  23.039  1.00  0.00     0.005 A 
ATOM     23  C   UNL A   1      34.039  17.625  23.825  1.00  0.00     0.125 A 
ATOM     24  C   UNL A   1      32.893  17.703  23.042  1.00  0.00     0.039 A 
ATOM     25  F   UNL A   1      34.778  16.508  23.801  1.00  0.00    -0.207 F 
ENDBRANCH  17  19
ENDBRANCH  14  15
ENDBRANCH  13  14
ENDBRANCH   7  13
ENDBRANCH   3   6
ENDBRANCH   1   2
BRANCH   1  26
ATOM     26  C   UNL A   1      31.233  32.253  26.501  1.00  0.00     0.042 C 
BRANCH  26  27
ATOM     27  C   UNL A   1      32.448  32.806  27.251  1.00  0.00     0.118 C 
BRANCH  27  28
ATOM     28  N   UNL A   1      32.293  34.203  27.626  1.00  0.00    -0.352 N 
ATOM     29  C   UNL A   1      32.953  34.947  28.574  1.00  0.00     0.251 C 
ATOM     30  H   UNL A   1      31.604  34.692  27.121  1.00  0.00     0.163 HD
ATOM     31  O   UNL A   1      32.543  36.071  28.848  1.00  0.00    -0.269 OA
BRANCH  29  32
ATOM     32  C   UNL A   1      34.134  34.407  29.288  1.00  0.00     0.039 A 
ATOM     33  C   UNL A   1      33.935  33.784  30.526  1.00  0.00     0.014 A 
ATOM     34  C   UNL A   1      35.429  34.543  28.783  1.00  0.00     0.014 A 
ATOM     35  C   UNL A   1      35.021  33.241  31.218  1.00  0.00     0.010 A 
ATOM     36  C   UNL A   1      36.503  33.941  29.441  1.00  0.00     0.010 A 
ATOM     37  C   UNL A   1      36.310  33.279  30.663  1.00  0.00    -0.014 A 
BRANCH  37  38
ATOM     38  C   UNL A   1      37.457  32.610  31.338  1.00  0.00     0.031 A 
ATOM     39  C   UNL A   1      38.159  31.449  30.691  1.00  0.00     0.074 A 
ATOM     40  C   UNL A   1      37.829  33.013  32.569  1.00  0.00     0.049 A 
ATOM     41  N   UNL A   1      39.131  30.703  31.158  1.00  0.00    -0.248 NA
ATOM     42  C   UNL A   1      37.696  31.059  29.352  1.00  0.00     0.031 C 
ATOM     43  C   UNL A   1      37.207  34.100  33.325  1.00  0.00     0.029 A 
ATOM     44  N   UNL A   1      38.811  32.545  33.408  1.00  0.00    -0.354 N 
ATOM     45  C   UNL A   1      39.383  29.751  30.179  1.00  0.00     0.074 A 
ATOM     46  C   UNL A   1      38.432  29.983  29.112  1.00  0.00     0.031 C 
ATOM     47  C   UNL A   1      37.830  34.228  34.506  1.00  0.00     0.029 A 
ATOM     48  C   UNL A   1      38.869  33.207  34.611  1.00  0.00     0.049 A 
ATOM     49  H   UNL A   1      39.417  31.807  33.170  1.00  0.00     0.167 HD
ATOM     50  C   UNL A   1      40.333  28.784  30.162  1.00  0.00     0.037 A 
ATOM     51  C   UNL A   1      39.658  33.006  35.684  1.00  0.00     0.037 A 
ATOM     52  C   UNL A   1      41.290  28.563  31.216  1.00  0.00     0.049 A 
ATOM     53  C   UNL A   1      40.691  31.914  35.648  1.00  0.00     0.074 A 
ATOM     54  C   UNL A   1      42.328  27.648  31.263  1.00  0.00     0.029 A 
ATOM     55  N   UNL A   1      41.320  29.259  32.416  1.00  0.00    -0.354 N 
ATOM     56  N   UNL A   1      40.966  31.065  34.687  1.00  0.00    -0.248 NA
ATOM     57  C   UNL A   1      41.528  31.755  36.846  1.00  0.00     0.031 C 
ATOM     58  C   UNL A   1      42.951  27.752  32.510  1.00  0.00     0.029 A 
ATOM     59  C   UNL A   1      42.342  28.773  33.220  1.00  0.00     0.049 A 
ATOM     60  H   UNL A   1      40.708  29.990  32.661  1.00  0.00     0.167 HD
ATOM     61  C   UNL A   1      42.022  30.293  35.151  1.00  0.00     0.074 A 
ATOM     62  C   UNL A   1      42.350  30.783  36.473  1.00  0.00     0.031 C 
ATOM     63  C   UNL A   1      42.663  29.270  34.534  1.00  0.00     0.037 A 
BRANCH  50  64
ATOM     64  C   UNL A   1      40.383  27.879  28.962  1.00  0.00     0.064 A 
ATOM     65  C   UNL A   1      41.172  28.184  27.842  1.00  0.00     0.173 A 
ATOM     66  C   UNL A   1      39.665  26.674  28.949  1.00  0.00     0.173 A 
ATOM     67  F   UNL A   1      41.873  29.327  27.799  1.00  0.00    -0.203 F 
ATOM     68  C   UNL A   1      41.212  27.333  26.741  1.00  0.00     0.198 A 
ATOM     69  C   UNL A   1      39.733  25.809  27.860  1.00  0.00     0.198 A 
ATOM     70  F   UNL A   1      38.903  26.328  29.998  1.00  0.00    -0.203 F 
ATOM     71  F   UNL A   1      41.931  27.670  25.661  1.00  0.00    -0.200 F 
ATOM     72  C   UNL A   1      40.500  26.143  26.753  1.00  0.00     0.200 A 
ATOM     73  F   UNL A   1      39.057  24.652  27.880  1.00  0.00    -0.200 F 
ATOM     74  F   UNL A   1      40.545  25.321  25.695  1.00  0.00    -0.200 F 
ENDBRANCH  50  64
BRANCH  51  75
ATOM     75  C   UNL A   1      39.510  33.874  36.882  1.00  0.00     0.064 A 
ATOM     76  C   UNL A   1      40.137  35.126  36.946  1.00  0.00     0.173 A 
ATOM     77  C   UNL A   1      38.740  33.473  37.984  1.00  0.00     0.173 A 
ATOM     78  F   UNL A   1      40.901  35.544  35.926  1.00  0.00    -0.203 F 
ATOM     79  C   UNL A   1      40.016  35.936  38.074  1.00  0.00     0.198 A 
ATOM     80  C   UNL A   1      38.595  34.297  39.098  1.00  0.00     0.198 A 
ATOM     81  F   UNL A   1      38.115  32.286  37.972  1.00  0.00    -0.203 F 
ATOM     82  F   UNL A   1      40.662  37.107  38.126  1.00  0.00    -0.200 F 
ATOM     83  C   UNL A   1      39.239  35.524  39.145  1.00  0.00     0.200 A 
ATOM     84  F   UNL A   1      37.831  33.901  40.125  1.00  0.00    -0.200 F 
ATOM     85  F   UNL A   1      39.117  36.305  40.226  1.00  0.00    -0.200 F 
ENDBRANCH  51  75
BRANCH  63  86
ATOM     86  C   UNL A   1      43.811  28.631  35.266  1.00  0.00     0.064 A 
ATOM     87  C   UNL A   1      45.136  29.043  35.064  1.00  0.00     0.173 A 
ATOM     88  C   UNL A   1      43.575  27.617  36.207  1.00  0.00     0.173 A 
ATOM     89  F   UNL A   1      45.418  29.997  34.164  1.00  0.00    -0.203 F 
ATOM     90  C   UNL A   1      46.185  28.446  35.759  1.00  0.00     0.198 A 
ATOM     91  C   UNL A   1      44.622  27.045  36.924  1.00  0.00     0.198 A 
ATOM     92  F   UNL A   1      42.325  27.190  36.442  1.00  0.00    -0.203 F 
ATOM     93  F   UNL A   1      47.448  28.821  35.514  1.00  0.00    -0.200 F 
ATOM     94  C   UNL A   1      45.927  27.454  36.693  1.00  0.00     0.200 A 
ATOM     95  F   UNL A   1      44.369  26.098  37.836  1.00  0.00    -0.200 F 
ATOM     96  F   UNL A   1      46.937  26.887  37.368  1.00  0.00    -0.200 F 
ENDBRANCH  63  86
ENDBRANCH  37  38
ENDBRANCH  29  32
ENDBRANCH  27  28
ENDBRANCH  26  27
ENDBRANCH   1  26
TORSDOF 14
ENDMDL
MODEL 2
REMARK VINA RESULT:     -12.5      4.634     10.755
REMARK SMILES O=C(CC[N@H+]1CCC[C@@H](C(=O)NCCCNC(=O)c2ccc(-c3c4nc(c(-c5c(F)c(F)c(F)c(F)c5F)c5ccc([nH]5)c(-c5c(F)c(F)c(F)c(F)c5F)c5nc(c(-c6c(F)c(F)c(F)c(F)c6F)c6ccc3[nH]6)C=C5)C=C4)cc2)C1)Nc1cccc(F)c1
REMARK SMILES IDX 13 1 12 2 10 3 11 4 9 6 5 7 6 8 82 9 7 11 8 12 4 13 3 14
REMARK SMILES IDX 2 15 1 16 83 17 84 19 85 20 90 21 86 22 88 23 87 24 89 25
REMARK SMILES IDX 14 26 15 27 16 28 17 29 18 31 19 32 20 33 81 34 21 35 80 36
REMARK SMILES IDX 22 37 23 38 24 39 74 40 25 41 79 42 73 43 75 44 26 45 78 46
REMARK SMILES IDX 72 47 71 48 27 50 59 51 39 52 58 53 40 54 43 55 57 56 76 57
REMARK SMILES IDX 41 58 42 59 56 61 77 62 44 63 28 64 29 65 37 66 30 67 31 68
REMARK SMILES IDX 35 69 38 70 32 71 33 72 36 73 34 74 60 75 61 76 69 77 62 78
REMARK SMILES IDX 63 79 67 80 70 81 64 82 65 83 68 84 66 85 45 86 46 87 54 88
REMARK SMILES IDX 47 89 48 90 52 91 55 92 49 93 50 94 53 95 51 96
REMARK H PARENT 12 5 5 10 83 18 16 30 75 49 43 60
REMARK Flexibility Score: inf
ROOT
ATOM      1  C   UNL A   1      33.959  34.984  29.808  1.00  0.00     0.117 C 
ENDROOT
BRANCH   1   2
ATOM      2  N   UNL A   1      33.809  34.336  31.098  1.00  0.00    -0.356 N 
ATOM      3  C   UNL A   1      34.793  33.762  31.852  1.00  0.00     0.228 C 
ATOM      4  O   UNL A   1      34.522  32.718  32.446  1.00  0.00    -0.275 OA
ATOM      5  H   UNL A   1      32.898  34.306  31.471  1.00  0.00     0.163 HD
BRANCH   3   6
ATOM      6  C   UNL A   1      36.098  34.524  32.072  1.00  0.00     0.133 C 
ATOM      7  N   UNL A   1      37.860  34.583  33.936  1.00  0.00    -0.334 N 
ATOM      8  C   UNL A   1      38.869  34.131  32.953  1.00  0.00     0.262 C 
ATOM      9  C   UNL A   1      36.514  34.179  33.510  1.00  0.00     0.275 C 
ATOM     10  H   UNL A   1      37.846  35.600  34.001  1.00  0.00     0.348 HD
ATOM     11  C   UNL A   1      38.547  34.575  31.527  1.00  0.00     0.062 C 
ATOM     12  C   UNL A   1      37.177  34.066  31.092  1.00  0.00     0.025 C 
BRANCH   7  13
ATOM     13  C   UNL A   1      38.230  34.018  35.270  1.00  0.00     0.272 C 
BRANCH  13  14
ATOM     14  C   UNL A   1      37.320  32.932  35.880  1.00  0.00     0.161 C 
BRANCH  14  15
ATOM     15  C   UNL A   1      37.930  31.561  35.631  1.00  0.00     0.230 C 
ATOM     16  O   UNL A   1      38.570  30.973  36.499  1.00  0.00    -0.275 OA
ATOM     17  N   UNL A   1      37.717  31.070  34.357  1.00  0.00    -0.326 N 
ATOM     18  H   UNL A   1      36.945  31.415  33.854  1.00  0.00     0.169 HD
BRANCH  17  19
ATOM     19  C   UNL A   1      38.535  30.105  33.731  1.00  0.00     0.044 A 
ATOM     20  C   UNL A   1      38.002  29.002  33.051  1.00  0.00     0.026 A 
ATOM     21  C   UNL A   1      39.915  30.209  33.882  1.00  0.00     0.065 A 
ATOM     22  C   UNL A   1      38.836  27.985  32.577  1.00  0.00     0.005 A 
ATOM     23  C   UNL A   1      40.740  29.227  33.337  1.00  0.00     0.125 A 
ATOM     24  C   UNL A   1      40.214  28.104  32.710  1.00  0.00     0.039 A 
ATOM     25  F   UNL A   1      42.070  29.366  33.431  1.00  0.00    -0.207 F 
ENDBRANCH  17  19
ENDBRANCH  14  15
ENDBRANCH  13  14
ENDBRANCH   7  13
ENDBRANCH   3   6
ENDBRANCH   1   2
BRANCH   1  26
ATOM     26  C   UNL A   1      33.565  34.017  28.689  1.00  0.00     0.042 C 
BRANCH  26  27
ATOM     27  C   UNL A   1      34.480  32.797  28.558  1.00  0.00     0.118 C 
BRANCH  27  28
ATOM     28  N   UNL A   1      33.792  31.627  28.035  1.00  0.00    -0.352 N 
ATOM     29  C   UNL A   1      34.275  30.380  27.718  1.00  0.00     0.251 C 
ATOM     30  H   UNL A   1      32.827  31.749  27.883  1.00  0.00     0.163 HD
ATOM     31  O   UNL A   1      33.550  29.588  27.124  1.00  0.00    -0.269 OA
BRANCH  29  32
ATOM     32  C   UNL A   1      35.662  29.985  28.057  1.00  0.00     0.039 A 
ATOM     33  C   UNL A   1      36.647  30.099  27.069  1.00  0.00     0.014 A 
ATOM     34  C   UNL A   1      35.997  29.465  29.310  1.00  0.00     0.014 A 
ATOM     35  C   UNL A   1      37.972  29.760  27.359  1.00  0.00     0.010 A 
ATOM     36  C   UNL A   1      37.331  29.191  29.619  1.00  0.00     0.010 A 
ATOM     37  C   UNL A   1      38.334  29.340  28.649  1.00  0.00    -0.014 A 
BRANCH  37  38
ATOM     38  C   UNL A   1      39.756  29.078  29.001  1.00  0.00     0.031 A 
ATOM     39  C   UNL A   1      40.566  30.103  29.746  1.00  0.00     0.074 A 
ATOM     40  C   UNL A   1      40.342  27.935  28.593  1.00  0.00     0.049 A 
ATOM     41  N   UNL A   1      41.834  30.077  30.079  1.00  0.00    -0.248 NA
ATOM     42  C   UNL A   1      39.865  31.330  30.153  1.00  0.00     0.031 C 
ATOM     43  C   UNL A   1      39.682  26.875  27.829  1.00  0.00     0.029 A 
ATOM     44  N   UNL A   1      41.628  27.479  28.751  1.00  0.00    -0.354 N 
ATOM     45  C   UNL A   1      42.083  31.284  30.718  1.00  0.00     0.074 A 
ATOM     46  C   UNL A   1      40.849  32.040  30.686  1.00  0.00     0.031 C 
ATOM     47  C   UNL A   1      40.559  25.887  27.599  1.00  0.00     0.029 A 
ATOM     48  C   UNL A   1      41.855  26.258  28.162  1.00  0.00     0.049 A 
ATOM     49  H   UNL A   1      42.320  27.978  29.240  1.00  0.00     0.167 HD
ATOM     50  C   UNL A   1      43.231  31.714  31.297  1.00  0.00     0.037 A 
ATOM     51  C   UNL A   1      42.982  25.526  28.071  1.00  0.00     0.037 A 
ATOM     52  C   UNL A   1      44.455  30.956  31.344  1.00  0.00     0.049 A 
ATOM     53  C   UNL A   1      44.247  26.035  28.704  1.00  0.00     0.074 A 
ATOM     54  C   UNL A   1      45.651  31.283  31.959  1.00  0.00     0.029 A 
ATOM     55  N   UNL A   1      44.643  29.719  30.742  1.00  0.00    -0.354 N 
ATOM     56  N   UNL A   1      44.453  27.146  29.367  1.00  0.00    -0.248 NA
ATOM     57  C   UNL A   1      45.439  25.182  28.580  1.00  0.00     0.031 C 
ATOM     58  C   UNL A   1      46.578  30.273  31.684  1.00  0.00     0.029 A 
ATOM     59  C   UNL A   1      45.945  29.285  30.948  1.00  0.00     0.049 A 
ATOM     60  H   UNL A   1      43.955  29.224  30.242  1.00  0.00     0.167 HD
ATOM     61  C   UNL A   1      45.783  27.115  29.763  1.00  0.00     0.074 A 
ATOM     62  C   UNL A   1      46.334  25.867  29.279  1.00  0.00     0.031 C 
ATOM     63  C   UNL A   1      46.483  28.038  30.465  1.00  0.00     0.037 A 
BRANCH  50  64
ATOM     64  C   UNL A   1      43.223  33.080  31.926  1.00  0.00     0.064 A 
ATOM     65  C   UNL A   1      42.966  33.260  33.294  1.00  0.00     0.173 A 
ATOM     66  C   UNL A   1      43.516  34.218  31.160  1.00  0.00     0.173 A 
ATOM     67  F   UNL A   1      42.673  32.206  34.071  1.00  0.00    -0.203 F 
ATOM     68  C   UNL A   1      42.968  34.531  33.863  1.00  0.00     0.198 A 
ATOM     69  C   UNL A   1      43.549  35.484  31.739  1.00  0.00     0.198 A 
ATOM     70  F   UNL A   1      43.780  34.104  29.849  1.00  0.00    -0.203 F 
ATOM     71  F   UNL A   1      42.667  34.683  35.161  1.00  0.00    -0.200 F 
ATOM     72  C   UNL A   1      43.267  35.641  33.087  1.00  0.00     0.200 A 
ATOM     73  F   UNL A   1      43.855  36.554  30.991  1.00  0.00    -0.200 F 
ATOM     74  F   UNL A   1      43.276  36.863  33.638  1.00  0.00    -0.200 F 
ENDBRANCH  50  64
BRANCH  51  75
ATOM     75  C   UNL A   1      42.958  24.219  27.362  1.00  0.00     0.064 A 
ATOM     76  C   UNL A   1      42.559  23.048  28.022  1.00  0.00     0.173 A 
ATOM     77  C   UNL A   1      43.331  24.113  26.014  1.00  0.00     0.173 A 
ATOM     78  F   UNL A   1      42.213  23.096  29.317  1.00  0.00    -0.203 F 
ATOM     79  C   UNL A   1      42.552  21.819  27.367  1.00  0.00     0.198 A 
ATOM     80  C   UNL A   1      43.294  22.887  25.352  1.00  0.00     0.198 A 
ATOM     81  F   UNL A   1      43.717  25.203  25.335  1.00  0.00    -0.203 F 
ATOM     82  F   UNL A   1      42.208  20.709  28.034  1.00  0.00    -0.200 F 
ATOM     83  C   UNL A   1      42.912  21.740  26.030  1.00  0.00     0.200 A 
ATOM     84  F   UNL A   1      43.628  22.819  24.055  1.00  0.00    -0.200 F 
ATOM     85  F   UNL A   1      42.897  20.559  25.399  1.00  0.00    -0.200 F 
ENDBRANCH  51  75
BRANCH  63  86
ATOM     86  C   UNL A   1      47.917  27.721  30.788  1.00  0.00     0.064 A 
ATOM     87  C   UNL A   1      48.279  27.058  31.969  1.00  0.00     0.173 A 
ATOM     88  C   UNL A   1      48.938  28.055  29.884  1.00  0.00     0.173 A 
ATOM     89  F   UNL A   1      47.344  26.730  32.874  1.00  0.00    -0.203 F 
ATOM     90  C   UNL A   1      49.612  26.763  32.245  1.00  0.00     0.198 A 
ATOM     91  C   UNL A   1      50.265  27.730  30.148  1.00  0.00     0.198 A 
ATOM     92  F   UNL A   1      48.645  28.686  28.736  1.00  0.00    -0.203 F 
ATOM     93  F   UNL A   1      49.940  26.172  33.403  1.00  0.00    -0.200 F 
ATOM     94  C   UNL A   1      50.602  27.091  31.332  1.00  0.00     0.200 A 
ATOM     95  F   UNL A   1      51.218  28.035  29.257  1.00  0.00    -0.200 F 
ATOM     96  F   UNL A   1      51.884  26.799  31.595  1.00  0.00    -0.200 F 
ENDBRANCH  63  86
ENDBRANCH  37  38
ENDBRANCH  29  32
ENDBRANCH  27  28
ENDBRANCH  26  27
ENDBRANCH   1  26
TORSDOF 14
ENDMDL
MODEL 3
REMARK VINA RESULT:     -12.4      5.578     10.314
REMARK SMILES O=C(CC[N@H+]1CCC[C@@H](C(=O)NCCCNC(=O)c2ccc(-c3c4nc(c(-c5c(F)c(F)c(F)c(F)c5F)c5ccc([nH]5)c(-c5c(F)c(F)c(F)c(F)c5F)c5nc(c(-c6c(F)c(F)c(F)c(F)c6F)c6ccc3[nH]6)C=C5)C=C4)cc2)C1)Nc1cccc(F)c1
REMARK SMILES IDX 13 1 12 2 10 3 11 4 9 6 5 7 6 8 82 9 7 11 8 12 4 13 3 14
REMARK SMILES IDX 2 15 1 16 83 17 84 19 85 20 90 21 86 22 88 23 87 24 89 25
REMARK SMILES IDX 14 26 15 27 16 28 17 29 18 31 19 32 20 33 81 34 21 35 80 36
REMARK SMILES IDX 22 37 23 38 24 39 74 40 25 41 79 42 73 43 75 44 26 45 78 46
REMARK SMILES IDX 72 47 71 48 27 50 59 51 39 52 58 53 40 54 43 55 57 56 76 57
REMARK SMILES IDX 41 58 42 59 56 61 77 62 44 63 28 64 29 65 37 66 30 67 31 68
REMARK SMILES IDX 35 69 38 70 32 71 33 72 36 73 34 74 60 75 61 76 69 77 62 78
REMARK SMILES IDX 63 79 67 80 70 81 64 82 65 83 68 84 66 85 45 86 46 87 54 88
REMARK SMILES IDX 47 89 48 90 52 91 55 92 49 93 50 94 53 95 51 96
REMARK H PARENT 12 5 5 10 83 18 16 30 75 49 43 60
REMARK Flexibility Score: inf
ROOT
ATOM      1  C   UNL A   1      36.642  20.432  24.944  1.00  0.00     0.117 C 
ENDROOT
BRANCH   1   2
ATOM      2  N   UNL A   1      36.950  21.679  24.267  1.00  0.00    -0.356 N 
ATOM      3  C   UNL A   1      36.061  22.602  23.796  1.00  0.00     0.228 C 
ATOM      4  O   UNL A   1      36.319  23.146  22.721  1.00  0.00    -0.275 OA
ATOM      5  H   UNL A   1      37.905  21.880  24.133  1.00  0.00     0.163 HD
BRANCH   3   6
ATOM      6  C   UNL A   1      34.910  23.049  24.694  1.00  0.00     0.133 C 
ATOM      7  N   UNL A   1      33.718  25.280  25.123  1.00  0.00    -0.334 N 
ATOM      8  C   UNL A   1      32.458  24.660  24.658  1.00  0.00     0.262 C 
ATOM      9  C   UNL A   1      34.875  24.578  24.552  1.00  0.00     0.275 C 
ATOM     10  H   UNL A   1      33.808  25.205  26.136  1.00  0.00     0.348 HD
ATOM     11  C   UNL A   1      32.413  23.153  24.908  1.00  0.00     0.062 C 
ATOM     12  C   UNL A   1      33.583  22.450  24.230  1.00  0.00     0.025 C 
BRANCH   7  13
ATOM     13  C   UNL A   1      33.686  26.727  24.747  1.00  0.00     0.272 C 
BRANCH  13  14
ATOM     14  C   UNL A   1      33.295  27.096  23.302  1.00  0.00     0.161 C 
BRANCH  14  15
ATOM     15  C   UNL A   1      32.312  28.257  23.323  1.00  0.00     0.230 C 
ATOM     16  O   UNL A   1      32.389  29.151  24.162  1.00  0.00    -0.275 OA
ATOM     17  N   UNL A   1      31.338  28.192  22.346  1.00  0.00    -0.326 N 
ATOM     18  H   UNL A   1      31.532  27.666  21.537  1.00  0.00     0.169 HD
BRANCH  17  19
ATOM     19  C   UNL A   1      30.083  28.831  22.432  1.00  0.00     0.044 A 
ATOM     20  C   UNL A   1      29.004  28.268  23.126  1.00  0.00     0.026 A 
ATOM     21  C   UNL A   1      29.892  30.014  21.722  1.00  0.00     0.065 A 
ATOM     22  C   UNL A   1      27.733  28.849  23.062  1.00  0.00     0.005 A 
ATOM     23  C   UNL A   1      28.640  30.625  21.731  1.00  0.00     0.125 A 
ATOM     24  C   UNL A   1      27.553  30.041  22.372  1.00  0.00     0.039 A 
ATOM     25  F   UNL A   1      28.480  31.795  21.098  1.00  0.00    -0.207 F 
ENDBRANCH  17  19
ENDBRANCH  14  15
ENDBRANCH  13  14
ENDBRANCH   7  13
ENDBRANCH   3   6
ENDBRANCH   1   2
BRANCH   1  26
ATOM     26  C   UNL A   1      37.882  19.535  24.977  1.00  0.00     0.042 C 
BRANCH  26  27
ATOM     27  C   UNL A   1      39.068  20.127  25.743  1.00  0.00     0.118 C 
BRANCH  27  28
ATOM     28  N   UNL A   1      40.172  19.191  25.889  1.00  0.00    -0.352 N 
ATOM     29  C   UNL A   1      41.509  19.420  26.106  1.00  0.00     0.251 C 
ATOM     30  H   UNL A   1      39.920  18.241  25.818  1.00  0.00     0.163 HD
ATOM     31  O   UNL A   1      42.300  18.486  26.023  1.00  0.00    -0.269 OA
BRANCH  29  32
ATOM     32  C   UNL A   1      42.015  20.779  26.413  1.00  0.00     0.039 A 
ATOM     33  C   UNL A   1      42.216  21.669  25.352  1.00  0.00     0.014 A 
ATOM     34  C   UNL A   1      42.333  21.173  27.715  1.00  0.00     0.014 A 
ATOM     35  C   UNL A   1      42.668  22.967  25.604  1.00  0.00     0.010 A 
ATOM     36  C   UNL A   1      42.719  22.489  27.973  1.00  0.00     0.010 A 
ATOM     37  C   UNL A   1      42.886  23.403  26.921  1.00  0.00    -0.014 A 
BRANCH  37  38
ATOM     38  C   UNL A   1      43.264  24.813  27.211  1.00  0.00     0.031 A 
ATOM     39  C   UNL A   1      44.668  25.297  26.978  1.00  0.00     0.074 A 
ATOM     40  C   UNL A   1      42.352  25.649  27.746  1.00  0.00     0.049 A 
ATOM     41  N   UNL A   1      45.195  26.470  27.236  1.00  0.00    -0.248 NA
ATOM     42  C   UNL A   1      45.613  24.330  26.400  1.00  0.00     0.031 C 
ATOM     43  C   UNL A   1      40.966  25.296  28.059  1.00  0.00     0.029 A 
ATOM     44  N   UNL A   1      42.456  26.962  28.135  1.00  0.00    -0.354 N 
ATOM     45  C   UNL A   1      46.530  26.376  26.865  1.00  0.00     0.074 A 
ATOM     46  C   UNL A   1      46.746  25.019  26.409  1.00  0.00     0.031 C 
ATOM     47  C   UNL A   1      40.345  26.367  28.574  1.00  0.00     0.029 A 
ATOM     48  C   UNL A   1      41.296  27.471  28.669  1.00  0.00     0.049 A 
ATOM     49  H   UNL A   1      43.281  27.488  28.040  1.00  0.00     0.167 HD
ATOM     50  C   UNL A   1      47.484  27.339  26.885  1.00  0.00     0.037 A 
ATOM     51  C   UNL A   1      41.031  28.684  29.190  1.00  0.00     0.037 A 
ATOM     52  C   UNL A   1      47.266  28.694  27.323  1.00  0.00     0.049 A 
ATOM     53  C   UNL A   1      42.113  29.729  29.218  1.00  0.00     0.074 A 
ATOM     54  C   UNL A   1      48.155  29.755  27.323  1.00  0.00     0.029 A 
ATOM     55  N   UNL A   1      46.075  29.173  27.850  1.00  0.00    -0.354 N 
ATOM     56  N   UNL A   1      43.352  29.650  28.800  1.00  0.00    -0.248 NA
ATOM     57  C   UNL A   1      41.755  31.036  29.788  1.00  0.00     0.031 C 
ATOM     58  C   UNL A   1      47.521  30.861  27.899  1.00  0.00     0.029 A 
ATOM     59  C   UNL A   1      46.218  30.507  28.204  1.00  0.00     0.049 A 
ATOM     60  H   UNL A   1      45.252  28.645  27.957  1.00  0.00     0.167 HD
ATOM     61  C   UNL A   1      43.913  30.899  29.028  1.00  0.00     0.074 A 
ATOM     62  C   UNL A   1      42.875  31.724  29.608  1.00  0.00     0.031 C 
ATOM     63  C   UNL A   1      45.176  31.322  28.778  1.00  0.00     0.037 A 
BRANCH  50  64
ATOM     64  C   UNL A   1      48.864  26.960  26.422  1.00  0.00     0.064 A 
ATOM     65  C   UNL A   1      49.826  26.454  27.310  1.00  0.00     0.173 A 
ATOM     66  C   UNL A   1      49.215  27.067  25.068  1.00  0.00     0.173 A 
ATOM     67  F   UNL A   1      49.545  26.337  28.617  1.00  0.00    -0.203 F 
ATOM     68  C   UNL A   1      51.098  26.102  26.865  1.00  0.00     0.198 A 
ATOM     69  C   UNL A   1      50.477  26.684  24.621  1.00  0.00     0.198 A 
ATOM     70  F   UNL A   1      48.331  27.535  24.174  1.00  0.00    -0.203 F 
ATOM     71  F   UNL A   1      52.017  25.671  27.741  1.00  0.00    -0.200 F 
ATOM     72  C   UNL A   1      51.420  26.210  25.520  1.00  0.00     0.200 A 
ATOM     73  F   UNL A   1      50.782  26.773  23.319  1.00  0.00    -0.200 F 
ATOM     74  F   UNL A   1      52.642  25.865  25.093  1.00  0.00    -0.200 F 
ENDBRANCH  50  64
BRANCH  51  75
ATOM     75  C   UNL A   1      39.672  28.982  29.714  1.00  0.00     0.064 A 
ATOM     76  C   UNL A   1      39.345  28.729  31.054  1.00  0.00     0.173 A 
ATOM     77  C   UNL A   1      38.675  29.526  28.891  1.00  0.00     0.173 A 
ATOM     78  F   UNL A   1      40.259  28.190  31.875  1.00  0.00    -0.203 F 
ATOM     79  C   UNL A   1      38.068  28.990  31.546  1.00  0.00     0.198 A 
ATOM     80  C   UNL A   1      37.407  29.815  29.393  1.00  0.00     0.198 A 
ATOM     81  F   UNL A   1      38.937  29.791  27.603  1.00  0.00    -0.203 F 
ATOM     82  F   UNL A   1      37.771  28.697  32.818  1.00  0.00    -0.200 F 
ATOM     83  C   UNL A   1      37.103  29.540  30.717  1.00  0.00     0.200 A 
ATOM     84  F   UNL A   1      36.481  30.361  28.592  1.00  0.00    -0.200 F 
ATOM     85  F   UNL A   1      35.877  29.798  31.192  1.00  0.00    -0.200 F 
ENDBRANCH  51  75
BRANCH  63  86
ATOM     86  C   UNL A   1      45.501  32.756  29.095  1.00  0.00     0.064 A 
ATOM     87  C   UNL A   1      46.046  33.133  30.331  1.00  0.00     0.173 A 
ATOM     88  C   UNL A   1      45.295  33.759  28.135  1.00  0.00     0.173 A 
ATOM     89  F   UNL A   1      46.248  32.216  31.289  1.00  0.00    -0.203 F 
ATOM     90  C   UNL A   1      46.350  34.465  30.602  1.00  0.00     0.198 A 
ATOM     91  C   UNL A   1      45.630  35.084  28.397  1.00  0.00     0.198 A 
ATOM     92  F   UNL A   1      44.780  33.451  26.935  1.00  0.00    -0.203 F 
ATOM     93  F   UNL A   1      46.825  34.810  31.807  1.00  0.00    -0.200 F 
ATOM     94  C   UNL A   1      46.150  35.437  29.634  1.00  0.00     0.200 A 
ATOM     95  F   UNL A   1      45.450  36.019  27.456  1.00  0.00    -0.200 F 
ATOM     96  F   UNL A   1      46.451  36.717  29.894  1.00  0.00    -0.200 F 
ENDBRANCH  63  86
ENDBRANCH  37  38
ENDBRANCH  29  32
ENDBRANCH  27  28
ENDBRANCH  26  27
ENDBRANCH   1  26
TORSDOF 14
ENDMDL
