MODEL 1
REMARK VINA RESULT:     -12.2      0.000      0.000
REMARK SMILES COC(=O)c1nccc(N2CCO[C@H](CC(=O)NCCCNC(=O)c3ccc(-c4c5nc(c(-c6c(F)c(F)c(F)c(F)c6F)c6ccc([nH]6)c(-c6c(F)c(F)c(F)c(F)c6F)c6nc(c(-c7c(F)c(F)c(F)c(F)c7F)c7ccc4[nH]7)C=C6)C=C5)cc3)C2)n1
REMARK SMILES IDX 19 1 18 2 16 3 17 4 15 6 14 7 10 8 11 9 88 10 12 11 13 12
REMARK SMILES IDX 9 13 5 14 6 15 89 16 7 17 8 18 3 19 4 20 2 21 1 22 20 23
REMARK SMILES IDX 21 24 22 25 23 26 24 28 25 29 26 30 87 31 27 32 86 33 28 34
REMARK SMILES IDX 29 35 30 36 80 37 31 38 85 39 79 40 81 41 32 42 84 43 78 44
REMARK SMILES IDX 77 45 33 47 65 48 45 49 64 50 46 51 49 52 63 53 82 54 47 55
REMARK SMILES IDX 48 56 62 58 83 59 50 60 34 61 35 62 43 63 36 64 37 65 41 66
REMARK SMILES IDX 44 67 38 68 39 69 42 70 40 71 66 72 67 73 75 74 68 75 69 76
REMARK SMILES IDX 73 77 76 78 70 79 71 80 74 81 72 82 51 83 52 84 60 85 53 86
REMARK SMILES IDX 54 87 58 88 61 89 55 90 56 91 59 92 57 93
REMARK H PARENT 18 5 22 27 81 46 49 57
REMARK Flexibility Score: inf
ROOT
ATOM      1  C   UNL A   1      31.398  30.854  26.143  1.00  0.00     0.117 C 
ENDROOT
BRANCH   1   2
ATOM      2  N   UNL A   1      32.670  30.291  26.562  1.00  0.00    -0.356 N 
ATOM      3  C   UNL A   1      33.168  29.026  26.419  1.00  0.00     0.222 C 
ATOM      4  O   UNL A   1      34.215  28.757  27.012  1.00  0.00    -0.275 OA
ATOM      5  H   UNL A   1      33.270  30.922  27.022  1.00  0.00     0.163 HD
BRANCH   3   6
ATOM      6  C   UNL A   1      32.562  28.050  25.437  1.00  0.00     0.133 C 
BRANCH   6   7
ATOM      7  C   UNL A   1      33.021  27.957  23.968  1.00  0.00     0.147 C 
ATOM      8  N   UNL A   1      30.885  28.196  22.806  1.00  0.00    -0.352 N 
ATOM      9  C   UNL A   1      31.022  26.913  22.121  1.00  0.00     0.146 C 
ATOM     10  C   UNL A   1      32.164  28.859  23.053  1.00  0.00     0.150 C 
ATOM     11  C   UNL A   1      32.011  26.019  22.918  1.00  0.00     0.182 C 
ATOM     12  O   UNL A   1      33.203  26.658  23.393  1.00  0.00    -0.374 OA
BRANCH   8  13
ATOM     13  C   UNL A   1      29.716  28.933  22.816  1.00  0.00     0.133 A 
ATOM     14  C   UNL A   1      28.505  30.861  22.568  1.00  0.00     0.241 A 
ATOM     15  N   UNL A   1      27.317  30.274  22.829  1.00  0.00    -0.231 NA
ATOM     16  N   UNL A   1      29.711  30.235  22.492  1.00  0.00    -0.205 NA
ATOM     17  C   UNL A   1      27.357  28.974  23.095  1.00  0.00     0.117 A 
ATOM     18  C   UNL A   1      28.535  28.278  23.145  1.00  0.00     0.067 A 
BRANCH  14  19
ATOM     19  C   UNL A   1      28.446  32.357  22.537  1.00  0.00     0.376 C 
ATOM     20  O   UNL A   1      29.037  33.070  23.347  1.00  0.00    -0.242 OA
BRANCH  19  21
ATOM     21  O   UNL A   1      27.664  32.820  21.528  1.00  0.00    -0.463 OA
ATOM     22  C   UNL A   1      28.037  32.284  20.258  1.00  0.00     0.282 C 
ENDBRANCH  19  21
ENDBRANCH  14  19
ENDBRANCH   8  13
ENDBRANCH   6   7
ENDBRANCH   3   6
ENDBRANCH   1   2
BRANCH   1  23
ATOM     23  C   UNL A   1      31.304  32.338  26.503  1.00  0.00     0.042 C 
BRANCH  23  24
ATOM     24  C   UNL A   1      32.609  32.889  27.055  1.00  0.00     0.118 C 
BRANCH  24  25
ATOM     25  N   UNL A   1      32.453  34.227  27.602  1.00  0.00    -0.352 N 
ATOM     26  C   UNL A   1      33.032  34.881  28.665  1.00  0.00     0.251 C 
ATOM     27  H   UNL A   1      31.801  34.779  27.112  1.00  0.00     0.163 HD
ATOM     28  O   UNL A   1      32.549  35.962  29.001  1.00  0.00    -0.269 OA
BRANCH  26  29
ATOM     29  C   UNL A   1      34.189  34.345  29.435  1.00  0.00     0.039 A 
ATOM     30  C   UNL A   1      35.482  34.594  28.947  1.00  0.00     0.014 A 
ATOM     31  C   UNL A   1      34.054  33.525  30.551  1.00  0.00     0.014 A 
ATOM     32  C   UNL A   1      36.607  34.049  29.583  1.00  0.00     0.010 A 
ATOM     33  C   UNL A   1      35.175  33.085  31.257  1.00  0.00     0.010 A 
ATOM     34  C   UNL A   1      36.468  33.305  30.763  1.00  0.00    -0.014 A 
BRANCH  34  35
ATOM     35  C   UNL A   1      37.631  32.684  31.460  1.00  0.00     0.031 A 
ATOM     36  C   UNL A   1      38.374  31.537  30.813  1.00  0.00     0.074 A 
ATOM     37  C   UNL A   1      37.982  33.087  32.696  1.00  0.00     0.049 A 
ATOM     38  N   UNL A   1      39.307  30.762  31.308  1.00  0.00    -0.248 NA
ATOM     39  C   UNL A   1      37.982  31.188  29.438  1.00  0.00     0.031 C 
ATOM     40  C   UNL A   1      37.331  34.154  33.456  1.00  0.00     0.029 A 
ATOM     41  N   UNL A   1      38.968  32.635  33.539  1.00  0.00    -0.354 N 
ATOM     42  C   UNL A   1      39.571  29.810  30.329  1.00  0.00     0.074 A 
ATOM     43  C   UNL A   1      38.662  30.070  29.234  1.00  0.00     0.031 C 
ATOM     44  C   UNL A   1      37.954  34.297  34.638  1.00  0.00     0.029 A 
ATOM     45  C   UNL A   1      39.016  33.301  34.740  1.00  0.00     0.049 A 
ATOM     46  H   UNL A   1      39.583  31.902  33.305  1.00  0.00     0.167 HD
ATOM     47  C   UNL A   1      40.502  28.825  30.326  1.00  0.00     0.037 A 
ATOM     48  C   UNL A   1      39.820  33.124  35.806  1.00  0.00     0.037 A 
ATOM     49  C   UNL A   1      41.454  28.613  31.384  1.00  0.00     0.049 A 
ATOM     50  C   UNL A   1      40.866  32.042  35.769  1.00  0.00     0.074 A 
ATOM     51  C   UNL A   1      42.494  27.701  31.441  1.00  0.00     0.029 A 
ATOM     52  N   UNL A   1      41.491  29.334  32.568  1.00  0.00    -0.354 N 
ATOM     53  N   UNL A   1      41.138  31.185  34.817  1.00  0.00    -0.248 NA
ATOM     54  C   UNL A   1      41.721  31.909  36.958  1.00  0.00     0.031 C 
ATOM     55  C   UNL A   1      43.134  27.844  32.676  1.00  0.00     0.029 A 
ATOM     56  C   UNL A   1      42.524  28.877  33.369  1.00  0.00     0.049 A 
ATOM     57  H   UNL A   1      40.873  30.063  32.804  1.00  0.00     0.167 HD
ATOM     58  C   UNL A   1      42.211  30.432  35.276  1.00  0.00     0.074 A 
ATOM     59  C   UNL A   1      42.549  30.942  36.588  1.00  0.00     0.031 C 
ATOM     60  C   UNL A   1      42.857  29.407  34.666  1.00  0.00     0.037 A 
BRANCH  47  61
ATOM     61  C   UNL A   1      40.544  27.907  29.136  1.00  0.00     0.064 A 
ATOM     62  C   UNL A   1      41.395  28.145  28.045  1.00  0.00     0.173 A 
ATOM     63  C   UNL A   1      39.740  26.757  29.096  1.00  0.00     0.173 A 
ATOM     64  F   UNL A   1      42.178  29.234  28.026  1.00  0.00    -0.203 F 
ATOM     65  C   UNL A   1      41.407  27.293  26.944  1.00  0.00     0.198 A 
ATOM     66  C   UNL A   1      39.781  25.887  28.009  1.00  0.00     0.198 A 
ATOM     67  F   UNL A   1      38.916  26.472  30.116  1.00  0.00    -0.203 F 
ATOM     68  F   UNL A   1      42.180  27.579  25.887  1.00  0.00    -0.200 F 
ATOM     69  C   UNL A   1      40.606  26.162  26.929  1.00  0.00     0.200 A 
ATOM     70  F   UNL A   1      39.018  24.786  28.003  1.00  0.00    -0.200 F 
ATOM     71  F   UNL A   1      40.621  25.342  25.869  1.00  0.00    -0.200 F 
ENDBRANCH  47  61
BRANCH  48  72
ATOM     72  C   UNL A   1      39.694  34.018  36.988  1.00  0.00     0.064 A 
ATOM     73  C   UNL A   1      38.903  33.644  38.084  1.00  0.00     0.173 A 
ATOM     74  C   UNL A   1      40.354  35.254  37.051  1.00  0.00     0.173 A 
ATOM     75  F   UNL A   1      38.235  32.481  38.061  1.00  0.00    -0.203 F 
ATOM     76  C   UNL A   1      38.761  34.480  39.189  1.00  0.00     0.198 A 
ATOM     77  C   UNL A   1      40.235  36.076  38.170  1.00  0.00     0.198 A 
ATOM     78  F   UNL A   1      41.127  35.656  36.032  1.00  0.00    -0.203 F 
ATOM     79  F   UNL A   1      37.963  34.117  40.203  1.00  0.00    -0.200 F 
ATOM     80  C   UNL A   1      39.432  35.693  39.234  1.00  0.00     0.200 A 
ATOM     81  F   UNL A   1      40.895  37.240  38.216  1.00  0.00    -0.200 F 
ATOM     82  F   UNL A   1      39.301  36.494  40.300  1.00  0.00    -0.200 F 
ENDBRANCH  48  72
BRANCH  60  83
ATOM     83  C   UNL A   1      44.022  28.800  35.390  1.00  0.00     0.064 A 
ATOM     84  C   UNL A   1      43.854  27.765  36.321  1.00  0.00     0.173 A 
ATOM     85  C   UNL A   1      45.330  29.232  35.116  1.00  0.00     0.173 A 
ATOM     86  F   UNL A   1      42.624  27.327  36.627  1.00  0.00    -0.203 F 
ATOM     87  C   UNL A   1      44.949  27.201  36.970  1.00  0.00     0.198 A 
ATOM     88  C   UNL A   1      46.424  28.647  35.744  1.00  0.00     0.198 A 
ATOM     89  F   UNL A   1      45.545  30.215  34.228  1.00  0.00    -0.203 F 
ATOM     90  F   UNL A   1      44.761  26.246  37.890  1.00  0.00    -0.200 F 
ATOM     91  C   UNL A   1      46.233  27.637  36.676  1.00  0.00     0.200 A 
ATOM     92  F   UNL A   1      47.665  29.059  35.450  1.00  0.00    -0.200 F 
ATOM     93  F   UNL A   1      47.287  27.088  37.296  1.00  0.00    -0.200 F 
ENDBRANCH  60  83
ENDBRANCH  34  35
ENDBRANCH  26  29
ENDBRANCH  24  25
ENDBRANCH  23  24
ENDBRANCH   1  23
TORSDOF 14
ENDMDL
MODEL 2
REMARK VINA RESULT:     -12.1      3.822      5.936
REMARK SMILES COC(=O)c1nccc(N2CCO[C@H](CC(=O)NCCCNC(=O)c3ccc(-c4c5nc(c(-c6c(F)c(F)c(F)c(F)c6F)c6ccc([nH]6)c(-c6c(F)c(F)c(F)c(F)c6F)c6nc(c(-c7c(F)c(F)c(F)c(F)c7F)c7ccc4[nH]7)C=C6)C=C5)cc3)C2)n1
REMARK SMILES IDX 19 1 18 2 16 3 17 4 15 6 14 7 10 8 11 9 88 10 12 11 13 12
REMARK SMILES IDX 9 13 5 14 6 15 89 16 7 17 8 18 3 19 4 20 2 21 1 22 20 23
REMARK SMILES IDX 21 24 22 25 23 26 24 28 25 29 26 30 87 31 27 32 86 33 28 34
REMARK SMILES IDX 29 35 30 36 80 37 31 38 85 39 79 40 81 41 32 42 84 43 78 44
REMARK SMILES IDX 77 45 33 47 65 48 45 49 64 50 46 51 49 52 63 53 82 54 47 55
REMARK SMILES IDX 48 56 62 58 83 59 50 60 34 61 35 62 43 63 36 64 37 65 41 66
REMARK SMILES IDX 44 67 38 68 39 69 42 70 40 71 66 72 67 73 75 74 68 75 69 76
REMARK SMILES IDX 73 77 76 78 70 79 71 80 74 81 72 82 51 83 52 84 60 85 53 86
REMARK SMILES IDX 54 87 58 88 61 89 55 90 56 91 59 92 57 93
REMARK H PARENT 18 5 22 27 81 46 49 57
REMARK Flexibility Score: inf
ROOT
ATOM      1  C   UNL A   1      31.091  27.044  25.701  1.00  0.00     0.117 C 
ENDROOT
BRANCH   1   2
ATOM      2  N   UNL A   1      30.647  25.928  26.519  1.00  0.00    -0.356 N 
ATOM      3  C   UNL A   1      30.820  24.583  26.351  1.00  0.00     0.222 C 
ATOM      4  O   UNL A   1      30.198  23.831  27.105  1.00  0.00    -0.275 OA
ATOM      5  H   UNL A   1      30.140  26.183  27.324  1.00  0.00     0.163 HD
BRANCH   3   6
ATOM      6  C   UNL A   1      31.862  24.039  25.401  1.00  0.00     0.133 C 
BRANCH   6   7
ATOM      7  C   UNL A   1      33.324  23.793  25.824  1.00  0.00     0.147 C 
ATOM      8  N   UNL A   1      33.494  21.377  25.501  1.00  0.00    -0.352 N 
ATOM      9  C   UNL A   1      33.863  21.134  26.894  1.00  0.00     0.146 C 
ATOM     10  C   UNL A   1      33.968  22.663  24.992  1.00  0.00     0.150 C 
ATOM     11  C   UNL A   1      33.380  22.332  27.759  1.00  0.00     0.182 C 
ATOM     12  O   UNL A   1      33.613  23.639  27.220  1.00  0.00    -0.374 OA
BRANCH   8  13
ATOM     13  C   UNL A   1      33.157  20.370  24.617  1.00  0.00     0.133 A 
ATOM     14  C   UNL A   1      33.073  18.187  23.930  1.00  0.00     0.241 A 
ATOM     15  N   UNL A   1      32.390  18.459  22.796  1.00  0.00    -0.231 NA
ATOM     16  N   UNL A   1      33.425  19.085  24.890  1.00  0.00    -0.205 NA
ATOM     17  C   UNL A   1      32.098  19.737  22.586  1.00  0.00     0.117 A 
ATOM     18  C   UNL A   1      32.501  20.726  23.443  1.00  0.00     0.067 A 
BRANCH  14  19
ATOM     19  C   UNL A   1      33.606  16.790  23.994  1.00  0.00     0.376 C 
ATOM     20  O   UNL A   1      33.966  16.160  22.999  1.00  0.00    -0.242 OA
BRANCH  19  21
ATOM     21  O   UNL A   1      33.631  16.306  25.263  1.00  0.00    -0.463 OA
ATOM     22  C   UNL A   1      32.855  15.115  25.409  1.00  0.00     0.282 C 
ENDBRANCH  19  21
ENDBRANCH  14  19
ENDBRANCH   8  13
ENDBRANCH   6   7
ENDBRANCH   3   6
ENDBRANCH   1   2
BRANCH   1  23
ATOM     23  C   UNL A   1      31.772  28.118  26.552  1.00  0.00     0.042 C 
BRANCH  23  24
ATOM     24  C   UNL A   1      32.658  29.040  25.729  1.00  0.00     0.118 C 
BRANCH  24  25
ATOM     25  N   UNL A   1      32.428  30.443  26.036  1.00  0.00    -0.352 N 
ATOM     26  C   UNL A   1      33.055  31.336  26.873  1.00  0.00     0.251 C 
ATOM     27  H   UNL A   1      31.669  30.833  25.546  1.00  0.00     0.163 HD
ATOM     28  O   UNL A   1      32.504  32.420  27.066  1.00  0.00    -0.269 OA
BRANCH  26  29
ATOM     29  C   UNL A   1      34.343  31.056  27.566  1.00  0.00     0.039 A 
ATOM     30  C   UNL A   1      34.608  29.737  27.966  1.00  0.00     0.014 A 
ATOM     31  C   UNL A   1      35.249  32.048  27.930  1.00  0.00     0.014 A 
ATOM     32  C   UNL A   1      35.767  29.425  28.693  1.00  0.00     0.010 A 
ATOM     33  C   UNL A   1      36.461  31.722  28.543  1.00  0.00     0.010 A 
ATOM     34  C   UNL A   1      36.722  30.413  28.970  1.00  0.00    -0.014 A 
BRANCH  34  35
ATOM     35  C   UNL A   1      37.955  30.135  29.761  1.00  0.00     0.031 A 
ATOM     36  C   UNL A   1      39.018  29.217  29.201  1.00  0.00     0.074 A 
ATOM     37  C   UNL A   1      38.099  30.636  31.002  1.00  0.00     0.049 A 
ATOM     38  N   UNL A   1      40.087  28.726  29.780  1.00  0.00    -0.248 NA
ATOM     39  C   UNL A   1      38.830  28.755  27.816  1.00  0.00     0.031 C 
ATOM     40  C   UNL A   1      37.137  31.503  31.683  1.00  0.00     0.029 A 
ATOM     41  N   UNL A   1      39.108  30.476  31.921  1.00  0.00    -0.354 N 
ATOM     42  C   UNL A   1      40.660  27.864  28.852  1.00  0.00     0.074 A 
ATOM     43  C   UNL A   1      39.795  27.856  27.694  1.00  0.00     0.031 C 
ATOM     44  C   UNL A   1      37.616  31.825  32.897  1.00  0.00     0.029 A 
ATOM     45  C   UNL A   1      38.894  31.149  33.099  1.00  0.00     0.049 A 
ATOM     46  H   UNL A   1      39.910  29.930  31.751  1.00  0.00     0.167 HD
ATOM     47  C   UNL A   1      41.817  27.163  28.942  1.00  0.00     0.037 A 
ATOM     48  C   UNL A   1      39.639  31.209  34.220  1.00  0.00     0.037 A 
ATOM     49  C   UNL A   1      42.715  27.228  30.065  1.00  0.00     0.049 A 
ATOM     50  C   UNL A   1      40.934  30.445  34.286  1.00  0.00     0.074 A 
ATOM     51  C   UNL A   1      43.952  26.627  30.218  1.00  0.00     0.029 A 
ATOM     52  N   UNL A   1      42.476  27.951  31.224  1.00  0.00    -0.354 N 
ATOM     53  N   UNL A   1      41.489  29.676  33.382  1.00  0.00    -0.248 NA
ATOM     54  C   UNL A   1      41.708  30.562  35.530  1.00  0.00     0.031 C 
ATOM     55  C   UNL A   1      44.443  26.954  31.486  1.00  0.00     0.029 A 
ATOM     56  C   UNL A   1      43.535  27.798  32.103  1.00  0.00     0.049 A 
ATOM     57  H   UNL A   1      41.672  28.493  31.395  1.00  0.00     0.167 HD
ATOM     58  C   UNL A   1      42.688  29.243  33.933  1.00  0.00     0.074 A 
ATOM     59  C   UNL A   1      42.786  29.845  35.246  1.00  0.00     0.031 C 
ATOM     60  C   UNL A   1      43.624  28.418  33.401  1.00  0.00     0.037 A 
BRANCH  47  61
ATOM     61  C   UNL A   1      42.184  26.270  27.789  1.00  0.00     0.064 A 
ATOM     62  C   UNL A   1      41.627  24.991  27.635  1.00  0.00     0.173 A 
ATOM     63  C   UNL A   1      43.087  26.709  26.807  1.00  0.00     0.173 A 
ATOM     64  F   UNL A   1      40.765  24.516  28.548  1.00  0.00    -0.203 F 
ATOM     65  C   UNL A   1      41.992  24.171  26.571  1.00  0.00     0.198 A 
ATOM     66  C   UNL A   1      43.423  25.901  25.725  1.00  0.00     0.198 A 
ATOM     67  F   UNL A   1      43.642  27.928  26.896  1.00  0.00    -0.203 F 
ATOM     68  F   UNL A   1      41.496  22.929  26.484  1.00  0.00    -0.200 F 
ATOM     69  C   UNL A   1      42.884  24.628  25.613  1.00  0.00     0.200 A 
ATOM     70  F   UNL A   1      44.273  26.350  24.791  1.00  0.00    -0.200 F 
ATOM     71  F   UNL A   1      43.232  23.838  24.588  1.00  0.00    -0.200 F 
ENDBRANCH  47  61
BRANCH  48  72
ATOM     72  C   UNL A   1      39.198  32.055  35.361  1.00  0.00     0.064 A 
ATOM     73  C   UNL A   1      38.412  31.514  36.388  1.00  0.00     0.173 A 
ATOM     74  C   UNL A   1      39.548  33.411  35.451  1.00  0.00     0.173 A 
ATOM     75  F   UNL A   1      38.034  30.229  36.334  1.00  0.00    -0.203 F 
ATOM     76  C   UNL A   1      37.977  32.300  37.453  1.00  0.00     0.198 A 
ATOM     77  C   UNL A   1      39.136  34.189  36.532  1.00  0.00     0.198 A 
ATOM     78  F   UNL A   1      40.302  33.975  34.498  1.00  0.00    -0.203 F 
ATOM     79  F   UNL A   1      37.190  31.768  38.398  1.00  0.00    -0.200 F 
ATOM     80  C   UNL A   1      38.344  33.635  37.527  1.00  0.00     0.200 A 
ATOM     81  F   UNL A   1      39.505  35.474  36.608  1.00  0.00    -0.200 F 
ATOM     82  F   UNL A   1      37.931  34.390  38.554  1.00  0.00    -0.200 F 
ENDBRANCH  48  72
BRANCH  60  83
ATOM     83  C   UNL A   1      44.854  28.154  34.217  1.00  0.00     0.064 A 
ATOM     84  C   UNL A   1      45.975  28.996  34.154  1.00  0.00     0.173 A 
ATOM     85  C   UNL A   1      44.897  27.068  35.104  1.00  0.00     0.173 A 
ATOM     86  F   UNL A   1      45.989  30.039  33.311  1.00  0.00    -0.203 F 
ATOM     87  C   UNL A   1      47.102  28.745  34.932  1.00  0.00     0.198 A 
ATOM     88  C   UNL A   1      46.012  26.837  35.902  1.00  0.00     0.198 A 
ATOM     89  F   UNL A   1      43.848  26.237  35.206  1.00  0.00    -0.203 F 
ATOM     90  F   UNL A   1      48.178  29.535  34.823  1.00  0.00    -0.200 F 
ATOM     91  C   UNL A   1      47.117  27.671  35.811  1.00  0.00     0.200 A 
ATOM     92  F   UNL A   1      46.021  25.808  36.760  1.00  0.00    -0.200 F 
ATOM     93  F   UNL A   1      48.200  27.436  36.565  1.00  0.00    -0.200 F 
ENDBRANCH  60  83
ENDBRANCH  34  35
ENDBRANCH  26  29
ENDBRANCH  24  25
ENDBRANCH  23  24
ENDBRANCH   1  23
TORSDOF 14
ENDMDL
MODEL 3
REMARK VINA RESULT:     -12.0      3.276      5.485
REMARK SMILES COC(=O)c1nccc(N2CCO[C@H](CC(=O)NCCCNC(=O)c3ccc(-c4c5nc(c(-c6c(F)c(F)c(F)c(F)c6F)c6ccc([nH]6)c(-c6c(F)c(F)c(F)c(F)c6F)c6nc(c(-c7c(F)c(F)c(F)c(F)c7F)c7ccc4[nH]7)C=C6)C=C5)cc3)C2)n1
REMARK SMILES IDX 19 1 18 2 16 3 17 4 15 6 14 7 10 8 11 9 88 10 12 11 13 12
REMARK SMILES IDX 9 13 5 14 6 15 89 16 7 17 8 18 3 19 4 20 2 21 1 22 20 23
REMARK SMILES IDX 21 24 22 25 23 26 24 28 25 29 26 30 87 31 27 32 86 33 28 34
REMARK SMILES IDX 29 35 30 36 80 37 31 38 85 39 79 40 81 41 32 42 84 43 78 44
REMARK SMILES IDX 77 45 33 47 65 48 45 49 64 50 46 51 49 52 63 53 82 54 47 55
REMARK SMILES IDX 48 56 62 58 83 59 50 60 34 61 35 62 43 63 36 64 37 65 41 66
REMARK SMILES IDX 44 67 38 68 39 69 42 70 40 71 66 72 67 73 75 74 68 75 69 76
REMARK SMILES IDX 73 77 76 78 70 79 71 80 74 81 72 82 51 83 52 84 60 85 53 86
REMARK SMILES IDX 54 87 58 88 61 89 55 90 56 91 59 92 57 93
REMARK H PARENT 18 5 22 27 81 46 49 57
REMARK Flexibility Score: inf
ROOT
ATOM      1  C   UNL A   1      33.772  28.689  22.914  1.00  0.00     0.117 C 
ENDROOT
BRANCH   1   2
ATOM      2  N   UNL A   1      33.380  27.686  21.939  1.00  0.00    -0.356 N 
ATOM      3  C   UNL A   1      33.484  26.325  21.977  1.00  0.00     0.222 C 
ATOM      4  O   UNL A   1      33.227  25.705  20.943  1.00  0.00    -0.275 OA
ATOM      5  H   UNL A   1      32.973  28.047  21.117  1.00  0.00     0.163 HD
BRANCH   3   6
ATOM      6  C   UNL A   1      33.732  25.593  23.276  1.00  0.00     0.133 C 
BRANCH   6   7
ATOM      7  C   UNL A   1      32.664  25.478  24.381  1.00  0.00     0.147 C 
ATOM      8  N   UNL A   1      32.526  23.052  24.634  1.00  0.00    -0.352 N 
ATOM      9  C   UNL A   1      31.098  23.019  24.325  1.00  0.00     0.146 C 
ATOM     10  C   UNL A   1      32.944  24.277  25.312  1.00  0.00     0.150 C 
ATOM     11  C   UNL A   1      30.726  24.298  23.525  1.00  0.00     0.182 C 
ATOM     12  O   UNL A   1      31.283  25.530  24.002  1.00  0.00    -0.374 OA
BRANCH   8  13
ATOM     13  C   UNL A   1      33.313  21.919  24.716  1.00  0.00     0.133 A 
ATOM     14  C   UNL A   1      33.658  19.655  24.681  1.00  0.00     0.241 A 
ATOM     15  N   UNL A   1      34.995  19.749  24.855  1.00  0.00    -0.231 NA
ATOM     16  N   UNL A   1      32.791  20.695  24.547  1.00  0.00    -0.205 NA
ATOM     17  C   UNL A   1      35.481  20.980  24.966  1.00  0.00     0.117 A 
ATOM     18  C   UNL A   1      34.674  22.085  24.949  1.00  0.00     0.067 A 
BRANCH  14  19
ATOM     19  C   UNL A   1      33.127  18.263  24.826  1.00  0.00     0.376 C 
ATOM     20  O   UNL A   1      31.946  18.016  25.073  1.00  0.00    -0.242 OA
BRANCH  19  21
ATOM     21  O   UNL A   1      34.094  17.323  24.667  1.00  0.00    -0.463 OA
ATOM     22  C   UNL A   1      33.731  16.064  25.234  1.00  0.00     0.282 C 
ENDBRANCH  19  21
ENDBRANCH  14  19
ENDBRANCH   8  13
ENDBRANCH   6   7
ENDBRANCH   3   6
ENDBRANCH   1   2
BRANCH   1  23
ATOM     23  C   UNL A   1      32.627  29.001  23.879  1.00  0.00     0.042 C 
BRANCH  23  24
ATOM     24  C   UNL A   1      33.103  29.182  25.312  1.00  0.00     0.118 C 
BRANCH  24  25
ATOM     25  N   UNL A   1      32.698  30.462  25.869  1.00  0.00    -0.352 N 
ATOM     26  C   UNL A   1      33.188  31.238  26.894  1.00  0.00     0.251 C 
ATOM     27  H   UNL A   1      31.913  30.854  25.422  1.00  0.00     0.163 HD
ATOM     28  O   UNL A   1      32.505  32.195  27.261  1.00  0.00    -0.269 OA
BRANCH  26  29
ATOM     29  C   UNL A   1      34.478  30.973  27.588  1.00  0.00     0.039 A 
ATOM     30  C   UNL A   1      34.685  29.698  28.139  1.00  0.00     0.014 A 
ATOM     31  C   UNL A   1      35.444  31.950  27.811  1.00  0.00     0.014 A 
ATOM     32  C   UNL A   1      35.845  29.412  28.874  1.00  0.00     0.010 A 
ATOM     33  C   UNL A   1      36.654  31.633  28.433  1.00  0.00     0.010 A 
ATOM     34  C   UNL A   1      36.857  30.372  29.010  1.00  0.00    -0.014 A 
BRANCH  34  35
ATOM     35  C   UNL A   1      38.096  30.124  29.802  1.00  0.00     0.031 A 
ATOM     36  C   UNL A   1      39.185  29.238  29.240  1.00  0.00     0.074 A 
ATOM     37  C   UNL A   1      38.223  30.621  31.047  1.00  0.00     0.049 A 
ATOM     38  N   UNL A   1      40.265  28.773  29.819  1.00  0.00    -0.248 NA
ATOM     39  C   UNL A   1      39.013  28.778  27.852  1.00  0.00     0.031 C 
ATOM     40  C   UNL A   1      37.237  31.458  31.730  1.00  0.00     0.029 A 
ATOM     41  N   UNL A   1      39.234  30.483  31.967  1.00  0.00    -0.354 N 
ATOM     42  C   UNL A   1      40.864  27.932  28.888  1.00  0.00     0.074 A 
ATOM     43  C   UNL A   1      40.002  27.906  27.728  1.00  0.00     0.031 C 
ATOM     44  C   UNL A   1      37.703  31.786  32.947  1.00  0.00     0.029 A 
ATOM     45  C   UNL A   1      38.999  31.144  33.148  1.00  0.00     0.049 A 
ATOM     46  H   UNL A   1      40.051  29.960  31.796  1.00  0.00     0.167 HD
ATOM     47  C   UNL A   1      42.039  27.261  28.977  1.00  0.00     0.037 A 
ATOM     48  C   UNL A   1      39.739  31.218  34.271  1.00  0.00     0.037 A 
ATOM     49  C   UNL A   1      42.932  27.345  30.103  1.00  0.00     0.049 A 
ATOM     50  C   UNL A   1      41.054  30.488  34.336  1.00  0.00     0.074 A 
ATOM     51  C   UNL A   1      44.185  26.776  30.256  1.00  0.00     0.029 A 
ATOM     52  N   UNL A   1      42.670  28.055  31.265  1.00  0.00    -0.354 N 
ATOM     53  N   UNL A   1      41.632  29.740  33.430  1.00  0.00    -0.248 NA
ATOM     54  C   UNL A   1      41.822  30.619  35.584  1.00  0.00     0.031 C 
ATOM     55  C   UNL A   1      44.664  27.109  31.527  1.00  0.00     0.029 A 
ATOM     56  C   UNL A   1      43.731  27.925  32.146  1.00  0.00     0.049 A 
ATOM     57  H   UNL A   1      41.852  28.573  31.437  1.00  0.00     0.167 HD
ATOM     58  C   UNL A   1      42.841  29.336  33.982  1.00  0.00     0.074 A 
ATOM     59  C   UNL A   1      42.919  29.934  35.299  1.00  0.00     0.031 C 
ATOM     60  C   UNL A   1      43.800  28.540  33.447  1.00  0.00     0.037 A 
BRANCH  47  61
ATOM     61  C   UNL A   1      42.433  26.386  27.820  1.00  0.00     0.064 A 
ATOM     62  C   UNL A   1      43.304  26.834  26.813  1.00  0.00     0.173 A 
ATOM     63  C   UNL A   1      41.954  25.070  27.728  1.00  0.00     0.173 A 
ATOM     64  F   UNL A   1      43.785  28.085  26.846  1.00  0.00    -0.203 F 
ATOM     65  C   UNL A   1      43.643  26.014  25.740  1.00  0.00     0.198 A 
ATOM     66  C   UNL A   1      42.323  24.241  26.671  1.00  0.00     0.198 A 
ATOM     67  F   UNL A   1      41.127  24.583  28.667  1.00  0.00    -0.203 F 
ATOM     68  F   UNL A   1      44.423  26.488  24.759  1.00  0.00    -0.200 F 
ATOM     69  C   UNL A   1      43.158  24.718  25.672  1.00  0.00     0.200 A 
ATOM     70  F   UNL A   1      41.867  22.982  26.616  1.00  0.00    -0.200 F 
ATOM     71  F   UNL A   1      43.488  23.930  24.639  1.00  0.00    -0.200 F 
ENDBRANCH  47  61
BRANCH  48  72
ATOM     72  C   UNL A   1      39.273  32.045  35.416  1.00  0.00     0.064 A 
ATOM     73  C   UNL A   1      38.454  31.491  36.410  1.00  0.00     0.173 A 
ATOM     74  C   UNL A   1      39.630  33.396  35.542  1.00  0.00     0.173 A 
ATOM     75  F   UNL A   1      38.069  30.210  36.321  1.00  0.00    -0.203 F 
ATOM     76  C   UNL A   1      37.995  32.260  37.478  1.00  0.00     0.198 A 
ATOM     77  C   UNL A   1      39.194  34.156  36.626  1.00  0.00     0.198 A 
ATOM     78  F   UNL A   1      40.415  33.973  34.622  1.00  0.00    -0.203 F 
ATOM     79  F   UNL A   1      37.178  31.715  38.389  1.00  0.00    -0.200 F 
ATOM     80  C   UNL A   1      38.370  33.590  37.588  1.00  0.00     0.200 A 
ATOM     81  F   UNL A   1      39.569  35.437  36.737  1.00  0.00    -0.200 F 
ATOM     82  F   UNL A   1      37.934  34.328  38.618  1.00  0.00    -0.200 F 
ENDBRANCH  48  72
BRANCH  60  83
ATOM     83  C   UNL A   1      45.035  28.305  34.265  1.00  0.00     0.064 A 
ATOM     84  C   UNL A   1      46.141  29.166  34.195  1.00  0.00     0.173 A 
ATOM     85  C   UNL A   1      45.097  27.227  35.162  1.00  0.00     0.173 A 
ATOM     86  F   UNL A   1      46.136  30.202  33.343  1.00  0.00    -0.203 F 
ATOM     87  C   UNL A   1      47.272  28.942  34.975  1.00  0.00     0.198 A 
ATOM     88  C   UNL A   1      46.217  27.023  35.962  1.00  0.00     0.198 A 
ATOM     89  F   UNL A   1      44.063  26.379  35.272  1.00  0.00    -0.203 F 
ATOM     90  F   UNL A   1      48.334  29.749  34.858  1.00  0.00    -0.200 F 
ATOM     91  C   UNL A   1      47.306  27.876  35.863  1.00  0.00     0.200 A 
ATOM     92  F   UNL A   1      46.244  26.001  36.828  1.00  0.00    -0.200 F 
ATOM     93  F   UNL A   1      48.393  27.666  36.618  1.00  0.00    -0.200 F 
ENDBRANCH  60  83
ENDBRANCH  34  35
ENDBRANCH  26  29
ENDBRANCH  24  25
ENDBRANCH  23  24
ENDBRANCH   1  23
TORSDOF 14
ENDMDL
