MODEL 1
REMARK VINA RESULT:     -12.9      0.000      0.000
REMARK SMILES CS(=O)(=O)N1C[C@@H]2CN(C(=O)c3ccco3)C[C@]2(C(=O)NCCCNC(=O)c2ccc(-c3c4nc(c(-c5c(F)c(F)c(F)c(F)c5F)c5ccc([nH]5)c(-c5c(F)c(F)c(F)c(F)c5F)c5nc(c(-c6c(F)c(F)c(F)c(F)c6F)c6ccc3[nH]6)C=C5)C=C4)cc2)C1
REMARK SMILES IDX 23 1 22 2 21 3 19 4 20 5 18 7 5 8 6 9 91 10 7 11 8 12 17 13
REMARK SMILES IDX 9 14 2 15 1 16 3 17 4 18 10 19 11 20 12 21 13 22 16 23 14 24
REMARK SMILES IDX 15 25 24 26 25 27 26 28 27 30 28 31 29 32 90 33 30 34 89 35
REMARK SMILES IDX 31 36 32 37 33 38 83 39 34 40 88 41 82 42 84 43 35 44 87 45
REMARK SMILES IDX 81 46 80 47 36 49 68 50 48 51 67 52 49 53 52 54 66 55 85 56
REMARK SMILES IDX 50 57 51 58 65 60 86 61 53 62 37 63 38 64 46 65 39 66 40 67
REMARK SMILES IDX 44 68 47 69 41 70 42 71 45 72 43 73 69 74 70 75 78 76 71 77
REMARK SMILES IDX 72 78 76 79 79 80 73 81 74 82 77 83 75 84 54 85 55 86 63 87
REMARK SMILES IDX 56 88 57 89 61 90 64 91 58 92 59 93 62 94 60 95
REMARK H PARENT 21 6 25 29 84 48 52 59
REMARK Flexibility Score: inf
ROOT
ATOM      1  C   UNL A   1      31.908  28.756  26.472  1.00  0.00     0.042 C 
ENDROOT
BRANCH   1   2
ATOM      2  C   UNL A   1      32.433  27.339  26.693  1.00  0.00     0.117 C 
BRANCH   2   3
ATOM      3  N   UNL A   1      31.325  26.434  26.946  1.00  0.00    -0.355 N 
ATOM      4  C   UNL A   1      30.518  25.819  26.025  1.00  0.00     0.229 C 
ATOM      5  O   UNL A   1      29.405  25.439  26.392  1.00  0.00    -0.274 OA
ATOM      6  H   UNL A   1      31.130  26.240  27.892  1.00  0.00     0.163 HD
BRANCH   4   7
ATOM      7  C   UNL A   1      31.083  25.633  24.599  1.00  0.00     0.086 C 
ATOM      8  N   UNL A   1      32.081  23.394  24.164  1.00  0.00    -0.201 NA
ATOM      9  C   UNL A   1      32.326  24.211  22.996  1.00  0.00     0.108 C 
ATOM     10  C   UNL A   1      30.983  24.025  24.944  1.00  0.00     0.121 C 
ATOM     11  C   UNL A   1      31.156  25.168  23.097  1.00  0.00     0.042 C 
ATOM     12  C   UNL A   1      31.330  26.362  22.201  1.00  0.00     0.126 C 
ATOM     13  C   UNL A   1      30.047  26.786  24.133  1.00  0.00     0.138 C 
ATOM     14  N   UNL A   1      30.631  27.374  22.921  1.00  0.00    -0.334 N 
BRANCH   8  15
ATOM     15  S   UNL A   1      32.314  21.741  24.149  1.00  0.00     0.211 S 
ATOM     16  C   UNL A   1      34.045  21.553  24.536  1.00  0.00     0.176 C 
ATOM     17  O   UNL A   1      32.096  21.273  22.801  1.00  0.00    -0.213 OA
ATOM     18  O   UNL A   1      31.567  21.198  25.267  1.00  0.00    -0.213 OA
ENDBRANCH   8  15
BRANCH  14  19
ATOM     19  C   UNL A   1      30.817  28.688  22.507  1.00  0.00     0.289 C 
ATOM     20  O   UNL A   1      31.963  29.119  22.357  1.00  0.00    -0.265 OA
BRANCH  19  21
ATOM     21  C   UNL A   1      29.686  29.584  22.453  1.00  0.00     0.191 A 
ATOM     22  C   UNL A   1      29.214  30.430  23.442  1.00  0.00     0.056 A 
ATOM     23  O   UNL A   1      28.963  29.767  21.308  1.00  0.00    -0.459 OA
ATOM     24  C   UNL A   1      28.148  31.163  22.879  1.00  0.00     0.043 A 
ATOM     25  C   UNL A   1      28.057  30.751  21.570  1.00  0.00     0.196 A 
ENDBRANCH  19  21
ENDBRANCH  14  19
ENDBRANCH   4   7
ENDBRANCH   2   3
ENDBRANCH   1   2
BRANCH   1  26
ATOM     26  C   UNL A   1      32.858  29.671  25.708  1.00  0.00     0.118 C 
BRANCH  26  27
ATOM     27  N   UNL A   1      32.694  31.055  26.115  1.00  0.00    -0.352 N 
ATOM     28  C   UNL A   1      33.303  31.761  27.122  1.00  0.00     0.251 C 
ATOM     29  H   UNL A   1      32.042  31.567  25.585  1.00  0.00     0.163 HD
ATOM     30  O   UNL A   1      32.765  32.793  27.520  1.00  0.00    -0.269 OA
BRANCH  28  31
ATOM     31  C   UNL A   1      34.584  31.328  27.740  1.00  0.00     0.039 A 
ATOM     32  C   UNL A   1      34.672  30.018  28.229  1.00  0.00     0.014 A 
ATOM     33  C   UNL A   1      35.650  32.204  27.962  1.00  0.00     0.014 A 
ATOM     34  C   UNL A   1      35.814  29.592  28.916  1.00  0.00     0.010 A 
ATOM     35  C   UNL A   1      36.825  31.753  28.569  1.00  0.00     0.010 A 
ATOM     36  C   UNL A   1      36.913  30.450  29.082  1.00  0.00    -0.014 A 
BRANCH  36  37
ATOM     37  C   UNL A   1      38.126  30.017  29.830  1.00  0.00     0.031 A 
ATOM     38  C   UNL A   1      38.379  30.518  31.231  1.00  0.00     0.074 A 
ATOM     39  C   UNL A   1      39.022  29.196  29.247  1.00  0.00     0.049 A 
ATOM     40  N   UNL A   1      39.404  30.301  32.019  1.00  0.00    -0.248 NA
ATOM     41  C   UNL A   1      37.354  31.396  31.817  1.00  0.00     0.031 C 
ATOM     42  C   UNL A   1      38.914  28.652  27.894  1.00  0.00     0.029 A 
ATOM     43  N   UNL A   1      40.205  28.680  29.719  1.00  0.00    -0.354 N 
ATOM     44  C   UNL A   1      39.154  31.028  33.178  1.00  0.00     0.074 A 
ATOM     45  C   UNL A   1      37.908  31.732  32.972  1.00  0.00     0.031 C 
ATOM     46  C   UNL A   1      39.970  27.861  27.652  1.00  0.00     0.029 A 
ATOM     47  C   UNL A   1      40.855  27.876  28.813  1.00  0.00     0.049 A 
ATOM     48  H   UNL A   1      40.554  28.868  30.619  1.00  0.00     0.167 HD
ATOM     49  C   UNL A   1      39.883  31.084  34.320  1.00  0.00     0.037 A 
ATOM     50  C   UNL A   1      42.036  27.233  28.901  1.00  0.00     0.037 A 
ATOM     51  C   UNL A   1      41.111  30.363  34.538  1.00  0.00     0.049 A 
ATOM     52  C   UNL A   1      42.843  27.341  30.169  1.00  0.00     0.074 A 
ATOM     53  C   UNL A   1      41.894  30.316  35.678  1.00  0.00     0.029 A 
ATOM     54  N   UNL A   1      41.739  29.566  33.592  1.00  0.00    -0.354 N 
ATOM     55  N   UNL A   1      42.567  27.985  31.277  1.00  0.00    -0.248 NA
ATOM     56  C   UNL A   1      44.127  26.626  30.197  1.00  0.00     0.031 C 
ATOM     57  C   UNL A   1      43.025  29.541  35.403  1.00  0.00     0.029 A 
ATOM     58  C   UNL A   1      42.914  29.048  34.114  1.00  0.00     0.049 A 
ATOM     59  H   UNL A   1      41.400  29.394  32.684  1.00  0.00     0.167 HD
ATOM     60  C   UNL A   1      43.622  27.726  32.142  1.00  0.00     0.074 A 
ATOM     61  C   UNL A   1      44.536  26.853  31.438  1.00  0.00     0.031 C 
ATOM     62  C   UNL A   1      43.813  28.171  33.409  1.00  0.00     0.037 A 
BRANCH  49  63
ATOM     63  C   UNL A   1      39.378  31.964  35.431  1.00  0.00     0.064 A 
ATOM     64  C   UNL A   1      38.499  31.482  36.413  1.00  0.00     0.173 A 
ATOM     65  C   UNL A   1      39.817  33.292  35.543  1.00  0.00     0.173 A 
ATOM     66  F   UNL A   1      38.040  30.223  36.350  1.00  0.00    -0.203 F 
ATOM     67  C   UNL A   1      38.054  32.306  37.445  1.00  0.00     0.198 A 
ATOM     68  C   UNL A   1      39.399  34.102  36.596  1.00  0.00     0.198 A 
ATOM     69  F   UNL A   1      40.666  33.803  34.638  1.00  0.00    -0.203 F 
ATOM     70  F   UNL A   1      37.173  31.838  38.341  1.00  0.00    -0.200 F 
ATOM     71  C   UNL A   1      38.511  33.611  37.541  1.00  0.00     0.200 A 
ATOM     72  F   UNL A   1      39.856  35.358  36.697  1.00  0.00    -0.200 F 
ATOM     73  F   UNL A   1      38.091  34.399  38.540  1.00  0.00    -0.200 F 
ENDBRANCH  49  63
BRANCH  50  74
ATOM     74  C   UNL A   1      42.527  26.415  27.760  1.00  0.00     0.064 A 
ATOM     75  C   UNL A   1      43.421  26.950  26.822  1.00  0.00     0.173 A 
ATOM     76  C   UNL A   1      42.100  25.092  27.572  1.00  0.00     0.173 A 
ATOM     77  F   UNL A   1      43.841  28.218  26.945  1.00  0.00    -0.203 F 
ATOM     78  C   UNL A   1      43.850  26.203  25.727  1.00  0.00     0.198 A 
ATOM     79  C   UNL A   1      42.556  24.335  26.495  1.00  0.00     0.198 A 
ATOM     80  F   UNL A   1      41.248  24.531  28.442  1.00  0.00    -0.203 F 
ATOM     81  F   UNL A   1      44.661  26.759  24.817  1.00  0.00    -0.200 F 
ATOM     82  C   UNL A   1      43.422  24.894  25.568  1.00  0.00     0.200 A 
ATOM     83  F   UNL A   1      42.151  23.066  26.353  1.00  0.00    -0.200 F 
ATOM     84  F   UNL A   1      43.835  24.175  24.514  1.00  0.00    -0.200 F 
ENDBRANCH  50  74
BRANCH  62  85
ATOM     85  C   UNL A   1      45.036  27.686  34.137  1.00  0.00     0.064 A 
ATOM     86  C   UNL A   1      45.036  26.495  34.878  1.00  0.00     0.173 A 
ATOM     87  C   UNL A   1      46.238  28.408  34.060  1.00  0.00     0.173 A 
ATOM     88  F   UNL A   1      43.911  25.774  34.995  1.00  0.00    -0.203 F 
ATOM     89  C   UNL A   1      46.183  26.060  35.536  1.00  0.00     0.198 A 
ATOM     90  C   UNL A   1      47.392  27.951  34.690  1.00  0.00     0.198 A 
ATOM     91  F   UNL A   1      46.298  29.550  33.358  1.00  0.00    -0.203 F 
ATOM     92  F   UNL A   1      46.144  24.948  36.283  1.00  0.00    -0.200 F 
ATOM     93  C   UNL A   1      47.362  26.784  35.436  1.00  0.00     0.200 A 
ATOM     94  F   UNL A   1      48.535  28.644  34.576  1.00  0.00    -0.200 F 
ATOM     95  F   UNL A   1      48.467  26.359  36.064  1.00  0.00    -0.200 F 
ENDBRANCH  62  85
ENDBRANCH  36  37
ENDBRANCH  28  31
ENDBRANCH  26  27
ENDBRANCH   1  26
TORSDOF 13
ENDMDL
MODEL 2
REMARK VINA RESULT:     -12.9      3.112      5.393
REMARK SMILES CS(=O)(=O)N1C[C@@H]2CN(C(=O)c3ccco3)C[C@]2(C(=O)NCCCNC(=O)c2ccc(-c3c4nc(c(-c5c(F)c(F)c(F)c(F)c5F)c5ccc([nH]5)c(-c5c(F)c(F)c(F)c(F)c5F)c5nc(c(-c6c(F)c(F)c(F)c(F)c6F)c6ccc3[nH]6)C=C5)C=C4)cc2)C1
REMARK SMILES IDX 23 1 22 2 21 3 19 4 20 5 18 7 5 8 6 9 91 10 7 11 8 12 17 13
REMARK SMILES IDX 9 14 2 15 1 16 3 17 4 18 10 19 11 20 12 21 13 22 16 23 14 24
REMARK SMILES IDX 15 25 24 26 25 27 26 28 27 30 28 31 29 32 90 33 30 34 89 35
REMARK SMILES IDX 31 36 32 37 33 38 83 39 34 40 88 41 82 42 84 43 35 44 87 45
REMARK SMILES IDX 81 46 80 47 36 49 68 50 48 51 67 52 49 53 52 54 66 55 85 56
REMARK SMILES IDX 50 57 51 58 65 60 86 61 53 62 37 63 38 64 46 65 39 66 40 67
REMARK SMILES IDX 44 68 47 69 41 70 42 71 45 72 43 73 69 74 70 75 78 76 71 77
REMARK SMILES IDX 72 78 76 79 79 80 73 81 74 82 77 83 75 84 54 85 55 86 63 87
REMARK SMILES IDX 56 88 57 89 61 90 64 91 58 92 59 93 62 94 60 95
REMARK H PARENT 21 6 25 29 84 48 52 59
REMARK Flexibility Score: inf
ROOT
ATOM      1  C   UNL A   1      33.878  28.374  25.811  1.00  0.00     0.042 C 
ENDROOT
BRANCH   1   2
ATOM      2  C   UNL A   1      33.222  29.436  24.934  1.00  0.00     0.117 C 
BRANCH   2   3
ATOM      3  N   UNL A   1      33.690  29.309  23.565  1.00  0.00    -0.355 N 
ATOM      4  C   UNL A   1      33.449  28.284  22.688  1.00  0.00     0.229 C 
ATOM      5  O   UNL A   1      34.235  28.124  21.752  1.00  0.00    -0.274 OA
ATOM      6  H   UNL A   1      34.250  30.046  23.228  1.00  0.00     0.163 HD
BRANCH   4   7
ATOM      7  C   UNL A   1      32.191  27.421  22.935  1.00  0.00     0.086 C 
ATOM      8  N   UNL A   1      30.054  28.698  23.000  1.00  0.00    -0.201 NA
ATOM      9  C   UNL A   1      29.750  27.327  23.344  1.00  0.00     0.108 C 
ATOM     10  C   UNL A   1      31.380  28.718  22.324  1.00  0.00     0.121 C 
ATOM     11  C   UNL A   1      30.875  26.619  22.618  1.00  0.00     0.042 C 
ATOM     12  C   UNL A   1      31.024  25.194  23.071  1.00  0.00     0.126 C 
ATOM     13  C   UNL A   1      33.028  26.181  22.319  1.00  0.00     0.138 C 
ATOM     14  N   UNL A   1      32.420  24.973  22.890  1.00  0.00    -0.334 N 
BRANCH   8  15
ATOM     15  S   UNL A   1      28.859  29.800  22.626  1.00  0.00     0.211 S 
ATOM     16  C   UNL A   1      27.347  28.930  23.003  1.00  0.00     0.176 C 
ATOM     17  O   UNL A   1      28.904  30.041  21.204  1.00  0.00    -0.213 OA
ATOM     18  O   UNL A   1      28.971  30.887  23.580  1.00  0.00    -0.213 OA
ENDBRANCH   8  15
BRANCH  14  19
ATOM     19  C   UNL A   1      32.960  23.828  23.467  1.00  0.00     0.289 C 
ATOM     20  O   UNL A   1      32.203  22.972  23.933  1.00  0.00    -0.265 OA
BRANCH  19  21
ATOM     21  C   UNL A   1      34.383  23.749  23.694  1.00  0.00     0.191 A 
ATOM     22  C   UNL A   1      35.092  24.105  24.828  1.00  0.00     0.056 A 
ATOM     23  O   UNL A   1      35.231  23.192  22.779  1.00  0.00    -0.459 OA
ATOM     24  C   UNL A   1      36.439  23.756  24.596  1.00  0.00     0.043 A 
ATOM     25  C   UNL A   1      36.468  23.172  23.351  1.00  0.00     0.196 A 
ENDBRANCH  19  21
ENDBRANCH  14  19
ENDBRANCH   4   7
ENDBRANCH   2   3
ENDBRANCH   1   2
BRANCH   1  26
ATOM     26  C   UNL A   1      33.681  28.578  27.309  1.00  0.00     0.118 C 
BRANCH  26  27
ATOM     27  N   UNL A   1      33.755  29.984  27.661  1.00  0.00    -0.352 N 
ATOM     28  C   UNL A   1      34.710  30.673  28.366  1.00  0.00     0.251 C 
ATOM     29  H   UNL A   1      33.001  30.530  27.343  1.00  0.00     0.163 HD
ATOM     30  O   UNL A   1      34.407  31.760  28.853  1.00  0.00    -0.269 OA
BRANCH  28  31
ATOM     31  C   UNL A   1      36.092  30.155  28.556  1.00  0.00     0.039 A 
ATOM     32  C   UNL A   1      36.426  29.604  29.799  1.00  0.00     0.014 A 
ATOM     33  C   UNL A   1      37.094  30.309  27.594  1.00  0.00     0.014 A 
ATOM     34  C   UNL A   1      37.739  29.202  30.068  1.00  0.00     0.010 A 
ATOM     35  C   UNL A   1      38.385  29.825  27.830  1.00  0.00     0.010 A 
ATOM     36  C   UNL A   1      38.733  29.294  29.081  1.00  0.00    -0.014 A 
BRANCH  36  37
ATOM     37  C   UNL A   1      40.140  28.890  29.360  1.00  0.00     0.031 A 
ATOM     38  C   UNL A   1      41.049  29.791  30.159  1.00  0.00     0.074 A 
ATOM     39  C   UNL A   1      40.618  27.727  28.874  1.00  0.00     0.049 A 
ATOM     40  N   UNL A   1      42.317  29.640  30.455  1.00  0.00    -0.248 NA
ATOM     41  C   UNL A   1      40.461  31.036  30.676  1.00  0.00     0.031 C 
ATOM     42  C   UNL A   1      39.856  26.770  28.072  1.00  0.00     0.029 A 
ATOM     43  N   UNL A   1      41.862  27.154  28.981  1.00  0.00    -0.354 N 
ATOM     44  C   UNL A   1      42.678  30.775  31.173  1.00  0.00     0.074 A 
ATOM     45  C   UNL A   1      41.512  31.629  31.224  1.00  0.00     0.031 C 
ATOM     46  C   UNL A   1      40.638  25.721  27.779  1.00  0.00     0.029 A 
ATOM     47  C   UNL A   1      41.971  25.947  28.332  1.00  0.00     0.049 A 
ATOM     48  H   UNL A   1      42.606  27.569  29.474  1.00  0.00     0.167 HD
ATOM     49  C   UNL A   1      43.865  31.070  31.757  1.00  0.00     0.037 A 
ATOM     50  C   UNL A   1      43.026  25.122  28.187  1.00  0.00     0.037 A 
ATOM     51  C   UNL A   1      45.021  30.210  31.730  1.00  0.00     0.049 A 
ATOM     52  C   UNL A   1      44.344  25.490  28.818  1.00  0.00     0.074 A 
ATOM     53  C   UNL A   1      46.251  30.398  32.336  1.00  0.00     0.029 A 
ATOM     54  N   UNL A   1      45.091  29.000  31.056  1.00  0.00    -0.354 N 
ATOM     55  N   UNL A   1      44.654  26.539  29.541  1.00  0.00    -0.248 NA
ATOM     56  C   UNL A   1      45.458  24.553  28.613  1.00  0.00     0.031 C 
ATOM     57  C   UNL A   1      47.084  29.333  31.979  1.00  0.00     0.029 A 
ATOM     58  C   UNL A   1      46.353  28.446  31.207  1.00  0.00     0.049 A 
ATOM     59  H   UNL A   1      44.354  28.594  30.546  1.00  0.00     0.167 HD
ATOM     60  C   UNL A   1      45.984  26.371  29.905  1.00  0.00     0.074 A 
ATOM     61  C   UNL A   1      46.418  25.113  29.337  1.00  0.00     0.031 C 
ATOM     62  C   UNL A   1      46.773  27.187  30.646  1.00  0.00     0.037 A 
BRANCH  49  63
ATOM     63  C   UNL A   1      43.985  32.385  32.478  1.00  0.00     0.064 A 
ATOM     64  C   UNL A   1      44.409  33.551  31.821  1.00  0.00     0.173 A 
ATOM     65  C   UNL A   1      43.624  32.492  33.829  1.00  0.00     0.173 A 
ATOM     66  F   UNL A   1      44.774  33.505  30.532  1.00  0.00    -0.203 F 
ATOM     67  C   UNL A   1      44.497  34.765  32.499  1.00  0.00     0.198 A 
ATOM     68  C   UNL A   1      43.679  33.714  34.495  1.00  0.00     0.198 A 
ATOM     69  F   UNL A   1      43.202  31.412  34.505  1.00  0.00    -0.203 F 
ATOM     70  F   UNL A   1      44.956  35.853  31.864  1.00  0.00    -0.200 F 
ATOM     71  C   UNL A   1      44.125  34.848  33.832  1.00  0.00     0.200 A 
ATOM     72  F   UNL A   1      43.301  33.795  35.778  1.00  0.00    -0.200 F 
ATOM     73  F   UNL A   1      44.200  36.018  34.480  1.00  0.00    -0.200 F 
ENDBRANCH  49  63
BRANCH  50  74
ATOM     74  C   UNL A   1      42.881  23.854  27.422  1.00  0.00     0.064 A 
ATOM     75  C   UNL A   1      42.456  22.677  28.052  1.00  0.00     0.173 A 
ATOM     76  C   UNL A   1      43.182  23.788  26.054  1.00  0.00     0.173 A 
ATOM     77  F   UNL A   1      42.178  22.683  29.365  1.00  0.00    -0.203 F 
ATOM     78  C   UNL A   1      42.361  21.477  27.351  1.00  0.00     0.198 A 
ATOM     79  C   UNL A   1      43.055  22.595  25.345  1.00  0.00     0.198 A 
ATOM     80  F   UNL A   1      43.590  24.886  25.402  1.00  0.00    -0.203 F 
ATOM     81  F   UNL A   1      42.005  20.356  27.992  1.00  0.00    -0.200 F 
ATOM     82  C   UNL A   1      42.654  21.438  25.997  1.00  0.00     0.200 A 
ATOM     83  F   UNL A   1      43.325  22.566  24.034  1.00  0.00    -0.200 F 
ATOM     84  F   UNL A   1      42.562  20.284  25.321  1.00  0.00    -0.200 F 
ENDBRANCH  50  74
BRANCH  62  85
ATOM     85  C   UNL A   1      48.176  26.727  30.927  1.00  0.00     0.064 A 
ATOM     86  C   UNL A   1      49.263  27.133  30.138  1.00  0.00     0.173 A 
ATOM     87  C   UNL A   1      48.443  25.897  32.028  1.00  0.00     0.173 A 
ATOM     88  F   UNL A   1      49.063  27.915  29.067  1.00  0.00    -0.203 F 
ATOM     89  C   UNL A   1      50.556  26.702  30.422  1.00  0.00     0.198 A 
ATOM     90  C   UNL A   1      49.741  25.497  32.330  1.00  0.00     0.198 A 
ATOM     91  F   UNL A   1      47.443  25.485  32.822  1.00  0.00    -0.203 F 
ATOM     92  F   UNL A   1      51.570  27.058  29.622  1.00  0.00    -0.200 F 
ATOM     93  C   UNL A   1      50.796  25.891  31.522  1.00  0.00     0.200 A 
ATOM     94  F   UNL A   1      49.971  24.728  33.403  1.00  0.00    -0.200 F 
ATOM     95  F   UNL A   1      52.042  25.484  31.798  1.00  0.00    -0.200 F 
ENDBRANCH  62  85
ENDBRANCH  36  37
ENDBRANCH  28  31
ENDBRANCH  26  27
ENDBRANCH   1  26
TORSDOF 13
ENDMDL
MODEL 3
REMARK VINA RESULT:     -12.6      1.614      3.666
REMARK SMILES CS(=O)(=O)N1C[C@@H]2CN(C(=O)c3ccco3)C[C@]2(C(=O)NCCCNC(=O)c2ccc(-c3c4nc(c(-c5c(F)c(F)c(F)c(F)c5F)c5ccc([nH]5)c(-c5c(F)c(F)c(F)c(F)c5F)c5nc(c(-c6c(F)c(F)c(F)c(F)c6F)c6ccc3[nH]6)C=C5)C=C4)cc2)C1
REMARK SMILES IDX 23 1 22 2 21 3 19 4 20 5 18 7 5 8 6 9 91 10 7 11 8 12 17 13
REMARK SMILES IDX 9 14 2 15 1 16 3 17 4 18 10 19 11 20 12 21 13 22 16 23 14 24
REMARK SMILES IDX 15 25 24 26 25 27 26 28 27 30 28 31 29 32 90 33 30 34 89 35
REMARK SMILES IDX 31 36 32 37 33 38 83 39 34 40 88 41 82 42 84 43 35 44 87 45
REMARK SMILES IDX 81 46 80 47 36 49 68 50 48 51 67 52 49 53 52 54 66 55 85 56
REMARK SMILES IDX 50 57 51 58 65 60 86 61 53 62 37 63 38 64 46 65 39 66 40 67
REMARK SMILES IDX 44 68 47 69 41 70 42 71 45 72 43 73 69 74 70 75 78 76 71 77
REMARK SMILES IDX 72 78 76 79 79 80 73 81 74 82 77 83 75 84 54 85 55 86 63 87
REMARK SMILES IDX 56 88 57 89 61 90 64 91 58 92 59 93 62 94 60 95
REMARK H PARENT 21 6 25 29 84 48 52 59
REMARK Flexibility Score: inf
ROOT
ATOM      1  C   UNL A   1      32.099  30.088  25.483  1.00  0.00     0.042 C 
ENDROOT
BRANCH   1   2
ATOM      2  C   UNL A   1      33.285  29.162  25.222  1.00  0.00     0.117 C 
BRANCH   2   3
ATOM      3  N   UNL A   1      33.752  29.327  23.857  1.00  0.00    -0.355 N 
ATOM      4  C   UNL A   1      33.560  28.480  22.797  1.00  0.00     0.229 C 
ATOM      5  O   UNL A   1      34.348  28.546  21.852  1.00  0.00    -0.274 OA
ATOM      6  H   UNL A   1      34.268  30.145  23.670  1.00  0.00     0.163 HD
BRANCH   4   7
ATOM      7  C   UNL A   1      32.353  27.518  22.867  1.00  0.00     0.086 C 
ATOM      8  N   UNL A   1      30.135  28.645  22.971  1.00  0.00    -0.201 NA
ATOM      9  C   UNL A   1      29.908  27.226  23.128  1.00  0.00     0.108 C 
ATOM     10  C   UNL A   1      31.486  28.830  22.376  1.00  0.00     0.121 C 
ATOM     11  C   UNL A   1      31.109  26.684  22.383  1.00  0.00     0.042 C 
ATOM     12  C   UNL A   1      31.332  25.225  22.666  1.00  0.00     0.126 C 
ATOM     13  C   UNL A   1      33.299  26.418  22.151  1.00  0.00     0.138 C 
ATOM     14  N   UNL A   1      32.747  25.113  22.535  1.00  0.00    -0.334 N 
BRANCH   8  15
ATOM     15  S   UNL A   1      28.887  29.712  22.671  1.00  0.00     0.211 S 
ATOM     16  C   UNL A   1      27.426  28.794  23.125  1.00  0.00     0.176 C 
ATOM     17  O   UNL A   1      28.846  29.959  21.249  1.00  0.00    -0.213 OA
ATOM     18  O   UNL A   1      29.019  30.798  23.623  1.00  0.00    -0.213 OA
ENDBRANCH   8  15
BRANCH  14  19
ATOM     19  C   UNL A   1      33.334  23.940  22.996  1.00  0.00     0.289 C 
ATOM     20  O   UNL A   1      34.272  23.445  22.365  1.00  0.00    -0.265 OA
BRANCH  19  21
ATOM     21  C   UNL A   1      32.716  23.212  24.079  1.00  0.00     0.191 A 
ATOM     22  C   UNL A   1      32.174  21.939  24.057  1.00  0.00     0.056 A 
ATOM     23  O   UNL A   1      32.676  23.707  25.352  1.00  0.00    -0.459 OA
ATOM     24  C   UNL A   1      31.778  21.640  25.379  1.00  0.00     0.043 A 
ATOM     25  C   UNL A   1      32.136  22.731  26.136  1.00  0.00     0.196 A 
ENDBRANCH  19  21
ENDBRANCH  14  19
ENDBRANCH   4   7
ENDBRANCH   2   3
ENDBRANCH   1   2
BRANCH   1  26
ATOM     26  C   UNL A   1      32.058  30.685  26.886  1.00  0.00     0.118 C 
BRANCH  26  27
ATOM     27  N   UNL A   1      32.295  32.117  26.852  1.00  0.00    -0.352 N 
ATOM     28  C   UNL A   1      33.220  32.879  27.520  1.00  0.00     0.251 C 
ATOM     29  H   UNL A   1      31.696  32.621  26.255  1.00  0.00     0.163 HD
ATOM     30  O   UNL A   1      33.016  34.087  27.625  1.00  0.00    -0.269 OA
BRANCH  28  31
ATOM     31  C   UNL A   1      34.455  32.299  28.113  1.00  0.00     0.039 A 
ATOM     32  C   UNL A   1      34.432  30.955  28.504  1.00  0.00     0.014 A 
ATOM     33  C   UNL A   1      35.585  33.068  28.405  1.00  0.00     0.014 A 
ATOM     34  C   UNL A   1      35.528  30.388  29.165  1.00  0.00     0.010 A 
ATOM     35  C   UNL A   1      36.713  32.480  28.983  1.00  0.00     0.010 A 
ATOM     36  C   UNL A   1      36.689  31.140  29.400  1.00  0.00    -0.014 A 
BRANCH  36  37
ATOM     37  C   UNL A   1      37.855  30.557  30.121  1.00  0.00     0.031 A 
ATOM     38  C   UNL A   1      38.123  30.920  31.561  1.00  0.00     0.074 A 
ATOM     39  C   UNL A   1      38.697  29.721  29.481  1.00  0.00     0.049 A 
ATOM     40  N   UNL A   1      39.116  30.563  32.338  1.00  0.00    -0.248 NA
ATOM     41  C   UNL A   1      37.157  31.822  32.207  1.00  0.00     0.031 C 
ATOM     42  C   UNL A   1      38.569  29.299  28.086  1.00  0.00     0.029 A 
ATOM     43  N   UNL A   1      39.830  29.079  29.919  1.00  0.00    -0.354 N 
ATOM     44  C   UNL A   1      38.903  31.209  33.551  1.00  0.00     0.074 A 
ATOM     45  C   UNL A   1      37.717  32.020  33.392  1.00  0.00     0.031 C 
ATOM     46  C   UNL A   1      39.567  28.453  27.789  1.00  0.00     0.029 A 
ATOM     47  C   UNL A   1      40.433  28.305  28.956  1.00  0.00     0.049 A 
ATOM     48  H   UNL A   1      40.178  29.166  30.835  1.00  0.00     0.167 HD
ATOM     49  C   UNL A   1      39.616  31.116  34.700  1.00  0.00     0.037 A 
ATOM     50  C   UNL A   1      41.560  27.570  29.002  1.00  0.00     0.037 A 
ATOM     51  C   UNL A   1      40.783  30.289  34.869  1.00  0.00     0.049 A 
ATOM     52  C   UNL A   1      42.353  27.512  30.282  1.00  0.00     0.074 A 
ATOM     53  C   UNL A   1      41.542  30.090  36.009  1.00  0.00     0.029 A 
ATOM     54  N   UNL A   1      41.364  29.527  33.867  1.00  0.00    -0.354 N 
ATOM     55  N   UNL A   1      42.108  28.083  31.437  1.00  0.00    -0.248 NA
ATOM     56  C   UNL A   1      43.580  26.702  30.264  1.00  0.00     0.031 C 
ATOM     57  C   UNL A   1      42.616  29.257  35.682  1.00  0.00     0.029 A 
ATOM     58  C   UNL A   1      42.489  28.880  34.356  1.00  0.00     0.049 A 
ATOM     59  H   UNL A   1      41.028  29.455  32.944  1.00  0.00     0.167 HD
ATOM     60  C   UNL A   1      43.127  27.674  32.288  1.00  0.00     0.074 A 
ATOM     61  C   UNL A   1      43.984  26.795  31.522  1.00  0.00     0.031 C 
ATOM     62  C   UNL A   1      43.331  27.998  33.589  1.00  0.00     0.037 A 
BRANCH  49  63
ATOM     63  C   UNL A   1      39.160  31.938  35.875  1.00  0.00     0.064 A 
ATOM     64  C   UNL A   1      38.281  31.423  36.840  1.00  0.00     0.173 A 
ATOM     65  C   UNL A   1      39.647  33.240  36.065  1.00  0.00     0.173 A 
ATOM     66  F   UNL A   1      37.778  30.187  36.705  1.00  0.00    -0.203 F 
ATOM     67  C   UNL A   1      37.883  32.191  37.932  1.00  0.00     0.198 A 
ATOM     68  C   UNL A   1      39.275  33.993  37.176  1.00  0.00     0.198 A 
ATOM     69  F   UNL A   1      40.498  33.780  35.180  1.00  0.00    -0.203 F 
ATOM     70  F   UNL A   1      37.001  31.696  38.812  1.00  0.00    -0.200 F 
ATOM     71  C   UNL A   1      38.386  33.472  38.104  1.00  0.00     0.200 A 
ATOM     72  F   UNL A   1      39.778  35.223  37.350  1.00  0.00    -0.200 F 
ATOM     73  F   UNL A   1      38.011  34.206  39.160  1.00  0.00    -0.200 F 
ENDBRANCH  49  63
BRANCH  50  74
ATOM     74  C   UNL A   1      42.007  26.813  27.801  1.00  0.00     0.064 A 
ATOM     75  C   UNL A   1      41.588  25.493  27.584  1.00  0.00     0.173 A 
ATOM     76  C   UNL A   1      42.874  27.385  26.858  1.00  0.00     0.173 A 
ATOM     77  F   UNL A   1      40.776  24.895  28.469  1.00  0.00    -0.203 F 
ATOM     78  C   UNL A   1      42.037  24.766  26.485  1.00  0.00     0.198 A 
ATOM     79  C   UNL A   1      43.296  26.667  25.741  1.00  0.00     0.198 A 
ATOM     80  F   UNL A   1      43.302  28.645  27.017  1.00  0.00    -0.203 F 
ATOM     81  F   UNL A   1      41.664  23.488  26.333  1.00  0.00    -0.200 F 
ATOM     82  C   UNL A   1      42.886  25.355  25.561  1.00  0.00     0.200 A 
ATOM     83  F   UNL A   1      44.105  27.245  24.843  1.00  0.00    -0.200 F 
ATOM     84  F   UNL A   1      43.318  24.655  24.502  1.00  0.00    -0.200 F 
ENDBRANCH  50  74
BRANCH  62  85
ATOM     85  C   UNL A   1      44.503  27.364  34.285  1.00  0.00     0.064 A 
ATOM     86  C   UNL A   1      44.406  26.113  34.914  1.00  0.00     0.173 A 
ATOM     87  C   UNL A   1      45.753  28.003  34.292  1.00  0.00     0.173 A 
ATOM     88  F   UNL A   1      43.231  25.466  34.949  1.00  0.00    -0.203 F 
ATOM     89  C   UNL A   1      45.506  25.541  35.545  1.00  0.00     0.198 A 
ATOM     90  C   UNL A   1      46.860  27.411  34.893  1.00  0.00     0.198 A 
ATOM     91  F   UNL A   1      45.906  29.197  33.699  1.00  0.00    -0.203 F 
ATOM     92  F   UNL A   1      45.376  24.371  36.185  1.00  0.00    -0.200 F 
ATOM     93  C   UNL A   1      46.735  26.186  35.528  1.00  0.00     0.200 A 
ATOM     94  F   UNL A   1      48.049  28.029  34.859  1.00  0.00    -0.200 F 
ATOM     95  F   UNL A   1      47.795  25.629  36.130  1.00  0.00    -0.200 F 
ENDBRANCH  62  85
ENDBRANCH  36  37
ENDBRANCH  28  31
ENDBRANCH  26  27
ENDBRANCH   1  26
TORSDOF 13
ENDMDL
