MODEL 1
REMARK VINA RESULT:     -11.0      0.000      0.000
REMARK SMILES COC(=O)[C@H]1CC[C@]2(C)[C@H]3CC=C4[C@@H]5CC(C)(C)CC[C@@]5(C(=O)NCCCNC(=O)c5ccc(-c6c7nc(c(-c8c(F)c(F)c(F)c(F)c8F)c8ccc([nH]8)c(-c8c(F)c(F)c(F)c(F)c8F)c8nc(c(-c9c(F)c(F)c(F)c(F)c9F)c9ccc6[nH]9)C=C8)C=C7)cc5)CC[C@@]4(C)[C@@]3(C)CC[C@H]2C1(C)C
REMARK SMILES IDX 26 1 25 2 24 3 22 4 23 5 21 7 5 8 6 9 103 10 7 11 102 12
REMARK SMILES IDX 104 13 105 14 8 15 101 16 9 17 10 18 100 19 11 20 98 21
REMARK SMILES IDX 12 22 96 23 99 24 13 25 95 26 97 27 14 28 94 29 15 30 16 31
REMARK SMILES IDX 20 32 17 33 18 34 19 35 3 36 4 37 2 38 1 39 27 40 28 41
REMARK SMILES IDX 29 42 30 44 31 45 32 46 93 47 33 48 92 49 34 50 35 51 36 52
REMARK SMILES IDX 86 53 37 54 91 55 85 56 87 57 38 58 90 59 84 60 83 61 39 63
REMARK SMILES IDX 71 64 51 65 70 66 52 67 55 68 69 69 88 70 53 71 54 72 68 74
REMARK SMILES IDX 89 75 56 76 40 77 41 78 49 79 42 80 43 81 47 82 50 83 44 84
REMARK SMILES IDX 45 85 48 86 46 87 72 88 73 89 81 90 74 91 75 92 79 93 82 94
REMARK SMILES IDX 76 95 77 96 80 97 78 98 57 99 58 100 66 101 59 102 60 103
REMARK SMILES IDX 64 104 67 105 61 106 62 107 65 108 63 109
REMARK H PARENT 24 6 28 43 87 62 55 73
REMARK Flexibility Score: inf
ROOT
ATOM      1  C   UNL A   1      39.498  25.363  28.388  1.00  0.00     0.042 C 
ENDROOT
BRANCH   1   2
ATOM      2  C   UNL A   1      39.209  26.680  29.112  1.00  0.00     0.117 C 
BRANCH   2   3
ATOM      3  N   UNL A   1      40.285  27.187  29.946  1.00  0.00    -0.356 N 
ATOM      4  C   UNL A   1      40.954  28.380  29.988  1.00  0.00     0.226 C 
ATOM      5  O   UNL A   1      42.008  28.354  30.638  1.00  0.00    -0.274 OA
ATOM      6  H   UNL A   1      40.598  26.538  30.617  1.00  0.00     0.163 HD
BRANCH   4   7
ATOM      7  C   UNL A   1      40.461  29.707  29.337  1.00  0.00     0.056 C 
ATOM      8  C   UNL A   1      34.811  34.585  32.613  1.00  0.00     0.105 C 
ATOM      9  C   UNL A   1      35.446  34.583  34.047  1.00  0.00     0.016 C 
ATOM     10  C   UNL A   1      35.591  33.868  31.440  1.00  0.00    -0.019 C 
ATOM     11  C   UNL A   1      36.945  34.201  34.209  1.00  0.00     0.008 C 
ATOM     12  C   UNL A   1      37.111  33.806  31.844  1.00  0.00     0.002 C 
ATOM     13  C   UNL A   1      34.991  32.502  30.991  1.00  0.00     0.012 C 
ATOM     14  C   UNL A   1      35.418  34.746  30.161  1.00  0.00     0.012 C 
ATOM     15  C   UNL A   1      37.389  33.087  33.210  1.00  0.00    -0.026 C 
ATOM     16  C   UNL A   1      38.056  33.395  30.739  1.00  0.00     0.005 C 
ATOM     17  C   UNL A   1      36.433  31.911  33.557  1.00  0.00     0.012 C 
ATOM     18  C   UNL A   1      38.939  32.610  33.467  1.00  0.00     0.006 C 
ATOM     19  C   UNL A   1      39.505  33.679  31.093  1.00  0.00     0.008 C 
ATOM     20  C   UNL A   1      39.028  31.077  33.886  1.00  0.00     0.032 C 
ATOM     21  C   UNL A   1      40.087  32.939  32.326  1.00  0.00    -0.020 C 
ATOM     22  C   UNL A   1      38.989  30.211  32.656  1.00  0.00    -0.027 C 
ATOM     23  C   UNL A   1      40.886  31.571  31.881  1.00  0.00    -0.006 C 
ATOM     24  C   UNL A   1      41.098  33.950  32.949  1.00  0.00     0.012 C 
ATOM     25  C   UNL A   1      39.745  30.583  31.609  1.00  0.00    -0.064 C 
ATOM     26  C   UNL A   1      41.888  31.591  30.664  1.00  0.00     0.013 C 
ATOM     27  C   UNL A   1      41.863  31.135  33.050  1.00  0.00     0.017 C 
ATOM     28  C   UNL A   1      39.354  30.359  30.143  1.00  0.00     0.031 C 
ATOM     29  C   UNL A   1      41.615  30.789  29.365  1.00  0.00     0.018 C 
ATOM     30  C   UNL A   1      37.934  29.856  29.854  1.00  0.00     0.015 C 
ATOM     31  C   UNL A   1      37.544  29.902  28.349  1.00  0.00    -0.035 C 
ATOM     32  C   UNL A   1      40.100  29.535  27.833  1.00  0.00     0.018 C 
ATOM     33  C   UNL A   1      36.237  29.095  28.171  1.00  0.00     0.011 C 
ATOM     34  C   UNL A   1      37.239  31.346  27.887  1.00  0.00     0.011 C 
ATOM     35  C   UNL A   1      38.638  29.327  27.420  1.00  0.00     0.007 C 
BRANCH   8  36
ATOM     36  C   UNL A   1      33.338  34.159  32.612  1.00  0.00     0.309 C 
ATOM     37  O   UNL A   1      32.911  33.206  33.251  1.00  0.00    -0.252 OA
BRANCH  36  38
ATOM     38  O   UNL A   1      32.554  35.054  31.952  1.00  0.00    -0.469 OA
ATOM     39  C   UNL A   1      32.805  36.426  32.266  1.00  0.00     0.282 C 
ENDBRANCH  36  38
ENDBRANCH   8  36
ENDBRANCH   4   7
ENDBRANCH   2   3
ENDBRANCH   1   2
BRANCH   1  40
ATOM     40  C   UNL A   1      40.700  25.426  27.438  1.00  0.00     0.118 C 
BRANCH  40  41
ATOM     41  N   UNL A   1      41.319  24.141  27.114  1.00  0.00    -0.352 N 
ATOM     42  C   UNL A   1      42.610  23.760  26.802  1.00  0.00     0.251 C 
ATOM     43  H   UNL A   1      40.683  23.390  27.123  1.00  0.00     0.163 HD
ATOM     44  O   UNL A   1      42.850  22.583  26.594  1.00  0.00    -0.269 OA
BRANCH  42  45
ATOM     45  C   UNL A   1      43.692  24.763  26.631  1.00  0.00     0.039 A 
ATOM     46  C   UNL A   1      43.869  25.356  25.374  1.00  0.00     0.014 A 
ATOM     47  C   UNL A   1      44.520  25.145  27.679  1.00  0.00     0.014 A 
ATOM     48  C   UNL A   1      44.784  26.405  25.212  1.00  0.00     0.010 A 
ATOM     49  C   UNL A   1      45.332  26.267  27.552  1.00  0.00     0.010 A 
ATOM     50  C   UNL A   1      45.470  26.922  26.321  1.00  0.00    -0.014 A 
BRANCH  50  51
ATOM     51  C   UNL A   1      46.324  28.141  26.246  1.00  0.00     0.031 A 
ATOM     52  C   UNL A   1      47.806  28.012  25.997  1.00  0.00     0.074 A 
ATOM     53  C   UNL A   1      45.801  29.350  26.541  1.00  0.00     0.049 A 
ATOM     54  N   UNL A   1      48.754  28.907  26.124  1.00  0.00    -0.248 NA
ATOM     55  C   UNL A   1      48.296  26.676  25.620  1.00  0.00     0.031 C 
ATOM     56  C   UNL A   1      44.401  29.614  26.878  1.00  0.00     0.029 A 
ATOM     57  N   UNL A   1      46.396  30.586  26.624  1.00  0.00    -0.354 N 
ATOM     58  C   UNL A   1      49.946  28.228  25.907  1.00  0.00     0.074 A 
ATOM     59  C   UNL A   1      49.608  26.838  25.701  1.00  0.00     0.031 C 
ATOM     60  C   UNL A   1      44.236  30.929  27.093  1.00  0.00     0.029 A 
ATOM     61  C   UNL A   1      45.525  31.596  26.958  1.00  0.00     0.049 A 
ATOM     62  H   UNL A   1      47.355  30.734  26.460  1.00  0.00     0.167 HD
ATOM     63  C   UNL A   1      51.207  28.722  25.855  1.00  0.00     0.037 A 
ATOM     64  C   UNL A   1      45.744  32.912  27.141  1.00  0.00     0.037 A 
ATOM     65  C   UNL A   1      51.529  30.119  25.967  1.00  0.00     0.049 A 
ATOM     66  C   UNL A   1      47.139  33.451  26.983  1.00  0.00     0.074 A 
ATOM     67  C   UNL A   1      52.760  30.736  25.835  1.00  0.00     0.029 A 
ATOM     68  N   UNL A   1      50.602  31.122  26.210  1.00  0.00    -0.354 N 
ATOM     69  N   UNL A   1      48.251  32.807  26.730  1.00  0.00    -0.248 NA
ATOM     70  C   UNL A   1      47.309  34.905  27.129  1.00  0.00     0.031 C 
ATOM     71  C   UNL A   1      52.582  32.112  26.018  1.00  0.00     0.029 A 
ATOM     72  C   UNL A   1      51.233  32.355  26.225  1.00  0.00     0.049 A 
ATOM     73  H   UNL A   1      49.639  30.978  26.351  1.00  0.00     0.167 HD
ATOM     74  C   UNL A   1      49.243  33.775  26.651  1.00  0.00     0.074 A 
ATOM     75  C   UNL A   1      48.601  35.052  26.873  1.00  0.00     0.031 C 
ATOM     76  C   UNL A   1      50.569  33.618  26.418  1.00  0.00     0.037 A 
BRANCH  63  77
ATOM     77  C   UNL A   1      52.330  27.745  25.637  1.00  0.00     0.064 A 
ATOM     78  C   UNL A   1      52.921  27.050  26.704  1.00  0.00     0.173 A 
ATOM     79  C   UNL A   1      52.809  27.485  24.344  1.00  0.00     0.173 A 
ATOM     80  F   UNL A   1      52.507  27.266  27.961  1.00  0.00    -0.203 F 
ATOM     81  C   UNL A   1      53.977  26.167  26.490  1.00  0.00     0.198 A 
ATOM     82  C   UNL A   1      53.841  26.574  24.130  1.00  0.00     0.198 A 
ATOM     83  F   UNL A   1      52.277  28.113  23.284  1.00  0.00    -0.203 F 
ATOM     84  F   UNL A   1      54.566  25.568  27.534  1.00  0.00    -0.200 F 
ATOM     85  C   UNL A   1      54.432  25.925  25.205  1.00  0.00     0.200 A 
ATOM     86  F   UNL A   1      54.271  26.328  22.884  1.00  0.00    -0.200 F 
ATOM     87  F   UNL A   1      55.446  25.073  25.001  1.00  0.00    -0.200 F 
ENDBRANCH  63  77
BRANCH  64  88
ATOM     88  C   UNL A   1      44.606  33.822  27.437  1.00  0.00     0.064 A 
ATOM     89  C   UNL A   1      44.134  33.968  28.750  1.00  0.00     0.173 A 
ATOM     90  C   UNL A   1      43.968  34.561  26.430  1.00  0.00     0.173 A 
ATOM     91  F   UNL A   1      44.701  33.269  29.745  1.00  0.00    -0.203 F 
ATOM     92  C   UNL A   1      43.055  34.799  29.042  1.00  0.00     0.198 A 
ATOM     93  C   UNL A   1      42.905  35.413  26.727  1.00  0.00     0.198 A 
ATOM     94  F   UNL A   1      44.386  34.465  25.160  1.00  0.00    -0.203 F 
ATOM     95  F   UNL A   1      42.597  34.883  30.298  1.00  0.00    -0.200 F 
ATOM     96  C   UNL A   1      42.444  35.524  28.031  1.00  0.00     0.200 A 
ATOM     97  F   UNL A   1      42.327  36.125  25.751  1.00  0.00    -0.200 F 
ATOM     98  F   UNL A   1      41.407  36.326  28.311  1.00  0.00    -0.200 F 
ENDBRANCH  64  88
BRANCH  76  99
ATOM     99  C   UNL A   1      51.404  34.860  26.331  1.00  0.00     0.064 A 
ATOM    100  C   UNL A   1      52.014  35.420  27.462  1.00  0.00     0.173 A 
ATOM    101  C   UNL A   1      51.632  35.472  25.089  1.00  0.00     0.173 A 
ATOM    102  F   UNL A   1      51.814  34.880  28.674  1.00  0.00    -0.203 F 
ATOM    103  C   UNL A   1      52.805  36.560  27.356  1.00  0.00     0.198 A 
ATOM    104  C   UNL A   1      52.445  36.594  24.982  1.00  0.00     0.198 A 
ATOM    105  F   UNL A   1      51.074  34.969  23.977  1.00  0.00    -0.203 F 
ATOM    106  F   UNL A   1      53.344  37.103  28.456  1.00  0.00    -0.200 F 
ATOM    107  C   UNL A   1      53.026  37.142  26.116  1.00  0.00     0.200 A 
ATOM    108  F   UNL A   1      52.669  37.147  23.782  1.00  0.00    -0.200 F 
ATOM    109  F   UNL A   1      53.796  38.234  26.015  1.00  0.00    -0.200 F 
ENDBRANCH  76  99
ENDBRANCH  50  51
ENDBRANCH  42  45
ENDBRANCH  40  41
ENDBRANCH   1  40
TORSDOF 12
ENDMDL
MODEL 2
REMARK VINA RESULT:     -10.9      5.479     12.087
REMARK SMILES COC(=O)[C@H]1CC[C@]2(C)[C@H]3CC=C4[C@@H]5CC(C)(C)CC[C@@]5(C(=O)NCCCNC(=O)c5ccc(-c6c7nc(c(-c8c(F)c(F)c(F)c(F)c8F)c8ccc([nH]8)c(-c8c(F)c(F)c(F)c(F)c8F)c8nc(c(-c9c(F)c(F)c(F)c(F)c9F)c9ccc6[nH]9)C=C8)C=C7)cc5)CC[C@@]4(C)[C@@]3(C)CC[C@H]2C1(C)C
REMARK SMILES IDX 26 1 25 2 24 3 22 4 23 5 21 7 5 8 6 9 103 10 7 11 102 12
REMARK SMILES IDX 104 13 105 14 8 15 101 16 9 17 10 18 100 19 11 20 98 21
REMARK SMILES IDX 12 22 96 23 99 24 13 25 95 26 97 27 14 28 94 29 15 30 16 31
REMARK SMILES IDX 20 32 17 33 18 34 19 35 3 36 4 37 2 38 1 39 27 40 28 41
REMARK SMILES IDX 29 42 30 44 31 45 32 46 93 47 33 48 92 49 34 50 35 51 36 52
REMARK SMILES IDX 86 53 37 54 91 55 85 56 87 57 38 58 90 59 84 60 83 61 39 63
REMARK SMILES IDX 71 64 51 65 70 66 52 67 55 68 69 69 88 70 53 71 54 72 68 74
REMARK SMILES IDX 89 75 56 76 40 77 41 78 49 79 42 80 43 81 47 82 50 83 44 84
REMARK SMILES IDX 45 85 48 86 46 87 72 88 73 89 81 90 74 91 75 92 79 93 82 94
REMARK SMILES IDX 76 95 77 96 80 97 78 98 57 99 58 100 66 101 59 102 60 103
REMARK SMILES IDX 64 104 67 105 61 106 62 107 65 108 63 109
REMARK H PARENT 24 6 28 43 87 62 55 73
REMARK Flexibility Score: inf
ROOT
ATOM      1  C   UNL A   1      47.480  33.082  28.208  1.00  0.00     0.042 C 
ENDROOT
BRANCH   1   2
ATOM      2  C   UNL A   1      48.152  31.953  27.422  1.00  0.00     0.117 C 
BRANCH   2   3
ATOM      3  N   UNL A   1      47.303  31.259  26.470  1.00  0.00    -0.356 N 
ATOM      4  C   UNL A   1      46.843  29.974  26.389  1.00  0.00     0.226 C 
ATOM      5  O   UNL A   1      46.378  29.664  25.284  1.00  0.00    -0.274 OA
ATOM      6  H   UNL A   1      46.996  31.833  25.730  1.00  0.00     0.163 HD
BRANCH   4   7
ATOM      7  C   UNL A   1      46.833  28.951  27.565  1.00  0.00     0.056 C 
ATOM      8  C   UNL A   1      40.858  28.385  33.082  1.00  0.00     0.105 C 
ATOM      9  C   UNL A   1      39.698  28.405  32.027  1.00  0.00     0.016 C 
ATOM     10  C   UNL A   1      42.350  28.333  32.563  1.00  0.00    -0.019 C 
ATOM     11  C   UNL A   1      40.012  28.028  30.551  1.00  0.00     0.008 C 
ATOM     12  C   UNL A   1      42.331  27.731  31.108  1.00  0.00     0.002 C 
ATOM     13  C   UNL A   1      43.138  29.671  32.693  1.00  0.00     0.012 C 
ATOM     14  C   UNL A   1      43.142  27.385  33.517  1.00  0.00     0.012 C 
ATOM     15  C   UNL A   1      41.423  28.514  30.097  1.00  0.00    -0.026 C 
ATOM     16  C   UNL A   1      43.683  27.358  30.547  1.00  0.00     0.005 C 
ATOM     17  C   UNL A   1      41.345  30.052  30.314  1.00  0.00     0.012 C 
ATOM     18  C   UNL A   1      41.697  28.213  28.506  1.00  0.00     0.006 C 
ATOM     19  C   UNL A   1      43.564  26.489  29.307  1.00  0.00     0.008 C 
ATOM     20  C   UNL A   1      41.908  29.554  27.674  1.00  0.00     0.032 C 
ATOM     21  C   UNL A   1      42.850  27.109  28.078  1.00  0.00    -0.020 C 
ATOM     22  C   UNL A   1      43.334  30.016  27.809  1.00  0.00    -0.027 C 
ATOM     23  C   UNL A   1      43.930  27.764  27.023  1.00  0.00    -0.006 C 
ATOM     24  C   UNL A   1      42.124  25.908  27.398  1.00  0.00     0.012 C 
ATOM     25  C   UNL A   1      44.302  29.091  27.695  1.00  0.00    -0.064 C 
ATOM     26  C   UNL A   1      45.235  26.974  26.624  1.00  0.00     0.013 C 
ATOM     27  C   UNL A   1      43.244  27.920  25.604  1.00  0.00     0.017 C 
ATOM     28  C   UNL A   1      45.627  29.133  28.467  1.00  0.00     0.031 C 
ATOM     29  C   UNL A   1      46.649  27.482  27.007  1.00  0.00     0.018 C 
ATOM     30  C   UNL A   1      45.774  30.186  29.572  1.00  0.00     0.015 C 
ATOM     31  C   UNL A   1      47.034  29.991  30.463  1.00  0.00    -0.035 C 
ATOM     32  C   UNL A   1      48.179  28.925  28.345  1.00  0.00     0.018 C 
ATOM     33  C   UNL A   1      47.218  31.270  31.314  1.00  0.00     0.011 C 
ATOM     34  C   UNL A   1      46.849  28.822  31.458  1.00  0.00     0.011 C 
ATOM     35  C   UNL A   1      48.320  29.723  29.647  1.00  0.00     0.007 C 
BRANCH   8  36
ATOM     36  C   UNL A   1      40.705  29.465  34.158  1.00  0.00     0.309 C 
ATOM     37  O   UNL A   1      40.503  30.647  33.905  1.00  0.00    -0.252 OA
BRANCH  36  38
ATOM     38  O   UNL A   1      40.663  28.931  35.408  1.00  0.00    -0.469 OA
ATOM     39  C   UNL A   1      41.853  29.106  36.182  1.00  0.00     0.282 C 
ENDBRANCH  36  38
ENDBRANCH   8  36
ENDBRANCH   4   7
ENDBRANCH   2   3
ENDBRANCH   1   2
BRANCH   1  40
ATOM     40  C   UNL A   1      47.600  34.459  27.544  1.00  0.00     0.118 C 
BRANCH  40  41
ATOM     41  N   UNL A   1      46.792  34.653  26.339  1.00  0.00    -0.352 N 
ATOM     42  C   UNL A   1      45.436  34.800  26.118  1.00  0.00     0.251 C 
ATOM     43  H   UNL A   1      47.327  34.689  25.514  1.00  0.00     0.163 HD
ATOM     44  O   UNL A   1      45.034  34.974  24.981  1.00  0.00    -0.269 OA
BRANCH  42  45
ATOM     45  C   UNL A   1      44.454  34.666  27.224  1.00  0.00     0.039 A 
ATOM     46  C   UNL A   1      44.051  33.382  27.615  1.00  0.00     0.014 A 
ATOM     47  C   UNL A   1      43.936  35.768  27.892  1.00  0.00     0.014 A 
ATOM     48  C   UNL A   1      43.237  33.213  28.743  1.00  0.00     0.010 A 
ATOM     49  C   UNL A   1      43.237  35.596  29.082  1.00  0.00     0.010 A 
ATOM     50  C   UNL A   1      42.885  34.317  29.533  1.00  0.00    -0.014 A 
BRANCH  50  51
ATOM     51  C   UNL A   1      42.167  34.184  30.833  1.00  0.00     0.031 A 
ATOM     52  C   UNL A   1      42.937  33.871  32.092  1.00  0.00     0.074 A 
ATOM     53  C   UNL A   1      40.818  34.201  30.864  1.00  0.00     0.049 A 
ATOM     54  N   UNL A   1      42.496  33.489  33.264  1.00  0.00    -0.248 NA
ATOM     55  C   UNL A   1      44.404  33.932  31.998  1.00  0.00     0.031 C 
ATOM     56  C   UNL A   1      39.942  34.414  29.710  1.00  0.00     0.029 A 
ATOM     57  N   UNL A   1      39.944  34.015  31.907  1.00  0.00    -0.354 N 
ATOM     58  C   UNL A   1      43.627  33.203  34.018  1.00  0.00     0.074 A 
ATOM     59  C   UNL A   1      44.770  33.398  33.154  1.00  0.00     0.031 C 
ATOM     60  C   UNL A   1      38.662  34.386  30.114  1.00  0.00     0.029 A 
ATOM     61  C   UNL A   1      38.622  34.104  31.543  1.00  0.00     0.049 A 
ATOM     62  H   UNL A   1      40.238  33.835  32.829  1.00  0.00     0.167 HD
ATOM     63  C   UNL A   1      43.710  32.840  35.322  1.00  0.00     0.037 A 
ATOM     64  C   UNL A   1      37.502  33.967  32.279  1.00  0.00     0.037 A 
ATOM     65  C   UNL A   1      42.577  32.739  36.202  1.00  0.00     0.049 A 
ATOM     66  C   UNL A   1      37.624  33.658  33.746  1.00  0.00     0.074 A 
ATOM     67  C   UNL A   1      42.558  32.472  37.559  1.00  0.00     0.029 A 
ATOM     68  N   UNL A   1      41.260  32.932  35.812  1.00  0.00    -0.354 N 
ATOM     69  N   UNL A   1      38.701  33.438  34.459  1.00  0.00    -0.248 NA
ATOM     70  C   UNL A   1      36.372  33.586  34.515  1.00  0.00     0.031 C 
ATOM     71  C   UNL A   1      41.226  32.483  37.988  1.00  0.00     0.029 A 
ATOM     72  C   UNL A   1      40.420  32.796  36.905  1.00  0.00     0.049 A 
ATOM     73  H   UNL A   1      40.966  33.135  34.895  1.00  0.00     0.167 HD
ATOM     74  C   UNL A   1      38.263  33.237  35.761  1.00  0.00     0.074 A 
ATOM     75  C   UNL A   1      36.822  33.371  35.743  1.00  0.00     0.031 C 
ATOM     76  C   UNL A   1      38.990  32.963  36.871  1.00  0.00     0.037 A 
BRANCH  63  77
ATOM     77  C   UNL A   1      45.077  32.555  35.881  1.00  0.00     0.064 A 
ATOM     78  C   UNL A   1      45.636  31.268  35.843  1.00  0.00     0.173 A 
ATOM     79  C   UNL A   1      45.847  33.585  36.443  1.00  0.00     0.173 A 
ATOM     80  F   UNL A   1      44.940  30.245  35.324  1.00  0.00    -0.203 F 
ATOM     81  C   UNL A   1      46.893  31.014  36.388  1.00  0.00     0.198 A 
ATOM     82  C   UNL A   1      47.119  33.334  36.953  1.00  0.00     0.198 A 
ATOM     83  F   UNL A   1      45.369  34.837  36.497  1.00  0.00    -0.203 F 
ATOM     84  F   UNL A   1      47.373  29.763  36.399  1.00  0.00    -0.200 F 
ATOM     85  C   UNL A   1      47.635  32.046  36.936  1.00  0.00     0.200 A 
ATOM     86  F   UNL A   1      47.844  34.336  37.469  1.00  0.00    -0.200 F 
ATOM     87  F   UNL A   1      48.845  31.800  37.457  1.00  0.00    -0.200 F 
ENDBRANCH  63  77
BRANCH  64  88
ATOM     88  C   UNL A   1      36.170  34.179  31.655  1.00  0.00     0.064 A 
ATOM     89  C   UNL A   1      35.696  33.298  30.672  1.00  0.00     0.173 A 
ATOM     90  C   UNL A   1      35.345  35.253  32.019  1.00  0.00     0.173 A 
ATOM     91  F   UNL A   1      36.457  32.265  30.279  1.00  0.00    -0.203 F 
ATOM     92  C   UNL A   1      34.461  33.494  30.060  1.00  0.00     0.198 A 
ATOM     93  C   UNL A   1      34.096  35.434  31.426  1.00  0.00     0.198 A 
ATOM     94  F   UNL A   1      35.746  36.119  32.960  1.00  0.00    -0.203 F 
ATOM     95  F   UNL A   1      34.055  32.662  29.092  1.00  0.00    -0.200 F 
ATOM     96  C   UNL A   1      33.659  34.559  30.441  1.00  0.00     0.200 A 
ATOM     97  F   UNL A   1      33.316  36.454  31.806  1.00  0.00    -0.200 F 
ATOM     98  F   UNL A   1      32.468  34.747  29.855  1.00  0.00    -0.200 F 
ENDBRANCH  64  88
BRANCH  76  99
ATOM     99  C   UNL A   1      38.248  32.849  38.169  1.00  0.00     0.064 A 
ATOM    100  C   UNL A   1      38.264  33.878  39.120  1.00  0.00     0.173 A 
ATOM    101  C   UNL A   1      37.473  31.711  38.441  1.00  0.00     0.173 A 
ATOM    102  F   UNL A   1      39.002  34.979  38.912  1.00  0.00    -0.203 F 
ATOM    103  C   UNL A   1      37.548  33.762  40.309  1.00  0.00     0.198 A 
ATOM    104  C   UNL A   1      36.737  31.610  39.616  1.00  0.00     0.198 A 
ATOM    105  F   UNL A   1      37.421  30.703  37.557  1.00  0.00    -0.203 F 
ATOM    106  F   UNL A   1      37.611  34.739  41.224  1.00  0.00    -0.200 F 
ATOM    107  C   UNL A   1      36.780  32.633  40.552  1.00  0.00     0.200 A 
ATOM    108  F   UNL A   1      35.985  30.525  39.844  1.00  0.00    -0.200 F 
ATOM    109  F   UNL A   1      36.084  32.528  41.693  1.00  0.00    -0.200 F 
ENDBRANCH  76  99
ENDBRANCH  50  51
ENDBRANCH  42  45
ENDBRANCH  40  41
ENDBRANCH   1  40
TORSDOF 12
ENDMDL
MODEL 3
REMARK VINA RESULT:     -10.9      5.858     11.131
REMARK SMILES COC(=O)[C@H]1CC[C@]2(C)[C@H]3CC=C4[C@@H]5CC(C)(C)CC[C@@]5(C(=O)NCCCNC(=O)c5ccc(-c6c7nc(c(-c8c(F)c(F)c(F)c(F)c8F)c8ccc([nH]8)c(-c8c(F)c(F)c(F)c(F)c8F)c8nc(c(-c9c(F)c(F)c(F)c(F)c9F)c9ccc6[nH]9)C=C8)C=C7)cc5)CC[C@@]4(C)[C@@]3(C)CC[C@H]2C1(C)C
REMARK SMILES IDX 26 1 25 2 24 3 22 4 23 5 21 7 5 8 6 9 103 10 7 11 102 12
REMARK SMILES IDX 104 13 105 14 8 15 101 16 9 17 10 18 100 19 11 20 98 21
REMARK SMILES IDX 12 22 96 23 99 24 13 25 95 26 97 27 14 28 94 29 15 30 16 31
REMARK SMILES IDX 20 32 17 33 18 34 19 35 3 36 4 37 2 38 1 39 27 40 28 41
REMARK SMILES IDX 29 42 30 44 31 45 32 46 93 47 33 48 92 49 34 50 35 51 36 52
REMARK SMILES IDX 86 53 37 54 91 55 85 56 87 57 38 58 90 59 84 60 83 61 39 63
REMARK SMILES IDX 71 64 51 65 70 66 52 67 55 68 69 69 88 70 53 71 54 72 68 74
REMARK SMILES IDX 89 75 56 76 40 77 41 78 49 79 42 80 43 81 47 82 50 83 44 84
REMARK SMILES IDX 45 85 48 86 46 87 72 88 73 89 81 90 74 91 75 92 79 93 82 94
REMARK SMILES IDX 76 95 77 96 80 97 78 98 57 99 58 100 66 101 59 102 60 103
REMARK SMILES IDX 64 104 67 105 61 106 62 107 65 108 63 109
REMARK H PARENT 24 6 28 43 87 62 55 73
REMARK Flexibility Score: inf
ROOT
ATOM      1  C   UNL A   1      48.224  29.885  36.735  1.00  0.00     0.042 C 
ENDROOT
BRANCH   1   2
ATOM      2  C   UNL A   1      47.101  30.763  36.178  1.00  0.00     0.117 C 
BRANCH   2   3
ATOM      3  N   UNL A   1      47.508  32.071  35.696  1.00  0.00    -0.356 N 
ATOM      4  C   UNL A   1      46.944  32.966  34.829  1.00  0.00     0.226 C 
ATOM      5  O   UNL A   1      47.714  33.851  34.433  1.00  0.00    -0.274 OA
ATOM      6  H   UNL A   1      48.366  32.375  36.070  1.00  0.00     0.163 HD
BRANCH   4   7
ATOM      7  C   UNL A   1      45.454  32.956  34.375  1.00  0.00     0.056 C 
ATOM      8  C   UNL A   1      42.866  35.574  27.102  1.00  0.00     0.105 C 
ATOM      9  C   UNL A   1      43.958  34.801  26.284  1.00  0.00     0.016 C 
ATOM     10  C   UNL A   1      42.777  35.332  28.661  1.00  0.00    -0.019 C 
ATOM     11  C   UNL A   1      44.674  33.586  26.940  1.00  0.00     0.008 C 
ATOM     12  C   UNL A   1      43.429  33.932  28.966  1.00  0.00     0.002 C 
ATOM     13  C   UNL A   1      43.324  36.498  29.539  1.00  0.00     0.012 C 
ATOM     14  C   UNL A   1      41.264  35.307  29.043  1.00  0.00     0.012 C 
ATOM     15  C   UNL A   1      44.909  33.785  28.469  1.00  0.00    -0.026 C 
ATOM     16  C   UNL A   1      43.203  33.407  30.364  1.00  0.00     0.005 C 
ATOM     17  C   UNL A   1      45.768  35.081  28.521  1.00  0.00     0.012 C 
ATOM     18  C   UNL A   1      45.767  32.550  29.128  1.00  0.00     0.006 C 
ATOM     19  C   UNL A   1      43.558  31.935  30.484  1.00  0.00     0.008 C 
ATOM     20  C   UNL A   1      47.162  33.041  29.717  1.00  0.00     0.032 C 
ATOM     21  C   UNL A   1      45.033  31.541  30.211  1.00  0.00    -0.020 C 
ATOM     22  C   UNL A   1      46.959  33.606  31.097  1.00  0.00    -0.027 C 
ATOM     23  C   UNL A   1      45.897  31.447  31.609  1.00  0.00    -0.006 C 
ATOM     24  C   UNL A   1      44.948  30.127  29.559  1.00  0.00     0.012 C 
ATOM     25  C   UNL A   1      46.170  32.920  31.941  1.00  0.00    -0.064 C 
ATOM     26  C   UNL A   1      45.301  30.708  32.868  1.00  0.00     0.013 C 
ATOM     27  C   UNL A   1      47.200  30.583  31.358  1.00  0.00     0.017 C 
ATOM     28  C   UNL A   1      45.272  33.571  33.001  1.00  0.00     0.031 C 
ATOM     29  C   UNL A   1      44.955  31.468  34.174  1.00  0.00     0.018 C 
ATOM     30  C   UNL A   1      45.124  35.097  32.968  1.00  0.00     0.015 C 
ATOM     31  C   UNL A   1      44.007  35.641  33.905  1.00  0.00    -0.035 C 
ATOM     32  C   UNL A   1      44.500  33.564  35.446  1.00  0.00     0.018 C 
ATOM     33  C   UNL A   1      44.175  37.176  34.003  1.00  0.00     0.011 C 
ATOM     34  C   UNL A   1      42.600  35.387  33.315  1.00  0.00     0.011 C 
ATOM     35  C   UNL A   1      44.049  35.024  35.322  1.00  0.00     0.007 C 
BRANCH   8  36
ATOM     36  C   UNL A   1      42.841  37.076  26.793  1.00  0.00     0.309 C 
ATOM     37  O   UNL A   1      41.817  37.748  26.796  1.00  0.00    -0.252 OA
BRANCH  36  38
ATOM     38  O   UNL A   1      44.096  37.588  26.675  1.00  0.00    -0.469 OA
ATOM     39  C   UNL A   1      44.196  38.998  26.886  1.00  0.00     0.282 C 
ENDBRANCH  36  38
ENDBRANCH   8  36
ENDBRANCH   4   7
ENDBRANCH   2   3
ENDBRANCH   1   2
BRANCH   1  40
ATOM     40  C   UNL A   1      47.753  28.853  37.767  1.00  0.00     0.118 C 
BRANCH  40  41
ATOM     41  N   UNL A   1      48.146  27.468  37.503  1.00  0.00    -0.352 N 
ATOM     42  C   UNL A   1      47.712  26.511  36.606  1.00  0.00     0.251 C 
ATOM     43  H   UNL A   1      48.875  27.153  38.086  1.00  0.00     0.163 HD
ATOM     44  O   UNL A   1      48.251  25.418  36.594  1.00  0.00    -0.269 OA
BRANCH  42  45
ATOM     45  C   UNL A   1      46.548  26.758  35.716  1.00  0.00     0.039 A 
ATOM     46  C   UNL A   1      45.283  26.311  36.123  1.00  0.00     0.014 A 
ATOM     47  C   UNL A   1      46.669  27.430  34.507  1.00  0.00     0.014 A 
ATOM     48  C   UNL A   1      44.145  26.648  35.379  1.00  0.00     0.010 A 
ATOM     49  C   UNL A   1      45.533  27.874  33.840  1.00  0.00     0.010 A 
ATOM     50  C   UNL A   1      44.252  27.500  34.269  1.00  0.00    -0.014 A 
BRANCH  50  51
ATOM     51  C   UNL A   1      43.064  28.031  33.542  1.00  0.00     0.031 A 
ATOM     52  C   UNL A   1      42.842  27.672  32.093  1.00  0.00     0.074 A 
ATOM     53  C   UNL A   1      42.266  28.946  34.131  1.00  0.00     0.049 A 
ATOM     54  N   UNL A   1      42.020  28.199  31.221  1.00  0.00    -0.248 NA
ATOM     55  C   UNL A   1      43.710  26.622  31.536  1.00  0.00     0.031 C 
ATOM     56  C   UNL A   1      42.409  29.447  35.499  1.00  0.00     0.029 A 
ATOM     57  N   UNL A   1      41.182  29.635  33.642  1.00  0.00    -0.354 N 
ATOM     58  C   UNL A   1      42.320  27.593  30.007  1.00  0.00     0.074 A 
ATOM     59  C   UNL A   1      43.435  26.704  30.243  1.00  0.00     0.031 C 
ATOM     60  C   UNL A   1      41.430  30.330  35.753  1.00  0.00     0.029 A 
ATOM     61  C   UNL A   1      40.619  30.497  34.553  1.00  0.00     0.049 A 
ATOM     62  H   UNL A   1      40.841  29.521  32.726  1.00  0.00     0.167 HD
ATOM     63  C   UNL A   1      41.702  27.740  28.809  1.00  0.00     0.037 A 
ATOM     64  C   UNL A   1      39.570  31.333  34.432  1.00  0.00     0.037 A 
ATOM     65  C   UNL A   1      40.533  28.553  28.601  1.00  0.00     0.049 A 
ATOM     66  C   UNL A   1      38.842  31.407  33.118  1.00  0.00     0.074 A 
ATOM     67  C   UNL A   1      39.774  28.698  27.454  1.00  0.00     0.029 A 
ATOM     68  N   UNL A   1      39.938  29.337  29.578  1.00  0.00    -0.354 N 
ATOM     69  N   UNL A   1      39.103  30.792  31.991  1.00  0.00    -0.248 NA
ATOM     70  C   UNL A   1      37.664  32.286  33.062  1.00  0.00     0.031 C 
ATOM     71  C   UNL A   1      38.730  29.587  27.731  1.00  0.00     0.029 A 
ATOM     72  C   UNL A   1      38.816  29.964  29.061  1.00  0.00     0.049 A 
ATOM     73  H   UNL A   1      40.265  29.433  30.502  1.00  0.00     0.167 HD
ATOM     74  C   UNL A   1      38.108  31.181  31.104  1.00  0.00     0.074 A 
ATOM     75  C   UNL A   1      37.230  32.076  31.827  1.00  0.00     0.031 C 
ATOM     76  C   UNL A   1      37.939  30.829  29.807  1.00  0.00     0.037 A 
BRANCH  63  77
ATOM     77  C   UNL A   1      42.261  26.980  27.638  1.00  0.00     0.064 A 
ATOM     78  C   UNL A   1      41.867  25.663  27.356  1.00  0.00     0.173 A 
ATOM     79  C   UNL A   1      43.189  27.582  26.774  1.00  0.00     0.173 A 
ATOM     80  F   UNL A   1      40.989  25.036  28.154  1.00  0.00    -0.203 F 
ATOM     81  C   UNL A   1      42.412  24.963  26.283  1.00  0.00     0.198 A 
ATOM     82  C   UNL A   1      43.705  26.892  25.679  1.00  0.00     0.198 A 
ATOM     83  F   UNL A   1      43.595  28.843  26.988  1.00  0.00    -0.203 F 
ATOM     84  F   UNL A   1      42.068  23.684  26.077  1.00  0.00    -0.200 F 
ATOM     85  C   UNL A   1      43.325  25.579  25.442  1.00  0.00     0.200 A 
ATOM     86  F   UNL A   1      44.575  27.493  24.857  1.00  0.00    -0.200 F 
ATOM     87  F   UNL A   1      43.846  24.904  24.408  1.00  0.00    -0.200 F 
ENDBRANCH  63  77
BRANCH  64  88
ATOM     88  C   UNL A   1      39.110  32.125  35.603  1.00  0.00     0.064 A 
ATOM     89  C   UNL A   1      38.290  31.540  36.579  1.00  0.00     0.173 A 
ATOM     90  C   UNL A   1      39.472  33.468  35.776  1.00  0.00     0.173 A 
ATOM     91  F   UNL A   1      37.903  30.262  36.448  1.00  0.00    -0.203 F 
ATOM     92  C   UNL A   1      37.831  32.274  37.670  1.00  0.00     0.198 A 
ATOM     93  C   UNL A   1      39.035  34.194  36.883  1.00  0.00     0.198 A 
ATOM     94  F   UNL A   1      40.262  34.072  34.877  1.00  0.00    -0.203 F 
ATOM     95  F   UNL A   1      37.012  31.701  38.563  1.00  0.00    -0.200 F 
ATOM     96  C   UNL A   1      38.208  33.599  37.824  1.00  0.00     0.200 A 
ATOM     97  F   UNL A   1      39.413  35.470  37.038  1.00  0.00    -0.200 F 
ATOM     98  F   UNL A   1      37.769  34.304  38.876  1.00  0.00    -0.200 F 
ENDBRANCH  64  88
BRANCH  76  99
ATOM     99  C   UNL A   1      36.729  31.363  29.101  1.00  0.00     0.064 A 
ATOM    100  C   UNL A   1      35.620  30.553  28.822  1.00  0.00     0.173 A 
ATOM    101  C   UNL A   1      36.664  32.718  28.740  1.00  0.00     0.173 A 
ATOM    102  F   UNL A   1      35.641  29.248  29.134  1.00  0.00    -0.203 F 
ATOM    103  C   UNL A   1      34.496  31.076  28.187  1.00  0.00     0.198 A 
ATOM    104  C   UNL A   1      35.529  33.243  28.132  1.00  0.00     0.198 A 
ATOM    105  F   UNL A   1      37.698  33.534  28.992  1.00  0.00    -0.203 F 
ATOM    106  F   UNL A   1      33.464  30.274  27.892  1.00  0.00    -0.200 F 
ATOM    107  C   UNL A   1      34.449  32.420  27.850  1.00  0.00     0.200 A 
ATOM    108  F   UNL A   1      35.479  34.544  27.818  1.00  0.00    -0.200 F 
ATOM    109  F   UNL A   1      33.362  32.923  27.247  1.00  0.00    -0.200 F 
ENDBRANCH  76  99
ENDBRANCH  50  51
ENDBRANCH  42  45
ENDBRANCH  40  41
ENDBRANCH   1  40
TORSDOF 12
ENDMDL
