MODEL 1
REMARK VINA RESULT:     -13.5      0.000      0.000
REMARK SMILES O=C(NCCCNC(=O)[C@@H]1[C@H](C(=O)NCc2ccccc2Cl)[C@@H]2C=C[C@H]1C2)c1ccc(-c2c3nc(c(-c4c(F)c(F)c(F)c(F)c4F)c4ccc([nH]4)c(-c4c(F)c(F)c(F)c(F)c4F)c4nc(c(-c5c(F)c(F)c(F)c(F)c5F)c5ccc2[nH]5)C=C4)C=C3)cc1
REMARK SMILES IDX 5 1 4 2 3 3 1 4 2 5 28 7 29 8 90 9 30 10 89 11 31 12 32 13
REMARK SMILES IDX 33 14 83 15 34 16 88 17 82 18 84 19 35 20 87 21 81 22 80 23
REMARK SMILES IDX 36 25 68 26 48 27 67 28 49 29 52 30 66 31 85 32 50 33 51 34
REMARK SMILES IDX 65 36 86 37 53 38 37 39 38 40 46 41 39 42 40 43 44 44 47 45
REMARK SMILES IDX 41 46 42 47 45 48 43 49 69 50 70 51 78 52 71 53 72 54 76 55
REMARK SMILES IDX 79 56 73 57 74 58 77 59 75 60 54 61 55 62 63 63 56 64 57 65
REMARK SMILES IDX 61 66 64 67 58 68 59 69 62 70 60 71 6 72 7 73 8 74 9 76
REMARK SMILES IDX 10 77 11 78 26 79 23 80 25 81 27 82 24 83 12 84 13 85 14 86
REMARK SMILES IDX 15 88 16 89 17 90 21 91 18 92 20 93 22 94 19 95
REMARK H PARENT 3 6 84 24 52 35 7 75 14 87
REMARK Flexibility Score: inf
ROOT
ATOM      1  C   UNL A   1      31.632  31.377  26.570  1.00  0.00     0.042 C 
ENDROOT
BRANCH   1   2
ATOM      2  C   UNL A   1      32.830  32.198  27.031  1.00  0.00     0.118 C 
BRANCH   2   3
ATOM      3  N   UNL A   1      32.488  33.566  27.391  1.00  0.00    -0.352 N 
ATOM      4  O   UNL A   1      32.509  35.470  28.604  1.00  0.00    -0.269 OA
ATOM      5  C   UNL A   1      33.024  34.387  28.359  1.00  0.00     0.251 C 
ATOM      6  H   UNL A   1      31.762  33.967  26.861  1.00  0.00     0.163 HD
BRANCH   5   7
ATOM      7  C   UNL A   1      34.206  33.936  29.129  1.00  0.00     0.039 A 
ATOM      8  C   UNL A   1      35.483  34.382  28.795  1.00  0.00     0.014 A 
ATOM      9  C   UNL A   1      34.035  33.036  30.184  1.00  0.00     0.014 A 
ATOM     10  C   UNL A   1      36.595  33.775  29.365  1.00  0.00     0.010 A 
ATOM     11  C   UNL A   1      35.156  32.509  30.837  1.00  0.00     0.010 A 
ATOM     12  C   UNL A   1      36.448  32.830  30.395  1.00  0.00    -0.014 A 
BRANCH  12  13
ATOM     13  C   UNL A   1      37.666  32.215  30.989  1.00  0.00     0.031 A 
ATOM     14  C   UNL A   1      38.101  32.542  32.392  1.00  0.00     0.074 A 
ATOM     15  C   UNL A   1      38.347  31.300  30.271  1.00  0.00     0.049 A 
ATOM     16  N   UNL A   1      39.104  32.053  33.081  1.00  0.00    -0.248 NA
ATOM     17  C   UNL A   1      37.323  33.559  33.117  1.00  0.00     0.031 C 
ATOM     18  C   UNL A   1      38.032  30.906  28.896  1.00  0.00     0.029 A 
ATOM     19  N   UNL A   1      39.419  30.511  30.604  1.00  0.00    -0.354 N 
ATOM     20  C   UNL A   1      39.096  32.720  34.299  1.00  0.00     0.074 A 
ATOM     21  C   UNL A   1      38.000  33.665  34.252  1.00  0.00     0.031 C 
ATOM     22  C   UNL A   1      38.842  29.904  28.529  1.00  0.00     0.029 A 
ATOM     23  C   UNL A   1      39.775  29.627  29.616  1.00  0.00     0.049 A 
ATOM     24  H   UNL A   1      39.888  30.573  31.467  1.00  0.00     0.167 HD
ATOM     25  C   UNL A   1      39.923  32.556  35.361  1.00  0.00     0.037 A 
ATOM     26  C   UNL A   1      40.747  28.697  29.582  1.00  0.00     0.037 A 
ATOM     27  C   UNL A   1      40.987  31.588  35.421  1.00  0.00     0.049 A 
ATOM     28  C   UNL A   1      41.635  28.524  30.780  1.00  0.00     0.074 A 
ATOM     29  C   UNL A   1      41.853  31.319  36.468  1.00  0.00     0.029 A 
ATOM     30  N   UNL A   1      41.330  30.725  34.390  1.00  0.00    -0.354 N 
ATOM     31  N   UNL A   1      41.598  29.146  31.933  1.00  0.00    -0.248 NA
ATOM     32  C   UNL A   1      42.702  27.522  30.670  1.00  0.00     0.031 C 
ATOM     33  C   UNL A   1      42.742  30.319  36.058  1.00  0.00     0.029 A 
ATOM     34  C   UNL A   1      42.403  29.935  34.771  1.00  0.00     0.049 A 
ATOM     35  H   UNL A   1      40.879  30.681  33.516  1.00  0.00     0.167 HD
ATOM     36  C   UNL A   1      42.623  28.602  32.692  1.00  0.00     0.074 A 
ATOM     37  C   UNL A   1      43.250  27.582  31.875  1.00  0.00     0.031 C 
ATOM     38  C   UNL A   1      43.011  28.921  33.949  1.00  0.00     0.037 A 
BRANCH  25  39
ATOM     39  C   UNL A   1      39.725  33.457  36.546  1.00  0.00     0.064 A 
ATOM     40  C   UNL A   1      40.375  34.695  36.652  1.00  0.00     0.173 A 
ATOM     41  C   UNL A   1      38.832  33.096  37.567  1.00  0.00     0.173 A 
ATOM     42  F   UNL A   1      41.247  35.082  35.708  1.00  0.00    -0.203 F 
ATOM     43  C   UNL A   1      40.157  35.528  37.746  1.00  0.00     0.198 A 
ATOM     44  C   UNL A   1      38.596  33.942  38.648  1.00  0.00     0.198 A 
ATOM     45  F   UNL A   1      38.180  31.925  37.511  1.00  0.00    -0.203 F 
ATOM     46  F   UNL A   1      40.819  36.688  37.846  1.00  0.00    -0.200 F 
ATOM     47  C   UNL A   1      39.263  35.155  38.740  1.00  0.00     0.200 A 
ATOM     48  F   UNL A   1      37.724  33.584  39.601  1.00  0.00    -0.200 F 
ATOM     49  F   UNL A   1      39.049  35.961  39.789  1.00  0.00    -0.200 F 
ENDBRANCH  25  39
BRANCH  26  50
ATOM     50  C   UNL A   1      40.913  27.850  28.375  1.00  0.00     0.064 A 
ATOM     51  C   UNL A   1      41.720  28.269  27.307  1.00  0.00     0.173 A 
ATOM     52  C   UNL A   1      40.287  26.600  28.270  1.00  0.00     0.173 A 
ATOM     53  F   UNL A   1      42.324  29.465  27.354  1.00  0.00    -0.203 F 
ATOM     54  C   UNL A   1      41.883  27.473  26.176  1.00  0.00     0.198 A 
ATOM     55  C   UNL A   1      40.475  25.793  27.152  1.00  0.00     0.198 A 
ATOM     56  F   UNL A   1      39.511  26.152  29.268  1.00  0.00    -0.203 F 
ATOM     57  F   UNL A   1      42.629  27.912  25.153  1.00  0.00    -0.200 F 
ATOM     58  C   UNL A   1      41.267  26.232  26.102  1.00  0.00     0.200 A 
ATOM     59  F   UNL A   1      39.892  24.587  27.092  1.00  0.00    -0.200 F 
ATOM     60  F   UNL A   1      41.434  25.462  25.018  1.00  0.00    -0.200 F 
ENDBRANCH  26  50
BRANCH  38  61
ATOM     61  C   UNL A   1      44.150  28.134  34.528  1.00  0.00     0.064 A 
ATOM     62  C   UNL A   1      43.937  26.926  35.208  1.00  0.00     0.173 A 
ATOM     63  C   UNL A   1      45.470  28.587  34.385  1.00  0.00     0.173 A 
ATOM     64  F   UNL A   1      42.691  26.461  35.385  1.00  0.00    -0.203 F 
ATOM     65  C   UNL A   1      45.003  26.215  35.752  1.00  0.00     0.198 A 
ATOM     66  C   UNL A   1      46.535  27.859  34.907  1.00  0.00     0.198 A 
ATOM     67  F   UNL A   1      45.725  29.733  33.738  1.00  0.00    -0.203 F 
ATOM     68  F   UNL A   1      44.773  25.091  36.444  1.00  0.00    -0.200 F 
ATOM     69  C   UNL A   1      46.301  26.680  35.598  1.00  0.00     0.200 A 
ATOM     70  F   UNL A   1      47.790  28.305  34.750  1.00  0.00    -0.200 F 
ATOM     71  F   UNL A   1      47.326  25.995  36.123  1.00  0.00    -0.200 F 
ENDBRANCH  38  61
ENDBRANCH  12  13
ENDBRANCH   5   7
ENDBRANCH   2   3
ENDBRANCH   1   2
BRANCH   1  72
ATOM     72  C   UNL A   1      31.967  29.946  26.175  1.00  0.00     0.117 C 
BRANCH  72  73
ATOM     73  N   UNL A   1      32.492  29.881  24.830  1.00  0.00    -0.356 N 
ATOM     74  C   UNL A   1      33.225  28.987  24.146  1.00  0.00     0.224 C 
ATOM     75  H   UNL A   1      32.261  30.672  24.292  1.00  0.00     0.163 HD
ATOM     76  O   UNL A   1      33.525  29.329  22.994  1.00  0.00    -0.275 OA
BRANCH  74  77
ATOM     77  C   UNL A   1      33.745  27.672  24.678  1.00  0.00     0.098 C 
ATOM     78  C   UNL A   1      33.679  26.511  23.630  1.00  0.00     0.098 C 
ATOM     79  C   UNL A   1      33.330  26.959  25.987  1.00  0.00     0.025 C 
ATOM     80  C   UNL A   1      33.297  25.279  24.491  1.00  0.00     0.025 C 
ATOM     81  C   UNL A   1      31.925  26.407  25.944  1.00  0.00    -0.027 C 
ATOM     82  C   UNL A   1      34.056  25.611  25.789  1.00  0.00     0.017 C 
ATOM     83  C   UNL A   1      31.907  25.405  25.054  1.00  0.00    -0.027 C 
BRANCH  78  84
ATOM     84  C   UNL A   1      32.989  26.671  22.269  1.00  0.00     0.224 C 
ATOM     85  O   UNL A   1      33.640  26.401  21.249  1.00  0.00    -0.275 OA
ATOM     86  N   UNL A   1      31.706  27.055  22.054  1.00  0.00    -0.352 N 
ATOM     87  H   UNL A   1      31.512  27.289  21.118  1.00  0.00     0.163 HD
BRANCH  86  88
ATOM     88  C   UNL A   1      30.571  27.186  22.938  1.00  0.00     0.153 C 
BRANCH  88  89
ATOM     89  C   UNL A   1      29.627  28.336  22.671  1.00  0.00    -0.010 A 
ATOM     90  C   UNL A   1      30.070  29.549  22.119  1.00  0.00     0.007 A 
ATOM     91  C   UNL A   1      28.295  28.267  23.128  1.00  0.00     0.046 A 
ATOM     92  C   UNL A   1      29.218  30.657  22.041  1.00  0.00     0.000 A 
ATOM     93  C   UNL A   1      27.444  29.373  23.040  1.00  0.00     0.021 A 
ATOM     94  Cl  UNL A   1      27.665  26.842  23.881  1.00  0.00    -0.084 Cl
ATOM     95  C   UNL A   1      27.909  30.570  22.505  1.00  0.00     0.002 A 
ENDBRANCH  88  89
ENDBRANCH  86  88
ENDBRANCH  78  84
ENDBRANCH  74  77
ENDBRANCH  72  73
ENDBRANCH   1  72
TORSDOF 13
ENDMDL
MODEL 2
REMARK VINA RESULT:     -13.5      0.149      1.590
REMARK SMILES O=C(NCCCNC(=O)[C@@H]1[C@H](C(=O)NCc2ccccc2Cl)[C@@H]2C=C[C@H]1C2)c1ccc(-c2c3nc(c(-c4c(F)c(F)c(F)c(F)c4F)c4ccc([nH]4)c(-c4c(F)c(F)c(F)c(F)c4F)c4nc(c(-c5c(F)c(F)c(F)c(F)c5F)c5ccc2[nH]5)C=C4)C=C3)cc1
REMARK SMILES IDX 5 1 4 2 3 3 1 4 2 5 28 7 29 8 90 9 30 10 89 11 31 12 32 13
REMARK SMILES IDX 33 14 83 15 34 16 88 17 82 18 84 19 35 20 87 21 81 22 80 23
REMARK SMILES IDX 36 25 68 26 48 27 67 28 49 29 52 30 66 31 85 32 50 33 51 34
REMARK SMILES IDX 65 36 86 37 53 38 37 39 38 40 46 41 39 42 40 43 44 44 47 45
REMARK SMILES IDX 41 46 42 47 45 48 43 49 69 50 70 51 78 52 71 53 72 54 76 55
REMARK SMILES IDX 79 56 73 57 74 58 77 59 75 60 54 61 55 62 63 63 56 64 57 65
REMARK SMILES IDX 61 66 64 67 58 68 59 69 62 70 60 71 6 72 7 73 8 74 9 76
REMARK SMILES IDX 10 77 11 78 26 79 23 80 25 81 27 82 24 83 12 84 13 85 14 86
REMARK SMILES IDX 15 88 16 89 17 90 21 91 18 92 20 93 22 94 19 95
REMARK H PARENT 3 6 84 24 52 35 7 75 14 87
REMARK Flexibility Score: inf
ROOT
ATOM      1  C   UNL A   1      31.556  31.226  26.667  1.00  0.00     0.042 C 
ENDROOT
BRANCH   1   2
ATOM      2  C   UNL A   1      32.796  32.055  26.978  1.00  0.00     0.118 C 
BRANCH   2   3
ATOM      3  N   UNL A   1      32.499  33.447  27.282  1.00  0.00    -0.352 N 
ATOM      4  O   UNL A   1      32.577  35.395  28.420  1.00  0.00    -0.269 OA
ATOM      5  C   UNL A   1      33.057  34.286  28.221  1.00  0.00     0.251 C 
ATOM      6  H   UNL A   1      31.790  33.851  26.732  1.00  0.00     0.163 HD
BRANCH   5   7
ATOM      7  C   UNL A   1      34.218  33.827  29.016  1.00  0.00     0.039 A 
ATOM      8  C   UNL A   1      35.498  34.312  28.750  1.00  0.00     0.014 A 
ATOM      9  C   UNL A   1      34.028  32.879  30.025  1.00  0.00     0.014 A 
ATOM     10  C   UNL A   1      36.600  33.703  29.337  1.00  0.00     0.010 A 
ATOM     11  C   UNL A   1      35.134  32.347  30.698  1.00  0.00     0.010 A 
ATOM     12  C   UNL A   1      36.434  32.712  30.320  1.00  0.00    -0.014 A 
BRANCH  12  13
ATOM     13  C   UNL A   1      37.642  32.097  30.934  1.00  0.00     0.031 A 
ATOM     14  C   UNL A   1      38.058  32.428  32.342  1.00  0.00     0.074 A 
ATOM     15  C   UNL A   1      38.331  31.178  30.229  1.00  0.00     0.049 A 
ATOM     16  N   UNL A   1      39.049  31.939  33.048  1.00  0.00    -0.248 NA
ATOM     17  C   UNL A   1      37.271  33.449  33.052  1.00  0.00     0.031 C 
ATOM     18  C   UNL A   1      38.036  30.779  28.852  1.00  0.00     0.029 A 
ATOM     19  N   UNL A   1      39.397  30.388  30.581  1.00  0.00    -0.354 N 
ATOM     20  C   UNL A   1      39.024  32.611  34.262  1.00  0.00     0.074 A 
ATOM     21  C   UNL A   1      37.932  33.558  34.196  1.00  0.00     0.031 C 
ATOM     22  C   UNL A   1      38.849  29.774  28.499  1.00  0.00     0.029 A 
ATOM     23  C   UNL A   1      39.766  29.499  29.601  1.00  0.00     0.049 A 
ATOM     24  H   UNL A   1      39.853  30.452  31.451  1.00  0.00     0.167 HD
ATOM     25  C   UNL A   1      39.835  32.449  35.337  1.00  0.00     0.037 A 
ATOM     26  C   UNL A   1      40.736  28.567  29.585  1.00  0.00     0.037 A 
ATOM     27  C   UNL A   1      40.897  31.479  35.416  1.00  0.00     0.049 A 
ATOM     28  C   UNL A   1      41.605  28.397  30.797  1.00  0.00     0.074 A 
ATOM     29  C   UNL A   1      41.746  31.211  36.477  1.00  0.00     0.029 A 
ATOM     30  N   UNL A   1      41.253  30.611  34.393  1.00  0.00    -0.354 N 
ATOM     31  N   UNL A   1      41.553  29.023  31.946  1.00  0.00    -0.248 NA
ATOM     32  C   UNL A   1      42.672  27.392  30.705  1.00  0.00     0.031 C 
ATOM     33  C   UNL A   1      42.639  30.208  36.084  1.00  0.00     0.029 A 
ATOM     34  C   UNL A   1      42.318  29.820  34.793  1.00  0.00     0.049 A 
ATOM     35  H   UNL A   1      40.814  30.565  33.514  1.00  0.00     0.167 HD
ATOM     36  C   UNL A   1      42.565  28.479  32.722  1.00  0.00     0.074 A 
ATOM     37  C   UNL A   1      43.202  27.455  31.918  1.00  0.00     0.031 C 
ATOM     38  C   UNL A   1      42.936  28.802  33.984  1.00  0.00     0.037 A 
BRANCH  25  39
ATOM     39  C   UNL A   1      39.622  33.354  36.516  1.00  0.00     0.064 A 
ATOM     40  C   UNL A   1      40.242  34.609  36.608  1.00  0.00     0.173 A 
ATOM     41  C   UNL A   1      38.744  32.980  37.546  1.00  0.00     0.173 A 
ATOM     42  F   UNL A   1      41.099  35.009  35.656  1.00  0.00    -0.203 F 
ATOM     43  C   UNL A   1      40.009  35.445  37.697  1.00  0.00     0.198 A 
ATOM     44  C   UNL A   1      38.494  33.828  38.621  1.00  0.00     0.198 A 
ATOM     45  F   UNL A   1      38.120  31.793  37.503  1.00  0.00    -0.203 F 
ATOM     46  F   UNL A   1      40.644  36.622  37.784  1.00  0.00    -0.200 F 
ATOM     47  C   UNL A   1      39.131  35.058  38.699  1.00  0.00     0.200 A 
ATOM     48  F   UNL A   1      37.636  33.457  39.581  1.00  0.00    -0.200 F 
ATOM     49  F   UNL A   1      38.903  35.867  39.743  1.00  0.00    -0.200 F 
ENDBRANCH  25  39
BRANCH  26  50
ATOM     50  C   UNL A   1      40.918  27.716  28.383  1.00  0.00     0.064 A 
ATOM     51  C   UNL A   1      40.227  26.504  28.248  1.00  0.00     0.173 A 
ATOM     52  C   UNL A   1      41.771  28.103  27.339  1.00  0.00     0.173 A 
ATOM     53  F   UNL A   1      39.416  26.083  29.229  1.00  0.00    -0.203 F 
ATOM     54  C   UNL A   1      40.391  25.706  27.118  1.00  0.00     0.198 A 
ATOM     55  C   UNL A   1      41.911  27.319  26.197  1.00  0.00     0.198 A 
ATOM     56  F   UNL A   1      42.448  29.257  27.418  1.00  0.00    -0.203 F 
ATOM     57  F   UNL A   1      39.747  24.534  27.029  1.00  0.00    -0.200 F 
ATOM     58  C   UNL A   1      41.226  26.117  26.090  1.00  0.00     0.200 A 
ATOM     59  F   UNL A   1      42.705  27.729  25.199  1.00  0.00    -0.200 F 
ATOM     60  F   UNL A   1      41.375  25.355  24.998  1.00  0.00    -0.200 F 
ENDBRANCH  26  50
BRANCH  38  61
ATOM     61  C   UNL A   1      44.064  28.014  34.582  1.00  0.00     0.064 A 
ATOM     62  C   UNL A   1      45.394  28.448  34.487  1.00  0.00     0.173 A 
ATOM     63  C   UNL A   1      43.808  26.820  35.272  1.00  0.00     0.173 A 
ATOM     64  F   UNL A   1      45.691  29.575  33.822  1.00  0.00    -0.203 F 
ATOM     65  C   UNL A   1      46.431  27.698  35.034  1.00  0.00     0.198 A 
ATOM     66  C   UNL A   1      44.845  26.087  35.841  1.00  0.00     0.198 A 
ATOM     67  F   UNL A   1      42.552  26.366  35.395  1.00  0.00    -0.203 F 
ATOM     68  F   UNL A   1      47.700  28.104  34.886  1.00  0.00    -0.200 F 
ATOM     69  C   UNL A   1      46.156  26.521  35.715  1.00  0.00     0.200 A 
ATOM     70  F   UNL A   1      44.576  24.954  36.506  1.00  0.00    -0.200 F 
ATOM     71  F   UNL A   1      47.155  25.800  36.241  1.00  0.00    -0.200 F 
ENDBRANCH  38  61
ENDBRANCH  12  13
ENDBRANCH   5   7
ENDBRANCH   2   3
ENDBRANCH   1   2
BRANCH   1  72
ATOM     72  C   UNL A   1      31.851  29.808  26.201  1.00  0.00     0.117 C 
BRANCH  72  73
ATOM     73  N   UNL A   1      32.436  29.800  24.879  1.00  0.00    -0.356 N 
ATOM     74  C   UNL A   1      33.211  28.941  24.196  1.00  0.00     0.224 C 
ATOM     75  H   UNL A   1      32.218  30.608  24.361  1.00  0.00     0.163 HD
ATOM     76  O   UNL A   1      33.556  29.329  23.072  1.00  0.00    -0.275 OA
BRANCH  74  77
ATOM     77  C   UNL A   1      33.725  27.613  24.701  1.00  0.00     0.098 C 
ATOM     78  C   UNL A   1      33.654  26.474  23.630  1.00  0.00     0.098 C 
ATOM     79  C   UNL A   1      33.306  26.876  25.996  1.00  0.00     0.025 C 
ATOM     80  C   UNL A   1      33.266  25.227  24.466  1.00  0.00     0.025 C 
ATOM     81  C   UNL A   1      31.899  26.331  25.941  1.00  0.00    -0.027 C 
ATOM     82  C   UNL A   1      34.026  25.529  25.772  1.00  0.00     0.017 C 
ATOM     83  C   UNL A   1      31.877  25.347  25.031  1.00  0.00    -0.027 C 
BRANCH  78  84
ATOM     84  C   UNL A   1      32.965  26.664  22.272  1.00  0.00     0.224 C 
ATOM     85  O   UNL A   1      33.615  26.409  21.248  1.00  0.00    -0.275 OA
ATOM     86  N   UNL A   1      31.686  27.060  22.065  1.00  0.00    -0.352 N 
ATOM     87  H   UNL A   1      31.493  27.313  21.133  1.00  0.00     0.163 HD
BRANCH  86  88
ATOM     88  C   UNL A   1      30.551  27.184  22.951  1.00  0.00     0.153 C 
BRANCH  88  89
ATOM     89  C   UNL A   1      29.592  28.319  22.678  1.00  0.00    -0.010 A 
ATOM     90  C   UNL A   1      30.020  29.539  22.130  1.00  0.00     0.007 A 
ATOM     91  C   UNL A   1      28.259  28.230  23.128  1.00  0.00     0.046 A 
ATOM     92  C   UNL A   1      29.153  30.634  22.048  1.00  0.00     0.000 A 
ATOM     93  C   UNL A   1      27.392  29.324  23.036  1.00  0.00     0.021 A 
ATOM     94  Cl  UNL A   1      27.645  26.796  23.877  1.00  0.00    -0.084 Cl
ATOM     95  C   UNL A   1      27.842  30.527  22.503  1.00  0.00     0.002 A 
ENDBRANCH  88  89
ENDBRANCH  86  88
ENDBRANCH  78  84
ENDBRANCH  74  77
ENDBRANCH  72  73
ENDBRANCH   1  72
TORSDOF 13
ENDMDL
MODEL 3
REMARK VINA RESULT:     -13.4      1.709      2.951
REMARK SMILES O=C(NCCCNC(=O)[C@@H]1[C@H](C(=O)NCc2ccccc2Cl)[C@@H]2C=C[C@H]1C2)c1ccc(-c2c3nc(c(-c4c(F)c(F)c(F)c(F)c4F)c4ccc([nH]4)c(-c4c(F)c(F)c(F)c(F)c4F)c4nc(c(-c5c(F)c(F)c(F)c(F)c5F)c5ccc2[nH]5)C=C4)C=C3)cc1
REMARK SMILES IDX 5 1 4 2 3 3 1 4 2 5 28 7 29 8 90 9 30 10 89 11 31 12 32 13
REMARK SMILES IDX 33 14 83 15 34 16 88 17 82 18 84 19 35 20 87 21 81 22 80 23
REMARK SMILES IDX 36 25 68 26 48 27 67 28 49 29 52 30 66 31 85 32 50 33 51 34
REMARK SMILES IDX 65 36 86 37 53 38 37 39 38 40 46 41 39 42 40 43 44 44 47 45
REMARK SMILES IDX 41 46 42 47 45 48 43 49 69 50 70 51 78 52 71 53 72 54 76 55
REMARK SMILES IDX 79 56 73 57 74 58 77 59 75 60 54 61 55 62 63 63 56 64 57 65
REMARK SMILES IDX 61 66 64 67 58 68 59 69 62 70 60 71 6 72 7 73 8 74 9 76
REMARK SMILES IDX 10 77 11 78 26 79 23 80 25 81 27 82 24 83 12 84 13 85 14 86
REMARK SMILES IDX 15 88 16 89 17 90 21 91 18 92 20 93 22 94 19 95
REMARK H PARENT 3 6 84 24 52 35 7 75 14 87
REMARK Flexibility Score: inf
ROOT
ATOM      1  C   UNL A   1      31.650  28.811  26.026  1.00  0.00     0.042 C 
ENDROOT
BRANCH   1   2
ATOM      2  C   UNL A   1      32.865  29.728  25.968  1.00  0.00     0.118 C 
BRANCH   2   3
ATOM      3  N   UNL A   1      32.581  31.090  26.394  1.00  0.00    -0.352 N 
ATOM      4  O   UNL A   1      32.799  32.984  27.603  1.00  0.00    -0.269 OA
ATOM      5  C   UNL A   1      33.272  31.908  27.262  1.00  0.00     0.251 C 
ATOM      6  H   UNL A   1      31.771  31.489  26.002  1.00  0.00     0.163 HD
BRANCH   5   7
ATOM      7  C   UNL A   1      34.572  31.461  27.810  1.00  0.00     0.039 A 
ATOM      8  C   UNL A   1      34.776  30.127  28.161  1.00  0.00     0.014 A 
ATOM      9  C   UNL A   1      35.595  32.395  28.000  1.00  0.00     0.014 A 
ATOM     10  C   UNL A   1      35.905  29.771  28.887  1.00  0.00     0.010 A 
ATOM     11  C   UNL A   1      36.783  32.009  28.631  1.00  0.00     0.010 A 
ATOM     12  C   UNL A   1      36.925  30.706  29.132  1.00  0.00    -0.014 A 
BRANCH  12  13
ATOM     13  C   UNL A   1      38.125  30.279  29.901  1.00  0.00     0.031 A 
ATOM     14  C   UNL A   1      38.307  30.666  31.345  1.00  0.00     0.074 A 
ATOM     15  C   UNL A   1      39.027  29.476  29.304  1.00  0.00     0.049 A 
ATOM     16  N   UNL A   1      39.265  30.331  32.176  1.00  0.00    -0.248 NA
ATOM     17  C   UNL A   1      37.294  31.555  31.934  1.00  0.00     0.031 C 
ATOM     18  C   UNL A   1      38.970  29.040  27.907  1.00  0.00     0.029 A 
ATOM     19  N   UNL A   1      40.146  28.855  29.798  1.00  0.00    -0.354 N 
ATOM     20  C   UNL A   1      38.988  30.989  33.367  1.00  0.00     0.074 A 
ATOM     21  C   UNL A   1      37.783  31.760  33.149  1.00  0.00     0.031 C 
ATOM     22  C   UNL A   1      39.962  28.170  27.675  1.00  0.00     0.029 A 
ATOM     23  C   UNL A   1      40.765  28.034  28.886  1.00  0.00     0.049 A 
ATOM     24  H   UNL A   1      40.476  28.985  30.716  1.00  0.00     0.167 HD
ATOM     25  C   UNL A   1      39.673  30.949  34.536  1.00  0.00     0.037 A 
ATOM     26  C   UNL A   1      41.857  27.259  29.006  1.00  0.00     0.037 A 
ATOM     27  C   UNL A   1      40.850  30.150  34.763  1.00  0.00     0.049 A 
ATOM     28  C   UNL A   1      42.584  27.219  30.319  1.00  0.00     0.074 A 
ATOM     29  C   UNL A   1      41.590  30.011  35.925  1.00  0.00     0.029 A 
ATOM     30  N   UNL A   1      41.457  29.348  33.807  1.00  0.00    -0.354 N 
ATOM     31  N   UNL A   1      42.295  27.828  31.443  1.00  0.00    -0.248 NA
ATOM     32  C   UNL A   1      43.792  26.387  30.378  1.00  0.00     0.031 C 
ATOM     33  C   UNL A   1      42.665  29.155  35.662  1.00  0.00     0.029 A 
ATOM     34  C   UNL A   1      42.570  28.725  34.349  1.00  0.00     0.049 A 
ATOM     35  H   UNL A   1      41.143  29.238  32.880  1.00  0.00     0.167 HD
ATOM     36  C   UNL A   1      43.273  27.441  32.347  1.00  0.00     0.074 A 
ATOM     37  C   UNL A   1      44.151  26.527  31.646  1.00  0.00     0.031 C 
ATOM     38  C   UNL A   1      43.430  27.814  33.640  1.00  0.00     0.037 A 
BRANCH  25  39
ATOM     39  C   UNL A   1      39.181  31.809  35.664  1.00  0.00     0.064 A 
ATOM     40  C   UNL A   1      38.283  31.325  36.627  1.00  0.00     0.173 A 
ATOM     41  C   UNL A   1      39.652  33.123  35.810  1.00  0.00     0.173 A 
ATOM     42  F   UNL A   1      37.793  30.080  36.527  1.00  0.00    -0.203 F 
ATOM     43  C   UNL A   1      37.860  32.131  37.681  1.00  0.00     0.198 A 
ATOM     44  C   UNL A   1      39.247  33.918  36.879  1.00  0.00     0.198 A 
ATOM     45  F   UNL A   1      40.517  33.632  34.920  1.00  0.00    -0.203 F 
ATOM     46  F   UNL A   1      36.971  31.661  38.567  1.00  0.00    -0.200 F 
ATOM     47  C   UNL A   1      38.347  33.424  37.811  1.00  0.00     0.200 A 
ATOM     48  F   UNL A   1      39.728  35.162  37.007  1.00  0.00    -0.200 F 
ATOM     49  F   UNL A   1      37.944  34.196  38.829  1.00  0.00    -0.200 F 
ENDBRANCH  25  39
BRANCH  26  50
ATOM     50  C   UNL A   1      42.314  26.447  27.851  1.00  0.00     0.064 A 
ATOM     51  C   UNL A   1      41.776  25.176  27.606  1.00  0.00     0.173 A 
ATOM     52  C   UNL A   1      43.282  26.930  26.959  1.00  0.00     0.173 A 
ATOM     53  F   UNL A   1      40.861  24.664  28.444  1.00  0.00    -0.203 F 
ATOM     54  C   UNL A   1      42.198  24.414  26.519  1.00  0.00     0.198 A 
ATOM     55  C   UNL A   1      43.681  26.181  25.856  1.00  0.00     0.198 A 
ATOM     56  F   UNL A   1      43.822  28.143  27.146  1.00  0.00    -0.203 F 
ATOM     57  F   UNL A   1      41.695  23.188  26.328  1.00  0.00    -0.200 F 
ATOM     58  C   UNL A   1      43.144  24.920  25.640  1.00  0.00     0.200 A 
ATOM     59  F   UNL A   1      44.583  26.680  24.999  1.00  0.00    -0.200 F 
ATOM     60  F   UNL A   1      43.541  24.192  24.588  1.00  0.00    -0.200 F 
ENDBRANCH  26  50
BRANCH  38  61
ATOM     61  C   UNL A   1      44.580  27.204  34.386  1.00  0.00     0.064 A 
ATOM     62  C   UNL A   1      45.840  27.819  34.424  1.00  0.00     0.173 A 
ATOM     63  C   UNL A   1      44.412  25.999  35.084  1.00  0.00     0.173 A 
ATOM     64  F   UNL A   1      46.053  28.963  33.757  1.00  0.00    -0.203 F 
ATOM     65  C   UNL A   1      46.900  27.233  35.109  1.00  0.00     0.198 A 
ATOM     66  C   UNL A   1      45.468  25.430  35.791  1.00  0.00     0.198 A 
ATOM     67  F   UNL A   1      43.225  25.376  35.083  1.00  0.00    -0.203 F 
ATOM     68  F   UNL A   1      48.110  27.809  35.088  1.00  0.00    -0.200 F 
ATOM     69  C   UNL A   1      46.713  26.042  35.795  1.00  0.00     0.200 A 
ATOM     70  F   UNL A   1      45.283  24.284  36.461  1.00  0.00    -0.200 F 
ATOM     71  F   UNL A   1      47.735  25.478  36.453  1.00  0.00    -0.200 F 
ENDBRANCH  38  61
ENDBRANCH  12  13
ENDBRANCH   5   7
ENDBRANCH   2   3
ENDBRANCH   1   2
BRANCH   1  72
ATOM     72  C   UNL A   1      31.693  27.783  27.148  1.00  0.00     0.117 C 
BRANCH  72  73
ATOM     73  N   UNL A   1      31.138  26.518  26.723  1.00  0.00    -0.356 N 
ATOM     74  C   UNL A   1      31.631  25.432  26.105  1.00  0.00     0.224 C 
ATOM     75  H   UNL A   1      30.180  26.432  26.934  1.00  0.00     0.163 HD
ATOM     76  O   UNL A   1      30.800  24.546  25.862  1.00  0.00    -0.275 OA
BRANCH  74  77
ATOM     77  C   UNL A   1      33.057  25.243  25.645  1.00  0.00     0.098 C 
ATOM     78  C   UNL A   1      33.204  25.195  24.087  1.00  0.00     0.098 C 
ATOM     79  C   UNL A   1      34.055  24.153  26.105  1.00  0.00     0.025 C 
ATOM     80  C   UNL A   1      34.310  24.129  23.869  1.00  0.00     0.025 C 
ATOM     81  C   UNL A   1      33.695  22.772  25.614  1.00  0.00    -0.027 C 
ATOM     82  C   UNL A   1      35.197  24.407  25.098  1.00  0.00     0.017 C 
ATOM     83  C   UNL A   1      33.849  22.758  24.282  1.00  0.00    -0.027 C 
BRANCH  78  84
ATOM     84  C   UNL A   1      31.991  25.164  23.148  1.00  0.00     0.224 C 
ATOM     85  O   UNL A   1      31.527  24.059  22.830  1.00  0.00    -0.275 OA
ATOM     86  N   UNL A   1      31.337  26.236  22.639  1.00  0.00    -0.352 N 
ATOM     87  H   UNL A   1      30.718  26.015  21.906  1.00  0.00     0.163 HD
BRANCH  86  88
ATOM     88  C   UNL A   1      31.376  27.643  22.965  1.00  0.00     0.153 C 
BRANCH  88  89
ATOM     89  C   UNL A   1      30.143  28.454  22.642  1.00  0.00    -0.010 A 
ATOM     90  C   UNL A   1      30.220  29.702  22.000  1.00  0.00     0.007 A 
ATOM     91  C   UNL A   1      28.887  28.042  23.131  1.00  0.00     0.046 A 
ATOM     92  C   UNL A   1      29.088  30.513  21.867  1.00  0.00     0.000 A 
ATOM     93  C   UNL A   1      27.755  28.851  22.988  1.00  0.00     0.021 A 
ATOM     94  Cl  UNL A   1      28.690  26.554  23.993  1.00  0.00    -0.084 Cl
ATOM     95  C   UNL A   1      27.859  30.090  22.363  1.00  0.00     0.002 A 
ENDBRANCH  88  89
ENDBRANCH  86  88
ENDBRANCH  78  84
ENDBRANCH  74  77
ENDBRANCH  72  73
ENDBRANCH   1  72
TORSDOF 13
ENDMDL
