MODEL 1
REMARK VINA RESULT:     -13.0      0.000      0.000
REMARK SMILES COc1ccc(-c2noc(C[N@H+]3CCCC[C@@H]3C(=O)NCCCNC(=O)c3ccc(-c4c5nc(c(-c6c(F)c(F)c(F)c(F)c6F)c6ccc([nH]6)c(-c6c(F)c(F)c(F)c(F)c6F)c6nc(c(-c7c(F)c(F)c(F)c(F)c7F)c7ccc4[nH]7)C=C6)C=C5)cc3)n2)cc1OC
REMARK SMILES IDX 21 1 20 2 18 3 19 4 17 6 12 7 13 8 14 10 16 11 15 12 11 13
REMARK SMILES IDX 10 14 7 15 8 16 90 17 9 18 6 19 3 20 4 21 92 22 5 23 91 24
REMARK SMILES IDX 2 25 1 26 93 27 94 28 22 29 23 30 24 31 25 32 26 34 27 35
REMARK SMILES IDX 28 36 89 37 29 38 88 39 30 40 31 41 32 42 82 43 33 44 87 45
REMARK SMILES IDX 81 46 83 47 34 48 86 49 80 50 79 51 35 53 67 54 47 55 66 56
REMARK SMILES IDX 48 57 51 58 65 59 84 60 49 61 50 62 64 64 85 65 52 66 36 67
REMARK SMILES IDX 37 68 45 69 38 70 39 71 43 72 46 73 40 74 41 75 44 76 42 77
REMARK SMILES IDX 68 78 69 79 77 80 70 81 71 82 75 83 78 84 72 85 73 86 76 87
REMARK SMILES IDX 74 88 53 89 54 90 62 91 55 92 56 93 60 94 63 95 57 96 58 97
REMARK SMILES IDX 61 98 59 99
REMARK H PARENT 20 5 12 9 24 33 83 52 51 63
REMARK Flexibility Score: inf
ROOT
ATOM      1  C   UNL A   1      31.861  30.631  26.978  1.00  0.00     0.118 C 
ENDROOT
BRANCH   1   2
ATOM      2  N   UNL A   1      32.710  30.176  25.892  1.00  0.00    -0.351 N 
ATOM      3  C   UNL A   1      32.464  29.255  24.915  1.00  0.00     0.278 C 
ATOM      4  O   UNL A   1      33.377  29.005  24.124  1.00  0.00    -0.268 OA
ATOM      5  H   UNL A   1      33.599  30.597  25.852  1.00  0.00     0.163 HD
BRANCH   3   6
ATOM      6  C   UNL A   1      31.080  28.586  24.771  1.00  0.00     0.274 C 
ATOM      7  N   UNL A   1      31.212  27.105  24.811  1.00  0.00    -0.317 N 
ATOM      8  C   UNL A   1      29.939  26.417  24.567  1.00  0.00     0.263 C 
ATOM      9  H   UNL A   1      31.832  26.873  24.035  1.00  0.00     0.349 HD
ATOM     10  C   UNL A   1      29.305  26.867  23.251  1.00  0.00     0.062 C 
ATOM     11  C   UNL A   1      30.366  29.110  23.514  1.00  0.00     0.076 C 
ATOM     12  C   UNL A   1      29.061  28.370  23.256  1.00  0.00     0.012 C 
BRANCH   7  13
ATOM     13  C   UNL A   1      31.878  26.605  26.042  1.00  0.00     0.364 C 
BRANCH  13  14
ATOM     14  C   UNL A   1      31.981  25.124  26.201  1.00  0.00     0.282 A 
ATOM     15  C   UNL A   1      32.312  23.062  26.078  1.00  0.00     0.202 A 
ATOM     16  N   UNL A   1      31.533  23.182  27.162  1.00  0.00    -0.057 NA
ATOM     17  N   UNL A   1      32.606  24.248  25.449  1.00  0.00    -0.186 NA
ATOM     18  O   UNL A   1      31.348  24.559  27.271  1.00  0.00    -0.333 OA
BRANCH  15  19
ATOM     19  C   UNL A   1      32.875  21.808  25.630  1.00  0.00     0.027 A 
ATOM     20  C   UNL A   1      34.046  19.434  24.732  1.00  0.00     0.160 A 
ATOM     21  C   UNL A   1      32.652  19.533  24.855  1.00  0.00     0.051 A 
ATOM     22  C   UNL A   1      34.864  20.526  25.049  1.00  0.00     0.161 A 
ATOM     23  C   UNL A   1      32.067  20.714  25.320  1.00  0.00     0.016 A 
ATOM     24  C   UNL A   1      34.264  21.709  25.488  1.00  0.00     0.062 A 
BRANCH  20  25
ATOM     25  O   UNL A   1      34.569  18.295  24.180  1.00  0.00    -0.493 OA
ATOM     26  C   UNL A   1      33.559  17.475  23.592  1.00  0.00     0.278 C 
ENDBRANCH  20  25
BRANCH  22  27
ATOM     27  O   UNL A   1      36.224  20.627  24.955  1.00  0.00    -0.493 OA
ATOM     28  C   UNL A   1      36.849  21.738  25.577  1.00  0.00     0.278 C 
ENDBRANCH  22  27
ENDBRANCH  15  19
ENDBRANCH  13  14
ENDBRANCH   7  13
ENDBRANCH   3   6
ENDBRANCH   1   2
BRANCH   1  29
ATOM     29  C   UNL A   1      31.610  32.131  26.888  1.00  0.00     0.042 C 
BRANCH  29  30
ATOM     30  C   UNL A   1      32.861  32.968  27.117  1.00  0.00     0.118 C 
BRANCH  30  31
ATOM     31  N   UNL A   1      32.551  34.303  27.605  1.00  0.00    -0.352 N 
ATOM     32  C   UNL A   1      33.049  34.979  28.690  1.00  0.00     0.251 C 
ATOM     33  H   UNL A   1      31.884  34.798  27.076  1.00  0.00     0.163 HD
ATOM     34  O   UNL A   1      32.515  36.017  29.063  1.00  0.00    -0.269 OA
BRANCH  32  35
ATOM     35  C   UNL A   1      34.215  34.444  29.425  1.00  0.00     0.039 A 
ATOM     36  C   UNL A   1      34.006  33.816  30.655  1.00  0.00     0.014 A 
ATOM     37  C   UNL A   1      35.510  34.571  28.914  1.00  0.00     0.014 A 
ATOM     38  C   UNL A   1      35.088  33.260  31.340  1.00  0.00     0.010 A 
ATOM     39  C   UNL A   1      36.572  33.940  29.553  1.00  0.00     0.010 A 
ATOM     40  C   UNL A   1      36.374  33.284  30.776  1.00  0.00    -0.014 A 
BRANCH  40  41
ATOM     41  C   UNL A   1      37.523  32.633  31.455  1.00  0.00     0.031 A 
ATOM     42  C   UNL A   1      38.230  31.476  30.802  1.00  0.00     0.074 A 
ATOM     43  C   UNL A   1      37.893  33.046  32.683  1.00  0.00     0.049 A 
ATOM     44  N   UNL A   1      39.209  30.738  31.262  1.00  0.00    -0.248 NA
ATOM     45  C   UNL A   1      37.758  31.080  29.467  1.00  0.00     0.031 C 
ATOM     46  C   UNL A   1      37.257  34.128  33.438  1.00  0.00     0.029 A 
ATOM     47  N   UNL A   1      38.887  32.601  33.517  1.00  0.00    -0.354 N 
ATOM     48  C   UNL A   1      39.460  29.790  30.279  1.00  0.00     0.074 A 
ATOM     49  C   UNL A   1      38.493  30.006  29.225  1.00  0.00     0.031 C 
ATOM     50  C   UNL A   1      37.893  34.279  34.610  1.00  0.00     0.029 A 
ATOM     51  C   UNL A   1      38.951  33.278  34.711  1.00  0.00     0.049 A 
ATOM     52  H   UNL A   1      39.499  31.867  33.282  1.00  0.00     0.167 HD
ATOM     53  C   UNL A   1      40.427  28.842  30.246  1.00  0.00     0.037 A 
ATOM     54  C   UNL A   1      39.762  33.102  35.771  1.00  0.00     0.037 A 
ATOM     55  C   UNL A   1      41.398  28.644  31.290  1.00  0.00     0.049 A 
ATOM     56  C   UNL A   1      40.811  32.022  35.719  1.00  0.00     0.074 A 
ATOM     57  C   UNL A   1      42.450  27.745  31.330  1.00  0.00     0.029 A 
ATOM     58  N   UNL A   1      41.433  29.353  32.482  1.00  0.00    -0.354 N 
ATOM     59  N   UNL A   1      41.084  31.179  34.753  1.00  0.00    -0.248 NA
ATOM     60  C   UNL A   1      41.667  31.876  36.903  1.00  0.00     0.031 C 
ATOM     61  C   UNL A   1      43.087  27.873  32.567  1.00  0.00     0.029 A 
ATOM     62  C   UNL A   1      42.473  28.893  33.275  1.00  0.00     0.049 A 
ATOM     63  H   UNL A   1      40.813  30.077  32.728  1.00  0.00     0.167 HD
ATOM     64  C   UNL A   1      42.162  30.425  35.200  1.00  0.00     0.074 A 
ATOM     65  C   UNL A   1      42.504  30.924  36.515  1.00  0.00     0.031 C 
ATOM     66  C   UNL A   1      42.809  29.409  34.578  1.00  0.00     0.037 A 
BRANCH  53  67
ATOM     67  C   UNL A   1      40.489  27.949  29.041  1.00  0.00     0.064 A 
ATOM     68  C   UNL A   1      39.727  26.773  28.956  1.00  0.00     0.173 A 
ATOM     69  C   UNL A   1      41.282  28.295  27.936  1.00  0.00     0.173 A 
ATOM     70  F   UNL A   1      38.961  26.388  29.989  1.00  0.00    -0.203 F 
ATOM     71  C   UNL A   1      39.775  25.967  27.822  1.00  0.00     0.198 A 
ATOM     72  C   UNL A   1      41.302  27.505  26.791  1.00  0.00     0.198 A 
ATOM     73  F   UNL A   1      42.027  29.411  27.961  1.00  0.00    -0.203 F 
ATOM     74  F   UNL A   1      39.075  24.824  27.784  1.00  0.00    -0.200 F 
ATOM     75  C   UNL A   1      40.555  26.337  26.737  1.00  0.00     0.200 A 
ATOM     76  F   UNL A   1      42.044  27.872  25.737  1.00  0.00    -0.200 F 
ATOM     77  F   UNL A   1      40.591  25.567  25.641  1.00  0.00    -0.200 F 
ENDBRANCH  53  67
BRANCH  54  78
ATOM     78  C   UNL A   1      39.627  33.973  36.970  1.00  0.00     0.064 A 
ATOM     79  C   UNL A   1      38.853  33.573  38.068  1.00  0.00     0.173 A 
ATOM     80  C   UNL A   1      40.246  35.230  37.033  1.00  0.00     0.173 A 
ATOM     81  F   UNL A   1      38.225  32.389  38.049  1.00  0.00    -0.203 F 
ATOM     82  C   UNL A   1      38.677  34.410  39.169  1.00  0.00     0.198 A 
ATOM     83  C   UNL A   1      40.099  36.051  38.148  1.00  0.00     0.198 A 
ATOM     84  F   UNL A   1      41.004  35.659  36.012  1.00  0.00    -0.203 F 
ATOM     85  F   UNL A   1      37.883  34.028  40.177  1.00  0.00    -0.200 F 
ATOM     86  C   UNL A   1      39.303  35.646  39.210  1.00  0.00     0.200 A 
ATOM     87  F   UNL A   1      40.719  37.238  38.192  1.00  0.00    -0.200 F 
ATOM     88  F   UNL A   1      39.133  36.451  40.268  1.00  0.00    -0.200 F 
ENDBRANCH  54  78
BRANCH  66  89
ATOM     89  C   UNL A   1      43.980  28.797  35.292  1.00  0.00     0.064 A 
ATOM     90  C   UNL A   1      45.292  29.240  35.074  1.00  0.00     0.173 A 
ATOM     91  C   UNL A   1      43.779  27.780  36.238  1.00  0.00     0.173 A 
ATOM     92  F   UNL A   1      45.540  30.200  34.169  1.00  0.00    -0.203 F 
ATOM     93  C   UNL A   1      46.364  28.665  35.753  1.00  0.00     0.198 A 
ATOM     94  C   UNL A   1      44.849  27.233  36.941  1.00  0.00     0.198 A 
ATOM     95  F   UNL A   1      42.543  27.324  36.491  1.00  0.00    -0.203 F 
ATOM     96  F   UNL A   1      47.615  29.066  35.487  1.00  0.00    -0.200 F 
ATOM     97  C   UNL A   1      46.140  27.669  36.691  1.00  0.00     0.200 A 
ATOM     98  F   UNL A   1      44.629  26.282  37.859  1.00  0.00    -0.200 F 
ATOM     99  F   UNL A   1      47.172  27.124  37.350  1.00  0.00    -0.200 F 
ENDBRANCH  66  89
ENDBRANCH  40  41
ENDBRANCH  32  35
ENDBRANCH  30  31
ENDBRANCH  29  30
ENDBRANCH   1  29
TORSDOF 15
ENDMDL
MODEL 2
REMARK VINA RESULT:     -12.7      4.976     11.004
REMARK SMILES COc1ccc(-c2noc(C[N@H+]3CCCC[C@@H]3C(=O)NCCCNC(=O)c3ccc(-c4c5nc(c(-c6c(F)c(F)c(F)c(F)c6F)c6ccc([nH]6)c(-c6c(F)c(F)c(F)c(F)c6F)c6nc(c(-c7c(F)c(F)c(F)c(F)c7F)c7ccc4[nH]7)C=C6)C=C5)cc3)n2)cc1OC
REMARK SMILES IDX 21 1 20 2 18 3 19 4 17 6 12 7 13 8 14 10 16 11 15 12 11 13
REMARK SMILES IDX 10 14 7 15 8 16 90 17 9 18 6 19 3 20 4 21 92 22 5 23 91 24
REMARK SMILES IDX 2 25 1 26 93 27 94 28 22 29 23 30 24 31 25 32 26 34 27 35
REMARK SMILES IDX 28 36 89 37 29 38 88 39 30 40 31 41 32 42 82 43 33 44 87 45
REMARK SMILES IDX 81 46 83 47 34 48 86 49 80 50 79 51 35 53 67 54 47 55 66 56
REMARK SMILES IDX 48 57 51 58 65 59 84 60 49 61 50 62 64 64 85 65 52 66 36 67
REMARK SMILES IDX 37 68 45 69 38 70 39 71 43 72 46 73 40 74 41 75 44 76 42 77
REMARK SMILES IDX 68 78 69 79 77 80 70 81 71 82 75 83 78 84 72 85 73 86 76 87
REMARK SMILES IDX 74 88 53 89 54 90 62 91 55 92 56 93 60 94 63 95 57 96 58 97
REMARK SMILES IDX 61 98 59 99
REMARK H PARENT 20 5 12 9 24 33 83 52 51 63
REMARK Flexibility Score: inf
ROOT
ATOM      1  C   UNL A   1      35.261  32.001  31.871  1.00  0.00     0.118 C 
ENDROOT
BRANCH   1   2
ATOM      2  N   UNL A   1      35.285  32.556  33.213  1.00  0.00    -0.351 N 
ATOM      3  C   UNL A   1      36.339  32.986  33.965  1.00  0.00     0.278 C 
ATOM      4  O   UNL A   1      36.100  33.377  35.110  1.00  0.00    -0.268 OA
ATOM      5  H   UNL A   1      34.404  32.635  33.647  1.00  0.00     0.163 HD
BRANCH   3   6
ATOM      6  C   UNL A   1      37.771  33.032  33.390  1.00  0.00     0.274 C 
ATOM      7  N   UNL A   1      38.767  32.708  34.447  1.00  0.00    -0.317 N 
ATOM      8  C   UNL A   1      40.151  32.845  33.982  1.00  0.00     0.263 C 
ATOM      9  H   UNL A   1      38.622  33.411  35.171  1.00  0.00     0.349 HD
ATOM     10  C   UNL A   1      40.410  34.237  33.404  1.00  0.00     0.062 C 
ATOM     11  C   UNL A   1      38.022  34.381  32.697  1.00  0.00     0.076 C 
ATOM     12  C   UNL A   1      39.468  34.524  32.243  1.00  0.00     0.012 C 
BRANCH   7  13
ATOM     13  C   UNL A   1      38.533  31.389  35.091  1.00  0.00     0.364 C 
BRANCH  13  14
ATOM     14  C   UNL A   1      39.253  30.216  34.511  1.00  0.00     0.282 A 
ATOM     15  C   UNL A   1      40.535  28.655  33.969  1.00  0.00     0.202 A 
ATOM     16  N   UNL A   1      39.590  28.617  33.020  1.00  0.00    -0.057 NA
ATOM     17  N   UNL A   1      40.364  29.642  34.910  1.00  0.00    -0.186 NA
ATOM     18  O   UNL A   1      38.712  29.628  33.405  1.00  0.00    -0.333 OA
BRANCH  15  19
ATOM     19  C   UNL A   1      41.615  27.698  34.063  1.00  0.00     0.027 A 
ATOM     20  C   UNL A   1      43.674  25.827  34.341  1.00  0.00     0.160 A 
ATOM     21  C   UNL A   1      43.787  26.871  33.409  1.00  0.00     0.051 A 
ATOM     22  C   UNL A   1      42.533  25.719  35.147  1.00  0.00     0.161 A 
ATOM     23  C   UNL A   1      42.750  27.796  33.258  1.00  0.00     0.016 A 
ATOM     24  C   UNL A   1      41.517  26.666  35.004  1.00  0.00     0.062 A 
BRANCH  20  25
ATOM     25  O   UNL A   1      44.752  25.004  34.525  1.00  0.00    -0.493 OA
ATOM     26  C   UNL A   1      44.748  23.905  33.613  1.00  0.00     0.278 C 
ENDBRANCH  20  25
BRANCH  22  27
ATOM     27  O   UNL A   1      42.267  24.802  36.126  1.00  0.00    -0.493 OA
ATOM     28  C   UNL A   1      41.200  25.079  37.018  1.00  0.00     0.278 C 
ENDBRANCH  22  27
ENDBRANCH  15  19
ENDBRANCH  13  14
ENDBRANCH   7  13
ENDBRANCH   3   6
ENDBRANCH   1   2
BRANCH   1  29
ATOM     29  C   UNL A   1      34.717  33.010  30.869  1.00  0.00     0.042 C 
BRANCH  29  30
ATOM     30  C   UNL A   1      35.192  32.764  29.444  1.00  0.00     0.118 C 
BRANCH  30  31
ATOM     31  N   UNL A   1      34.403  31.746  28.767  1.00  0.00    -0.352 N 
ATOM     32  C   UNL A   1      34.798  30.554  28.212  1.00  0.00     0.251 C 
ATOM     33  H   UNL A   1      33.441  31.939  28.697  1.00  0.00     0.163 HD
ATOM     34  O   UNL A   1      34.024  29.924  27.501  1.00  0.00    -0.269 OA
BRANCH  32  35
ATOM     35  C   UNL A   1      36.163  30.040  28.453  1.00  0.00     0.039 A 
ATOM     36  C   UNL A   1      37.134  30.220  27.465  1.00  0.00     0.014 A 
ATOM     37  C   UNL A   1      36.484  29.374  29.638  1.00  0.00     0.014 A 
ATOM     38  C   UNL A   1      38.441  29.787  27.694  1.00  0.00     0.010 A 
ATOM     39  C   UNL A   1      37.805  29.024  29.901  1.00  0.00     0.010 A 
ATOM     40  C   UNL A   1      38.796  29.220  28.929  1.00  0.00    -0.014 A 
BRANCH  40  41
ATOM     41  C   UNL A   1      40.198  28.822  29.218  1.00  0.00     0.031 A 
ATOM     42  C   UNL A   1      41.102  29.747  29.985  1.00  0.00     0.074 A 
ATOM     43  C   UNL A   1      40.670  27.654  28.741  1.00  0.00     0.049 A 
ATOM     44  N   UNL A   1      42.370  29.606  30.281  1.00  0.00    -0.248 NA
ATOM     45  C   UNL A   1      40.512  31.007  30.462  1.00  0.00     0.031 C 
ATOM     46  C   UNL A   1      39.902  26.693  27.946  1.00  0.00     0.029 A 
ATOM     47  N   UNL A   1      41.912  27.079  28.846  1.00  0.00    -0.354 N 
ATOM     48  C   UNL A   1      42.727  30.761  30.966  1.00  0.00     0.074 A 
ATOM     49  C   UNL A   1      41.562  31.617  30.990  1.00  0.00     0.031 C 
ATOM     50  C   UNL A   1      40.682  25.638  27.659  1.00  0.00     0.029 A 
ATOM     51  C   UNL A   1      42.014  25.867  28.209  1.00  0.00     0.049 A 
ATOM     52  H   UNL A   1      42.658  27.495  29.334  1.00  0.00     0.167 HD
ATOM     53  C   UNL A   1      43.913  31.067  31.546  1.00  0.00     0.037 A 
ATOM     54  C   UNL A   1      43.068  25.039  28.072  1.00  0.00     0.037 A 
ATOM     55  C   UNL A   1      45.063  30.203  31.535  1.00  0.00     0.049 A 
ATOM     56  C   UNL A   1      44.382  25.418  28.705  1.00  0.00     0.074 A 
ATOM     57  C   UNL A   1      46.294  30.398  32.137  1.00  0.00     0.029 A 
ATOM     58  N   UNL A   1      45.127  28.980  30.883  1.00  0.00    -0.354 N 
ATOM     59  N   UNL A   1      44.686  26.479  29.411  1.00  0.00    -0.248 NA
ATOM     60  C   UNL A   1      45.496  24.478  28.524  1.00  0.00     0.031 C 
ATOM     61  C   UNL A   1      47.120  29.321  31.804  1.00  0.00     0.029 A 
ATOM     62  C   UNL A   1      46.385  28.422  31.046  1.00  0.00     0.049 A 
ATOM     63  H   UNL A   1      44.388  28.568  30.380  1.00  0.00     0.167 HD
ATOM     64  C   UNL A   1      46.014  26.320  29.786  1.00  0.00     0.074 A 
ATOM     65  C   UNL A   1      46.451  25.050  29.244  1.00  0.00     0.031 C 
ATOM     66  C   UNL A   1      46.802  27.151  30.511  1.00  0.00     0.037 A 
BRANCH  53  67
ATOM     67  C   UNL A   1      44.025  32.389  32.249  1.00  0.00     0.064 A 
ATOM     68  C   UNL A   1      43.744  32.523  33.617  1.00  0.00     0.173 A 
ATOM     69  C   UNL A   1      44.467  33.528  31.558  1.00  0.00     0.173 A 
ATOM     70  F   UNL A   1      43.307  31.468  34.323  1.00  0.00    -0.203 F 
ATOM     71  C   UNL A   1      43.876  33.750  34.260  1.00  0.00     0.198 A 
ATOM     72  C   UNL A   1      44.630  34.746  32.212  1.00  0.00     0.198 A 
ATOM     73  F   UNL A   1      44.755  33.456  30.249  1.00  0.00    -0.203 F 
ATOM     74  F   UNL A   1      43.556  33.863  35.558  1.00  0.00    -0.200 F 
ATOM     75  C   UNL A   1      44.328  34.858  33.561  1.00  0.00     0.200 A 
ATOM     76  F   UNL A   1      45.082  35.812  31.537  1.00  0.00    -0.200 F 
ATOM     77  F   UNL A   1      44.468  36.036  34.184  1.00  0.00    -0.200 F 
ENDBRANCH  53  67
BRANCH  54  78
ATOM     78  C   UNL A   1      42.928  23.765  27.317  1.00  0.00     0.064 A 
ATOM     79  C   UNL A   1      42.410  22.616  27.931  1.00  0.00     0.173 A 
ATOM     80  C   UNL A   1      43.331  23.662  25.978  1.00  0.00     0.173 A 
ATOM     81  F   UNL A   1      42.029  22.658  29.216  1.00  0.00    -0.203 F 
ATOM     82  C   UNL A   1      42.331  21.405  27.246  1.00  0.00     0.198 A 
ATOM     83  C   UNL A   1      43.219  22.460  25.282  1.00  0.00     0.198 A 
ATOM     84  F   UNL A   1      43.827  24.732  25.340  1.00  0.00    -0.203 F 
ATOM     85  F   UNL A   1      41.889  20.309  27.876  1.00  0.00    -0.200 F 
ATOM     86  C   UNL A   1      42.732  21.329  25.920  1.00  0.00     0.200 A 
ATOM     87  F   UNL A   1      43.591  22.394  23.997  1.00  0.00    -0.200 F 
ATOM     88  F   UNL A   1      42.656  20.165  25.262  1.00  0.00    -0.200 F 
ENDBRANCH  54  78
BRANCH  66  89
ATOM     89  C   UNL A   1      48.204  26.696  30.798  1.00  0.00     0.064 A 
ATOM     90  C   UNL A   1      48.507  25.893  31.907  1.00  0.00     0.173 A 
ATOM     91  C   UNL A   1      49.251  27.036  29.928  1.00  0.00     0.173 A 
ATOM     92  F   UNL A   1      47.545  25.552  32.778  1.00  0.00    -0.203 F 
ATOM     93  C   UNL A   1      49.813  25.474  32.152  1.00  0.00     0.198 A 
ATOM     94  C   UNL A   1      50.549  26.585  30.157  1.00  0.00     0.198 A 
ATOM     95  F   UNL A   1      49.015  27.796  28.848  1.00  0.00    -0.203 F 
ATOM     96  F   UNL A   1      50.088  24.754  33.248  1.00  0.00    -0.200 F 
ATOM     97  C   UNL A   1      50.830  25.813  31.272  1.00  0.00     0.200 A 
ATOM     98  F   UNL A   1      51.526  26.900  29.296  1.00  0.00    -0.200 F 
ATOM     99  F   UNL A   1      52.083  25.400  31.504  1.00  0.00    -0.200 F 
ENDBRANCH  66  89
ENDBRANCH  40  41
ENDBRANCH  32  35
ENDBRANCH  30  31
ENDBRANCH  29  30
ENDBRANCH   1  29
TORSDOF 15
ENDMDL
MODEL 3
REMARK VINA RESULT:     -12.6      5.306     11.331
REMARK SMILES COc1ccc(-c2noc(C[N@H+]3CCCC[C@@H]3C(=O)NCCCNC(=O)c3ccc(-c4c5nc(c(-c6c(F)c(F)c(F)c(F)c6F)c6ccc([nH]6)c(-c6c(F)c(F)c(F)c(F)c6F)c6nc(c(-c7c(F)c(F)c(F)c(F)c7F)c7ccc4[nH]7)C=C6)C=C5)cc3)n2)cc1OC
REMARK SMILES IDX 21 1 20 2 18 3 19 4 17 6 12 7 13 8 14 10 16 11 15 12 11 13
REMARK SMILES IDX 10 14 7 15 8 16 90 17 9 18 6 19 3 20 4 21 92 22 5 23 91 24
REMARK SMILES IDX 2 25 1 26 93 27 94 28 22 29 23 30 24 31 25 32 26 34 27 35
REMARK SMILES IDX 28 36 89 37 29 38 88 39 30 40 31 41 32 42 82 43 33 44 87 45
REMARK SMILES IDX 81 46 83 47 34 48 86 49 80 50 79 51 35 53 67 54 47 55 66 56
REMARK SMILES IDX 48 57 51 58 65 59 84 60 49 61 50 62 64 64 85 65 52 66 36 67
REMARK SMILES IDX 37 68 45 69 38 70 39 71 43 72 46 73 40 74 41 75 44 76 42 77
REMARK SMILES IDX 68 78 69 79 77 80 70 81 71 82 75 83 78 84 72 85 73 86 76 87
REMARK SMILES IDX 74 88 53 89 54 90 62 91 55 92 56 93 60 94 63 95 57 96 58 97
REMARK SMILES IDX 61 98 59 99
REMARK H PARENT 20 5 12 9 24 33 83 52 51 63
REMARK Flexibility Score: inf
ROOT
ATOM      1  C   UNL A   1      37.706  21.518  24.808  1.00  0.00     0.118 C 
ENDROOT
BRANCH   1   2
ATOM      2  N   UNL A   1      36.776  21.774  25.893  1.00  0.00    -0.351 N 
ATOM      3  C   UNL A   1      35.411  21.794  25.890  1.00  0.00     0.278 C 
ATOM      4  O   UNL A   1      34.843  22.088  26.945  1.00  0.00    -0.268 OA
ATOM      5  H   UNL A   1      37.193  21.961  26.765  1.00  0.00     0.163 HD
BRANCH   3   6
ATOM      6  C   UNL A   1      34.604  21.412  24.631  1.00  0.00     0.274 C 
ATOM      7  N   UNL A   1      33.757  22.554  24.191  1.00  0.00    -0.317 N 
ATOM      8  C   UNL A   1      32.885  22.210  23.062  1.00  0.00     0.263 C 
ATOM      9  H   UNL A   1      33.152  22.757  24.986  1.00  0.00     0.349 HD
ATOM     10  C   UNL A   1      32.023  20.988  23.376  1.00  0.00     0.062 C 
ATOM     11  C   UNL A   1      33.815  20.116  24.878  1.00  0.00     0.076 C 
ATOM     12  C   UNL A   1      32.894  19.785  23.712  1.00  0.00     0.012 C 
BRANCH   7  13
ATOM     13  C   UNL A   1      34.532  23.795  23.927  1.00  0.00     0.364 C 
BRANCH  13  14
ATOM     14  C   UNL A   1      33.781  24.952  23.355  1.00  0.00     0.282 A 
ATOM     15  C   UNL A   1      32.539  26.573  22.900  1.00  0.00     0.202 A 
ATOM     16  N   UNL A   1      33.169  26.335  21.741  1.00  0.00    -0.057 NA
ATOM     17  N   UNL A   1      32.888  25.727  23.926  1.00  0.00    -0.186 NA
ATOM     18  O   UNL A   1      34.028  25.284  22.055  1.00  0.00    -0.333 OA
BRANCH  15  19
ATOM     19  C   UNL A   1      31.621  27.671  23.103  1.00  0.00     0.027 A 
ATOM     20  C   UNL A   1      29.879  29.802  23.591  1.00  0.00     0.160 A 
ATOM     21  C   UNL A   1      29.599  28.879  22.572  1.00  0.00     0.051 A 
ATOM     22  C   UNL A   1      31.028  29.659  24.379  1.00  0.00     0.161 A 
ATOM     23  C   UNL A   1      30.479  27.823  22.316  1.00  0.00     0.016 A 
ATOM     24  C   UNL A   1      31.884  28.585  24.130  1.00  0.00     0.062 A 
BRANCH  20  25
ATOM     25  O   UNL A   1      28.942  30.761  23.871  1.00  0.00    -0.493 OA
ATOM     26  C   UNL A   1      28.832  31.723  22.822  1.00  0.00     0.278 C 
ENDBRANCH  20  25
BRANCH  22  27
ATOM     27  O   UNL A   1      31.440  30.430  25.431  1.00  0.00    -0.493 OA
ATOM     28  C   UNL A   1      32.655  30.078  26.072  1.00  0.00     0.278 C 
ENDBRANCH  22  27
ENDBRANCH  15  19
ENDBRANCH  13  14
ENDBRANCH   7  13
ENDBRANCH   3   6
ENDBRANCH   1   2
BRANCH   1  29
ATOM     29  C   UNL A   1      38.421  20.186  25.000  1.00  0.00     0.042 C 
BRANCH  29  30
ATOM     30  C   UNL A   1      39.288  20.140  26.250  1.00  0.00     0.118 C 
BRANCH  30  31
ATOM     31  N   UNL A   1      40.386  19.194  26.127  1.00  0.00    -0.352 N 
ATOM     32  C   UNL A   1      41.738  19.421  26.064  1.00  0.00     0.251 C 
ATOM     33  H   UNL A   1      40.120  18.247  26.083  1.00  0.00     0.163 HD
ATOM     34  O   UNL A   1      42.498  18.512  25.751  1.00  0.00    -0.269 OA
BRANCH  32  35
ATOM     35  C   UNL A   1      42.278  20.768  26.349  1.00  0.00     0.039 A 
ATOM     36  C   UNL A   1      42.557  21.622  25.280  1.00  0.00     0.014 A 
ATOM     37  C   UNL A   1      42.520  21.184  27.661  1.00  0.00     0.014 A 
ATOM     38  C   UNL A   1      43.020  22.915  25.532  1.00  0.00     0.010 A 
ATOM     39  C   UNL A   1      42.894  22.499  27.913  1.00  0.00     0.010 A 
ATOM     40  C   UNL A   1      43.155  23.377  26.851  1.00  0.00    -0.014 A 
BRANCH  40  41
ATOM     41  C   UNL A   1      43.575  24.773  27.138  1.00  0.00     0.031 A 
ATOM     42  C   UNL A   1      42.589  25.755  27.708  1.00  0.00     0.074 A 
ATOM     43  C   UNL A   1      44.825  25.169  26.831  1.00  0.00     0.049 A 
ATOM     44  N   UNL A   1      42.745  27.029  27.967  1.00  0.00    -0.248 NA
ATOM     45  C   UNL A   1      41.241  25.245  28.005  1.00  0.00     0.031 C 
ATOM     46  C   UNL A   1      45.858  24.321  26.233  1.00  0.00     0.029 A 
ATOM     47  N   UNL A   1      45.439  26.388  26.972  1.00  0.00    -0.354 N 
ATOM     48  C   UNL A   1      41.518  27.471  28.445  1.00  0.00     0.074 A 
ATOM     49  C   UNL A   1      40.610  26.346  28.384  1.00  0.00     0.031 C 
ATOM     50  C   UNL A   1      46.983  25.038  26.083  1.00  0.00     0.029 A 
ATOM     51  C   UNL A   1      46.739  26.405  26.530  1.00  0.00     0.049 A 
ATOM     52  H   UNL A   1      44.990  27.177  27.354  1.00  0.00     0.167 HD
ATOM     53  C   UNL A   1      41.186  28.697  28.916  1.00  0.00     0.037 A 
ATOM     54  C   UNL A   1      47.631  27.414  26.480  1.00  0.00     0.037 A 
ATOM     55  C   UNL A   1      42.098  29.807  28.991  1.00  0.00     0.049 A 
ATOM     56  C   UNL A   1      47.225  28.773  26.986  1.00  0.00     0.074 A 
ATOM     57  C   UNL A   1      41.875  31.074  29.500  1.00  0.00     0.029 A 
ATOM     58  N   UNL A   1      43.410  29.784  28.539  1.00  0.00    -0.354 N 
ATOM     59  N   UNL A   1      46.084  29.159  27.501  1.00  0.00    -0.248 NA
ATOM     60  C   UNL A   1      48.237  29.835  26.908  1.00  0.00     0.031 C 
ATOM     61  C   UNL A   1      43.032  31.834  29.306  1.00  0.00     0.029 A 
ATOM     62  C   UNL A   1      43.999  31.023  28.733  1.00  0.00     0.049 A 
ATOM     63  H   UNL A   1      43.857  29.002  28.140  1.00  0.00     0.167 HD
ATOM     64  C   UNL A   1      46.250  30.497  27.838  1.00  0.00     0.074 A 
ATOM     65  C   UNL A   1      47.610  30.850  27.485  1.00  0.00     0.031 C 
ATOM     66  C   UNL A   1      45.357  31.356  28.387  1.00  0.00     0.037 A 
BRANCH  53  67
ATOM     67  C   UNL A   1      39.778  28.902  29.395  1.00  0.00     0.064 A 
ATOM     68  C   UNL A   1      39.405  28.639  30.722  1.00  0.00     0.173 A 
ATOM     69  C   UNL A   1      38.799  29.416  28.531  1.00  0.00     0.173 A 
ATOM     70  F   UNL A   1      40.299  28.135  31.588  1.00  0.00    -0.203 F 
ATOM     71  C   UNL A   1      38.101  28.857  31.158  1.00  0.00     0.198 A 
ATOM     72  C   UNL A   1      37.505  29.665  28.979  1.00  0.00     0.198 A 
ATOM     73  F   UNL A   1      39.102  29.691  27.252  1.00  0.00    -0.203 F 
ATOM     74  F   UNL A   1      37.757  28.553  32.418  1.00  0.00    -0.200 F 
ATOM     75  C   UNL A   1      37.155  29.379  30.290  1.00  0.00     0.200 A 
ATOM     76  F   UNL A   1      36.595  30.184  28.142  1.00  0.00    -0.200 F 
ATOM     77  F   UNL A   1      35.903  29.602  30.714  1.00  0.00    -0.200 F 
ENDBRANCH  53  67
BRANCH  54  78
ATOM     78  C   UNL A   1      48.998  27.180  25.943  1.00  0.00     0.064 A 
ATOM     79  C   UNL A   1      50.058  26.837  26.794  1.00  0.00     0.173 A 
ATOM     80  C   UNL A   1      49.279  27.319  24.576  1.00  0.00     0.173 A 
ATOM     81  F   UNL A   1      49.845  26.712  28.112  1.00  0.00    -0.203 F 
ATOM     82  C   UNL A   1      51.353  26.674  26.304  1.00  0.00     0.198 A 
ATOM     83  C   UNL A   1      50.567  27.121  24.082  1.00  0.00     0.198 A 
ATOM     84  F   UNL A   1      48.301  27.639  23.716  1.00  0.00    -0.203 F 
ATOM     85  F   UNL A   1      52.357  26.407  27.148  1.00  0.00    -0.200 F 
ATOM     86  C   UNL A   1      51.605  26.812  24.947  1.00  0.00     0.200 A 
ATOM     87  F   UNL A   1      50.804  27.239  22.768  1.00  0.00    -0.200 F 
ATOM     88  F   UNL A   1      52.850  26.656  24.476  1.00  0.00    -0.200 F 
ENDBRANCH  54  78
BRANCH  66  89
ATOM     89  C   UNL A   1      45.833  32.750  28.681  1.00  0.00     0.064 A 
ATOM     90  C   UNL A   1      46.435  33.083  29.904  1.00  0.00     0.173 A 
ATOM     91  C   UNL A   1      45.720  33.757  27.710  1.00  0.00     0.173 A 
ATOM     92  F   UNL A   1      46.553  32.161  30.872  1.00  0.00    -0.203 F 
ATOM     93  C   UNL A   1      46.877  34.380  30.153  1.00  0.00     0.198 A 
ATOM     94  C   UNL A   1      46.196  35.043  27.950  1.00  0.00     0.198 A 
ATOM     95  F   UNL A   1      45.159  33.490  26.520  1.00  0.00    -0.203 F 
ATOM     96  F   UNL A   1      47.399  34.688  31.349  1.00  0.00    -0.200 F 
ATOM     97  C   UNL A   1      46.765  35.355  29.174  1.00  0.00     0.200 A 
ATOM     98  F   UNL A   1      46.102  35.979  26.996  1.00  0.00    -0.200 F 
ATOM     99  F   UNL A   1      47.200  36.600  29.414  1.00  0.00    -0.200 F 
ENDBRANCH  66  89
ENDBRANCH  40  41
ENDBRANCH  32  35
ENDBRANCH  30  31
ENDBRANCH  29  30
ENDBRANCH   1  29
TORSDOF 15
ENDMDL
