MODEL 1
REMARK VINA RESULT:      -9.7      0.000      0.000
REMARK SMILES COc1ccc(/C=C/c2cc(OC)cc(OC)c2/C=C/C(=O)NCCCNC(=O)c2ccc(-c3c4nc(c(-c5c(F)c(F)c(F)c(F)c5F)c5ccc([nH]5)c(-c5c(F)c(F)c(F)c(F)c5F)c5nc(c(-c6c(F)c(F)c(F)c(F)c6F)c6ccc3[nH]6)C=C5)C=C4)cc2)cc1
REMARK SMILES IDX 24 1 23 2 21 3 22 4 20 6 19 7 18 8 9 9 10 10 11 11 15 12
REMARK SMILES IDX 14 13 8 14 7 15 6 16 3 17 4 18 94 19 5 20 93 21 2 22 1 23
REMARK SMILES IDX 12 24 13 25 16 26 17 27 25 28 26 29 27 30 28 31 29 33 30 34
REMARK SMILES IDX 31 35 92 36 32 37 91 38 33 39 34 40 35 41 85 42 36 43 90 44
REMARK SMILES IDX 84 45 86 46 37 47 89 48 83 49 82 50 38 52 70 53 50 54 69 55
REMARK SMILES IDX 51 56 54 57 68 58 87 59 52 60 53 61 67 63 88 64 55 65 39 66
REMARK SMILES IDX 40 67 48 68 41 69 42 70 46 71 49 72 43 73 44 74 47 75 45 76
REMARK SMILES IDX 71 77 72 78 80 79 73 80 74 81 78 82 81 83 75 84 76 85 79 86
REMARK SMILES IDX 77 87 56 88 57 89 65 90 58 91 59 92 63 93 66 94 60 95 61 96
REMARK SMILES IDX 64 97 62 98
REMARK H PARENT 23 5 27 32 86 51 54 62
REMARK Flexibility Score: inf
ROOT
ATOM      1  C   UNL A   1      43.362  22.176  25.694  1.00  0.00     0.118 C 
ENDROOT
BRANCH   1   2
ATOM      2  N   UNL A   1      42.853  23.466  25.283  1.00  0.00    -0.352 N 
ATOM      3  C   UNL A   1      43.562  24.608  25.083  1.00  0.00     0.244 C 
ATOM      4  O   UNL A   1      43.015  25.639  24.707  1.00  0.00    -0.270 OA
ATOM      5  H   UNL A   1      41.881  23.524  25.133  1.00  0.00     0.163 HD
BRANCH   3   6
ATOM      6  C   UNL A   1      45.021  24.561  25.274  1.00  0.00     0.072 C 
ATOM      7  C   UNL A   1      45.702  25.683  25.550  1.00  0.00     0.018 C 
BRANCH   7   8
ATOM      8  C   UNL A   1      47.170  25.720  25.591  1.00  0.00     0.024 A 
ATOM      9  C   UNL A   1      47.830  25.216  26.753  1.00  0.00    -0.011 A 
ATOM     10  C   UNL A   1      49.230  25.298  26.858  1.00  0.00     0.055 A 
ATOM     11  C   UNL A   1      49.992  25.887  25.855  1.00  0.00     0.123 A 
ATOM     12  C   UNL A   1      47.955  26.296  24.564  1.00  0.00     0.130 A 
ATOM     13  C   UNL A   1      49.353  26.354  24.713  1.00  0.00     0.093 A 
BRANCH   9  14
ATOM     14  C   UNL A   1      47.145  24.677  27.953  1.00  0.00     0.009 C 
ATOM     15  C   UNL A   1      46.353  25.392  28.771  1.00  0.00     0.009 C 
BRANCH  15  16
ATOM     16  C   UNL A   1      45.649  24.852  29.958  1.00  0.00    -0.025 A 
ATOM     17  C   UNL A   1      44.241  23.770  32.163  1.00  0.00     0.118 A 
ATOM     18  C   UNL A   1      45.205  24.759  32.354  1.00  0.00     0.047 A 
ATOM     19  C   UNL A   1      43.964  23.329  30.873  1.00  0.00     0.047 A 
ATOM     20  C   UNL A   1      45.910  25.286  31.264  1.00  0.00     0.012 A 
ATOM     21  C   UNL A   1      44.677  23.852  29.783  1.00  0.00     0.012 A 
BRANCH  17  22
ATOM     22  O   UNL A   1      43.594  23.334  33.287  1.00  0.00    -0.497 OA
ATOM     23  C   UNL A   1      44.411  23.315  34.457  1.00  0.00     0.278 C 
ENDBRANCH  17  22
ENDBRANCH  15  16
ENDBRANCH   9  14
BRANCH  11  24
ATOM     24  O   UNL A   1      51.336  25.970  26.096  1.00  0.00    -0.497 OA
ATOM     25  C   UNL A   1      51.877  27.289  26.157  1.00  0.00     0.278 C 
ENDBRANCH  11  24
BRANCH  12  26
ATOM     26  O   UNL A   1      47.611  26.893  23.383  1.00  0.00    -0.496 OA
ATOM     27  C   UNL A   1      47.087  28.203  23.282  1.00  0.00     0.278 C 
ENDBRANCH  12  26
ENDBRANCH   7   8
ENDBRANCH   3   6
ENDBRANCH   1   2
BRANCH   1  28
ATOM     28  C   UNL A   1      42.233  21.229  26.066  1.00  0.00     0.042 C 
BRANCH  28  29
ATOM     29  C   UNL A   1      41.204  21.887  26.971  1.00  0.00     0.118 C 
BRANCH  29  30
ATOM     30  N   UNL A   1      39.887  21.944  26.343  1.00  0.00    -0.352 N 
ATOM     31  C   UNL A   1      38.921  22.913  26.429  1.00  0.00     0.251 C 
ATOM     32  H   UNL A   1      39.659  21.173  25.776  1.00  0.00     0.163 HD
ATOM     33  O   UNL A   1      37.771  22.669  26.084  1.00  0.00    -0.269 OA
BRANCH  31  34
ATOM     34  C   UNL A   1      39.288  24.255  26.920  1.00  0.00     0.039 A 
ATOM     35  C   UNL A   1      39.063  24.580  28.257  1.00  0.00     0.014 A 
ATOM     36  C   UNL A   1      39.841  25.194  26.046  1.00  0.00     0.014 A 
ATOM     37  C   UNL A   1      39.439  25.838  28.727  1.00  0.00     0.010 A 
ATOM     38  C   UNL A   1      40.309  26.403  26.537  1.00  0.00     0.010 A 
ATOM     39  C   UNL A   1      40.094  26.746  27.878  1.00  0.00    -0.014 A 
BRANCH  39  40
ATOM     40  C   UNL A   1      40.554  28.068  28.366  1.00  0.00     0.031 A 
ATOM     41  C   UNL A   1      42.019  28.314  28.595  1.00  0.00     0.074 A 
ATOM     42  C   UNL A   1      39.646  29.014  28.673  1.00  0.00     0.049 A 
ATOM     43  N   UNL A   1      42.616  29.370  29.087  1.00  0.00    -0.248 NA
ATOM     44  C   UNL A   1      42.937  27.213  28.258  1.00  0.00     0.031 C 
ATOM     45  C   UNL A   1      38.195  28.864  28.548  1.00  0.00     0.029 A 
ATOM     46  N   UNL A   1      39.809  30.284  29.163  1.00  0.00    -0.354 N 
ATOM     47  C   UNL A   1      43.967  29.053  29.133  1.00  0.00     0.074 A 
ATOM     48  C   UNL A   1      44.099  27.686  28.683  1.00  0.00     0.031 C 
ATOM     49  C   UNL A   1      37.602  30.008  28.923  1.00  0.00     0.029 A 
ATOM     50  C   UNL A   1      38.626  30.955  29.353  1.00  0.00     0.049 A 
ATOM     51  H   UNL A   1      40.690  30.678  29.359  1.00  0.00     0.167 HD
ATOM     52  C   UNL A   1      45.008  29.843  29.491  1.00  0.00     0.037 A 
ATOM     53  C   UNL A   1      38.396  32.192  29.831  1.00  0.00     0.037 A 
ATOM     54  C   UNL A   1      44.867  31.211  29.914  1.00  0.00     0.049 A 
ATOM     55  C   UNL A   1      39.569  33.048  30.225  1.00  0.00     0.074 A 
ATOM     56  C   UNL A   1      45.856  32.121  30.237  1.00  0.00     0.029 A 
ATOM     57  N   UNL A   1      43.652  31.865  30.074  1.00  0.00    -0.354 N 
ATOM     58  N   UNL A   1      40.849  32.767  30.190  1.00  0.00    -0.248 NA
ATOM     59  C   UNL A   1      39.265  34.398  30.717  1.00  0.00     0.031 C 
ATOM     60  C   UNL A   1      45.241  33.308  30.648  1.00  0.00     0.029 A 
ATOM     61  C   UNL A   1      43.869  33.159  30.519  1.00  0.00     0.049 A 
ATOM     62  H   UNL A   1      42.769  31.468  29.899  1.00  0.00     0.167 HD
ATOM     63  C   UNL A   1      41.504  33.911  30.626  1.00  0.00     0.074 A 
ATOM     64  C   UNL A   1      40.480  34.896  30.902  1.00  0.00     0.031 C 
ATOM     65  C   UNL A   1      42.834  34.127  30.782  1.00  0.00     0.037 A 
BRANCH  52  66
ATOM     66  C   UNL A   1      46.385  29.247  29.438  1.00  0.00     0.064 A 
ATOM     67  C   UNL A   1      46.963  28.620  30.554  1.00  0.00     0.173 A 
ATOM     68  C   UNL A   1      47.129  29.276  28.249  1.00  0.00     0.173 A 
ATOM     69  F   UNL A   1      46.302  28.574  31.720  1.00  0.00    -0.203 F 
ATOM     70  C   UNL A   1      48.243  28.077  30.490  1.00  0.00     0.198 A 
ATOM     71  C   UNL A   1      48.395  28.700  28.178  1.00  0.00     0.198 A 
ATOM     72  F   UNL A   1      46.625  29.857  27.149  1.00  0.00    -0.203 F 
ATOM     73  F   UNL A   1      48.795  27.534  31.585  1.00  0.00    -0.200 F 
ATOM     74  C   UNL A   1      48.955  28.109  29.300  1.00  0.00     0.200 A 
ATOM     75  F   UNL A   1      49.075  28.720  27.024  1.00  0.00    -0.200 F 
ATOM     76  F   UNL A   1      50.184  27.579  29.238  1.00  0.00    -0.200 F 
ENDBRANCH  52  66
BRANCH  53  77
ATOM     77  C   UNL A   1      37.004  32.702  29.935  1.00  0.00     0.064 A 
ATOM     78  C   UNL A   1      36.395  33.357  28.855  1.00  0.00     0.173 A 
ATOM     79  C   UNL A   1      36.253  32.545  31.109  1.00  0.00     0.173 A 
ATOM     80  F   UNL A   1      37.078  33.547  27.716  1.00  0.00    -0.203 F 
ATOM     81  C   UNL A   1      35.098  33.858  28.954  1.00  0.00     0.198 A 
ATOM     82  C   UNL A   1      34.945  33.018  31.197  1.00  0.00     0.198 A 
ATOM     83  F   UNL A   1      36.785  31.919  32.168  1.00  0.00    -0.203 F 
ATOM     84  F   UNL A   1      34.560  34.524  27.924  1.00  0.00    -0.200 F 
ATOM     85  C   UNL A   1      34.373  33.683  30.122  1.00  0.00     0.200 A 
ATOM     86  F   UNL A   1      34.241  32.832  32.321  1.00  0.00    -0.200 F 
ATOM     87  F   UNL A   1      33.124  34.162  30.216  1.00  0.00    -0.200 F 
ENDBRANCH  53  77
BRANCH  65  88
ATOM     88  C   UNL A   1      43.258  35.493  31.238  1.00  0.00     0.064 A 
ATOM     89  C   UNL A   1      43.307  35.837  32.597  1.00  0.00     0.173 A 
ATOM     90  C   UNL A   1      43.661  36.459  30.302  1.00  0.00     0.173 A 
ATOM     91  F   UNL A   1      42.920  34.956  33.531  1.00  0.00    -0.203 F 
ATOM     92  C   UNL A   1      43.716  37.105  33.000  1.00  0.00     0.198 A 
ATOM     93  C   UNL A   1      44.102  37.713  30.710  1.00  0.00     0.198 A 
ATOM     94  F   UNL A   1      43.641  36.178  28.990  1.00  0.00    -0.203 F 
ATOM     95  F   UNL A   1      43.704  37.430  34.300  1.00  0.00    -0.200 F 
ATOM     96  C   UNL A   1      44.121  38.039  32.058  1.00  0.00     0.200 A 
ATOM     97  F   UNL A   1      44.510  38.607  29.798  1.00  0.00    -0.200 F 
ATOM     98  F   UNL A   1      44.523  39.256  32.448  1.00  0.00    -0.200 F 
ENDBRANCH  65  88
ENDBRANCH  39  40
ENDBRANCH  31  34
ENDBRANCH  29  30
ENDBRANCH  28  29
ENDBRANCH   1  28
TORSDOF 16
ENDMDL
MODEL 2
REMARK VINA RESULT:      -9.7      3.758      7.593
REMARK SMILES COc1ccc(/C=C/c2cc(OC)cc(OC)c2/C=C/C(=O)NCCCNC(=O)c2ccc(-c3c4nc(c(-c5c(F)c(F)c(F)c(F)c5F)c5ccc([nH]5)c(-c5c(F)c(F)c(F)c(F)c5F)c5nc(c(-c6c(F)c(F)c(F)c(F)c6F)c6ccc3[nH]6)C=C5)C=C4)cc2)cc1
REMARK SMILES IDX 24 1 23 2 21 3 22 4 20 6 19 7 18 8 9 9 10 10 11 11 15 12
REMARK SMILES IDX 14 13 8 14 7 15 6 16 3 17 4 18 94 19 5 20 93 21 2 22 1 23
REMARK SMILES IDX 12 24 13 25 16 26 17 27 25 28 26 29 27 30 28 31 29 33 30 34
REMARK SMILES IDX 31 35 92 36 32 37 91 38 33 39 34 40 35 41 85 42 36 43 90 44
REMARK SMILES IDX 84 45 86 46 37 47 89 48 83 49 82 50 38 52 70 53 50 54 69 55
REMARK SMILES IDX 51 56 54 57 68 58 87 59 52 60 53 61 67 63 88 64 55 65 39 66
REMARK SMILES IDX 40 67 48 68 41 69 42 70 46 71 49 72 43 73 44 74 47 75 45 76
REMARK SMILES IDX 71 77 72 78 80 79 73 80 74 81 78 82 81 83 75 84 76 85 79 86
REMARK SMILES IDX 77 87 56 88 57 89 65 90 58 91 59 92 63 93 66 94 60 95 61 96
REMARK SMILES IDX 64 97 62 98
REMARK H PARENT 23 5 27 32 86 51 54 62
REMARK Flexibility Score: inf
ROOT
ATOM      1  C   UNL A   1      45.714  24.593  32.512  1.00  0.00     0.118 C 
ENDROOT
BRANCH   1   2
ATOM      2  N   UNL A   1      44.527  23.883  32.090  1.00  0.00    -0.352 N 
ATOM      3  C   UNL A   1      44.153  23.580  30.819  1.00  0.00     0.244 C 
ATOM      4  O   UNL A   1      43.130  22.945  30.591  1.00  0.00    -0.270 OA
ATOM      5  H   UNL A   1      43.919  23.586  32.806  1.00  0.00     0.163 HD
BRANCH   3   6
ATOM      6  C   UNL A   1      45.045  23.984  29.719  1.00  0.00     0.072 C 
ATOM      7  C   UNL A   1      44.532  24.445  28.569  1.00  0.00     0.018 C 
BRANCH   7   8
ATOM      8  C   UNL A   1      45.364  24.710  27.388  1.00  0.00     0.024 A 
ATOM      9  C   UNL A   1      45.873  26.031  27.199  1.00  0.00    -0.011 A 
ATOM     10  C   UNL A   1      46.617  26.339  26.045  1.00  0.00     0.055 A 
ATOM     11  C   UNL A   1      46.848  25.382  25.063  1.00  0.00     0.123 A 
ATOM     12  C   UNL A   1      45.625  23.736  26.396  1.00  0.00     0.130 A 
ATOM     13  C   UNL A   1      46.375  24.091  25.260  1.00  0.00     0.093 A 
BRANCH   9  14
ATOM     14  C   UNL A   1      45.604  27.183  28.093  1.00  0.00     0.009 C 
ATOM     15  C   UNL A   1      45.493  28.460  27.686  1.00  0.00     0.009 C 
BRANCH  15  16
ATOM     16  C   UNL A   1      45.202  29.611  28.573  1.00  0.00    -0.025 A 
ATOM     17  C   UNL A   1      44.672  31.754  30.346  1.00  0.00     0.118 A 
ATOM     18  C   UNL A   1      44.335  31.851  28.997  1.00  0.00     0.047 A 
ATOM     19  C   UNL A   1      45.258  30.584  30.820  1.00  0.00     0.047 A 
ATOM     20  C   UNL A   1      44.608  30.796  28.117  1.00  0.00     0.012 A 
ATOM     21  C   UNL A   1      45.539  29.531  29.935  1.00  0.00     0.012 A 
BRANCH  17  22
ATOM     22  O   UNL A   1      44.346  32.829  31.128  1.00  0.00    -0.497 OA
ATOM     23  C   UNL A   1      43.129  32.669  31.856  1.00  0.00     0.278 C 
ENDBRANCH  17  22
ENDBRANCH  15  16
ENDBRANCH   9  14
BRANCH  11  24
ATOM     24  O   UNL A   1      47.525  25.814  23.956  1.00  0.00    -0.497 OA
ATOM     25  C   UNL A   1      48.706  26.575  24.207  1.00  0.00     0.278 C 
ENDBRANCH  11  24
BRANCH  12  26
ATOM     26  O   UNL A   1      45.236  22.430  26.279  1.00  0.00    -0.496 OA
ATOM     27  C   UNL A   1      44.026  22.017  25.674  1.00  0.00     0.278 C 
ENDBRANCH  12  26
ENDBRANCH   7   8
ENDBRANCH   3   6
ENDBRANCH   1   2
BRANCH   1  28
ATOM     28  C   UNL A   1      46.321  23.967  33.756  1.00  0.00     0.042 C 
BRANCH  28  29
ATOM     29  C   UNL A   1      47.675  24.565  34.101  1.00  0.00     0.118 C 
BRANCH  29  30
ATOM     30  N   UNL A   1      47.748  24.973  35.501  1.00  0.00    -0.352 N 
ATOM     31  C   UNL A   1      47.157  26.038  36.131  1.00  0.00     0.251 C 
ATOM     32  H   UNL A   1      48.303  24.400  36.077  1.00  0.00     0.163 HD
ATOM     33  O   UNL A   1      47.556  26.403  37.230  1.00  0.00    -0.269 OA
BRANCH  31  34
ATOM     34  C   UNL A   1      46.025  26.723  35.478  1.00  0.00     0.039 A 
ATOM     35  C   UNL A   1      46.275  27.806  34.635  1.00  0.00     0.014 A 
ATOM     36  C   UNL A   1      44.716  26.300  35.719  1.00  0.00     0.014 A 
ATOM     37  C   UNL A   1      45.205  28.433  33.995  1.00  0.00     0.010 A 
ATOM     38  C   UNL A   1      43.667  26.856  35.003  1.00  0.00     0.010 A 
ATOM     39  C   UNL A   1      43.898  27.942  34.149  1.00  0.00    -0.014 A 
BRANCH  39  40
ATOM     40  C   UNL A   1      42.752  28.554  33.437  1.00  0.00     0.031 A 
ATOM     41  C   UNL A   1      42.460  28.168  32.014  1.00  0.00     0.074 A 
ATOM     42  C   UNL A   1      42.027  29.510  34.048  1.00  0.00     0.049 A 
ATOM     43  N   UNL A   1      41.556  28.642  31.194  1.00  0.00    -0.248 NA
ATOM     44  C   UNL A   1      43.323  27.135  31.416  1.00  0.00     0.031 C 
ATOM     45  C   UNL A   1      42.257  30.007  35.406  1.00  0.00     0.029 A 
ATOM     46  N   UNL A   1      40.956  30.241  33.603  1.00  0.00    -0.354 N 
ATOM     47  C   UNL A   1      41.752  27.979  29.990  1.00  0.00     0.074 A 
ATOM     48  C   UNL A   1      42.903  27.119  30.161  1.00  0.00     0.031 C 
ATOM     49  C   UNL A   1      41.336  30.940  35.694  1.00  0.00     0.029 A 
ATOM     50  C   UNL A   1      40.480  31.137  34.529  1.00  0.00     0.049 A 
ATOM     51  H   UNL A   1      40.565  30.135  32.706  1.00  0.00     0.167 HD
ATOM     52  C   UNL A   1      41.022  28.060  28.853  1.00  0.00     0.037 A 
ATOM     53  C   UNL A   1      39.470  32.023  34.441  1.00  0.00     0.037 A 
ATOM     54  C   UNL A   1      39.864  28.901  28.703  1.00  0.00     0.049 A 
ATOM     55  C   UNL A   1      38.675  32.096  33.166  1.00  0.00     0.074 A 
ATOM     56  C   UNL A   1      39.012  29.011  27.619  1.00  0.00     0.029 A 
ATOM     57  N   UNL A   1      39.398  29.780  29.671  1.00  0.00    -0.354 N 
ATOM     58  N   UNL A   1      38.820  31.408  32.059  1.00  0.00    -0.248 NA
ATOM     59  C   UNL A   1      37.570  33.062  33.130  1.00  0.00     0.031 C 
ATOM     60  C   UNL A   1      38.065  29.999  27.908  1.00  0.00     0.029 A 
ATOM     61  C   UNL A   1      38.286  30.457  29.196  1.00  0.00     0.049 A 
ATOM     62  H   UNL A   1      39.798  29.904  30.561  1.00  0.00     0.167 HD
ATOM     63  C   UNL A   1      37.810  31.835  31.208  1.00  0.00     0.074 A 
ATOM     64  C   UNL A   1      37.048  32.829  31.934  1.00  0.00     0.031 C 
ATOM     65  C   UNL A   1      37.537  31.439  29.940  1.00  0.00     0.037 A 
BRANCH  52  66
ATOM     66  C   UNL A   1      41.451  27.215  27.687  1.00  0.00     0.064 A 
ATOM     67  C   UNL A   1      42.192  27.750  26.621  1.00  0.00     0.173 A 
ATOM     68  C   UNL A   1      41.144  25.847  27.647  1.00  0.00     0.173 A 
ATOM     69  F   UNL A   1      42.503  29.055  26.601  1.00  0.00    -0.203 F 
ATOM     70  C   UNL A   1      42.578  26.956  25.545  1.00  0.00     0.198 A 
ATOM     71  C   UNL A   1      41.564  25.047  26.587  1.00  0.00     0.198 A 
ATOM     72  F   UNL A   1      40.444  25.280  28.641  1.00  0.00    -0.203 F 
ATOM     73  F   UNL A   1      43.235  27.502  24.512  1.00  0.00    -0.200 F 
ATOM     74  C   UNL A   1      42.272  25.603  25.532  1.00  0.00     0.200 A 
ATOM     75  F   UNL A   1      41.279  23.738  26.583  1.00  0.00    -0.200 F 
ATOM     76  F   UNL A   1      42.651  24.838  24.500  1.00  0.00    -0.200 F 
ENDBRANCH  52  66
BRANCH  53  77
ATOM     77  C   UNL A   1      39.139  32.890  35.602  1.00  0.00     0.064 A 
ATOM     78  C   UNL A   1      39.654  34.190  35.700  1.00  0.00     0.173 A 
ATOM     79  C   UNL A   1      38.303  32.441  36.635  1.00  0.00     0.173 A 
ATOM     80  F   UNL A   1      40.472  34.660  34.746  1.00  0.00    -0.203 F 
ATOM     81  C   UNL A   1      39.366  34.999  36.798  1.00  0.00     0.198 A 
ATOM     82  C   UNL A   1      37.990  33.262  37.717  1.00  0.00     0.198 A 
ATOM     83  F   UNL A   1      37.778  31.209  36.587  1.00  0.00    -0.203 F 
ATOM     84  F   UNL A   1      39.912  36.219  36.889  1.00  0.00    -0.200 F 
ATOM     85  C   UNL A   1      38.530  34.537  37.802  1.00  0.00     0.200 A 
ATOM     86  F   UNL A   1      37.167  32.817  38.676  1.00  0.00    -0.200 F 
ATOM     87  F   UNL A   1      38.250  35.317  38.855  1.00  0.00    -0.200 F 
ENDBRANCH  53  77
BRANCH  65  88
ATOM     88  C   UNL A   1      36.342  32.055  29.271  1.00  0.00     0.064 A 
ATOM     89  C   UNL A   1      35.206  31.300  28.948  1.00  0.00     0.173 A 
ATOM     90  C   UNL A   1      36.319  33.430  28.988  1.00  0.00     0.173 A 
ATOM     91  F   UNL A   1      35.182  29.980  29.185  1.00  0.00    -0.203 F 
ATOM     92  C   UNL A   1      34.102  31.892  28.339  1.00  0.00     0.198 A 
ATOM     93  C   UNL A   1      35.201  34.025  28.412  1.00  0.00     0.198 A 
ATOM     94  F   UNL A   1      37.377  34.199  29.284  1.00  0.00    -0.203 F 
ATOM     95  F   UNL A   1      33.048  31.141  27.990  1.00  0.00    -0.200 F 
ATOM     96  C   UNL A   1      34.097  33.254  28.080  1.00  0.00     0.200 A 
ATOM     97  F   UNL A   1      35.192  35.345  28.179  1.00  0.00    -0.200 F 
ATOM     98  F   UNL A   1      33.031  33.824  27.503  1.00  0.00    -0.200 F 
ENDBRANCH  65  88
ENDBRANCH  39  40
ENDBRANCH  31  34
ENDBRANCH  29  30
ENDBRANCH  28  29
ENDBRANCH   1  28
TORSDOF 16
ENDMDL
MODEL 3
REMARK VINA RESULT:      -9.5      4.890     13.052
REMARK SMILES COc1ccc(/C=C/c2cc(OC)cc(OC)c2/C=C/C(=O)NCCCNC(=O)c2ccc(-c3c4nc(c(-c5c(F)c(F)c(F)c(F)c5F)c5ccc([nH]5)c(-c5c(F)c(F)c(F)c(F)c5F)c5nc(c(-c6c(F)c(F)c(F)c(F)c6F)c6ccc3[nH]6)C=C5)C=C4)cc2)cc1
REMARK SMILES IDX 24 1 23 2 21 3 22 4 20 6 19 7 18 8 9 9 10 10 11 11 15 12
REMARK SMILES IDX 14 13 8 14 7 15 6 16 3 17 4 18 94 19 5 20 93 21 2 22 1 23
REMARK SMILES IDX 12 24 13 25 16 26 17 27 25 28 26 29 27 30 28 31 29 33 30 34
REMARK SMILES IDX 31 35 92 36 32 37 91 38 33 39 34 40 35 41 85 42 36 43 90 44
REMARK SMILES IDX 84 45 86 46 37 47 89 48 83 49 82 50 38 52 70 53 50 54 69 55
REMARK SMILES IDX 51 56 54 57 68 58 87 59 52 60 53 61 67 63 88 64 55 65 39 66
REMARK SMILES IDX 40 67 48 68 41 69 42 70 46 71 49 72 43 73 44 74 47 75 45 76
REMARK SMILES IDX 71 77 72 78 80 79 73 80 74 81 78 82 81 83 75 84 76 85 79 86
REMARK SMILES IDX 77 87 56 88 57 89 65 90 58 91 59 92 63 93 66 94 60 95 61 96
REMARK SMILES IDX 64 97 62 98
REMARK H PARENT 23 5 27 32 86 51 54 62
REMARK Flexibility Score: inf
ROOT
ATOM      1  C   UNL A   1      43.415  36.855  32.959  1.00  0.00     0.118 C 
ENDROOT
BRANCH   1   2
ATOM      2  N   UNL A   1      43.628  35.437  33.152  1.00  0.00    -0.352 N 
ATOM      3  C   UNL A   1      42.684  34.461  33.209  1.00  0.00     0.244 C 
ATOM      4  O   UNL A   1      42.994  33.284  33.352  1.00  0.00    -0.270 OA
ATOM      5  H   UNL A   1      44.563  35.146  33.255  1.00  0.00     0.163 HD
BRANCH   3   6
ATOM      6  C   UNL A   1      41.274  34.849  33.036  1.00  0.00     0.072 C 
ATOM      7  C   UNL A   1      40.295  33.984  33.339  1.00  0.00     0.018 C 
BRANCH   7   8
ATOM      8  C   UNL A   1      38.883  34.258  33.036  1.00  0.00     0.024 A 
ATOM      9  C   UNL A   1      37.955  34.316  34.119  1.00  0.00    -0.011 A 
ATOM     10  C   UNL A   1      36.585  34.508  33.862  1.00  0.00     0.055 A 
ATOM     11  C   UNL A   1      36.108  34.620  32.561  1.00  0.00     0.123 A 
ATOM     12  C   UNL A   1      38.393  34.399  31.717  1.00  0.00     0.130 A 
ATOM     13  C   UNL A   1      37.014  34.591  31.509  1.00  0.00     0.093 A 
BRANCH   9  14
ATOM     14  C   UNL A   1      38.296  34.089  35.545  1.00  0.00     0.009 C 
ATOM     15  C   UNL A   1      37.484  33.505  36.444  1.00  0.00     0.009 C 
BRANCH  15  16
ATOM     16  C   UNL A   1      37.828  33.256  37.864  1.00  0.00    -0.025 A 
ATOM     17  C   UNL A   1      38.408  32.714  40.581  1.00  0.00     0.118 A 
ATOM     18  C   UNL A   1      39.071  33.737  39.906  1.00  0.00     0.047 A 
ATOM     19  C   UNL A   1      37.442  31.969  39.911  1.00  0.00     0.047 A 
ATOM     20  C   UNL A   1      38.793  33.998  38.558  1.00  0.00     0.012 A 
ATOM     21  C   UNL A   1      37.171  32.226  38.558  1.00  0.00     0.012 A 
BRANCH  17  22
ATOM     22  O   UNL A   1      38.735  32.552  41.900  1.00  0.00    -0.497 OA
ATOM     23  C   UNL A   1      38.796  31.189  42.319  1.00  0.00     0.278 C 
ENDBRANCH  17  22
ENDBRANCH  15  16
ENDBRANCH   9  14
BRANCH  11  24
ATOM     24  O   UNL A   1      34.752  34.738  32.431  1.00  0.00    -0.497 OA
ATOM     25  C   UNL A   1      34.243  34.638  31.101  1.00  0.00     0.278 C 
ENDBRANCH  11  24
BRANCH  12  26
ATOM     26  O   UNL A   1      39.019  34.340  30.502  1.00  0.00    -0.496 OA
ATOM     27  C   UNL A   1      38.347  34.118  29.277  1.00  0.00     0.278 C 
ENDBRANCH  12  26
ENDBRANCH   7   8
ENDBRANCH   3   6
ENDBRANCH   1   2
BRANCH   1  28
ATOM     28  C   UNL A   1      44.593  37.498  32.244  1.00  0.00     0.042 C 
BRANCH  28  29
ATOM     29  C   UNL A   1      44.248  37.912  30.822  1.00  0.00     0.118 C 
BRANCH  29  30
ATOM     30  N   UNL A   1      45.445  38.180  30.031  1.00  0.00    -0.352 N 
ATOM     31  C   UNL A   1      46.295  37.302  29.410  1.00  0.00     0.251 C 
ATOM     32  H   UNL A   1      45.675  39.132  29.929  1.00  0.00     0.163 HD
ATOM     33  O   UNL A   1      47.404  37.673  29.043  1.00  0.00    -0.269 OA
BRANCH  31  34
ATOM     34  C   UNL A   1      45.851  35.916  29.171  1.00  0.00     0.039 A 
ATOM     35  C   UNL A   1      46.180  34.923  30.094  1.00  0.00     0.014 A 
ATOM     36  C   UNL A   1      45.123  35.602  28.021  1.00  0.00     0.014 A 
ATOM     37  C   UNL A   1      45.734  33.619  29.882  1.00  0.00     0.010 A 
ATOM     38  C   UNL A   1      44.592  34.330  27.866  1.00  0.00     0.010 A 
ATOM     39  C   UNL A   1      44.909  33.321  28.784  1.00  0.00    -0.014 A 
BRANCH  39  40
ATOM     40  C   UNL A   1      44.375  31.955  28.565  1.00  0.00     0.031 A 
ATOM     41  C   UNL A   1      43.053  31.564  29.164  1.00  0.00     0.074 A 
ATOM     42  C   UNL A   1      45.117  31.053  27.896  1.00  0.00     0.049 A 
ATOM     43  N   UNL A   1      42.449  30.402  29.154  1.00  0.00    -0.248 NA
ATOM     44  C   UNL A   1      42.324  32.607  29.904  1.00  0.00     0.031 C 
ATOM     45  C   UNL A   1      46.440  31.304  27.323  1.00  0.00     0.029 A 
ATOM     46  N   UNL A   1      44.867  29.740  27.592  1.00  0.00    -0.354 N 
ATOM     47  C   UNL A   1      41.287  30.573  29.894  1.00  0.00     0.074 A 
ATOM     48  C   UNL A   1      41.299  31.928  30.398  1.00  0.00     0.031 C 
ATOM     49  C   UNL A   1      46.874  30.191  26.713  1.00  0.00     0.029 A 
ATOM     50  C   UNL A   1      45.879  29.137  26.887  1.00  0.00     0.049 A 
ATOM     51  H   UNL A   1      44.040  29.272  27.854  1.00  0.00     0.167 HD
ATOM     52  C   UNL A   1      40.286  29.687  30.112  1.00  0.00     0.037 A 
ATOM     53  C   UNL A   1      45.993  27.872  26.440  1.00  0.00     0.037 A 
ATOM     54  C   UNL A   1      40.274  28.348  29.585  1.00  0.00     0.049 A 
ATOM     55  C   UNL A   1      44.869  26.906  26.697  1.00  0.00     0.074 A 
ATOM     56  C   UNL A   1      39.283  27.389  29.689  1.00  0.00     0.029 A 
ATOM     57  N   UNL A   1      41.308  27.778  28.856  1.00  0.00    -0.354 N 
ATOM     58  N   UNL A   1      43.738  27.101  27.331  1.00  0.00    -0.248 NA
ATOM     59  C   UNL A   1      45.033  25.546  26.167  1.00  0.00     0.031 C 
ATOM     60  C   UNL A   1      39.740  26.220  29.072  1.00  0.00     0.029 A 
ATOM     61  C   UNL A   1      40.989  26.470  28.527  1.00  0.00     0.049 A 
ATOM     62  H   UNL A   1      42.145  28.235  28.609  1.00  0.00     0.167 HD
ATOM     63  C   UNL A   1      43.044  25.901  27.253  1.00  0.00     0.074 A 
ATOM     64  C   UNL A   1      43.874  24.990  26.493  1.00  0.00     0.031 C 
ATOM     65  C   UNL A   1      41.829  25.582  27.763  1.00  0.00     0.037 A 
BRANCH  52  66
ATOM     66  C   UNL A   1      39.125  30.139  30.950  1.00  0.00     0.064 A 
ATOM     67  C   UNL A   1      39.181  30.134  32.353  1.00  0.00     0.173 A 
ATOM     68  C   UNL A   1      37.950  30.611  30.345  1.00  0.00     0.173 A 
ATOM     69  F   UNL A   1      40.274  29.683  32.985  1.00  0.00    -0.203 F 
ATOM     70  C   UNL A   1      38.094  30.552  33.117  1.00  0.00     0.198 A 
ATOM     71  C   UNL A   1      36.879  31.062  31.112  1.00  0.00     0.198 A 
ATOM     72  F   UNL A   1      37.843  30.643  29.008  1.00  0.00    -0.203 F 
ATOM     73  F   UNL A   1      38.151  30.485  34.455  1.00  0.00    -0.200 F 
ATOM     74  C   UNL A   1      36.947  31.024  32.496  1.00  0.00     0.200 A 
ATOM     75  F   UNL A   1      35.777  31.530  30.510  1.00  0.00    -0.200 F 
ATOM     76  F   UNL A   1      35.905  31.433  33.232  1.00  0.00    -0.200 F 
ENDBRANCH  52  66
BRANCH  53  77
ATOM     77  C   UNL A   1      47.203  27.459  25.681  1.00  0.00     0.064 A 
ATOM     78  C   UNL A   1      48.297  26.873  26.334  1.00  0.00     0.173 A 
ATOM     79  C   UNL A   1      47.292  27.637  24.293  1.00  0.00     0.173 A 
ATOM     80  F   UNL A   1      48.266  26.697  27.664  1.00  0.00    -0.203 F 
ATOM     81  C   UNL A   1      49.443  26.505  25.632  1.00  0.00     0.198 A 
ATOM     82  C   UNL A   1      48.426  27.239  23.587  1.00  0.00     0.198 A 
ATOM     83  F   UNL A   1      46.271  28.184  23.619  1.00  0.00    -0.203 F 
ATOM     84  F   UNL A   1      50.492  25.993  26.289  1.00  0.00    -0.200 F 
ATOM     85  C   UNL A   1      49.504  26.682  24.259  1.00  0.00     0.200 A 
ATOM     86  F   UNL A   1      48.474  27.396  22.257  1.00  0.00    -0.200 F 
ATOM     87  F   UNL A   1      50.605  26.324  23.584  1.00  0.00    -0.200 F 
ENDBRANCH  53  77
BRANCH  65  88
ATOM     88  C   UNL A   1      41.307  24.202  27.483  1.00  0.00     0.064 A 
ATOM     89  C   UNL A   1      41.836  23.069  28.118  1.00  0.00     0.173 A 
ATOM     90  C   UNL A   1      40.235  24.017  26.595  1.00  0.00     0.173 A 
ATOM     91  F   UNL A   1      42.869  23.190  28.965  1.00  0.00    -0.203 F 
ATOM     92  C   UNL A   1      41.329  21.799  27.854  1.00  0.00     0.198 A 
ATOM     93  C   UNL A   1      39.710  22.751  26.360  1.00  0.00     0.198 A 
ATOM     94  F   UNL A   1      39.689  25.069  25.967  1.00  0.00    -0.203 F 
ATOM     95  F   UNL A   1      41.884  20.725  28.432  1.00  0.00    -0.200 F 
ATOM     96  C   UNL A   1      40.262  21.642  26.982  1.00  0.00     0.200 A 
ATOM     97  F   UNL A   1      38.666  22.604  25.531  1.00  0.00    -0.200 F 
ATOM     98  F   UNL A   1      39.770  20.420  26.737  1.00  0.00    -0.200 F 
ENDBRANCH  65  88
ENDBRANCH  39  40
ENDBRANCH  31  34
ENDBRANCH  29  30
ENDBRANCH  28  29
ENDBRANCH   1  28
TORSDOF 16
ENDMDL
