MODEL 1
REMARK VINA RESULT:     -13.3      0.000      0.000
REMARK SMILES COc1ccc(-c2cnc(N)c(C(=O)NCCCNC(=O)c3ccc(-c4c5nc(c(-c6c(F)c(F)c(F)c(F)c6F)c6ccc([nH]6)c(-c6c(F)c(F)c(F)c(F)c6F)c6nc(c(-c7c(F)c(F)c(F)c(F)c7F)c7ccc4[nH]7)C=C6)C=C5)cc3)c2)c(C)c1
REMARK SMILES IDX 17 1 16 2 15 3 13 4 14 5 12 7 7 8 8 9 85 10 9 11 10 12 6 13
REMARK SMILES IDX 3 14 4 15 88 16 5 17 86 18 87 19 2 20 1 21 11 22 18 25 19 26
REMARK SMILES IDX 20 27 21 29 22 30 23 31 84 32 24 33 83 34 25 35 26 36 27 37
REMARK SMILES IDX 77 38 28 39 82 40 76 41 78 42 29 43 81 44 75 45 74 46 30 48
REMARK SMILES IDX 62 49 42 50 61 51 43 52 46 53 60 54 79 55 44 56 45 57 59 59
REMARK SMILES IDX 80 60 47 61 31 62 32 63 40 64 33 65 34 66 38 67 41 68 35 69
REMARK SMILES IDX 36 70 39 71 37 72 63 73 64 74 72 75 65 76 66 77 70 78 73 79
REMARK SMILES IDX 67 80 68 81 71 82 69 83 48 84 49 85 57 86 50 87 51 88 55 89
REMARK SMILES IDX 58 90 52 91 53 92 56 93 54 94
REMARK H PARENT 15 6 11 23 11 24 19 28 78 47 46 58
REMARK Flexibility Score: inf
ROOT
ATOM      1  C   UNL A   1      38.123  21.544  25.377  1.00  0.00     0.042 C 
ENDROOT
BRANCH   1   2
ATOM      2  C   UNL A   1      36.647  21.495  25.042  1.00  0.00     0.118 C 
BRANCH   2   3
ATOM      3  N   UNL A   1      35.791  21.346  26.213  1.00  0.00    -0.352 N 
ATOM      4  C   UNL A   1      34.635  22.029  26.522  1.00  0.00     0.255 C 
ATOM      5  O   UNL A   1      34.061  21.775  27.579  1.00  0.00    -0.269 OA
ATOM      6  H   UNL A   1      36.078  20.670  26.869  1.00  0.00     0.163 HD
BRANCH   4   7
ATOM      7  C   UNL A   1      34.118  23.110  25.650  1.00  0.00     0.082 A 
ATOM      8  C   UNL A   1      33.672  25.478  25.372  1.00  0.00     0.001 A 
ATOM      9  C   UNL A   1      33.401  25.168  24.038  1.00  0.00     0.122 A 
ATOM     10  C   UNL A   1      34.105  24.415  26.169  1.00  0.00     0.028 A 
ATOM     11  N   UNL A   1      33.324  23.917  23.538  1.00  0.00    -0.238 NA
ATOM     12  C   UNL A   1      33.578  22.902  24.381  1.00  0.00     0.136 A 
BRANCH   8  13
ATOM     13  C   UNL A   1      33.289  26.794  25.911  1.00  0.00    -0.014 A 
ATOM     14  C   UNL A   1      32.843  29.450  26.783  1.00  0.00     0.119 A 
ATOM     15  C   UNL A   1      34.135  29.022  26.523  1.00  0.00     0.047 A 
ATOM     16  C   UNL A   1      31.783  28.549  26.661  1.00  0.00     0.050 A 
ATOM     17  C   UNL A   1      34.346  27.721  26.081  1.00  0.00     0.013 A 
ATOM     18  C   UNL A   1      31.984  27.219  26.227  1.00  0.00    -0.040 A 
ATOM     19  C   UNL A   1      30.763  26.350  26.094  1.00  0.00     0.045 C 
BRANCH  14  20
ATOM     20  O   UNL A   1      32.530  30.719  27.187  1.00  0.00    -0.497 OA
ATOM     21  C   UNL A   1      31.405  31.278  26.509  1.00  0.00     0.278 C 
ENDBRANCH  14  20
ENDBRANCH   8  13
BRANCH  12  22
ATOM     22  N   UNL A   1      33.234  21.667  23.868  1.00  0.00    -0.383 N 
ATOM     23  H   UNL A   1      32.670  21.608  23.063  1.00  0.00     0.158 HD
ATOM     24  H   UNL A   1      33.555  20.845  24.305  1.00  0.00     0.158 HD
ENDBRANCH  12  22
ENDBRANCH   4   7
ENDBRANCH   2   3
ENDBRANCH   1   2
BRANCH   1  25
ATOM     25  C   UNL A   1      38.508  22.865  26.029  1.00  0.00     0.118 C 
BRANCH  25  26
ATOM     26  N   UNL A   1      39.933  22.934  26.369  1.00  0.00    -0.352 N 
ATOM     27  C   UNL A   1      40.648  23.963  26.968  1.00  0.00     0.251 C 
ATOM     28  H   UNL A   1      40.461  22.134  26.138  1.00  0.00     0.163 HD
ATOM     29  O   UNL A   1      41.795  23.826  27.333  1.00  0.00    -0.269 OA
BRANCH  27  30
ATOM     30  C   UNL A   1      39.913  25.217  27.226  1.00  0.00     0.039 A 
ATOM     31  C   UNL A   1      40.322  26.349  26.516  1.00  0.00     0.014 A 
ATOM     32  C   UNL A   1      39.192  25.312  28.414  1.00  0.00     0.014 A 
ATOM     33  C   UNL A   1      40.260  27.584  27.149  1.00  0.00     0.010 A 
ATOM     34  C   UNL A   1      39.209  26.528  29.072  1.00  0.00     0.010 A 
ATOM     35  C   UNL A   1      39.837  27.636  28.478  1.00  0.00    -0.014 A 
BRANCH  35  36
ATOM     36  C   UNL A   1      40.207  28.738  29.367  1.00  0.00     0.031 A 
ATOM     37  C   UNL A   1      39.231  29.800  29.686  1.00  0.00     0.074 A 
ATOM     38  C   UNL A   1      41.426  28.748  29.956  1.00  0.00     0.049 A 
ATOM     39  N   UNL A   1      39.544  30.984  30.092  1.00  0.00    -0.248 NA
ATOM     40  C   UNL A   1      37.797  29.613  29.513  1.00  0.00     0.031 C 
ATOM     41  C   UNL A   1      41.867  29.596  31.064  1.00  0.00     0.029 A 
ATOM     42  N   UNL A   1      42.603  28.105  29.527  1.00  0.00    -0.354 N 
ATOM     43  C   UNL A   1      38.384  31.618  30.480  1.00  0.00     0.074 A 
ATOM     44  C   UNL A   1      37.323  30.741  30.045  1.00  0.00     0.031 C 
ATOM     45  C   UNL A   1      43.207  29.672  31.046  1.00  0.00     0.029 A 
ATOM     46  C   UNL A   1      43.659  28.993  29.846  1.00  0.00     0.049 A 
ATOM     47  H   UNL A   1      42.677  27.224  29.094  1.00  0.00     0.167 HD
ATOM     48  C   UNL A   1      38.463  32.751  31.240  1.00  0.00     0.037 A 
ATOM     49  C   UNL A   1      44.455  29.546  28.887  1.00  0.00     0.037 A 
ATOM     50  C   UNL A   1      39.851  33.188  31.394  1.00  0.00     0.049 A 
ATOM     51  C   UNL A   1      44.449  31.056  28.875  1.00  0.00     0.074 A 
ATOM     52  C   UNL A   1      40.780  33.025  32.409  1.00  0.00     0.029 A 
ATOM     53  N   UNL A   1      40.560  33.633  30.282  1.00  0.00    -0.354 N 
ATOM     54  N   UNL A   1      43.529  31.780  29.447  1.00  0.00    -0.248 NA
ATOM     55  C   UNL A   1      45.433  31.862  28.158  1.00  0.00     0.031 C 
ATOM     56  C   UNL A   1      42.062  33.324  31.886  1.00  0.00     0.029 A 
ATOM     57  C   UNL A   1      41.913  33.683  30.558  1.00  0.00     0.049 A 
ATOM     58  H   UNL A   1      40.154  33.880  29.419  1.00  0.00     0.167 HD
ATOM     59  C   UNL A   1      43.741  33.099  29.146  1.00  0.00     0.074 A 
ATOM     60  C   UNL A   1      44.962  33.103  28.362  1.00  0.00     0.031 C 
ATOM     61  C   UNL A   1      42.875  34.076  29.542  1.00  0.00     0.037 A 
BRANCH  48  62
ATOM     62  C   UNL A   1      37.321  33.272  32.095  1.00  0.00     0.064 A 
ATOM     63  C   UNL A   1      36.263  34.009  31.518  1.00  0.00     0.173 A 
ATOM     64  C   UNL A   1      37.248  33.155  33.495  1.00  0.00     0.173 A 
ATOM     65  F   UNL A   1      36.110  34.095  30.190  1.00  0.00    -0.203 F 
ATOM     66  C   UNL A   1      35.312  34.690  32.284  1.00  0.00     0.198 A 
ATOM     67  C   UNL A   1      36.338  33.885  34.267  1.00  0.00     0.198 A 
ATOM     68  F   UNL A   1      38.007  32.277  34.161  1.00  0.00    -0.203 F 
ATOM     69  F   UNL A   1      34.341  35.384  31.676  1.00  0.00    -0.200 F 
ATOM     70  C   UNL A   1      35.379  34.668  33.661  1.00  0.00     0.200 A 
ATOM     71  F   UNL A   1      36.399  33.818  35.604  1.00  0.00    -0.200 F 
ATOM     72  F   UNL A   1      34.503  35.363  34.398  1.00  0.00    -0.200 F 
ENDBRANCH  48  62
BRANCH  49  73
ATOM     73  C   UNL A   1      44.607  28.699  27.676  1.00  0.00     0.064 A 
ATOM     74  C   UNL A   1      45.408  27.544  27.758  1.00  0.00     0.173 A 
ATOM     75  C   UNL A   1      43.728  28.802  26.594  1.00  0.00     0.173 A 
ATOM     76  F   UNL A   1      46.267  27.394  28.778  1.00  0.00    -0.203 F 
ATOM     77  C   UNL A   1      45.248  26.488  26.864  1.00  0.00     0.198 A 
ATOM     78  C   UNL A   1      43.580  27.748  25.691  1.00  0.00     0.198 A 
ATOM     79  F   UNL A   1      42.923  29.869  26.472  1.00  0.00    -0.203 F 
ATOM     80  F   UNL A   1      45.942  25.353  27.037  1.00  0.00    -0.200 F 
ATOM     81  C   UNL A   1      44.315  26.581  25.846  1.00  0.00     0.200 A 
ATOM     82  F   UNL A   1      42.650  27.822  24.728  1.00  0.00    -0.200 F 
ATOM     83  F   UNL A   1      44.086  25.531  25.045  1.00  0.00    -0.200 F 
ENDBRANCH  49  73
BRANCH  61  84
ATOM     84  C   UNL A   1      42.912  35.504  29.070  1.00  0.00     0.064 A 
ATOM     85  C   UNL A   1      42.192  35.971  27.956  1.00  0.00     0.173 A 
ATOM     86  C   UNL A   1      43.578  36.491  29.831  1.00  0.00     0.173 A 
ATOM     87  F   UNL A   1      41.430  35.145  27.227  1.00  0.00    -0.203 F 
ATOM     88  C   UNL A   1      42.195  37.319  27.591  1.00  0.00     0.198 A 
ATOM     89  C   UNL A   1      43.536  37.843  29.494  1.00  0.00     0.198 A 
ATOM     90  F   UNL A   1      44.269  36.169  30.934  1.00  0.00    -0.203 F 
ATOM     91  F   UNL A   1      41.527  37.712  26.497  1.00  0.00    -0.200 F 
ATOM     92  C   UNL A   1      42.858  38.255  28.364  1.00  0.00     0.200 A 
ATOM     93  F   UNL A   1      44.140  38.745  30.278  1.00  0.00    -0.200 F 
ATOM     94  F   UNL A   1      42.826  39.552  28.032  1.00  0.00    -0.200 F 
ENDBRANCH  61  84
ENDBRANCH  35  36
ENDBRANCH  27  30
ENDBRANCH  25  26
ENDBRANCH   1  25
TORSDOF 13
ENDMDL
MODEL 2
REMARK VINA RESULT:     -13.3      1.435      2.079
REMARK SMILES COc1ccc(-c2cnc(N)c(C(=O)NCCCNC(=O)c3ccc(-c4c5nc(c(-c6c(F)c(F)c(F)c(F)c6F)c6ccc([nH]6)c(-c6c(F)c(F)c(F)c(F)c6F)c6nc(c(-c7c(F)c(F)c(F)c(F)c7F)c7ccc4[nH]7)C=C6)C=C5)cc3)c2)c(C)c1
REMARK SMILES IDX 17 1 16 2 15 3 13 4 14 5 12 7 7 8 8 9 85 10 9 11 10 12 6 13
REMARK SMILES IDX 3 14 4 15 88 16 5 17 86 18 87 19 2 20 1 21 11 22 18 25 19 26
REMARK SMILES IDX 20 27 21 29 22 30 23 31 84 32 24 33 83 34 25 35 26 36 27 37
REMARK SMILES IDX 77 38 28 39 82 40 76 41 78 42 29 43 81 44 75 45 74 46 30 48
REMARK SMILES IDX 62 49 42 50 61 51 43 52 46 53 60 54 79 55 44 56 45 57 59 59
REMARK SMILES IDX 80 60 47 61 31 62 32 63 40 64 33 65 34 66 38 67 41 68 35 69
REMARK SMILES IDX 36 70 39 71 37 72 63 73 64 74 72 75 65 76 66 77 70 78 73 79
REMARK SMILES IDX 67 80 68 81 71 82 69 83 48 84 49 85 57 86 50 87 51 88 55 89
REMARK SMILES IDX 58 90 52 91 53 92 56 93 54 94
REMARK H PARENT 15 6 11 23 11 24 19 28 78 47 46 58
REMARK Flexibility Score: inf
ROOT
ATOM      1  C   UNL A   1      38.603  21.261  25.649  1.00  0.00     0.042 C 
ENDROOT
BRANCH   1   2
ATOM      2  C   UNL A   1      37.147  21.116  25.255  1.00  0.00     0.118 C 
BRANCH   2   3
ATOM      3  N   UNL A   1      36.751  19.737  24.999  1.00  0.00    -0.352 N 
ATOM      4  C   UNL A   1      35.483  19.229  24.820  1.00  0.00     0.255 C 
ATOM      5  O   UNL A   1      35.349  18.020  24.635  1.00  0.00    -0.269 OA
ATOM      6  H   UNL A   1      37.486  19.083  24.947  1.00  0.00     0.163 HD
BRANCH   4   7
ATOM      7  C   UNL A   1      34.283  20.090  24.924  1.00  0.00     0.082 A 
ATOM      8  C   UNL A   1      33.282  22.264  24.527  1.00  0.00     0.001 A 
ATOM      9  C   UNL A   1      32.072  21.660  24.874  1.00  0.00     0.122 A 
ATOM     10  C   UNL A   1      34.396  21.422  24.493  1.00  0.00     0.028 A 
ATOM     11  N   UNL A   1      31.950  20.411  25.372  1.00  0.00    -0.238 NA
ATOM     12  C   UNL A   1      33.074  19.685  25.490  1.00  0.00     0.136 A 
BRANCH   8  13
ATOM     13  C   UNL A   1      33.370  23.732  24.439  1.00  0.00    -0.014 A 
ATOM     14  C   UNL A   1      33.713  26.538  24.580  1.00  0.00     0.119 A 
ATOM     15  C   UNL A   1      33.647  25.796  25.748  1.00  0.00     0.047 A 
ATOM     16  C   UNL A   1      33.556  25.897  23.349  1.00  0.00     0.050 A 
ATOM     17  C   UNL A   1      33.493  24.417  25.672  1.00  0.00     0.013 A 
ATOM     18  C   UNL A   1      33.384  24.497  23.257  1.00  0.00    -0.040 A 
ATOM     19  C   UNL A   1      33.267  23.911  21.876  1.00  0.00     0.045 C 
BRANCH  14  20
ATOM     20  O   UNL A   1      33.897  27.893  24.550  1.00  0.00    -0.497 OA
ATOM     21  C   UNL A   1      33.627  28.539  25.794  1.00  0.00     0.278 C 
ENDBRANCH  14  20
ENDBRANCH   8  13
BRANCH  12  22
ATOM     22  N   UNL A   1      32.903  18.533  26.233  1.00  0.00    -0.383 N 
ATOM     23  H   UNL A   1      33.462  18.372  27.028  1.00  0.00     0.158 HD
ATOM     24  H   UNL A   1      32.221  17.874  25.969  1.00  0.00     0.158 HD
ENDBRANCH  12  22
ENDBRANCH   4   7
ENDBRANCH   2   3
ENDBRANCH   1   2
BRANCH   1  25
ATOM     25  C   UNL A   1      38.916  22.668  26.138  1.00  0.00     0.118 C 
BRANCH  25  26
ATOM     26  N   UNL A   1      40.349  22.882  26.366  1.00  0.00    -0.352 N 
ATOM     27  C   UNL A   1      41.024  24.050  26.695  1.00  0.00     0.251 C 
ATOM     28  H   UNL A   1      40.915  22.081  26.274  1.00  0.00     0.163 HD
ATOM     29  O   UNL A   1      42.194  24.054  27.009  1.00  0.00    -0.269 OA
BRANCH  27  30
ATOM     30  C   UNL A   1      40.223  25.291  26.733  1.00  0.00     0.039 A 
ATOM     31  C   UNL A   1      40.778  26.422  26.128  1.00  0.00     0.014 A 
ATOM     32  C   UNL A   1      39.222  25.385  27.696  1.00  0.00     0.014 A 
ATOM     33  C   UNL A   1      40.532  27.663  26.700  1.00  0.00     0.010 A 
ATOM     34  C   UNL A   1      39.047  26.610  28.312  1.00  0.00     0.010 A 
ATOM     35  C   UNL A   1      39.783  27.724  27.876  1.00  0.00    -0.014 A 
BRANCH  35  36
ATOM     36  C   UNL A   1      39.893  28.847  28.808  1.00  0.00     0.031 A 
ATOM     37  C   UNL A   1      38.872  29.914  28.815  1.00  0.00     0.074 A 
ATOM     38  C   UNL A   1      40.898  28.873  29.717  1.00  0.00     0.049 A 
ATOM     39  N   UNL A   1      39.063  31.108  29.266  1.00  0.00    -0.248 NA
ATOM     40  C   UNL A   1      37.544  29.720  28.250  1.00  0.00     0.031 C 
ATOM     41  C   UNL A   1      41.013  29.747  30.883  1.00  0.00     0.029 A 
ATOM     42  N   UNL A   1      42.145  28.223  29.650  1.00  0.00    -0.354 N 
ATOM     43  C   UNL A   1      37.844  31.748  29.298  1.00  0.00     0.074 A 
ATOM     44  C   UNL A   1      36.944  30.859  28.601  1.00  0.00     0.031 C 
ATOM     45  C   UNL A   1      42.304  29.826  31.242  1.00  0.00     0.029 A 
ATOM     46  C   UNL A   1      43.073  29.120  30.234  1.00  0.00     0.049 A 
ATOM     47  H   UNL A   1      42.334  27.332  29.275  1.00  0.00     0.167 HD
ATOM     48  C   UNL A   1      37.711  32.898  30.023  1.00  0.00     0.037 A 
ATOM     49  C   UNL A   1      44.109  29.653  29.525  1.00  0.00     0.037 A 
ATOM     50  C   UNL A   1      39.001  33.341  30.552  1.00  0.00     0.049 A 
ATOM     51  C   UNL A   1      44.113  31.162  29.477  1.00  0.00     0.074 A 
ATOM     52  C   UNL A   1      39.606  33.204  31.790  1.00  0.00     0.029 A 
ATOM     53  N   UNL A   1      39.996  33.763  29.674  1.00  0.00    -0.354 N 
ATOM     54  N   UNL A   1      43.072  31.898  29.751  1.00  0.00    -0.248 NA
ATOM     55  C   UNL A   1      45.263  31.954  29.048  1.00  0.00     0.031 C 
ATOM     56  C   UNL A   1      40.985  33.494  31.643  1.00  0.00     0.029 A 
ATOM     57  C   UNL A   1      41.217  33.822  30.319  1.00  0.00     0.049 A 
ATOM     58  H   UNL A   1      39.850  33.989  28.727  1.00  0.00     0.167 HD
ATOM     59  C   UNL A   1      43.366  33.210  29.492  1.00  0.00     0.074 A 
ATOM     60  C   UNL A   1      44.758  33.199  29.083  1.00  0.00     0.031 C 
ATOM     61  C   UNL A   1      42.428  34.193  29.606  1.00  0.00     0.037 A 
BRANCH  48  62
ATOM     62  C   UNL A   1      36.377  33.436  30.510  1.00  0.00     0.064 A 
ATOM     63  C   UNL A   1      35.468  34.037  29.611  1.00  0.00     0.173 A 
ATOM     64  C   UNL A   1      35.967  33.469  31.855  1.00  0.00     0.173 A 
ATOM     65  F   UNL A   1      35.642  33.968  28.286  1.00  0.00    -0.203 F 
ATOM     66  C   UNL A   1      34.334  34.737  30.039  1.00  0.00     0.198 A 
ATOM     67  C   UNL A   1      34.871  34.220  32.292  1.00  0.00     0.198 A 
ATOM     68  F   UNL A   1      36.569  32.719  32.785  1.00  0.00    -0.203 F 
ATOM     69  F   UNL A   1      33.518  35.297  29.136  1.00  0.00    -0.200 F 
ATOM     70  C   UNL A   1      34.062  34.869  31.385  1.00  0.00     0.200 A 
ATOM     71  F   UNL A   1      34.604  34.303  33.604  1.00  0.00    -0.200 F 
ATOM     72  F   UNL A   1      33.009  35.585  31.800  1.00  0.00    -0.200 F 
ENDBRANCH  48  62
BRANCH  49  73
ATOM     73  C   UNL A   1      44.591  28.779  28.425  1.00  0.00     0.064 A 
ATOM     74  C   UNL A   1      45.342  27.634  28.754  1.00  0.00     0.173 A 
ATOM     75  C   UNL A   1      44.044  28.847  27.140  1.00  0.00     0.173 A 
ATOM     76  F   UNL A   1      45.888  27.518  29.976  1.00  0.00    -0.203 F 
ATOM     77  C   UNL A   1      45.439  26.556  27.879  1.00  0.00     0.198 A 
ATOM     78  C   UNL A   1      44.155  27.770  26.259  1.00  0.00     0.198 A 
ATOM     79  F   UNL A   1      43.301  29.902  26.774  1.00  0.00    -0.203 F 
ATOM     80  F   UNL A   1      46.062  25.433  28.266  1.00  0.00    -0.200 F 
ATOM     81  C   UNL A   1      44.823  26.614  26.641  1.00  0.00     0.200 A 
ATOM     82  F   UNL A   1      43.527  27.811  25.076  1.00  0.00    -0.200 F 
ATOM     83  F   UNL A   1      44.827  25.543  25.836  1.00  0.00    -0.200 F 
ENDBRANCH  49  73
BRANCH  61  84
ATOM     84  C   UNL A   1      42.602  35.610  29.131  1.00  0.00     0.064 A 
ATOM     85  C   UNL A   1      41.967  36.129  27.989  1.00  0.00     0.173 A 
ATOM     86  C   UNL A   1      43.320  36.543  29.913  1.00  0.00     0.173 A 
ATOM     87  F   UNL A   1      41.166  35.365  27.234  1.00  0.00    -0.203 F 
ATOM     88  C   UNL A   1      42.097  37.470  27.620  1.00  0.00     0.198 A 
ATOM     89  C   UNL A   1      43.404  37.891  29.571  1.00  0.00     0.198 A 
ATOM     90  F   UNL A   1      43.940  36.172  31.043  1.00  0.00    -0.203 F 
ATOM     91  F   UNL A   1      41.506  37.910  26.500  1.00  0.00    -0.200 F 
ATOM     92  C   UNL A   1      42.807  38.351  28.414  1.00  0.00     0.200 A 
ATOM     93  F   UNL A   1      44.053  38.745  30.375  1.00  0.00    -0.200 F 
ATOM     94  F   UNL A   1      42.897  39.645  28.077  1.00  0.00    -0.200 F 
ENDBRANCH  61  84
ENDBRANCH  35  36
ENDBRANCH  27  30
ENDBRANCH  25  26
ENDBRANCH   1  25
TORSDOF 13
ENDMDL
MODEL 3
REMARK VINA RESULT:     -13.3      3.530     10.012
REMARK SMILES COc1ccc(-c2cnc(N)c(C(=O)NCCCNC(=O)c3ccc(-c4c5nc(c(-c6c(F)c(F)c(F)c(F)c6F)c6ccc([nH]6)c(-c6c(F)c(F)c(F)c(F)c6F)c6nc(c(-c7c(F)c(F)c(F)c(F)c7F)c7ccc4[nH]7)C=C6)C=C5)cc3)c2)c(C)c1
REMARK SMILES IDX 17 1 16 2 15 3 13 4 14 5 12 7 7 8 8 9 85 10 9 11 10 12 6 13
REMARK SMILES IDX 3 14 4 15 88 16 5 17 86 18 87 19 2 20 1 21 11 22 18 25 19 26
REMARK SMILES IDX 20 27 21 29 22 30 23 31 84 32 24 33 83 34 25 35 26 36 27 37
REMARK SMILES IDX 77 38 28 39 82 40 76 41 78 42 29 43 81 44 75 45 74 46 30 48
REMARK SMILES IDX 62 49 42 50 61 51 43 52 46 53 60 54 79 55 44 56 45 57 59 59
REMARK SMILES IDX 80 60 47 61 31 62 32 63 40 64 33 65 34 66 38 67 41 68 35 69
REMARK SMILES IDX 36 70 39 71 37 72 63 73 64 74 72 75 65 76 66 77 70 78 73 79
REMARK SMILES IDX 67 80 68 81 71 82 69 83 48 84 49 85 57 86 50 87 51 88 55 89
REMARK SMILES IDX 58 90 52 91 53 92 56 93 54 94
REMARK H PARENT 15 6 11 23 11 24 19 28 78 47 46 58
REMARK Flexibility Score: inf
ROOT
ATOM      1  C   UNL A   1      32.431  30.753  27.235  1.00  0.00     0.042 C 
ENDROOT
BRANCH   1   2
ATOM      2  C   UNL A   1      31.951  29.581  26.403  1.00  0.00     0.118 C 
BRANCH   2   3
ATOM      3  N   UNL A   1      32.300  29.692  24.992  1.00  0.00    -0.352 N 
ATOM      4  C   UNL A   1      32.514  28.681  24.080  1.00  0.00     0.255 C 
ATOM      5  O   UNL A   1      32.826  28.977  22.928  1.00  0.00    -0.269 OA
ATOM      6  H   UNL A   1      32.397  30.609  24.645  1.00  0.00     0.163 HD
BRANCH   4   7
ATOM      7  C   UNL A   1      32.453  27.255  24.477  1.00  0.00     0.082 A 
ATOM      8  C   UNL A   1      33.669  25.242  25.070  1.00  0.00     0.001 A 
ATOM      9  C   UNL A   1      32.426  24.714  25.422  1.00  0.00     0.122 A 
ATOM     10  C   UNL A   1      33.670  26.574  24.650  1.00  0.00     0.028 A 
ATOM     11  N   UNL A   1      31.240  25.314  25.188  1.00  0.00    -0.238 NA
ATOM     12  C   UNL A   1      31.270  26.531  24.619  1.00  0.00     0.136 A 
BRANCH   8  13
ATOM     13  C   UNL A   1      34.835  24.350  24.942  1.00  0.00    -0.014 A 
ATOM     14  C   UNL A   1      37.100  22.656  25.052  1.00  0.00     0.119 A 
ATOM     15  C   UNL A   1      36.916  23.618  26.031  1.00  0.00     0.047 A 
ATOM     16  C   UNL A   1      36.192  22.570  23.994  1.00  0.00     0.050 A 
ATOM     17  C   UNL A   1      35.794  24.437  25.980  1.00  0.00     0.013 A 
ATOM     18  C   UNL A   1      35.055  23.406  23.921  1.00  0.00    -0.040 A 
ATOM     19  C   UNL A   1      34.125  23.196  22.757  1.00  0.00     0.045 C 
BRANCH  14  20
ATOM     20  O   UNL A   1      38.152  21.781  25.034  1.00  0.00    -0.497 OA
ATOM     21  C   UNL A   1      39.059  21.948  26.124  1.00  0.00     0.278 C 
ENDBRANCH  14  20
ENDBRANCH   8  13
BRANCH  12  22
ATOM     22  N   UNL A   1      30.031  26.960  24.184  1.00  0.00    -0.383 N 
ATOM     23  H   UNL A   1      29.379  27.317  24.830  1.00  0.00     0.158 HD
ATOM     24  H   UNL A   1      29.800  26.911  23.228  1.00  0.00     0.158 HD
ENDBRANCH  12  22
ENDBRANCH   4   7
ENDBRANCH   2   3
ENDBRANCH   1   2
BRANCH   1  25
ATOM     25  C   UNL A   1      33.945  30.901  27.177  1.00  0.00     0.118 C 
BRANCH  25  26
ATOM     26  N   UNL A   1      34.483  31.656  28.313  1.00  0.00    -0.352 N 
ATOM     27  C   UNL A   1      35.567  31.365  29.132  1.00  0.00     0.251 C 
ATOM     28  H   UNL A   1      34.007  32.492  28.528  1.00  0.00     0.163 HD
ATOM     29  O   UNL A   1      35.999  32.157  29.940  1.00  0.00    -0.269 OA
BRANCH  27  30
ATOM     30  C   UNL A   1      36.235  30.066  28.909  1.00  0.00     0.039 A 
ATOM     31  C   UNL A   1      36.584  29.331  30.044  1.00  0.00     0.014 A 
ATOM     32  C   UNL A   1      36.850  29.858  27.676  1.00  0.00     0.014 A 
ATOM     33  C   UNL A   1      37.755  28.584  30.013  1.00  0.00     0.010 A 
ATOM     34  C   UNL A   1      38.055  29.183  27.674  1.00  0.00     0.010 A 
ATOM     35  C   UNL A   1      38.554  28.637  28.869  1.00  0.00    -0.014 A 
BRANCH  35  36
ATOM     36  C   UNL A   1      39.984  28.334  28.909  1.00  0.00     0.031 A 
ATOM     37  C   UNL A   1      40.481  27.016  28.467  1.00  0.00     0.074 A 
ATOM     38  C   UNL A   1      40.866  29.291  29.287  1.00  0.00     0.049 A 
ATOM     39  N   UNL A   1      41.607  26.498  28.828  1.00  0.00    -0.248 NA
ATOM     40  C   UNL A   1      39.698  26.141  27.605  1.00  0.00     0.031 C 
ATOM     41  C   UNL A   1      42.320  29.267  29.129  1.00  0.00     0.029 A 
ATOM     42  N   UNL A   1      40.626  30.424  30.087  1.00  0.00    -0.354 N 
ATOM     43  C   UNL A   1      41.820  25.372  28.063  1.00  0.00     0.074 A 
ATOM     44  C   UNL A   1      40.575  25.165  27.361  1.00  0.00     0.031 C 
ATOM     45  C   UNL A   1      42.868  30.109  30.019  1.00  0.00     0.029 A 
ATOM     46  C   UNL A   1      41.795  30.592  30.869  1.00  0.00     0.049 A 
ATOM     47  H   UNL A   1      39.815  30.983  30.101  1.00  0.00     0.167 HD
ATOM     48  C   UNL A   1      43.069  24.821  28.018  1.00  0.00     0.037 A 
ATOM     49  C   UNL A   1      41.775  30.504  32.229  1.00  0.00     0.037 A 
ATOM     50  C   UNL A   1      43.974  25.485  28.955  1.00  0.00     0.049 A 
ATOM     51  C   UNL A   1      42.688  29.441  32.793  1.00  0.00     0.074 A 
ATOM     52  C   UNL A   1      44.933  26.472  28.796  1.00  0.00     0.029 A 
ATOM     53  N   UNL A   1      43.749  25.375  30.324  1.00  0.00    -0.354 N 
ATOM     54  N   UNL A   1      43.175  28.458  32.089  1.00  0.00    -0.248 NA
ATOM     55  C   UNL A   1      43.062  29.361  34.202  1.00  0.00     0.031 C 
ATOM     56  C   UNL A   1      45.245  26.995  30.075  1.00  0.00     0.029 A 
ATOM     57  C   UNL A   1      44.489  26.317  31.014  1.00  0.00     0.049 A 
ATOM     58  H   UNL A   1      43.147  24.718  30.743  1.00  0.00     0.167 HD
ATOM     59  C   UNL A   1      43.855  27.605  32.916  1.00  0.00     0.074 A 
ATOM     60  C   UNL A   1      43.782  28.228  34.224  1.00  0.00     0.031 C 
ATOM     61  C   UNL A   1      44.394  26.438  32.459  1.00  0.00     0.037 A 
BRANCH  48  62
ATOM     62  C   UNL A   1      43.542  23.900  26.906  1.00  0.00     0.064 A 
ATOM     63  C   UNL A   1      43.126  22.551  26.857  1.00  0.00     0.173 A 
ATOM     64  C   UNL A   1      44.468  24.256  25.909  1.00  0.00     0.173 A 
ATOM     65  F   UNL A   1      42.148  22.090  27.646  1.00  0.00    -0.203 F 
ATOM     66  C   UNL A   1      43.699  21.615  25.989  1.00  0.00     0.198 A 
ATOM     67  C   UNL A   1      45.089  23.312  25.083  1.00  0.00     0.198 A 
ATOM     68  F   UNL A   1      44.753  25.537  25.648  1.00  0.00    -0.203 F 
ATOM     69  F   UNL A   1      43.269  20.346  26.002  1.00  0.00    -0.200 F 
ATOM     70  C   UNL A   1      44.716  21.986  25.135  1.00  0.00     0.200 A 
ATOM     71  F   UNL A   1      46.049  23.703  24.233  1.00  0.00    -0.200 F 
ATOM     72  F   UNL A   1      45.305  21.082  24.342  1.00  0.00    -0.200 F 
ENDBRANCH  48  62
BRANCH  49  73
ATOM     73  C   UNL A   1      40.477  30.899  32.834  1.00  0.00     0.064 A 
ATOM     74  C   UNL A   1      40.136  32.265  32.867  1.00  0.00     0.173 A 
ATOM     75  C   UNL A   1      39.451  29.971  33.041  1.00  0.00     0.173 A 
ATOM     76  F   UNL A   1      41.083  33.197  32.672  1.00  0.00    -0.203 F 
ATOM     77  C   UNL A   1      38.812  32.678  32.982  1.00  0.00     0.198 A 
ATOM     78  C   UNL A   1      38.125  30.389  33.170  1.00  0.00     0.198 A 
ATOM     79  F   UNL A   1      39.707  28.655  33.000  1.00  0.00    -0.203 F 
ATOM     80  F   UNL A   1      38.507  33.981  32.891  1.00  0.00    -0.200 F 
ATOM     81  C   UNL A   1      37.804  31.738  33.107  1.00  0.00     0.200 A 
ATOM     82  F   UNL A   1      37.145  29.478  33.253  1.00  0.00    -0.200 F 
ATOM     83  F   UNL A   1      36.521  32.125  33.116  1.00  0.00    -0.200 F 
ENDBRANCH  49  73
BRANCH  61  84
ATOM     84  C   UNL A   1      44.956  25.348  33.332  1.00  0.00     0.064 A 
ATOM     85  C   UNL A   1      44.157  24.440  34.049  1.00  0.00     0.173 A 
ATOM     86  C   UNL A   1      46.346  25.097  33.355  1.00  0.00     0.173 A 
ATOM     87  F   UNL A   1      42.819  24.510  34.007  1.00  0.00    -0.203 F 
ATOM     88  C   UNL A   1      44.715  23.397  34.792  1.00  0.00     0.198 A 
ATOM     89  C   UNL A   1      46.895  24.023  34.054  1.00  0.00     0.198 A 
ATOM     90  F   UNL A   1      47.205  25.875  32.680  1.00  0.00    -0.203 F 
ATOM     91  F   UNL A   1      43.915  22.582  35.493  1.00  0.00    -0.200 F 
ATOM     92  C   UNL A   1      46.081  23.183  34.787  1.00  0.00     0.200 A 
ATOM     93  F   UNL A   1      48.215  23.797  34.001  1.00  0.00    -0.200 F 
ATOM     94  F   UNL A   1      46.608  22.158  35.469  1.00  0.00    -0.200 F 
ENDBRANCH  61  84
ENDBRANCH  35  36
ENDBRANCH  27  30
ENDBRANCH  25  26
ENDBRANCH   1  25
TORSDOF 13
ENDMDL
