MODEL 1
REMARK VINA RESULT:     -12.3      0.000      0.000
REMARK SMILES C[C@H]1[C@H](C(=O)NCCCNC(=O)c2ccc(-c3c4nc(c(-c5c(F)c(F)c(F)c(F)c5F)c5ccc([nH]5)c(-c5c(F)c(F)c(F)c(F)c5F)c5nc(c(-c6c(F)c(F)c(F)c(F)c6F)c6ccc3[nH]6)C=C5)C=C4)cc2)CCN1C(=O)NCc1cnn(C)c1
REMARK SMILES IDX 7 1 6 2 4 3 5 4 3 6 1 7 2 8 78 9 76 10 77 11 79 12 80 13
REMARK SMILES IDX 81 14 82 16 83 17 84 18 88 19 85 20 86 21 87 22 8 23 9 24
REMARK SMILES IDX 10 25 11 26 12 28 13 29 14 30 75 31 15 32 74 33 16 34 17 35
REMARK SMILES IDX 18 36 68 37 19 38 73 39 67 40 69 41 20 42 72 43 66 44 65 45
REMARK SMILES IDX 21 47 53 48 33 49 52 50 34 51 37 52 51 53 70 54 35 55 36 56
REMARK SMILES IDX 50 58 71 59 38 60 22 61 23 62 31 63 24 64 25 65 29 66 32 67
REMARK SMILES IDX 26 68 27 69 30 70 28 71 54 72 55 73 63 74 56 75 57 76 61 77
REMARK SMILES IDX 64 78 58 79 59 80 62 81 60 82 39 83 40 84 48 85 41 86 42 87
REMARK SMILES IDX 46 88 49 89 43 90 44 91 47 92 45 93
REMARK H PARENT 6 5 81 15 10 27 69 46 37 57
REMARK Flexibility Score: inf
ROOT
ATOM      1  C   UNL A   1      36.665  20.429  24.892  1.00  0.00     0.117 C 
ENDROOT
BRANCH   1   2
ATOM      2  N   UNL A   1      36.936  21.515  23.967  1.00  0.00    -0.356 N 
ATOM      3  C   UNL A   1      36.219  22.607  23.604  1.00  0.00     0.225 C 
ATOM      4  O   UNL A   1      36.724  23.343  22.751  1.00  0.00    -0.275 OA
ATOM      5  H   UNL A   1      37.808  21.445  23.517  1.00  0.00     0.163 HD
BRANCH   3   6
ATOM      6  C   UNL A   1      34.838  22.938  24.151  1.00  0.00     0.102 C 
ATOM      7  C   UNL A   1      34.119  24.952  25.465  1.00  0.00     0.032 C 
ATOM      8  C   UNL A   1      34.525  24.440  24.077  1.00  0.00     0.096 C 
ATOM      9  N   UNL A   1      33.412  24.554  23.141  1.00  0.00    -0.321 N 
ATOM     10  C   UNL A   1      33.669  22.206  23.500  1.00  0.00     0.037 C 
ATOM     11  C   UNL A   1      32.689  23.291  23.079  1.00  0.00     0.122 C 
BRANCH   9  12
ATOM     12  C   UNL A   1      32.979  25.588  22.376  1.00  0.00     0.317 C 
ATOM     13  O   UNL A   1      33.646  25.994  21.419  1.00  0.00    -0.249 OA
ATOM     14  N   UNL A   1      31.837  26.253  22.593  1.00  0.00    -0.334 N 
ATOM     15  H   UNL A   1      31.773  27.048  22.015  1.00  0.00     0.165 HD
BRANCH  14  16
ATOM     16  C   UNL A   1      30.671  26.129  23.440  1.00  0.00     0.157 C 
BRANCH  16  17
ATOM     17  C   UNL A   1      30.949  26.773  24.748  1.00  0.00     0.009 A 
ATOM     18  C   UNL A   1      30.654  26.261  26.033  1.00  0.00     0.140 A 
ATOM     19  C   UNL A   1      31.516  28.007  25.009  1.00  0.00     0.113 A 
ATOM     20  N   UNL A   1      31.038  27.076  27.017  1.00  0.00    -0.181 NA
ATOM     21  N   UNL A   1      31.536  28.143  26.365  1.00  0.00    -0.275 N 
ATOM     22  C   UNL A   1      32.027  29.271  27.119  1.00  0.00     0.173 C 
ENDBRANCH  16  17
ENDBRANCH  14  16
ENDBRANCH   9  12
ENDBRANCH   3   6
ENDBRANCH   1   2
BRANCH   1  23
ATOM     23  C   UNL A   1      37.851  19.487  25.056  1.00  0.00     0.042 C 
BRANCH  23  24
ATOM     24  C   UNL A   1      39.017  20.056  25.858  1.00  0.00     0.118 C 
BRANCH  24  25
ATOM     25  N   UNL A   1      40.144  19.137  25.944  1.00  0.00    -0.352 N 
ATOM     26  C   UNL A   1      41.484  19.377  26.111  1.00  0.00     0.251 C 
ATOM     27  H   UNL A   1      39.905  18.185  25.869  1.00  0.00     0.163 HD
ATOM     28  O   UNL A   1      42.279  18.447  25.979  1.00  0.00    -0.269 OA
BRANCH  26  29
ATOM     29  C   UNL A   1      41.998  20.727  26.433  1.00  0.00     0.039 A 
ATOM     30  C   UNL A   1      42.280  21.601  25.376  1.00  0.00     0.014 A 
ATOM     31  C   UNL A   1      42.270  21.122  27.745  1.00  0.00     0.014 A 
ATOM     32  C   UNL A   1      42.782  22.879  25.635  1.00  0.00     0.010 A 
ATOM     33  C   UNL A   1      42.707  22.420  28.009  1.00  0.00     0.010 A 
ATOM     34  C   UNL A   1      42.973  23.310  26.956  1.00  0.00    -0.014 A 
BRANCH  34  35
ATOM     35  C   UNL A   1      43.448  24.684  27.255  1.00  0.00     0.031 A 
ATOM     36  C   UNL A   1      42.491  25.727  27.764  1.00  0.00     0.074 A 
ATOM     37  C   UNL A   1      44.730  25.013  27.007  1.00  0.00     0.049 A 
ATOM     38  N   UNL A   1      42.707  26.992  28.023  1.00  0.00    -0.248 NA
ATOM     39  C   UNL A   1      41.106  25.293  28.000  1.00  0.00     0.031 C 
ATOM     40  C   UNL A   1      45.751  24.105  26.487  1.00  0.00     0.029 A 
ATOM     41  N   UNL A   1      45.388  26.211  27.138  1.00  0.00    -0.354 N 
ATOM     42  C   UNL A   1      41.490  27.504  28.451  1.00  0.00     0.074 A 
ATOM     43  C   UNL A   1      40.525  26.428  28.364  1.00  0.00     0.031 C 
ATOM     44  C   UNL A   1      46.901  24.778  26.327  1.00  0.00     0.029 A 
ATOM     45  C   UNL A   1      46.694  26.168  26.722  1.00  0.00     0.049 A 
ATOM     46  H   UNL A   1      44.962  27.023  27.496  1.00  0.00     0.167 HD
ATOM     47  C   UNL A   1      41.206  28.750  28.904  1.00  0.00     0.037 A 
ATOM     48  C   UNL A   1      47.624  27.139  26.663  1.00  0.00     0.037 A 
ATOM     49  C   UNL A   1      42.167  29.816  29.007  1.00  0.00     0.049 A 
ATOM     50  C   UNL A   1      47.284  28.517  27.159  1.00  0.00     0.074 A 
ATOM     51  C   UNL A   1      41.991  31.095  29.508  1.00  0.00     0.029 A 
ATOM     52  N   UNL A   1      43.490  29.727  28.599  1.00  0.00    -0.354 N 
ATOM     53  N   UNL A   1      46.147  28.969  27.627  1.00  0.00    -0.248 NA
ATOM     54  C   UNL A   1      48.365  29.513  27.138  1.00  0.00     0.031 C 
ATOM     55  C   UNL A   1      43.196  31.790  29.369  1.00  0.00     0.029 A 
ATOM     56  C   UNL A   1      44.135  30.933  28.819  1.00  0.00     0.049 A 
ATOM     57  H   UNL A   1      43.908  28.925  28.209  1.00  0.00     0.167 HD
ATOM     58  C   UNL A   1      46.380  30.289  27.985  1.00  0.00     0.074 A 
ATOM     59  C   UNL A   1      47.771  30.564  27.688  1.00  0.00     0.031 C 
ATOM     60  C   UNL A   1      45.520  31.192  28.516  1.00  0.00     0.037 A 
BRANCH  47  61
ATOM     61  C   UNL A   1      39.795  29.023  29.335  1.00  0.00     0.064 A 
ATOM     62  C   UNL A   1      39.390  28.841  30.667  1.00  0.00     0.173 A 
ATOM     63  C   UNL A   1      38.847  29.505  28.421  1.00  0.00     0.173 A 
ATOM     64  F   UNL A   1      40.258  28.373  31.577  1.00  0.00    -0.203 F 
ATOM     65  C   UNL A   1      38.081  29.105  31.060  1.00  0.00     0.198 A 
ATOM     66  C   UNL A   1      37.545  29.792  28.825  1.00  0.00     0.198 A 
ATOM     67  F   UNL A   1      39.183  29.703  27.138  1.00  0.00    -0.203 F 
ATOM     68  F   UNL A   1      37.707  28.882  32.328  1.00  0.00    -0.200 F 
ATOM     69  C   UNL A   1      37.162  29.586  30.141  1.00  0.00     0.200 A 
ATOM     70  F   UNL A   1      36.660  30.269  27.938  1.00  0.00    -0.200 F 
ATOM     71  F   UNL A   1      35.903  29.845  30.523  1.00  0.00    -0.200 F 
ENDBRANCH  47  61
BRANCH  48  72
ATOM     72  C   UNL A   1      48.977  26.828  26.137  1.00  0.00     0.064 A 
ATOM     73  C   UNL A   1      49.977  26.321  26.977  1.00  0.00     0.173 A 
ATOM     74  C   UNL A   1      49.290  27.017  24.783  1.00  0.00     0.173 A 
ATOM     75  F   UNL A   1      49.726  26.137  28.281  1.00  0.00    -0.203 F 
ATOM     76  C   UNL A   1      51.248  26.031  26.487  1.00  0.00     0.198 A 
ATOM     77  C   UNL A   1      50.555  26.707  24.290  1.00  0.00     0.198 A 
ATOM     78  F   UNL A   1      48.361  27.485  23.938  1.00  0.00    -0.203 F 
ATOM     79  F   UNL A   1      52.196  25.579  27.317  1.00  0.00    -0.200 F 
ATOM     80  C   UNL A   1      51.534  26.220  25.142  1.00  0.00     0.200 A 
ATOM     81  F   UNL A   1      50.822  26.874  22.987  1.00  0.00    -0.200 F 
ATOM     82  F   UNL A   1      52.755  25.935  24.669  1.00  0.00    -0.200 F 
ENDBRANCH  48  72
BRANCH  60  83
ATOM     83  C   UNL A   1      46.067  32.552  28.833  1.00  0.00     0.064 A 
ATOM     84  C   UNL A   1      46.654  32.836  30.074  1.00  0.00     0.173 A 
ATOM     85  C   UNL A   1      46.023  33.576  27.874  1.00  0.00     0.173 A 
ATOM     86  F   UNL A   1      46.703  31.894  31.028  1.00  0.00    -0.203 F 
ATOM     87  C   UNL A   1      47.155  34.104  30.354  1.00  0.00     0.198 A 
ATOM     88  C   UNL A   1      46.547  34.836  28.149  1.00  0.00     0.198 A 
ATOM     89  F   UNL A   1      45.475  33.354  26.671  1.00  0.00    -0.203 F 
ATOM     90  F   UNL A   1      47.668  34.367  31.564  1.00  0.00    -0.200 F 
ATOM     91  C   UNL A   1      47.106  35.101  29.391  1.00  0.00     0.200 A 
ATOM     92  F   UNL A   1      46.508  35.796  27.215  1.00  0.00    -0.200 F 
ATOM     93  F   UNL A   1      47.588  36.321  29.663  1.00  0.00    -0.200 F 
ENDBRANCH  60  83
ENDBRANCH  34  35
ENDBRANCH  26  29
ENDBRANCH  24  25
ENDBRANCH  23  24
ENDBRANCH   1  23
TORSDOF 13
ENDMDL
MODEL 2
REMARK VINA RESULT:     -12.3      5.551     11.202
REMARK SMILES C[C@H]1[C@H](C(=O)NCCCNC(=O)c2ccc(-c3c4nc(c(-c5c(F)c(F)c(F)c(F)c5F)c5ccc([nH]5)c(-c5c(F)c(F)c(F)c(F)c5F)c5nc(c(-c6c(F)c(F)c(F)c(F)c6F)c6ccc3[nH]6)C=C5)C=C4)cc2)CCN1C(=O)NCc1cnn(C)c1
REMARK SMILES IDX 7 1 6 2 4 3 5 4 3 6 1 7 2 8 78 9 76 10 77 11 79 12 80 13
REMARK SMILES IDX 81 14 82 16 83 17 84 18 88 19 85 20 86 21 87 22 8 23 9 24
REMARK SMILES IDX 10 25 11 26 12 28 13 29 14 30 75 31 15 32 74 33 16 34 17 35
REMARK SMILES IDX 18 36 68 37 19 38 73 39 67 40 69 41 20 42 72 43 66 44 65 45
REMARK SMILES IDX 21 47 53 48 33 49 52 50 34 51 37 52 51 53 70 54 35 55 36 56
REMARK SMILES IDX 50 58 71 59 38 60 22 61 23 62 31 63 24 64 25 65 29 66 32 67
REMARK SMILES IDX 26 68 27 69 30 70 28 71 54 72 55 73 63 74 56 75 57 76 61 77
REMARK SMILES IDX 64 78 58 79 59 80 62 81 60 82 39 83 40 84 48 85 41 86 42 87
REMARK SMILES IDX 46 88 49 89 43 90 44 91 47 92 45 93
REMARK H PARENT 6 5 81 15 10 27 69 46 37 57
REMARK Flexibility Score: inf
ROOT
ATOM      1  C   UNL A   1      31.589  30.771  26.089  1.00  0.00     0.117 C 
ENDROOT
BRANCH   1   2
ATOM      2  N   UNL A   1      31.555  29.773  27.144  1.00  0.00    -0.356 N 
ATOM      3  C   UNL A   1      31.705  28.426  27.133  1.00  0.00     0.225 C 
ATOM      4  O   UNL A   1      31.590  27.847  28.218  1.00  0.00    -0.275 OA
ATOM      5  H   UNL A   1      31.393  30.148  28.040  1.00  0.00     0.163 HD
BRANCH   3   6
ATOM      6  C   UNL A   1      31.957  27.608  25.875  1.00  0.00     0.102 C 
ATOM      7  C   UNL A   1      33.885  26.086  25.362  1.00  0.00     0.032 C 
ATOM      8  C   UNL A   1      32.599  26.247  26.182  1.00  0.00     0.096 C 
ATOM      9  N   UNL A   1      31.606  25.257  25.782  1.00  0.00    -0.321 N 
ATOM     10  C   UNL A   1      30.738  27.340  24.998  1.00  0.00     0.037 C 
ATOM     11  C   UNL A   1      30.706  25.833  24.793  1.00  0.00     0.122 C 
BRANCH   9  12
ATOM     12  C   UNL A   1      31.412  23.969  26.165  1.00  0.00     0.317 C 
ATOM     13  O   UNL A   1      31.050  23.695  27.314  1.00  0.00    -0.249 OA
ATOM     14  N   UNL A   1      31.607  22.912  25.365  1.00  0.00    -0.334 N 
ATOM     15  H   UNL A   1      31.542  22.069  25.869  1.00  0.00     0.165 HD
BRANCH  14  16
ATOM     16  C   UNL A   1      31.884  22.665  23.967  1.00  0.00     0.157 C 
BRANCH  16  17
ATOM     17  C   UNL A   1      33.350  22.731  23.744  1.00  0.00     0.009 A 
ATOM     18  C   UNL A   1      34.025  23.378  22.683  1.00  0.00     0.140 A 
ATOM     19  C   UNL A   1      34.370  22.161  24.483  1.00  0.00     0.113 A 
ATOM     20  N   UNL A   1      35.352  23.265  22.767  1.00  0.00    -0.181 NA
ATOM     21  N   UNL A   1      35.534  22.496  23.856  1.00  0.00    -0.275 N 
ATOM     22  C   UNL A   1      36.872  22.125  24.248  1.00  0.00     0.173 C 
ENDBRANCH  16  17
ENDBRANCH  14  16
ENDBRANCH   9  12
ENDBRANCH   3   6
ENDBRANCH   1   2
BRANCH   1  23
ATOM     23  C   UNL A   1      31.411  32.190  26.615  1.00  0.00     0.042 C 
BRANCH  23  24
ATOM     24  C   UNL A   1      32.699  32.877  27.057  1.00  0.00     0.118 C 
BRANCH  24  25
ATOM     25  N   UNL A   1      32.466  34.197  27.628  1.00  0.00    -0.352 N 
ATOM     26  C   UNL A   1      33.034  34.816  28.711  1.00  0.00     0.251 C 
ATOM     27  H   UNL A   1      31.788  34.735  27.157  1.00  0.00     0.163 HD
ATOM     28  O   UNL A   1      32.553  35.875  29.115  1.00  0.00    -0.269 OA
BRANCH  26  29
ATOM     29  C   UNL A   1      34.200  34.238  29.415  1.00  0.00     0.039 A 
ATOM     30  C   UNL A   1      33.984  33.584  30.634  1.00  0.00     0.014 A 
ATOM     31  C   UNL A   1      35.503  34.385  28.933  1.00  0.00     0.014 A 
ATOM     32  C   UNL A   1      35.060  33.038  31.339  1.00  0.00     0.010 A 
ATOM     33  C   UNL A   1      36.569  33.782  29.601  1.00  0.00     0.010 A 
ATOM     34  C   UNL A   1      36.359  33.107  30.814  1.00  0.00    -0.014 A 
BRANCH  34  35
ATOM     35  C   UNL A   1      37.507  32.480  31.516  1.00  0.00     0.031 A 
ATOM     36  C   UNL A   1      38.209  31.293  30.919  1.00  0.00     0.074 A 
ATOM     37  C   UNL A   1      37.877  32.941  32.727  1.00  0.00     0.049 A 
ATOM     38  N   UNL A   1      39.189  30.577  31.411  1.00  0.00    -0.248 NA
ATOM     39  C   UNL A   1      37.740  30.843  29.599  1.00  0.00     0.031 C 
ATOM     40  C   UNL A   1      37.260  34.066  33.429  1.00  0.00     0.029 A 
ATOM     41  N   UNL A   1      38.848  32.502  33.592  1.00  0.00    -0.354 N 
ATOM     42  C   UNL A   1      39.453  29.595  30.465  1.00  0.00     0.074 A 
ATOM     43  C   UNL A   1      38.494  29.771  29.395  1.00  0.00     0.031 C 
ATOM     44  C   UNL A   1      37.854  34.220  34.622  1.00  0.00     0.029 A 
ATOM     45  C   UNL A   1      38.886  33.198  34.774  1.00  0.00     0.049 A 
ATOM     46  H   UNL A   1      39.460  31.759  33.384  1.00  0.00     0.167 HD
ATOM     47  C   UNL A   1      40.424  28.649  30.473  1.00  0.00     0.037 A 
ATOM     48  C   UNL A   1      39.662  33.032  35.860  1.00  0.00     0.037 A 
ATOM     49  C   UNL A   1      41.388  28.484  31.528  1.00  0.00     0.049 A 
ATOM     50  C   UNL A   1      40.725  31.970  35.852  1.00  0.00     0.074 A 
ATOM     51  C   UNL A   1      42.447  27.594  31.601  1.00  0.00     0.029 A 
ATOM     52  N   UNL A   1      41.410  29.225  32.700  1.00  0.00    -0.354 N 
ATOM     53  N   UNL A   1      41.010  31.094  34.921  1.00  0.00    -0.248 NA
ATOM     54  C   UNL A   1      41.590  31.889  37.038  1.00  0.00     0.031 C 
ATOM     55  C   UNL A   1      43.087  27.773  32.832  1.00  0.00     0.029 A 
ATOM     56  C   UNL A   1      42.452  28.801  33.510  1.00  0.00     0.049 A 
ATOM     57  H   UNL A   1      40.778  29.946  32.925  1.00  0.00     0.167 HD
ATOM     58  C   UNL A   1      42.101  30.378  35.391  1.00  0.00     0.074 A 
ATOM     59  C   UNL A   1      42.434  30.929  36.689  1.00  0.00     0.031 C 
ATOM     60  C   UNL A   1      42.770  29.358  34.800  1.00  0.00     0.037 A 
BRANCH  47  61
ATOM     61  C   UNL A   1      40.498  27.727  29.292  1.00  0.00     0.064 A 
ATOM     62  C   UNL A   1      39.661  26.605  29.188  1.00  0.00     0.173 A 
ATOM     63  C   UNL A   1      41.386  27.983  28.238  1.00  0.00     0.173 A 
ATOM     64  F   UNL A   1      38.801  26.311  30.175  1.00  0.00    -0.203 F 
ATOM     65  C   UNL A   1      39.731  25.759  28.084  1.00  0.00     0.198 A 
ATOM     66  C   UNL A   1      41.434  27.149  27.124  1.00  0.00     0.198 A 
ATOM     67  F   UNL A   1      42.203  29.046  28.284  1.00  0.00    -0.203 F 
ATOM     68  F   UNL A   1      38.952  24.669  28.028  1.00  0.00    -0.200 F 
ATOM     69  C   UNL A   1      40.612  26.035  27.051  1.00  0.00     0.200 A 
ATOM     70  F   UNL A   1      42.278  27.423  26.119  1.00  0.00    -0.200 F 
ATOM     71  F   UNL A   1      40.674  25.222  25.986  1.00  0.00    -0.200 F 
ENDBRANCH  47  61
BRANCH  48  72
ATOM     72  C   UNL A   1      39.477  33.919  37.036  1.00  0.00     0.064 A 
ATOM     73  C   UNL A   1      38.692  33.518  38.125  1.00  0.00     0.173 A 
ATOM     74  C   UNL A   1      40.093  35.177  37.100  1.00  0.00     0.173 A 
ATOM     75  F   UNL A   1      38.072  32.329  38.101  1.00  0.00    -0.203 F 
ATOM     76  C   UNL A   1      38.514  34.350  39.228  1.00  0.00     0.198 A 
ATOM     77  C   UNL A   1      39.932  35.999  38.213  1.00  0.00     0.198 A 
ATOM     78  F   UNL A   1      40.867  35.598  36.089  1.00  0.00    -0.203 F 
ATOM     79  F   UNL A   1      37.732  33.957  40.241  1.00  0.00    -0.200 F 
ATOM     80  C   UNL A   1      39.139  35.588  39.272  1.00  0.00     0.200 A 
ATOM     81  F   UNL A   1      40.552  37.187  38.259  1.00  0.00    -0.200 F 
ATOM     82  F   UNL A   1      38.973  36.385  40.336  1.00  0.00    -0.200 F 
ENDBRANCH  48  72
BRANCH  60  83
ATOM     83  C   UNL A   1      43.944  28.791  35.541  1.00  0.00     0.064 A 
ATOM     84  C   UNL A   1      45.241  29.292  35.355  1.00  0.00     0.173 A 
ATOM     85  C   UNL A   1      43.766  27.749  36.463  1.00  0.00     0.173 A 
ATOM     86  F   UNL A   1      45.463  30.276  34.470  1.00  0.00    -0.203 F 
ATOM     87  C   UNL A   1      46.321  28.754  36.048  1.00  0.00     0.198 A 
ATOM     88  C   UNL A   1      44.845  27.229  37.173  1.00  0.00     0.198 A 
ATOM     89  F   UNL A   1      42.546  27.238  36.680  1.00  0.00    -0.203 F 
ATOM     90  F   UNL A   1      47.558  29.215  35.819  1.00  0.00    -0.200 F 
ATOM     91  C   UNL A   1      46.122  27.727  36.960  1.00  0.00     0.200 A 
ATOM     92  F   UNL A   1      44.651  26.244  38.060  1.00  0.00    -0.200 F 
ATOM     93  F   UNL A   1      47.164  27.210  37.625  1.00  0.00    -0.200 F 
ENDBRANCH  60  83
ENDBRANCH  34  35
ENDBRANCH  26  29
ENDBRANCH  24  25
ENDBRANCH  23  24
ENDBRANCH   1  23
TORSDOF 13
ENDMDL
MODEL 3
REMARK VINA RESULT:     -12.2      1.257      2.470
REMARK SMILES C[C@H]1[C@H](C(=O)NCCCNC(=O)c2ccc(-c3c4nc(c(-c5c(F)c(F)c(F)c(F)c5F)c5ccc([nH]5)c(-c5c(F)c(F)c(F)c(F)c5F)c5nc(c(-c6c(F)c(F)c(F)c(F)c6F)c6ccc3[nH]6)C=C5)C=C4)cc2)CCN1C(=O)NCc1cnn(C)c1
REMARK SMILES IDX 7 1 6 2 4 3 5 4 3 6 1 7 2 8 78 9 76 10 77 11 79 12 80 13
REMARK SMILES IDX 81 14 82 16 83 17 84 18 88 19 85 20 86 21 87 22 8 23 9 24
REMARK SMILES IDX 10 25 11 26 12 28 13 29 14 30 75 31 15 32 74 33 16 34 17 35
REMARK SMILES IDX 18 36 68 37 19 38 73 39 67 40 69 41 20 42 72 43 66 44 65 45
REMARK SMILES IDX 21 47 53 48 33 49 52 50 34 51 37 52 51 53 70 54 35 55 36 56
REMARK SMILES IDX 50 58 71 59 38 60 22 61 23 62 31 63 24 64 25 65 29 66 32 67
REMARK SMILES IDX 26 68 27 69 30 70 28 71 54 72 55 73 63 74 56 75 57 76 61 77
REMARK SMILES IDX 64 78 58 79 59 80 62 81 60 82 39 83 40 84 48 85 41 86 42 87
REMARK SMILES IDX 46 88 49 89 43 90 44 91 47 92 45 93
REMARK H PARENT 6 5 81 15 10 27 69 46 37 57
REMARK Flexibility Score: inf
ROOT
ATOM      1  C   UNL A   1      36.812  20.600  24.670  1.00  0.00     0.117 C 
ENDROOT
BRANCH   1   2
ATOM      2  N   UNL A   1      35.570  20.316  25.368  1.00  0.00    -0.356 N 
ATOM      3  C   UNL A   1      34.420  21.020  25.510  1.00  0.00     0.225 C 
ATOM      4  O   UNL A   1      33.538  20.505  26.205  1.00  0.00    -0.275 OA
ATOM      5  H   UNL A   1      35.562  19.444  25.824  1.00  0.00     0.163 HD
BRANCH   3   6
ATOM      6  C   UNL A   1      34.185  22.397  24.907  1.00  0.00     0.102 C 
ATOM      7  C   UNL A   1      32.478  23.084  23.200  1.00  0.00     0.032 C 
ATOM      8  C   UNL A   1      32.695  22.682  24.665  1.00  0.00     0.096 C 
ATOM      9  N   UNL A   1      32.367  23.788  25.556  1.00  0.00    -0.321 N 
ATOM     10  C   UNL A   1      34.742  23.575  25.698  1.00  0.00     0.037 C 
ATOM     11  C   UNL A   1      33.575  24.534  25.882  1.00  0.00     0.122 C 
BRANCH   9  12
ATOM     12  C   UNL A   1      31.187  24.198  26.087  1.00  0.00     0.317 C 
ATOM     13  O   UNL A   1      30.881  23.916  27.251  1.00  0.00    -0.249 OA
ATOM     14  N   UNL A   1      30.270  24.907  25.416  1.00  0.00    -0.334 N 
ATOM     15  H   UNL A   1      29.435  24.986  25.932  1.00  0.00     0.165 HD
BRANCH  14  16
ATOM     16  C   UNL A   1      30.164  25.589  24.145  1.00  0.00     0.157 C 
BRANCH  16  17
ATOM     17  C   UNL A   1      30.542  27.013  24.325  1.00  0.00     0.009 A 
ATOM     18  C   UNL A   1      30.162  28.108  23.514  1.00  0.00     0.140 A 
ATOM     19  C   UNL A   1      31.360  27.583  25.283  1.00  0.00     0.113 A 
ATOM     20  N   UNL A   1      30.659  29.268  23.944  1.00  0.00    -0.181 NA
ATOM     21  N   UNL A   1      31.406  28.917  25.006  1.00  0.00    -0.275 N 
ATOM     22  C   UNL A   1      32.142  29.930  25.724  1.00  0.00     0.173 C 
ENDBRANCH  16  17
ENDBRANCH  14  16
ENDBRANCH   9  12
ENDBRANCH   3   6
ENDBRANCH   1   2
BRANCH   1  23
ATOM     23  C   UNL A   1      37.903  19.580  24.972  1.00  0.00     0.042 C 
BRANCH  23  24
ATOM     24  C   UNL A   1      39.017  20.082  25.885  1.00  0.00     0.118 C 
BRANCH  24  25
ATOM     25  N   UNL A   1      40.146  19.164  25.951  1.00  0.00    -0.352 N 
ATOM     26  C   UNL A   1      41.488  19.405  26.105  1.00  0.00     0.251 C 
ATOM     27  H   UNL A   1      39.908  18.212  25.874  1.00  0.00     0.163 HD
ATOM     28  O   UNL A   1      42.283  18.477  25.958  1.00  0.00    -0.269 OA
BRANCH  26  29
ATOM     29  C   UNL A   1      42.003  20.755  26.429  1.00  0.00     0.039 A 
ATOM     30  C   UNL A   1      42.250  21.643  25.376  1.00  0.00     0.014 A 
ATOM     31  C   UNL A   1      42.310  21.134  27.739  1.00  0.00     0.014 A 
ATOM     32  C   UNL A   1      42.752  22.920  25.637  1.00  0.00     0.010 A 
ATOM     33  C   UNL A   1      42.747  22.432  28.006  1.00  0.00     0.010 A 
ATOM     34  C   UNL A   1      42.978  23.336  26.958  1.00  0.00    -0.014 A 
BRANCH  34  35
ATOM     35  C   UNL A   1      43.453  24.709  27.261  1.00  0.00     0.031 A 
ATOM     36  C   UNL A   1      42.500  25.747  27.785  1.00  0.00     0.074 A 
ATOM     37  C   UNL A   1      44.733  25.042  27.004  1.00  0.00     0.049 A 
ATOM     38  N   UNL A   1      42.716  27.011  28.050  1.00  0.00    -0.248 NA
ATOM     39  C   UNL A   1      41.117  25.310  28.030  1.00  0.00     0.031 C 
ATOM     40  C   UNL A   1      45.751  24.138  26.470  1.00  0.00     0.029 A 
ATOM     41  N   UNL A   1      45.390  26.240  27.136  1.00  0.00    -0.354 N 
ATOM     42  C   UNL A   1      41.501  27.519  28.491  1.00  0.00     0.074 A 
ATOM     43  C   UNL A   1      40.538  26.442  28.406  1.00  0.00     0.031 C 
ATOM     44  C   UNL A   1      46.898  24.814  26.303  1.00  0.00     0.029 A 
ATOM     45  C   UNL A   1      46.693  26.202  26.708  1.00  0.00     0.049 A 
ATOM     46  H   UNL A   1      44.966  27.049  27.503  1.00  0.00     0.167 HD
ATOM     47  C   UNL A   1      41.220  28.761  28.953  1.00  0.00     0.037 A 
ATOM     48  C   UNL A   1      47.620  27.175  26.647  1.00  0.00     0.037 A 
ATOM     49  C   UNL A   1      42.180  29.828  29.055  1.00  0.00     0.049 A 
ATOM     50  C   UNL A   1      47.283  28.549  27.155  1.00  0.00     0.074 A 
ATOM     51  C   UNL A   1      42.007  31.104  29.565  1.00  0.00     0.029 A 
ATOM     52  N   UNL A   1      43.499  29.744  28.635  1.00  0.00    -0.354 N 
ATOM     53  N   UNL A   1      46.150  28.996  27.636  1.00  0.00    -0.248 NA
ATOM     54  C   UNL A   1      48.362  29.547  27.130  1.00  0.00     0.031 C 
ATOM     55  C   UNL A   1      43.210  31.802  29.420  1.00  0.00     0.029 A 
ATOM     56  C   UNL A   1      44.145  30.950  28.857  1.00  0.00     0.049 A 
ATOM     57  H   UNL A   1      43.916  28.945  28.236  1.00  0.00     0.167 HD
ATOM     58  C   UNL A   1      46.384  30.314  27.999  1.00  0.00     0.074 A 
ATOM     59  C   UNL A   1      47.771  30.593  27.691  1.00  0.00     0.031 C 
ATOM     60  C   UNL A   1      45.527  31.212  28.543  1.00  0.00     0.037 A 
BRANCH  47  61
ATOM     61  C   UNL A   1      39.812  29.029  29.399  1.00  0.00     0.064 A 
ATOM     62  C   UNL A   1      38.830  29.467  28.496  1.00  0.00     0.173 A 
ATOM     63  C   UNL A   1      39.429  28.813  30.730  1.00  0.00     0.173 A 
ATOM     64  F   UNL A   1      39.150  29.697  27.213  1.00  0.00    -0.203 F 
ATOM     65  C   UNL A   1      37.525  29.704  28.916  1.00  0.00     0.198 A 
ATOM     66  C   UNL A   1      38.115  29.027  31.141  1.00  0.00     0.198 A 
ATOM     67  F   UNL A   1      40.326  28.388  31.633  1.00  0.00    -0.203 F 
ATOM     68  F   UNL A   1      36.616  30.164  28.045  1.00  0.00    -0.200 F 
ATOM     69  C   UNL A   1      37.167  29.479  30.236  1.00  0.00     0.200 A 
ATOM     70  F   UNL A   1      37.767  28.797  32.414  1.00  0.00    -0.200 F 
ATOM     71  F   UNL A   1      35.908  29.703  30.638  1.00  0.00    -0.200 F 
ENDBRANCH  47  61
BRANCH  48  72
ATOM     72  C   UNL A   1      48.970  26.869  26.108  1.00  0.00     0.064 A 
ATOM     73  C   UNL A   1      49.253  27.022  24.745  1.00  0.00     0.173 A 
ATOM     74  C   UNL A   1      50.004  26.433  26.948  1.00  0.00     0.173 A 
ATOM     75  F   UNL A   1      48.289  27.424  23.902  1.00  0.00    -0.203 F 
ATOM     76  C   UNL A   1      50.517  26.733  24.236  1.00  0.00     0.198 A 
ATOM     77  C   UNL A   1      51.274  26.164  26.442  1.00  0.00     0.198 A 
ATOM     78  F   UNL A   1      49.785  26.286  28.263  1.00  0.00    -0.203 F 
ATOM     79  F   UNL A   1      50.752  26.856  22.924  1.00  0.00    -0.200 F 
ATOM     80  C   UNL A   1      51.527  26.308  25.087  1.00  0.00     0.200 A 
ATOM     81  F   UNL A   1      52.252  25.771  27.270  1.00  0.00    -0.200 F 
ATOM     82  F   UNL A   1      52.745  26.036  24.599  1.00  0.00    -0.200 F 
ENDBRANCH  48  72
BRANCH  60  83
ATOM     83  C   UNL A   1      46.074  32.572  28.863  1.00  0.00     0.064 A 
ATOM     84  C   UNL A   1      46.008  33.625  27.939  1.00  0.00     0.173 A 
ATOM     85  C   UNL A   1      46.651  32.829  30.116  1.00  0.00     0.173 A 
ATOM     86  F   UNL A   1      45.481  33.422  26.722  1.00  0.00    -0.203 F 
ATOM     87  C   UNL A   1      46.523  34.880  28.249  1.00  0.00     0.198 A 
ATOM     88  C   UNL A   1      47.143  34.093  30.432  1.00  0.00     0.198 A 
ATOM     89  F   UNL A   1      46.734  31.856  31.035  1.00  0.00    -0.203 F 
ATOM     90  F   UNL A   1      46.493  35.859  27.334  1.00  0.00    -0.200 F 
ATOM     91  C   UNL A   1      47.085  35.115  29.496  1.00  0.00     0.200 A 
ATOM     92  F   UNL A   1      47.677  34.321  31.639  1.00  0.00    -0.200 F 
ATOM     93  F   UNL A   1      47.580  36.324  29.791  1.00  0.00    -0.200 F 
ENDBRANCH  60  83
ENDBRANCH  34  35
ENDBRANCH  26  29
ENDBRANCH  24  25
ENDBRANCH  23  24
ENDBRANCH   1  23
TORSDOF 13
ENDMDL
