MODEL 1
REMARK VINA RESULT:     -12.9      0.000      0.000
REMARK SMILES O=C(C[C@@H]1C(=O)NCC[N@@H+]1Cc1ccc(F)c(F)c1)NCCCNC(=O)c1ccc(-c2c3nc(c(-c4c(F)c(F)c(F)c(F)c4F)c4ccc([nH]4)c(-c4c(F)c(F)c(F)c(F)c4F)c4nc(c(-c5c(F)c(F)c(F)c(F)c5F)c5ccc2[nH]5)C=C4)C=C3)cc1
REMARK SMILES IDX 21 1 20 2 1 3 2 4 3 6 4 7 5 8 10 9 6 10 7 11 9 12 8 14 11 16
REMARK SMILES IDX 12 17 13 18 19 19 14 20 17 21 15 22 18 23 16 24 22 25 23 26
REMARK SMILES IDX 24 27 25 28 26 30 27 31 28 32 89 33 29 34 88 35 30 36 31 37
REMARK SMILES IDX 32 38 82 39 33 40 87 41 81 42 83 43 34 44 86 45 80 46 79 47
REMARK SMILES IDX 35 49 67 50 47 51 66 52 48 53 51 54 65 55 84 56 49 57 50 58
REMARK SMILES IDX 64 60 85 61 52 62 36 63 37 64 45 65 38 66 39 67 43 68 46 69
REMARK SMILES IDX 40 70 41 71 44 72 42 73 68 74 69 75 77 76 70 77 71 78 75 79
REMARK SMILES IDX 78 80 72 81 73 82 76 83 74 84 53 85 54 86 62 87 55 88 56 89
REMARK SMILES IDX 60 90 63 91 57 92 58 93 61 94 59 95
REMARK H PARENT 20 5 10 13 7 15 24 29 83 48 51 59
REMARK Flexibility Score: inf
ROOT
ATOM      1  C   UNL A   1      37.361  21.422  24.630  1.00  0.00     0.117 C 
ENDROOT
BRANCH   1   2
ATOM      2  N   UNL A   1      36.052  21.604  25.226  1.00  0.00    -0.356 N 
ATOM      3  O   UNL A   1      36.569  23.668  26.093  1.00  0.00    -0.275 OA
ATOM      4  C   UNL A   1      35.738  22.794  25.865  1.00  0.00     0.226 C 
ATOM      5  H   UNL A   1      35.386  20.882  25.177  1.00  0.00     0.163 HD
BRANCH   4   6
ATOM      6  C   UNL A   1      34.277  22.947  26.217  1.00  0.00     0.175 C 
BRANCH   6   7
ATOM      7  C   UNL A   1      33.331  23.286  25.035  1.00  0.00     0.283 C 
ATOM      8  C   UNL A   1      32.202  24.251  25.503  1.00  0.00     0.279 C 
ATOM      9  N   UNL A   1      32.801  22.230  24.137  1.00  0.00    -0.319 N 
ATOM     10  O   UNL A   1      32.258  24.885  26.557  1.00  0.00    -0.268 OA
ATOM     11  N   UNL A   1      31.139  24.461  24.663  1.00  0.00    -0.345 N 
ATOM     12  C   UNL A   1      32.049  22.826  23.025  1.00  0.00     0.284 C 
ATOM     13  H   UNL A   1      33.671  21.803  23.819  1.00  0.00     0.349 HD
ATOM     14  C   UNL A   1      30.853  23.654  23.494  1.00  0.00     0.177 C 
ATOM     15  H   UNL A   1      30.530  25.208  24.867  1.00  0.00     0.163 HD
BRANCH   9  16
ATOM     16  C   UNL A   1      32.218  20.996  24.655  1.00  0.00     0.299 C 
BRANCH  16  17
ATOM     17  C   UNL A   1      32.770  19.651  24.235  1.00  0.00     0.009 A 
ATOM     18  C   UNL A   1      32.147  18.947  23.187  1.00  0.00     0.013 A 
ATOM     19  C   UNL A   1      33.962  19.126  24.753  1.00  0.00     0.052 A 
ATOM     20  C   UNL A   1      32.687  17.754  22.693  1.00  0.00     0.043 A 
ATOM     21  C   UNL A   1      34.492  17.935  24.267  1.00  0.00     0.159 A 
ATOM     22  C   UNL A   1      33.857  17.251  23.243  1.00  0.00     0.158 A 
ATOM     23  F   UNL A   1      35.652  17.485  24.764  1.00  0.00    -0.204 F 
ATOM     24  F   UNL A   1      34.395  16.128  22.748  1.00  0.00    -0.204 F 
ENDBRANCH  16  17
ENDBRANCH   9  16
ENDBRANCH   6   7
ENDBRANCH   4   6
ENDBRANCH   1   2
BRANCH   1  25
ATOM     25  C   UNL A   1      38.039  20.096  24.969  1.00  0.00     0.042 C 
BRANCH  25  26
ATOM     26  C   UNL A   1      39.141  20.133  26.029  1.00  0.00     0.118 C 
BRANCH  26  27
ATOM     27  N   UNL A   1      40.205  19.162  25.842  1.00  0.00    -0.352 N 
ATOM     28  C   UNL A   1      41.562  19.290  26.047  1.00  0.00     0.251 C 
ATOM     29  H   UNL A   1      39.914  18.279  25.521  1.00  0.00     0.163 HD
ATOM     30  O   UNL A   1      42.296  18.331  25.814  1.00  0.00    -0.269 OA
BRANCH  28  31
ATOM     31  C   UNL A   1      42.167  20.573  26.491  1.00  0.00     0.039 A 
ATOM     32  C   UNL A   1      42.724  21.414  25.519  1.00  0.00     0.014 A 
ATOM     33  C   UNL A   1      42.218  20.957  27.834  1.00  0.00     0.014 A 
ATOM     34  C   UNL A   1      43.245  22.662  25.878  1.00  0.00     0.010 A 
ATOM     35  C   UNL A   1      42.700  22.221  28.190  1.00  0.00     0.010 A 
ATOM     36  C   UNL A   1      43.198  23.096  27.213  1.00  0.00    -0.014 A 
BRANCH  36  37
ATOM     37  C   UNL A   1      43.582  24.488  27.573  1.00  0.00     0.031 A 
ATOM     38  C   UNL A   1      45.019  24.921  27.619  1.00  0.00     0.074 A 
ATOM     39  C   UNL A   1      42.614  25.365  27.909  1.00  0.00     0.049 A 
ATOM     40  N   UNL A   1      45.512  26.105  27.892  1.00  0.00    -0.248 NA
ATOM     41  C   UNL A   1      46.034  23.897  27.340  1.00  0.00     0.031 C 
ATOM     42  C   UNL A   1      41.183  25.057  27.957  1.00  0.00     0.029 A 
ATOM     43  N   UNL A   1      42.681  26.687  28.272  1.00  0.00    -0.354 N 
ATOM     44  C   UNL A   1      46.891  25.969  27.812  1.00  0.00     0.074 A 
ATOM     45  C   UNL A   1      47.160  24.580  27.509  1.00  0.00     0.031 C 
ATOM     46  C   UNL A   1      40.507  26.164  28.300  1.00  0.00     0.029 A 
ATOM     47  C   UNL A   1      41.455  27.254  28.520  1.00  0.00     0.049 A 
ATOM     48  H   UNL A   1      43.529  27.182  28.350  1.00  0.00     0.167 HD
ATOM     49  C   UNL A   1      47.842  26.924  27.955  1.00  0.00     0.037 A 
ATOM     50  C   UNL A   1      41.124  28.511  28.877  1.00  0.00     0.037 A 
ATOM     51  C   UNL A   1      47.578  28.310  28.242  1.00  0.00     0.049 A 
ATOM     52  C   UNL A   1      42.200  29.546  29.045  1.00  0.00     0.074 A 
ATOM     53  C   UNL A   1      48.480  29.357  28.330  1.00  0.00     0.029 A 
ATOM     54  N   UNL A   1      46.324  28.842  28.497  1.00  0.00    -0.354 N 
ATOM     55  N   UNL A   1      43.493  29.424  28.878  1.00  0.00    -0.248 NA
ATOM     56  C   UNL A   1      41.772  30.895  29.446  1.00  0.00     0.031 C 
ATOM     57  C   UNL A   1      47.778  30.514  28.682  1.00  0.00     0.029 A 
ATOM     58  C   UNL A   1      46.432  30.196  28.770  1.00  0.00     0.049 A 
ATOM     59  H   UNL A   1      45.481  28.334  28.486  1.00  0.00     0.167 HD
ATOM     60  C   UNL A   1      44.030  30.679  29.129  1.00  0.00     0.074 A 
ATOM     61  C   UNL A   1      42.924  31.553  29.455  1.00  0.00     0.031 C 
ATOM     62  C   UNL A   1      45.328  31.064  29.089  1.00  0.00     0.037 A 
BRANCH  49  63
ATOM     63  C   UNL A   1      49.276  26.517  27.781  1.00  0.00     0.064 A 
ATOM     64  C   UNL A   1      50.112  26.347  28.896  1.00  0.00     0.173 A 
ATOM     65  C   UNL A   1      49.845  26.394  26.506  1.00  0.00     0.173 A 
ATOM     66  F   UNL A   1      49.617  26.469  30.136  1.00  0.00    -0.203 F 
ATOM     67  C   UNL A   1      51.469  26.080  28.737  1.00  0.00     0.198 A 
ATOM     68  C   UNL A   1      51.198  26.104  26.351  1.00  0.00     0.198 A 
ATOM     69  F   UNL A   1      49.087  26.547  25.411  1.00  0.00    -0.203 F 
ATOM     70  F   UNL A   1      52.256  25.954  29.815  1.00  0.00    -0.200 F 
ATOM     71  C   UNL A   1      52.010  25.956  27.467  1.00  0.00     0.200 A 
ATOM     72  F   UNL A   1      51.717  25.969  25.123  1.00  0.00    -0.200 F 
ATOM     73  F   UNL A   1      53.316  25.696  27.316  1.00  0.00    -0.200 F 
ENDBRANCH  49  63
BRANCH  50  74
ATOM     74  C   UNL A   1      39.692  28.864  29.049  1.00  0.00     0.064 A 
ATOM     75  C   UNL A   1      39.053  28.746  30.291  1.00  0.00     0.173 A 
ATOM     76  C   UNL A   1      38.927  29.288  27.954  1.00  0.00     0.173 A 
ATOM     77  F   UNL A   1      39.743  28.339  31.366  1.00  0.00    -0.203 F 
ATOM     78  C   UNL A   1      37.695  29.021  30.427  1.00  0.00     0.198 A 
ATOM     79  C   UNL A   1      37.573  29.584  28.096  1.00  0.00     0.198 A 
ATOM     80  F   UNL A   1      39.502  29.433  26.751  1.00  0.00    -0.203 F 
ATOM     81  F   UNL A   1      37.098  28.870  31.617  1.00  0.00    -0.200 F 
ATOM     82  C   UNL A   1      36.956  29.442  29.330  1.00  0.00     0.200 A 
ATOM     83  F   UNL A   1      36.868  30.008  27.039  1.00  0.00    -0.200 F 
ATOM     84  F   UNL A   1      35.650  29.711  29.462  1.00  0.00    -0.200 F 
ENDBRANCH  50  74
BRANCH  62  85
ATOM     85  C   UNL A   1      45.643  32.498  29.390  1.00  0.00     0.064 A 
ATOM     86  C   UNL A   1      45.868  32.915  30.712  1.00  0.00     0.173 A 
ATOM     87  C   UNL A   1      45.624  33.475  28.385  1.00  0.00     0.173 A 
ATOM     88  F   UNL A   1      45.890  32.018  31.709  1.00  0.00    -0.203 F 
ATOM     89  C   UNL A   1      46.039  34.262  31.017  1.00  0.00     0.198 A 
ATOM     90  C   UNL A   1      45.817  34.819  28.693  1.00  0.00     0.198 A 
ATOM     91  F   UNL A   1      45.427  33.123  27.106  1.00  0.00    -0.203 F 
ATOM     92  F   UNL A   1      46.216  34.642  32.291  1.00  0.00    -0.200 F 
ATOM     93  C   UNL A   1      46.013  35.213  30.008  1.00  0.00     0.200 A 
ATOM     94  F   UNL A   1      45.810  35.736  27.715  1.00  0.00    -0.200 F 
ATOM     95  F   UNL A   1      46.175  36.510  30.305  1.00  0.00    -0.200 F 
ENDBRANCH  62  85
ENDBRANCH  36  37
ENDBRANCH  28  31
ENDBRANCH  26  27
ENDBRANCH  25  26
ENDBRANCH   1  25
TORSDOF 13
ENDMDL
MODEL 2
REMARK VINA RESULT:     -12.8      0.758      1.797
REMARK SMILES O=C(C[C@@H]1C(=O)NCC[N@@H+]1Cc1ccc(F)c(F)c1)NCCCNC(=O)c1ccc(-c2c3nc(c(-c4c(F)c(F)c(F)c(F)c4F)c4ccc([nH]4)c(-c4c(F)c(F)c(F)c(F)c4F)c4nc(c(-c5c(F)c(F)c(F)c(F)c5F)c5ccc2[nH]5)C=C4)C=C3)cc1
REMARK SMILES IDX 21 1 20 2 1 3 2 4 3 6 4 7 5 8 10 9 6 10 7 11 9 12 8 14 11 16
REMARK SMILES IDX 12 17 13 18 19 19 14 20 17 21 15 22 18 23 16 24 22 25 23 26
REMARK SMILES IDX 24 27 25 28 26 30 27 31 28 32 89 33 29 34 88 35 30 36 31 37
REMARK SMILES IDX 32 38 82 39 33 40 87 41 81 42 83 43 34 44 86 45 80 46 79 47
REMARK SMILES IDX 35 49 67 50 47 51 66 52 48 53 51 54 65 55 84 56 49 57 50 58
REMARK SMILES IDX 64 60 85 61 52 62 36 63 37 64 45 65 38 66 39 67 43 68 46 69
REMARK SMILES IDX 40 70 41 71 44 72 42 73 68 74 69 75 77 76 70 77 71 78 75 79
REMARK SMILES IDX 78 80 72 81 73 82 76 83 74 84 53 85 54 86 62 87 55 88 56 89
REMARK SMILES IDX 60 90 63 91 57 92 58 93 61 94 59 95
REMARK H PARENT 20 5 10 13 7 15 24 29 83 48 51 59
REMARK Flexibility Score: inf
ROOT
ATOM      1  C   UNL A   1      37.328  21.382  24.556  1.00  0.00     0.117 C 
ENDROOT
BRANCH   1   2
ATOM      2  N   UNL A   1      36.045  21.630  25.186  1.00  0.00    -0.356 N 
ATOM      3  O   UNL A   1      36.672  23.686  25.996  1.00  0.00    -0.275 OA
ATOM      4  C   UNL A   1      35.799  22.844  25.809  1.00  0.00     0.226 C 
ATOM      5  H   UNL A   1      35.348  20.936  25.170  1.00  0.00     0.163 HD
BRANCH   4   6
ATOM      6  C   UNL A   1      34.357  23.065  26.200  1.00  0.00     0.175 C 
BRANCH   6   7
ATOM      7  C   UNL A   1      33.379  23.355  25.030  1.00  0.00     0.283 C 
ATOM      8  C   UNL A   1      32.244  24.313  25.498  1.00  0.00     0.279 C 
ATOM      9  N   UNL A   1      32.848  22.265  24.175  1.00  0.00    -0.319 N 
ATOM     10  O   UNL A   1      32.312  24.977  26.532  1.00  0.00    -0.268 OA
ATOM     11  N   UNL A   1      31.159  24.481  24.676  1.00  0.00    -0.345 N 
ATOM     12  C   UNL A   1      32.062  22.817  23.064  1.00  0.00     0.284 C 
ATOM     13  H   UNL A   1      33.718  21.844  23.849  1.00  0.00     0.349 HD
ATOM     14  C   UNL A   1      30.861  23.637  23.537  1.00  0.00     0.177 C 
ATOM     15  H   UNL A   1      30.542  25.223  24.873  1.00  0.00     0.163 HD
BRANCH   9  16
ATOM     16  C   UNL A   1      32.299  21.036  24.740  1.00  0.00     0.299 C 
BRANCH  16  17
ATOM     17  C   UNL A   1      32.807  19.686  24.282  1.00  0.00     0.009 A 
ATOM     18  C   UNL A   1      32.183  19.047  23.194  1.00  0.00     0.013 A 
ATOM     19  C   UNL A   1      33.965  19.096  24.808  1.00  0.00     0.052 A 
ATOM     20  C   UNL A   1      32.688  17.853  22.669  1.00  0.00     0.043 A 
ATOM     21  C   UNL A   1      34.459  17.902  24.290  1.00  0.00     0.159 A 
ATOM     22  C   UNL A   1      33.824  17.283  23.226  1.00  0.00     0.158 A 
ATOM     23  F   UNL A   1      35.588  17.389  24.797  1.00  0.00    -0.204 F 
ATOM     24  F   UNL A   1      34.329  16.158  22.702  1.00  0.00    -0.204 F 
ENDBRANCH  16  17
ENDBRANCH   9  16
ENDBRANCH   6   7
ENDBRANCH   4   6
ENDBRANCH   1   2
BRANCH   1  25
ATOM     25  C   UNL A   1      38.003  20.078  24.976  1.00  0.00     0.042 C 
BRANCH  25  26
ATOM     26  C   UNL A   1      39.114  20.180  26.023  1.00  0.00     0.118 C 
BRANCH  26  27
ATOM     27  N   UNL A   1      40.175  19.198  25.890  1.00  0.00    -0.352 N 
ATOM     28  C   UNL A   1      41.533  19.335  26.074  1.00  0.00     0.251 C 
ATOM     29  H   UNL A   1      39.879  18.296  25.628  1.00  0.00     0.163 HD
ATOM     30  O   UNL A   1      42.264  18.362  25.897  1.00  0.00    -0.269 OA
BRANCH  28  31
ATOM     31  C   UNL A   1      42.144  20.644  26.430  1.00  0.00     0.039 A 
ATOM     32  C   UNL A   1      42.557  21.486  25.390  1.00  0.00     0.014 A 
ATOM     33  C   UNL A   1      42.338  21.049  27.753  1.00  0.00     0.014 A 
ATOM     34  C   UNL A   1      43.076  22.754  25.671  1.00  0.00     0.010 A 
ATOM     35  C   UNL A   1      42.817  22.333  28.035  1.00  0.00     0.010 A 
ATOM     36  C   UNL A   1      43.170  23.207  26.997  1.00  0.00    -0.014 A 
BRANCH  36  37
ATOM     37  C   UNL A   1      43.547  24.616  27.293  1.00  0.00     0.031 A 
ATOM     38  C   UNL A   1      44.942  25.122  27.062  1.00  0.00     0.074 A 
ATOM     39  C   UNL A   1      42.622  25.441  27.825  1.00  0.00     0.049 A 
ATOM     40  N   UNL A   1      45.420  26.329  27.248  1.00  0.00    -0.248 NA
ATOM     41  C   UNL A   1      45.932  24.153  26.574  1.00  0.00     0.031 C 
ATOM     42  C   UNL A   1      41.247  25.060  28.149  1.00  0.00     0.029 A 
ATOM     43  N   UNL A   1      42.695  26.764  28.186  1.00  0.00    -0.354 N 
ATOM     44  C   UNL A   1      46.762  26.264  26.896  1.00  0.00     0.074 A 
ATOM     45  C   UNL A   1      47.033  24.891  26.528  1.00  0.00     0.031 C 
ATOM     46  C   UNL A   1      40.598  26.130  28.634  1.00  0.00     0.029 A 
ATOM     47  C   UNL A   1      41.515  27.266  28.678  1.00  0.00     0.049 A 
ATOM     48  H   UNL A   1      43.516  27.301  28.102  1.00  0.00     0.167 HD
ATOM     49  C   UNL A   1      47.673  27.266  26.862  1.00  0.00     0.037 A 
ATOM     50  C   UNL A   1      41.199  28.503  29.110  1.00  0.00     0.037 A 
ATOM     51  C   UNL A   1      47.403  28.635  27.214  1.00  0.00     0.049 A 
ATOM     52  C   UNL A   1      42.234  29.592  29.077  1.00  0.00     0.074 A 
ATOM     53  C   UNL A   1      48.251  29.727  27.138  1.00  0.00     0.029 A 
ATOM     54  N   UNL A   1      46.199  29.101  27.719  1.00  0.00    -0.354 N 
ATOM     55  N   UNL A   1      43.474  29.536  28.657  1.00  0.00    -0.248 NA
ATOM     56  C   UNL A   1      41.827  30.915  29.573  1.00  0.00     0.031 C 
ATOM     57  C   UNL A   1      47.576  30.846  27.636  1.00  0.00     0.029 A 
ATOM     58  C   UNL A   1      46.292  30.459  27.984  1.00  0.00     0.049 A 
ATOM     59  H   UNL A   1      45.396  28.551  27.866  1.00  0.00     0.167 HD
ATOM     60  C   UNL A   1      43.987  30.816  28.815  1.00  0.00     0.074 A 
ATOM     61  C   UNL A   1      42.924  31.631  29.364  1.00  0.00     0.031 C 
ATOM     62  C   UNL A   1      45.231  31.267  28.525  1.00  0.00     0.037 A 
BRANCH  49  63
ATOM     63  C   UNL A   1      49.063  26.934  26.404  1.00  0.00     0.064 A 
ATOM     64  C   UNL A   1      49.420  27.056  25.052  1.00  0.00     0.173 A 
ATOM     65  C   UNL A   1      50.010  26.399  27.289  1.00  0.00     0.173 A 
ATOM     66  F   UNL A   1      48.543  27.549  24.165  1.00  0.00    -0.203 F 
ATOM     67  C   UNL A   1      50.671  26.644  24.603  1.00  0.00     0.198 A 
ATOM     68  C   UNL A   1      51.269  26.010  26.840  1.00  0.00     0.198 A 
ATOM     69  F   UNL A   1      49.717  26.263  28.590  1.00  0.00    -0.203 F 
ATOM     70  F   UNL A   1      50.978  26.739  23.301  1.00  0.00    -0.200 F 
ATOM     71  C   UNL A   1      51.595  26.124  25.496  1.00  0.00     0.200 A 
ATOM     72  F   UNL A   1      52.167  25.521  27.706  1.00  0.00    -0.200 F 
ATOM     73  F   UNL A   1      52.800  25.730  25.062  1.00  0.00    -0.200 F 
ENDBRANCH  49  63
BRANCH  50  74
ATOM     74  C   UNL A   1      39.814  28.781  29.565  1.00  0.00     0.064 A 
ATOM     75  C   UNL A   1      39.418  28.549  30.890  1.00  0.00     0.173 A 
ATOM     76  C   UNL A   1      38.848  29.249  28.664  1.00  0.00     0.173 A 
ATOM     77  F   UNL A   1      40.305  28.097  31.787  1.00  0.00    -0.203 F 
ATOM     78  C   UNL A   1      38.099  28.756  31.290  1.00  0.00     0.198 A 
ATOM     79  C   UNL A   1      37.536  29.476  29.071  1.00  0.00     0.198 A 
ATOM     80  F   UNL A   1      39.188  29.503  27.391  1.00  0.00    -0.203 F 
ATOM     81  F   UNL A   1      37.736  28.495  32.554  1.00  0.00    -0.200 F 
ATOM     82  C   UNL A   1      37.160  29.221  30.381  1.00  0.00     0.200 A 
ATOM     83  F   UNL A   1      36.636  29.943  28.195  1.00  0.00    -0.200 F 
ATOM     84  F   UNL A   1      35.893  29.424  30.768  1.00  0.00    -0.200 F 
ENDBRANCH  50  74
BRANCH  62  85
ATOM     85  C   UNL A   1      45.528  32.715  28.778  1.00  0.00     0.064 A 
ATOM     86  C   UNL A   1      45.313  33.671  27.774  1.00  0.00     0.173 A 
ATOM     87  C   UNL A   1      46.117  33.139  29.977  1.00  0.00     0.173 A 
ATOM     88  F   UNL A   1      44.756  33.313  26.607  1.00  0.00    -0.203 F 
ATOM     89  C   UNL A   1      45.698  34.997  27.953  1.00  0.00     0.198 A 
ATOM     90  C   UNL A   1      46.483  34.470  30.160  1.00  0.00     0.198 A 
ATOM     91  F   UNL A   1      46.330  32.264  30.971  1.00  0.00    -0.203 F 
ATOM     92  F   UNL A   1      45.517  35.886  26.966  1.00  0.00    -0.200 F 
ATOM     93  C   UNL A   1      46.284  35.395  29.145  1.00  0.00     0.200 A 
ATOM     94  F   UNL A   1      47.031  34.859  31.319  1.00  0.00    -0.200 F 
ATOM     95  F   UNL A   1      46.657  36.671  29.315  1.00  0.00    -0.200 F 
ENDBRANCH  62  85
ENDBRANCH  36  37
ENDBRANCH  28  31
ENDBRANCH  26  27
ENDBRANCH  25  26
ENDBRANCH   1  25
TORSDOF 13
ENDMDL
MODEL 3
REMARK VINA RESULT:     -12.8      0.924      7.300
REMARK SMILES O=C(C[C@@H]1C(=O)NCC[N@@H+]1Cc1ccc(F)c(F)c1)NCCCNC(=O)c1ccc(-c2c3nc(c(-c4c(F)c(F)c(F)c(F)c4F)c4ccc([nH]4)c(-c4c(F)c(F)c(F)c(F)c4F)c4nc(c(-c5c(F)c(F)c(F)c(F)c5F)c5ccc2[nH]5)C=C4)C=C3)cc1
REMARK SMILES IDX 21 1 20 2 1 3 2 4 3 6 4 7 5 8 10 9 6 10 7 11 9 12 8 14 11 16
REMARK SMILES IDX 12 17 13 18 19 19 14 20 17 21 15 22 18 23 16 24 22 25 23 26
REMARK SMILES IDX 24 27 25 28 26 30 27 31 28 32 89 33 29 34 88 35 30 36 31 37
REMARK SMILES IDX 32 38 82 39 33 40 87 41 81 42 83 43 34 44 86 45 80 46 79 47
REMARK SMILES IDX 35 49 67 50 47 51 66 52 48 53 51 54 65 55 84 56 49 57 50 58
REMARK SMILES IDX 64 60 85 61 52 62 36 63 37 64 45 65 38 66 39 67 43 68 46 69
REMARK SMILES IDX 40 70 41 71 44 72 42 73 68 74 69 75 77 76 70 77 71 78 75 79
REMARK SMILES IDX 78 80 72 81 73 82 76 83 74 84 53 85 54 86 62 87 55 88 56 89
REMARK SMILES IDX 60 90 63 91 57 92 58 93 61 94 59 95
REMARK H PARENT 20 5 10 13 7 15 24 29 83 48 51 59
REMARK Flexibility Score: inf
ROOT
ATOM      1  C   UNL A   1      37.378  21.435  24.633  1.00  0.00     0.117 C 
ENDROOT
BRANCH   1   2
ATOM      2  N   UNL A   1      36.071  21.624  25.233  1.00  0.00    -0.356 N 
ATOM      3  O   UNL A   1      36.585  23.707  26.056  1.00  0.00    -0.275 OA
ATOM      4  C   UNL A   1      35.756  22.825  25.850  1.00  0.00     0.226 C 
ATOM      5  H   UNL A   1      35.407  20.898  25.202  1.00  0.00     0.163 HD
BRANCH   4   6
ATOM      6  C   UNL A   1      34.296  22.980  26.208  1.00  0.00     0.175 C 
BRANCH   6   7
ATOM      7  C   UNL A   1      33.348  23.335  25.032  1.00  0.00     0.283 C 
ATOM      8  C   UNL A   1      32.229  24.305  25.513  1.00  0.00     0.279 C 
ATOM      9  N   UNL A   1      32.807  22.290  24.128  1.00  0.00    -0.319 N 
ATOM     10  O   UNL A   1      32.294  24.930  26.571  1.00  0.00    -0.268 OA
ATOM     11  N   UNL A   1      31.164  24.529  24.678  1.00  0.00    -0.345 N 
ATOM     12  C   UNL A   1      32.056  22.901  23.024  1.00  0.00     0.284 C 
ATOM     13  H   UNL A   1      33.673  21.859  23.803  1.00  0.00     0.349 HD
ATOM     14  C   UNL A   1      30.867  23.734  23.504  1.00  0.00     0.177 C 
ATOM     15  H   UNL A   1      30.562  25.279  24.891  1.00  0.00     0.163 HD
BRANCH   9  16
ATOM     16  C   UNL A   1      32.217  21.056  24.639  1.00  0.00     0.299 C 
BRANCH  16  17
ATOM     17  C   UNL A   1      32.760  19.710  24.210  1.00  0.00     0.009 A 
ATOM     18  C   UNL A   1      32.153  19.032  23.137  1.00  0.00     0.013 A 
ATOM     19  C   UNL A   1      33.933  19.162  24.747  1.00  0.00     0.052 A 
ATOM     20  C   UNL A   1      32.689  17.840  22.637  1.00  0.00     0.043 A 
ATOM     21  C   UNL A   1      34.459  17.971  24.255  1.00  0.00     0.159 A 
ATOM     22  C   UNL A   1      33.839  17.312  23.205  1.00  0.00     0.158 A 
ATOM     23  F   UNL A   1      35.600  17.498  24.772  1.00  0.00    -0.204 F 
ATOM     24  F   UNL A   1      34.373  16.190  22.705  1.00  0.00    -0.204 F 
ENDBRANCH  16  17
ENDBRANCH   9  16
ENDBRANCH   6   7
ENDBRANCH   4   6
ENDBRANCH   1   2
BRANCH   1  25
ATOM     25  C   UNL A   1      38.064  20.121  24.999  1.00  0.00     0.042 C 
BRANCH  25  26
ATOM     26  C   UNL A   1      39.136  20.180  26.089  1.00  0.00     0.118 C 
BRANCH  26  27
ATOM     27  N   UNL A   1      40.183  19.181  25.975  1.00  0.00    -0.352 N 
ATOM     28  C   UNL A   1      41.547  19.311  26.126  1.00  0.00     0.251 C 
ATOM     29  H   UNL A   1      39.873  18.273  25.758  1.00  0.00     0.163 HD
ATOM     30  O   UNL A   1      42.263  18.323  25.975  1.00  0.00    -0.269 OA
BRANCH  28  31
ATOM     31  C   UNL A   1      42.178  20.626  26.414  1.00  0.00     0.039 A 
ATOM     32  C   UNL A   1      42.630  21.394  25.334  1.00  0.00     0.014 A 
ATOM     33  C   UNL A   1      42.355  21.108  27.714  1.00  0.00     0.014 A 
ATOM     34  C   UNL A   1      43.170  22.667  25.548  1.00  0.00     0.010 A 
ATOM     35  C   UNL A   1      42.855  22.397  27.927  1.00  0.00     0.010 A 
ATOM     36  C   UNL A   1      43.247  23.198  26.846  1.00  0.00    -0.014 A 
BRANCH  36  37
ATOM     37  C   UNL A   1      43.649  24.615  27.063  1.00  0.00     0.031 A 
ATOM     38  C   UNL A   1      42.672  25.643  27.555  1.00  0.00     0.074 A 
ATOM     39  C   UNL A   1      44.910  24.987  26.766  1.00  0.00     0.049 A 
ATOM     40  N   UNL A   1      42.875  26.912  27.816  1.00  0.00    -0.248 NA
ATOM     41  C   UNL A   1      41.287  25.201  27.768  1.00  0.00     0.031 C 
ATOM     42  C   UNL A   1      45.943  24.099  26.230  1.00  0.00     0.029 A 
ATOM     43  N   UNL A   1      45.540  26.204  26.870  1.00  0.00    -0.354 N 
ATOM     44  C   UNL A   1      41.649  27.416  28.228  1.00  0.00     0.074 A 
ATOM     45  C   UNL A   1      40.697  26.330  28.139  1.00  0.00     0.031 C 
ATOM     46  C   UNL A   1      47.083  24.792  26.079  1.00  0.00     0.029 A 
ATOM     47  C   UNL A   1      46.857  26.178  26.484  1.00  0.00     0.049 A 
ATOM     48  H   UNL A   1      45.088  27.018  27.190  1.00  0.00     0.167 HD
ATOM     49  C   UNL A   1      41.353  28.666  28.661  1.00  0.00     0.037 A 
ATOM     50  C   UNL A   1      47.787  27.153  26.464  1.00  0.00     0.037 A 
ATOM     51  C   UNL A   1      42.301  29.745  28.763  1.00  0.00     0.049 A 
ATOM     52  C   UNL A   1      47.428  28.535  26.935  1.00  0.00     0.074 A 
ATOM     53  C   UNL A   1      42.100  31.021  29.261  1.00  0.00     0.029 A 
ATOM     54  N   UNL A   1      43.622  29.681  28.351  1.00  0.00    -0.354 N 
ATOM     55  N   UNL A   1      46.287  28.973  27.406  1.00  0.00    -0.248 NA
ATOM     56  C   UNL A   1      48.485  29.555  26.876  1.00  0.00     0.031 C 
ATOM     57  C   UNL A   1      43.288  31.744  29.112  1.00  0.00     0.029 A 
ATOM     58  C   UNL A   1      44.241  30.904  28.559  1.00  0.00     0.049 A 
ATOM     59  H   UNL A   1      44.058  28.886  27.969  1.00  0.00     0.167 HD
ATOM     60  C   UNL A   1      46.494  30.309  27.721  1.00  0.00     0.074 A 
ATOM     61  C   UNL A   1      47.871  30.611  27.393  1.00  0.00     0.031 C 
ATOM     62  C   UNL A   1      45.613  31.199  28.237  1.00  0.00     0.037 A 
BRANCH  49  63
ATOM     63  C   UNL A   1      39.942  28.945  29.087  1.00  0.00     0.064 A 
ATOM     64  C   UNL A   1      39.540  28.731  30.415  1.00  0.00     0.173 A 
ATOM     65  C   UNL A   1      38.965  29.328  28.157  1.00  0.00     0.173 A 
ATOM     66  F   UNL A   1      40.435  28.350  31.338  1.00  0.00    -0.203 F 
ATOM     67  C   UNL A   1      38.208  28.881  30.791  1.00  0.00     0.198 A 
ATOM     68  C   UNL A   1      37.638  29.499  28.542  1.00  0.00     0.198 A 
ATOM     69  F   UNL A   1      39.301  29.544  26.877  1.00  0.00    -0.203 F 
ATOM     70  F   UNL A   1      37.840  28.639  32.057  1.00  0.00    -0.200 F 
ATOM     71  C   UNL A   1      37.260  29.266  29.857  1.00  0.00     0.200 A 
ATOM     72  F   UNL A   1      36.725  29.886  27.641  1.00  0.00    -0.200 F 
ATOM     73  F   UNL A   1      35.978  29.412  30.221  1.00  0.00    -0.200 F 
ENDBRANCH  49  63
BRANCH  50  74
ATOM     74  C   UNL A   1      49.168  26.832  26.023  1.00  0.00     0.064 A 
ATOM     75  C   UNL A   1      50.135  26.370  26.925  1.00  0.00     0.173 A 
ATOM     76  C   UNL A   1      49.552  27.025  24.689  1.00  0.00     0.173 A 
ATOM     77  F   UNL A   1      49.816  26.176  28.212  1.00  0.00    -0.203 F 
ATOM     78  C   UNL A   1      51.444  26.131  26.512  1.00  0.00     0.198 A 
ATOM     79  C   UNL A   1      50.855  26.764  24.273  1.00  0.00     0.198 A 
ATOM     80  F   UNL A   1      48.653  27.448  23.787  1.00  0.00    -0.203 F 
ATOM     81  F   UNL A   1      52.360  25.721  27.400  1.00  0.00    -0.200 F 
ATOM     82  C   UNL A   1      51.803  26.326  25.186  1.00  0.00     0.200 A 
ATOM     83  F   UNL A   1      51.193  26.936  22.988  1.00  0.00    -0.200 F 
ATOM     84  F   UNL A   1      53.061  26.091  24.788  1.00  0.00    -0.200 F 
ENDBRANCH  50  74
BRANCH  62  85
ATOM     85  C   UNL A   1      46.099  32.593  28.502  1.00  0.00     0.064 A 
ATOM     86  C   UNL A   1      46.038  33.570  27.497  1.00  0.00     0.173 A 
ATOM     87  C   UNL A   1      46.715  32.931  29.714  1.00  0.00     0.173 A 
ATOM     88  F   UNL A   1      45.463  33.292  26.317  1.00  0.00    -0.203 F 
ATOM     89  C   UNL A   1      46.597  34.831  27.690  1.00  0.00     0.198 A 
ATOM     90  C   UNL A   1      47.255  34.200  29.911  1.00  0.00     0.198 A 
ATOM     91  F   UNL A   1      46.785  32.034  30.710  1.00  0.00    -0.203 F 
ATOM     92  F   UNL A   1      46.560  35.737  26.703  1.00  0.00    -0.200 F 
ATOM     93  C   UNL A   1      47.206  35.144  28.896  1.00  0.00     0.200 A 
ATOM     94  F   UNL A   1      47.826  34.509  31.083  1.00  0.00    -0.200 F 
ATOM     95  F   UNL A   1      47.746  36.357  29.079  1.00  0.00    -0.200 F 
ENDBRANCH  62  85
ENDBRANCH  36  37
ENDBRANCH  28  31
ENDBRANCH  26  27
ENDBRANCH  25  26
ENDBRANCH   1  25
TORSDOF 13
ENDMDL
