MODEL 1
REMARK VINA RESULT:     -12.0      0.000      0.000
REMARK SMILES C#CC[N@@H+](CC(=O)NCCCNC(=O)c1ccc(-c2c3nc(c(-c4c(F)c(F)c(F)c(F)c4F)c4ccc([nH]4)c(-c4c(F)c(F)c(F)c(F)c4F)c4nc(c(-c5c(F)c(F)c(F)c(F)c5F)c5ccc2[nH]5)C=C4)C=C3)cc1)[C@H]1CC[C@@H](c2ccccc2)CC1
REMARK SMILES IDX 9 1 8 2 6 3 7 4 5 6 4 7 3 9 2 10 1 11 78 12 89 13 79 14
REMARK SMILES IDX 88 15 80 16 81 17 82 18 83 19 87 20 84 21 86 22 85 23 10 24
REMARK SMILES IDX 11 25 12 26 13 27 14 29 15 30 16 31 77 32 17 33 76 34 18 35
REMARK SMILES IDX 19 36 20 37 70 38 21 39 75 40 69 41 71 42 22 43 74 44 68 45
REMARK SMILES IDX 67 46 23 48 55 49 35 50 54 51 36 52 39 53 53 54 72 55 37 56
REMARK SMILES IDX 38 57 52 59 73 60 40 61 24 62 25 63 33 64 26 65 27 66 31 67
REMARK SMILES IDX 34 68 28 69 29 70 32 71 30 72 56 73 57 74 65 75 58 76 59 77
REMARK SMILES IDX 63 78 66 79 60 80 61 81 64 82 62 83 41 84 42 85 50 86 43 87
REMARK SMILES IDX 44 88 48 89 51 90 45 91 46 92 49 93 47 94
REMARK H PARENT 8 5 4 8 12 28 71 47 39 58
REMARK Flexibility Score: inf
ROOT
ATOM      1  C   UNL A   1      31.388  30.779  26.245  1.00  0.00     0.118 C 
ENDROOT
BRANCH   1   2
ATOM      2  N   UNL A   1      31.035  30.369  24.891  1.00  0.00    -0.351 N 
ATOM      3  C   UNL A   1      31.441  29.332  24.099  1.00  0.00     0.275 C 
ATOM      4  O   UNL A   1      30.676  29.033  23.177  1.00  0.00    -0.269 OA
ATOM      5  H   UNL A   1      30.372  30.956  24.463  1.00  0.00     0.163 HD
BRANCH   3   6
ATOM      6  C   UNL A   1      32.750  28.553  24.308  1.00  0.00     0.364 C 
BRANCH   6   7
ATOM      7  N   UNL A   1      32.761  27.530  25.398  1.00  0.00    -0.315 N 
ATOM      8  H   UNL A   1      32.023  27.800  26.050  1.00  0.00     0.349 HD
BRANCH   7   9
ATOM      9  C   UNL A   1      34.059  27.572  26.032  1.00  0.00     0.354 C 
BRANCH   9  10
ATOM     10  C   UNL A   1      34.425  28.784  26.873  1.00  0.00    -0.047 C 
ATOM     11  C   UNL A   1      34.740  29.824  27.594  1.00  0.00     0.010 C 
ENDBRANCH   9  10
ENDBRANCH   7   9
BRANCH   7  12
ATOM     12  C   UNL A   1      32.296  26.159  25.073  1.00  0.00     0.185 C 
ATOM     13  C   UNL A   1      32.730  25.739  23.656  1.00  0.00     0.066 C 
ATOM     14  C   UNL A   1      32.541  25.063  26.137  1.00  0.00     0.066 C 
ATOM     15  C   UNL A   1      32.286  24.315  23.298  1.00  0.00     0.014 C 
ATOM     16  C   UNL A   1      32.109  23.669  25.672  1.00  0.00     0.014 C 
ATOM     17  C   UNL A   1      32.764  23.271  24.331  1.00  0.00     0.019 C 
BRANCH  17  18
ATOM     18  C   UNL A   1      34.282  23.068  24.406  1.00  0.00    -0.045 A 
ATOM     19  C   UNL A   1      35.099  23.107  23.262  1.00  0.00     0.004 A 
ATOM     20  C   UNL A   1      34.916  22.811  25.635  1.00  0.00     0.004 A 
ATOM     21  C   UNL A   1      36.490  23.000  23.352  1.00  0.00     0.000 A 
ATOM     22  C   UNL A   1      36.307  22.694  25.727  1.00  0.00     0.000 A 
ATOM     23  C   UNL A   1      37.096  22.806  24.587  1.00  0.00     0.000 A 
ENDBRANCH  17  18
ENDBRANCH   7  12
ENDBRANCH   6   7
ENDBRANCH   3   6
ENDBRANCH   1   2
BRANCH   1  24
ATOM     24  C   UNL A   1      31.413  32.297  26.504  1.00  0.00     0.042 C 
BRANCH  24  25
ATOM     25  C   UNL A   1      32.617  32.837  27.282  1.00  0.00     0.118 C 
BRANCH  25  26
ATOM     26  N   UNL A   1      32.457  34.247  27.588  1.00  0.00    -0.352 N 
ATOM     27  C   UNL A   1      32.974  34.994  28.618  1.00  0.00     0.251 C 
ATOM     28  H   UNL A   1      31.888  34.748  26.958  1.00  0.00     0.163 HD
ATOM     29  O   UNL A   1      32.471  36.087  28.867  1.00  0.00    -0.269 OA
BRANCH  27  30
ATOM     30  C   UNL A   1      34.131  34.534  29.430  1.00  0.00     0.039 A 
ATOM     31  C   UNL A   1      35.389  34.467  28.815  1.00  0.00     0.014 A 
ATOM     32  C   UNL A   1      33.975  34.027  30.724  1.00  0.00     0.014 A 
ATOM     33  C   UNL A   1      36.479  33.901  29.487  1.00  0.00     0.010 A 
ATOM     34  C   UNL A   1      35.076  33.502  31.413  1.00  0.00     0.010 A 
ATOM     35  C   UNL A   1      36.331  33.406  30.792  1.00  0.00    -0.014 A 
BRANCH  35  36
ATOM     36  C   UNL A   1      37.464  32.727  31.480  1.00  0.00     0.031 A 
ATOM     37  C   UNL A   1      38.159  31.561  30.824  1.00  0.00     0.074 A 
ATOM     38  C   UNL A   1      37.858  33.128  32.703  1.00  0.00     0.049 A 
ATOM     39  N   UNL A   1      39.134  30.812  31.280  1.00  0.00    -0.248 NA
ATOM     40  C   UNL A   1      37.679  31.173  29.490  1.00  0.00     0.031 C 
ATOM     41  C   UNL A   1      37.253  34.215  33.470  1.00  0.00     0.029 A 
ATOM     42  N   UNL A   1      38.856  32.655  33.521  1.00  0.00    -0.354 N 
ATOM     43  C   UNL A   1      39.361  29.850  30.304  1.00  0.00     0.074 A 
ATOM     44  C   UNL A   1      38.406  30.092  29.244  1.00  0.00     0.031 C 
ATOM     45  C   UNL A   1      37.895  34.331  34.645  1.00  0.00     0.029 A 
ATOM     46  C   UNL A   1      38.942  33.314  34.722  1.00  0.00     0.049 A 
ATOM     47  H   UNL A   1      39.454  31.913  33.269  1.00  0.00     0.167 HD
ATOM     48  C   UNL A   1      40.290  28.863  30.284  1.00  0.00     0.037 A 
ATOM     49  C   UNL A   1      39.767  33.120  35.769  1.00  0.00     0.037 A 
ATOM     50  C   UNL A   1      41.279  28.648  31.307  1.00  0.00     0.049 A 
ATOM     51  C   UNL A   1      40.821  32.049  35.704  1.00  0.00     0.074 A 
ATOM     52  C   UNL A   1      42.316  27.731  31.327  1.00  0.00     0.029 A 
ATOM     53  N   UNL A   1      41.356  29.363  32.493  1.00  0.00    -0.354 N 
ATOM     54  N   UNL A   1      41.066  31.189  34.747  1.00  0.00    -0.248 NA
ATOM     55  C   UNL A   1      41.719  31.929  36.863  1.00  0.00     0.031 C 
ATOM     56  C   UNL A   1      43.003  27.870  32.539  1.00  0.00     0.029 A 
ATOM     57  C   UNL A   1      42.411  28.894  33.259  1.00  0.00     0.049 A 
ATOM     58  H   UNL A   1      40.749  30.094  32.751  1.00  0.00     0.167 HD
ATOM     59  C   UNL A   1      42.151  30.438  35.178  1.00  0.00     0.074 A 
ATOM     60  C   UNL A   1      42.528  30.951  36.478  1.00  0.00     0.031 C 
ATOM     61  C   UNL A   1      42.777  29.412  34.551  1.00  0.00     0.037 A 
BRANCH  48  62
ATOM     62  C   UNL A   1      40.282  27.929  29.110  1.00  0.00     0.064 A 
ATOM     63  C   UNL A   1      41.027  28.196  27.952  1.00  0.00     0.173 A 
ATOM     64  C   UNL A   1      39.545  26.736  29.159  1.00  0.00     0.173 A 
ATOM     65  F   UNL A   1      41.740  29.328  27.855  1.00  0.00    -0.203 F 
ATOM     66  C   UNL A   1      41.013  27.314  26.875  1.00  0.00     0.198 A 
ATOM     67  C   UNL A   1      39.553  25.846  28.089  1.00  0.00     0.198 A 
ATOM     68  F   UNL A   1      38.822  26.432  30.247  1.00  0.00    -0.203 F 
ATOM     69  F   UNL A   1      41.698  27.610  25.761  1.00  0.00    -0.200 F 
ATOM     70  C   UNL A   1      40.281  26.139  26.945  1.00  0.00     0.200 A 
ATOM     71  F   UNL A   1      38.853  24.705  28.162  1.00  0.00    -0.200 F 
ATOM     72  F   UNL A   1      40.271  25.290  25.908  1.00  0.00    -0.200 F 
ENDBRANCH  48  62
BRANCH  49  73
ATOM     73  C   UNL A   1      39.638  33.983  36.969  1.00  0.00     0.064 A 
ATOM     74  C   UNL A   1      40.301  35.216  37.043  1.00  0.00     0.173 A 
ATOM     75  C   UNL A   1      38.841  33.600  38.057  1.00  0.00     0.173 A 
ATOM     76  F   UNL A   1      41.092  35.611  36.035  1.00  0.00    -0.203 F 
ATOM     77  C   UNL A   1      40.175  36.031  38.164  1.00  0.00     0.198 A 
ATOM     78  C   UNL A   1      38.701  34.425  39.170  1.00  0.00     0.198 A 
ATOM     79  F   UNL A   1      38.187  32.429  38.030  1.00  0.00    -0.203 F 
ATOM     80  F   UNL A   1      40.842  37.192  38.224  1.00  0.00    -0.200 F 
ATOM     81  C   UNL A   1      39.371  35.639  39.224  1.00  0.00     0.200 A 
ATOM     82  F   UNL A   1      37.916  34.047  40.187  1.00  0.00    -0.200 F 
ATOM     83  F   UNL A   1      39.245  36.427  40.300  1.00  0.00    -0.200 F 
ENDBRANCH  49  73
BRANCH  61  84
ATOM     84  C   UNL A   1      43.942  28.784  35.253  1.00  0.00     0.064 A 
ATOM     85  C   UNL A   1      45.247  29.269  35.077  1.00  0.00     0.173 A 
ATOM     86  C   UNL A   1      43.749  27.718  36.143  1.00  0.00     0.173 A 
ATOM     87  F   UNL A   1      45.483  30.278  34.226  1.00  0.00    -0.203 F 
ATOM     88  C   UNL A   1      46.319  28.695  35.756  1.00  0.00     0.198 A 
ATOM     89  C   UNL A   1      44.821  27.160  36.835  1.00  0.00     0.198 A 
ATOM     90  F   UNL A   1      42.520  27.221  36.347  1.00  0.00    -0.203 F 
ATOM     91  F   UNL A   1      47.562  29.152  35.548  1.00  0.00    -0.200 F 
ATOM     92  C   UNL A   1      46.105  27.647  36.637  1.00  0.00     0.200 A 
ATOM     93  F   UNL A   1      44.612  26.151  37.691  1.00  0.00    -0.200 F 
ATOM     94  F   UNL A   1      47.138  27.099  37.293  1.00  0.00    -0.200 F 
ENDBRANCH  61  84
ENDBRANCH  35  36
ENDBRANCH  27  30
ENDBRANCH  25  26
ENDBRANCH  24  25
ENDBRANCH   1  24
TORSDOF 15
ENDMDL
MODEL 2
REMARK VINA RESULT:     -12.0      0.186      1.604
REMARK SMILES C#CC[N@@H+](CC(=O)NCCCNC(=O)c1ccc(-c2c3nc(c(-c4c(F)c(F)c(F)c(F)c4F)c4ccc([nH]4)c(-c4c(F)c(F)c(F)c(F)c4F)c4nc(c(-c5c(F)c(F)c(F)c(F)c5F)c5ccc2[nH]5)C=C4)C=C3)cc1)[C@H]1CC[C@@H](c2ccccc2)CC1
REMARK SMILES IDX 9 1 8 2 6 3 7 4 5 6 4 7 3 9 2 10 1 11 78 12 89 13 79 14
REMARK SMILES IDX 88 15 80 16 81 17 82 18 83 19 87 20 84 21 86 22 85 23 10 24
REMARK SMILES IDX 11 25 12 26 13 27 14 29 15 30 16 31 77 32 17 33 76 34 18 35
REMARK SMILES IDX 19 36 20 37 70 38 21 39 75 40 69 41 71 42 22 43 74 44 68 45
REMARK SMILES IDX 67 46 23 48 55 49 35 50 54 51 36 52 39 53 53 54 72 55 37 56
REMARK SMILES IDX 38 57 52 59 73 60 40 61 24 62 25 63 33 64 26 65 27 66 31 67
REMARK SMILES IDX 34 68 28 69 29 70 32 71 30 72 56 73 57 74 65 75 58 76 59 77
REMARK SMILES IDX 63 78 66 79 60 80 61 81 64 82 62 83 41 84 42 85 50 86 43 87
REMARK SMILES IDX 44 88 48 89 51 90 45 91 46 92 49 93 47 94
REMARK H PARENT 8 5 4 8 12 28 71 47 39 58
REMARK Flexibility Score: inf
ROOT
ATOM      1  C   UNL A   1      31.367  30.764  26.223  1.00  0.00     0.118 C 
ENDROOT
BRANCH   1   2
ATOM      2  N   UNL A   1      31.073  30.364  24.853  1.00  0.00    -0.351 N 
ATOM      3  C   UNL A   1      31.488  29.314  24.082  1.00  0.00     0.275 C 
ATOM      4  O   UNL A   1      30.762  29.037  23.121  1.00  0.00    -0.269 OA
ATOM      5  H   UNL A   1      30.450  30.970  24.392  1.00  0.00     0.163 HD
BRANCH   3   6
ATOM      6  C   UNL A   1      32.761  28.496  24.357  1.00  0.00     0.364 C 
BRANCH   6   7
ATOM      7  N   UNL A   1      32.634  27.347  25.305  1.00  0.00    -0.315 N 
ATOM      8  H   UNL A   1      31.809  27.537  25.874  1.00  0.00     0.349 HD
BRANCH   7   9
ATOM      9  C   UNL A   1      33.829  27.308  26.115  1.00  0.00     0.354 C 
BRANCH   9  10
ATOM     10  C   UNL A   1      34.326  28.595  26.753  1.00  0.00    -0.047 C 
ATOM     11  C   UNL A   1      34.753  29.699  27.300  1.00  0.00     0.010 C 
ENDBRANCH   9  10
ENDBRANCH   7   9
BRANCH   7  12
ATOM     12  C   UNL A   1      32.239  26.028  24.753  1.00  0.00     0.185 C 
ATOM     13  C   UNL A   1      32.911  25.764  23.392  1.00  0.00     0.066 C 
ATOM     14  C   UNL A   1      32.305  24.816  25.712  1.00  0.00     0.066 C 
ATOM     15  C   UNL A   1      32.543  24.395  22.805  1.00  0.00     0.014 C 
ATOM     16  C   UNL A   1      31.967  23.489  25.026  1.00  0.00     0.014 C 
ATOM     17  C   UNL A   1      32.844  23.236  23.780  1.00  0.00     0.019 C 
BRANCH  17  18
ATOM     18  C   UNL A   1      34.328  23.005  24.088  1.00  0.00    -0.045 A 
ATOM     19  C   UNL A   1      35.323  23.117  23.101  1.00  0.00     0.004 A 
ATOM     20  C   UNL A   1      34.749  22.648  25.381  1.00  0.00     0.004 A 
ATOM     21  C   UNL A   1      36.680  22.982  23.411  1.00  0.00     0.000 A 
ATOM     22  C   UNL A   1      36.105  22.503  25.692  1.00  0.00     0.000 A 
ATOM     23  C   UNL A   1      37.072  22.688  24.710  1.00  0.00     0.000 A 
ENDBRANCH  17  18
ENDBRANCH   7  12
ENDBRANCH   6   7
ENDBRANCH   3   6
ENDBRANCH   1   2
BRANCH   1  24
ATOM     24  C   UNL A   1      31.413  32.280  26.487  1.00  0.00     0.042 C 
BRANCH  24  25
ATOM     25  C   UNL A   1      32.559  32.787  27.368  1.00  0.00     0.118 C 
BRANCH  25  26
ATOM     26  N   UNL A   1      32.443  34.212  27.615  1.00  0.00    -0.352 N 
ATOM     27  C   UNL A   1      32.991  34.986  28.610  1.00  0.00     0.251 C 
ATOM     28  H   UNL A   1      31.885  34.703  26.969  1.00  0.00     0.163 HD
ATOM     29  O   UNL A   1      32.523  36.103  28.816  1.00  0.00    -0.269 OA
BRANCH  27  30
ATOM     30  C   UNL A   1      34.140  34.525  29.432  1.00  0.00     0.039 A 
ATOM     31  C   UNL A   1      35.412  34.510  28.845  1.00  0.00     0.014 A 
ATOM     32  C   UNL A   1      33.967  33.972  30.705  1.00  0.00     0.014 A 
ATOM     33  C   UNL A   1      36.501  33.947  29.523  1.00  0.00     0.010 A 
ATOM     34  C   UNL A   1      35.065  33.450  31.402  1.00  0.00     0.010 A 
ATOM     35  C   UNL A   1      36.336  33.405  30.806  1.00  0.00    -0.014 A 
BRANCH  35  36
ATOM     36  C   UNL A   1      37.469  32.729  31.497  1.00  0.00     0.031 A 
ATOM     37  C   UNL A   1      38.180  31.575  30.837  1.00  0.00     0.074 A 
ATOM     38  C   UNL A   1      37.851  33.122  32.727  1.00  0.00     0.049 A 
ATOM     39  N   UNL A   1      39.157  30.830  31.294  1.00  0.00    -0.248 NA
ATOM     40  C   UNL A   1      37.713  31.194  29.496  1.00  0.00     0.031 C 
ATOM     41  C   UNL A   1      37.231  34.198  33.499  1.00  0.00     0.029 A 
ATOM     42  N   UNL A   1      38.847  32.651  33.548  1.00  0.00    -0.354 N 
ATOM     43  C   UNL A   1      39.400  29.879  30.312  1.00  0.00     0.074 A 
ATOM     44  C   UNL A   1      38.452  30.122  29.246  1.00  0.00     0.031 C 
ATOM     45  C   UNL A   1      37.862  34.309  34.680  1.00  0.00     0.029 A 
ATOM     46  C   UNL A   1      38.917  33.301  34.756  1.00  0.00     0.049 A 
ATOM     47  H   UNL A   1      39.452  31.917  33.295  1.00  0.00     0.167 HD
ATOM     48  C   UNL A   1      40.338  28.900  30.290  1.00  0.00     0.037 A 
ATOM     49  C   UNL A   1      39.736  33.105  35.808  1.00  0.00     0.037 A 
ATOM     50  C   UNL A   1      41.321  28.684  31.319  1.00  0.00     0.049 A 
ATOM     51  C   UNL A   1      40.799  32.043  35.742  1.00  0.00     0.074 A 
ATOM     52  C   UNL A   1      42.365  27.777  31.339  1.00  0.00     0.029 A 
ATOM     53  N   UNL A   1      41.382  29.390  32.511  1.00  0.00    -0.354 N 
ATOM     54  N   UNL A   1      41.060  31.194  34.779  1.00  0.00    -0.248 NA
ATOM     55  C   UNL A   1      41.689  31.921  36.907  1.00  0.00     0.031 C 
ATOM     56  C   UNL A   1      43.042  27.911  32.558  1.00  0.00     0.029 A 
ATOM     57  C   UNL A   1      42.436  28.924  33.282  1.00  0.00     0.049 A 
ATOM     58  H   UNL A   1      40.767  30.114  32.772  1.00  0.00     0.167 HD
ATOM     59  C   UNL A   1      42.148  30.448  35.212  1.00  0.00     0.074 A 
ATOM     60  C   UNL A   1      42.510  30.954  36.520  1.00  0.00     0.031 C 
ATOM     61  C   UNL A   1      42.787  29.433  34.581  1.00  0.00     0.037 A 
BRANCH  48  62
ATOM     62  C   UNL A   1      40.347  27.976  29.108  1.00  0.00     0.064 A 
ATOM     63  C   UNL A   1      39.590  26.796  29.090  1.00  0.00     0.173 A 
ATOM     64  C   UNL A   1      41.096  28.296  27.966  1.00  0.00     0.173 A 
ATOM     65  F   UNL A   1      38.864  26.444  30.162  1.00  0.00    -0.203 F 
ATOM     66  C   UNL A   1      39.605  25.954  27.981  1.00  0.00     0.198 A 
ATOM     67  C   UNL A   1      41.090  27.463  26.850  1.00  0.00     0.198 A 
ATOM     68  F   UNL A   1      41.832  29.417  27.931  1.00  0.00    -0.203 F 
ATOM     69  F   UNL A   1      38.908  24.810  28.002  1.00  0.00    -0.200 F 
ATOM     70  C   UNL A   1      40.350  26.290  26.861  1.00  0.00     0.200 A 
ATOM     71  F   UNL A   1      41.803  27.794  25.765  1.00  0.00    -0.200 F 
ATOM     72  F   UNL A   1      40.361  25.480  25.794  1.00  0.00    -0.200 F 
ENDBRANCH  48  62
BRANCH  49  73
ATOM     73  C   UNL A   1      39.590  33.957  37.014  1.00  0.00     0.064 A 
ATOM     74  C   UNL A   1      40.201  35.216  37.083  1.00  0.00     0.173 A 
ATOM     75  C   UNL A   1      38.828  33.535  38.113  1.00  0.00     0.173 A 
ATOM     76  F   UNL A   1      40.958  35.649  36.064  1.00  0.00    -0.203 F 
ATOM     77  C   UNL A   1      40.060  36.021  38.210  1.00  0.00     0.198 A 
ATOM     78  C   UNL A   1      38.672  34.349  39.232  1.00  0.00     0.198 A 
ATOM     79  F   UNL A   1      38.225  32.337  38.091  1.00  0.00    -0.203 F 
ATOM     80  F   UNL A   1      40.677  37.209  38.265  1.00  0.00    -0.200 F 
ATOM     81  C   UNL A   1      39.291  35.590  39.281  1.00  0.00     0.200 A 
ATOM     82  F   UNL A   1      37.920  33.933  40.260  1.00  0.00    -0.200 F 
ATOM     83  F   UNL A   1      39.149  36.367  40.363  1.00  0.00    -0.200 F 
ENDBRANCH  49  73
BRANCH  61  84
ATOM     84  C   UNL A   1      43.953  28.810  35.287  1.00  0.00     0.064 A 
ATOM     85  C   UNL A   1      43.781  27.724  36.159  1.00  0.00     0.173 A 
ATOM     86  C   UNL A   1      45.256  29.273  35.058  1.00  0.00     0.173 A 
ATOM     87  F   UNL A   1      42.552  27.256  36.420  1.00  0.00    -0.203 F 
ATOM     88  C   UNL A   1      44.874  27.135  36.789  1.00  0.00     0.198 A 
ATOM     89  C   UNL A   1      46.349  28.668  35.675  1.00  0.00     0.198 A 
ATOM     90  F   UNL A   1      45.471  30.307  34.231  1.00  0.00    -0.203 F 
ATOM     91  F   UNL A   1      44.685  26.120  37.643  1.00  0.00    -0.200 F 
ATOM     92  C   UNL A   1      46.156  27.603  36.542  1.00  0.00     0.200 A 
ATOM     93  F   UNL A   1      47.587  29.117  35.430  1.00  0.00    -0.200 F 
ATOM     94  F   UNL A   1      47.208  27.031  37.146  1.00  0.00    -0.200 F 
ENDBRANCH  61  84
ENDBRANCH  35  36
ENDBRANCH  27  30
ENDBRANCH  25  26
ENDBRANCH  24  25
ENDBRANCH   1  24
TORSDOF 15
ENDMDL
MODEL 3
REMARK VINA RESULT:     -11.9      5.940     10.930
REMARK SMILES C#CC[N@@H+](CC(=O)NCCCNC(=O)c1ccc(-c2c3nc(c(-c4c(F)c(F)c(F)c(F)c4F)c4ccc([nH]4)c(-c4c(F)c(F)c(F)c(F)c4F)c4nc(c(-c5c(F)c(F)c(F)c(F)c5F)c5ccc2[nH]5)C=C4)C=C3)cc1)[C@H]1CC[C@@H](c2ccccc2)CC1
REMARK SMILES IDX 9 1 8 2 6 3 7 4 5 6 4 7 3 9 2 10 1 11 78 12 89 13 79 14
REMARK SMILES IDX 88 15 80 16 81 17 82 18 83 19 87 20 84 21 86 22 85 23 10 24
REMARK SMILES IDX 11 25 12 26 13 27 14 29 15 30 16 31 77 32 17 33 76 34 18 35
REMARK SMILES IDX 19 36 20 37 70 38 21 39 75 40 69 41 71 42 22 43 74 44 68 45
REMARK SMILES IDX 67 46 23 48 55 49 35 50 54 51 36 52 39 53 53 54 72 55 37 56
REMARK SMILES IDX 38 57 52 59 73 60 40 61 24 62 25 63 33 64 26 65 27 66 31 67
REMARK SMILES IDX 34 68 28 69 29 70 32 71 30 72 56 73 57 74 65 75 58 76 59 77
REMARK SMILES IDX 63 78 66 79 60 80 61 81 64 82 62 83 41 84 42 85 50 86 43 87
REMARK SMILES IDX 44 88 48 89 51 90 45 91 46 92 49 93 47 94
REMARK H PARENT 8 5 4 8 12 28 71 47 39 58
REMARK Flexibility Score: inf
ROOT
ATOM      1  C   UNL A   1      36.551  20.384  25.080  1.00  0.00     0.118 C 
ENDROOT
BRANCH   1   2
ATOM      2  N   UNL A   1      35.377  19.533  24.933  1.00  0.00    -0.351 N 
ATOM      3  C   UNL A   1      34.047  19.804  24.777  1.00  0.00     0.275 C 
ATOM      4  O   UNL A   1      33.370  18.894  24.286  1.00  0.00    -0.269 OA
ATOM      5  H   UNL A   1      35.584  18.571  24.950  1.00  0.00     0.163 HD
BRANCH   3   6
ATOM      6  C   UNL A   1      33.392  21.141  25.160  1.00  0.00     0.364 C 
BRANCH   6   7
ATOM      7  N   UNL A   1      32.967  22.032  24.037  1.00  0.00    -0.315 N 
ATOM      8  H   UNL A   1      32.562  21.423  23.327  1.00  0.00     0.349 HD
BRANCH   7   9
ATOM      9  C   UNL A   1      34.143  22.707  23.538  1.00  0.00     0.354 C 
BRANCH   9  10
ATOM     10  C   UNL A   1      34.891  23.655  24.460  1.00  0.00    -0.047 C 
ATOM     11  C   UNL A   1      35.533  24.469  25.252  1.00  0.00     0.010 C 
ENDBRANCH   9  10
ENDBRANCH   7   9
BRANCH   7  12
ATOM     12  C   UNL A   1      31.809  22.932  24.261  1.00  0.00     0.185 C 
ATOM     13  C   UNL A   1      31.734  23.400  25.727  1.00  0.00     0.066 C 
ATOM     14  C   UNL A   1      31.603  24.079  23.244  1.00  0.00     0.066 C 
ATOM     15  C   UNL A   1      30.561  24.353  25.987  1.00  0.00     0.014 C 
ATOM     16  C   UNL A   1      30.439  25.004  23.611  1.00  0.00     0.014 C 
ATOM     17  C   UNL A   1      30.573  25.573  25.040  1.00  0.00     0.019 C 
BRANCH  17  18
ATOM     18  C   UNL A   1      31.749  26.539  25.227  1.00  0.00    -0.045 A 
ATOM     19  C   UNL A   1      32.428  27.112  24.136  1.00  0.00     0.004 A 
ATOM     20  C   UNL A   1      32.210  26.874  26.513  1.00  0.00     0.004 A 
ATOM     21  C   UNL A   1      33.446  28.052  24.320  1.00  0.00     0.000 A 
ATOM     22  C   UNL A   1      33.235  27.808  26.699  1.00  0.00     0.000 A 
ATOM     23  C   UNL A   1      33.842  28.410  25.603  1.00  0.00     0.000 A 
ENDBRANCH  17  18
ENDBRANCH   7  12
ENDBRANCH   6   7
ENDBRANCH   3   6
ENDBRANCH   1   2
BRANCH   1  24
ATOM     24  C   UNL A   1      37.913  19.694  24.874  1.00  0.00     0.042 C 
BRANCH  24  25
ATOM     25  C   UNL A   1      39.082  20.226  25.708  1.00  0.00     0.118 C 
BRANCH  25  26
ATOM     26  N   UNL A   1      40.084  19.199  25.927  1.00  0.00    -0.352 N 
ATOM     27  C   UNL A   1      41.446  19.307  26.066  1.00  0.00     0.251 C 
ATOM     28  H   UNL A   1      39.733  18.281  25.986  1.00  0.00     0.163 HD
ATOM     29  O   UNL A   1      42.137  18.298  25.934  1.00  0.00    -0.269 OA
BRANCH  27  30
ATOM     30  C   UNL A   1      42.113  20.596  26.386  1.00  0.00     0.039 A 
ATOM     31  C   UNL A   1      42.165  21.001  27.727  1.00  0.00     0.014 A 
ATOM     32  C   UNL A   1      42.546  21.476  25.390  1.00  0.00     0.014 A 
ATOM     33  C   UNL A   1      42.647  22.271  28.068  1.00  0.00     0.010 A 
ATOM     34  C   UNL A   1      43.070  22.729  25.734  1.00  0.00     0.010 A 
ATOM     35  C   UNL A   1      43.097  23.151  27.072  1.00  0.00    -0.014 A 
BRANCH  35  36
ATOM     36  C   UNL A   1      43.530  24.533  27.419  1.00  0.00     0.031 A 
ATOM     37  C   UNL A   1      42.513  25.564  27.837  1.00  0.00     0.074 A 
ATOM     38  C   UNL A   1      44.827  24.883  27.336  1.00  0.00     0.049 A 
ATOM     39  N   UNL A   1      42.685  26.829  28.135  1.00  0.00    -0.248 NA
ATOM     40  C   UNL A   1      41.113  25.118  27.906  1.00  0.00     0.031 C 
ATOM     41  C   UNL A   1      45.913  24.001  26.911  1.00  0.00     0.029 A 
ATOM     42  N   UNL A   1      45.450  26.081  27.594  1.00  0.00    -0.354 N 
ATOM     43  C   UNL A   1      41.418  27.333  28.396  1.00  0.00     0.074 A 
ATOM     44  C   UNL A   1      40.483  26.247  28.196  1.00  0.00     0.031 C 
ATOM     45  C   UNL A   1      47.070  24.685  26.942  1.00  0.00     0.029 A 
ATOM     46  C   UNL A   1      46.804  26.057  27.368  1.00  0.00     0.049 A 
ATOM     47  H   UNL A   1      44.969  26.880  27.910  1.00  0.00     0.167 HD
ATOM     48  C   UNL A   1      41.064  28.584  28.783  1.00  0.00     0.037 A 
ATOM     49  C   UNL A   1      47.727  27.031  27.488  1.00  0.00     0.037 A 
ATOM     50  C   UNL A   1      41.991  29.655  29.037  1.00  0.00     0.049 A 
ATOM     51  C   UNL A   1      47.318  28.397  27.963  1.00  0.00     0.074 A 
ATOM     52  C   UNL A   1      41.730  30.926  29.519  1.00  0.00     0.029 A 
ATOM     53  N   UNL A   1      43.360  29.579  28.833  1.00  0.00    -0.354 N 
ATOM     54  N   UNL A   1      46.124  28.842  28.269  1.00  0.00    -0.248 NA
ATOM     55  C   UNL A   1      48.388  29.395  28.119  1.00  0.00     0.031 C 
ATOM     56  C   UNL A   1      42.938  31.631  29.579  1.00  0.00     0.029 A 
ATOM     57  C   UNL A   1      43.954  30.787  29.162  1.00  0.00     0.049 A 
ATOM     58  H   UNL A   1      43.839  28.784  28.503  1.00  0.00     0.167 HD
ATOM     59  C   UNL A   1      46.299  30.161  28.667  1.00  0.00     0.074 A 
ATOM     60  C   UNL A   1      47.716  30.443  28.577  1.00  0.00     0.031 C 
ATOM     61  C   UNL A   1      45.365  31.057  29.068  1.00  0.00     0.037 A 
BRANCH  48  62
ATOM     62  C   UNL A   1      39.601  28.867  28.954  1.00  0.00     0.064 A 
ATOM     63  C   UNL A   1      38.959  28.700  30.190  1.00  0.00     0.173 A 
ATOM     64  C   UNL A   1      38.841  29.343  27.876  1.00  0.00     0.173 A 
ATOM     65  F   UNL A   1      39.642  28.238  31.248  1.00  0.00    -0.203 F 
ATOM     66  C   UNL A   1      37.602  28.975  30.333  1.00  0.00     0.198 A 
ATOM     67  C   UNL A   1      37.489  29.639  28.029  1.00  0.00     0.198 A 
ATOM     68  F   UNL A   1      39.410  29.526  26.675  1.00  0.00    -0.203 F 
ATOM     69  F   UNL A   1      36.999  28.767  31.512  1.00  0.00    -0.200 F 
ATOM     70  C   UNL A   1      36.869  29.448  29.255  1.00  0.00     0.200 A 
ATOM     71  F   UNL A   1      36.784  30.106  26.989  1.00  0.00    -0.200 F 
ATOM     72  F   UNL A   1      35.563  29.714  29.395  1.00  0.00    -0.200 F 
ENDBRANCH  48  62
BRANCH  49  73
ATOM     73  C   UNL A   1      49.145  26.734  27.167  1.00  0.00     0.064 A 
ATOM     74  C   UNL A   1      50.030  26.295  28.160  1.00  0.00     0.173 A 
ATOM     75  C   UNL A   1      49.638  26.871  25.861  1.00  0.00     0.173 A 
ATOM     76  F   UNL A   1      49.607  26.173  29.427  1.00  0.00    -0.203 F 
ATOM     77  C   UNL A   1      51.360  26.009  27.861  1.00  0.00     0.198 A 
ATOM     78  C   UNL A   1      50.963  26.566  25.559  1.00  0.00     0.198 A 
ATOM     79  F   UNL A   1      48.827  27.288  24.878  1.00  0.00    -0.203 F 
ATOM     80  F   UNL A   1      52.195  25.618  28.833  1.00  0.00    -0.200 F 
ATOM     81  C   UNL A   1      51.824  26.138  26.560  1.00  0.00     0.200 A 
ATOM     82  F   UNL A   1      51.405  26.683  24.300  1.00  0.00    -0.200 F 
ATOM     83  F   UNL A   1      53.101  25.856  26.271  1.00  0.00    -0.200 F 
ENDBRANCH  49  73
BRANCH  61  84
ATOM     84  C   UNL A   1      45.844  32.424  29.455  1.00  0.00     0.064 A 
ATOM     85  C   UNL A   1      46.255  32.708  30.765  1.00  0.00     0.173 A 
ATOM     86  C   UNL A   1      45.935  33.445  28.498  1.00  0.00     0.173 A 
ATOM     87  F   UNL A   1      46.173  31.768  31.718  1.00  0.00    -0.203 F 
ATOM     88  C   UNL A   1      46.724  33.974  31.107  1.00  0.00     0.198 A 
ATOM     89  C   UNL A   1      46.423  34.703  28.840  1.00  0.00     0.198 A 
ATOM     90  F   UNL A   1      45.557  33.220  27.231  1.00  0.00    -0.203 F 
ATOM     91  F   UNL A   1      47.080  34.235  32.372  1.00  0.00    -0.200 F 
ATOM     92  C   UNL A   1      46.813  34.968  30.144  1.00  0.00     0.200 A 
ATOM     93  F   UNL A   1      46.515  35.660  27.906  1.00  0.00    -0.200 F 
ATOM     94  F   UNL A   1      47.270  36.184  30.474  1.00  0.00    -0.200 F 
ENDBRANCH  61  84
ENDBRANCH  35  36
ENDBRANCH  27  30
ENDBRANCH  25  26
ENDBRANCH  24  25
ENDBRANCH   1  24
TORSDOF 15
ENDMDL
