MODEL 1
REMARK VINA RESULT:     -14.0      0.000      0.000
REMARK SMILES O=C(NCCCNC(=O)[C@H]1[C@H]2CC[C@H](C2)[C@@H]1C(=O)Nc1sc2c(c1C(=O)NC1CCCCC1)CCCC2)c1ccc(-c2c3nc(c(-c4c(F)c(F)c(F)c(F)c4F)c4ccc([nH]4)c(-c4c(F)c(F)c(F)c(F)c4F)c4nc(c(-c5c(F)c(F)c(F)c(F)c5F)c5ccc2[nH]5)C=C4)C=C3)cc1
REMARK SMILES IDX 6 1 5 2 4 3 3 4 1 5 2 6 38 8 39 9 100 10 40 11 99 12 41 13
REMARK SMILES IDX 42 14 43 15 93 16 44 17 98 18 92 19 94 20 45 21 97 22 91 23
REMARK SMILES IDX 90 24 46 26 78 27 58 28 77 29 59 30 62 31 76 32 95 33 60 34
REMARK SMILES IDX 61 35 75 37 96 38 63 39 47 40 48 41 56 42 49 43 50 44 54 45
REMARK SMILES IDX 57 46 51 47 52 48 55 49 53 50 79 51 80 52 88 53 81 54 82 55
REMARK SMILES IDX 86 56 89 57 83 58 84 59 87 60 85 61 64 62 65 63 73 64 66 65
REMARK SMILES IDX 67 66 71 67 74 68 68 69 69 70 72 71 70 72 7 73 8 74 9 76
REMARK SMILES IDX 10 77 11 78 16 79 12 80 15 81 14 82 13 83 17 84 18 85 19 86
REMARK SMILES IDX 20 88 21 89 24 90 22 91 23 92 37 93 34 94 36 95 35 96 25 97
REMARK SMILES IDX 26 98 27 99 28 101 29 102 33 103 30 104 32 105 31 106
REMARK H PARENT 3 7 94 25 62 36 7 75 19 87 27 100
REMARK Flexibility Score: inf
ROOT
ATOM      1  C   UNL A   1      36.815  20.110  25.043  1.00  0.00     0.117 C 
ENDROOT
BRANCH   1   2
ATOM      2  C   UNL A   1      38.240  19.688  24.721  1.00  0.00     0.042 C 
BRANCH   2   3
ATOM      3  C   UNL A   1      39.232  20.000  25.830  1.00  0.00     0.118 C 
BRANCH   3   4
ATOM      4  N   UNL A   1      40.315  19.028  25.919  1.00  0.00    -0.352 N 
ATOM      5  O   UNL A   1      42.453  18.306  26.005  1.00  0.00    -0.269 OA
ATOM      6  C   UNL A   1      41.656  19.232  26.136  1.00  0.00     0.251 C 
ATOM      7  H   UNL A   1      40.046  18.087  25.806  1.00  0.00     0.163 HD
BRANCH   6   8
ATOM      8  C   UNL A   1      42.140  20.575  26.515  1.00  0.00     0.039 A 
ATOM      9  C   UNL A   1      42.223  20.935  27.860  1.00  0.00     0.014 A 
ATOM     10  C   UNL A   1      42.510  21.486  25.522  1.00  0.00     0.014 A 
ATOM     11  C   UNL A   1      42.494  22.250  28.202  1.00  0.00     0.010 A 
ATOM     12  C   UNL A   1      42.912  22.778  25.879  1.00  0.00     0.010 A 
ATOM     13  C   UNL A   1      42.879  23.180  27.222  1.00  0.00    -0.014 A 
BRANCH  13  14
ATOM     14  C   UNL A   1      43.322  24.526  27.667  1.00  0.00     0.031 A 
ATOM     15  C   UNL A   1      44.769  24.926  27.662  1.00  0.00     0.074 A 
ATOM     16  C   UNL A   1      42.372  25.417  28.016  1.00  0.00     0.049 A 
ATOM     17  N   UNL A   1      45.300  26.087  27.957  1.00  0.00    -0.248 NA
ATOM     18  C   UNL A   1      45.750  23.897  27.291  1.00  0.00     0.031 C 
ATOM     19  C   UNL A   1      40.935  25.128  28.083  1.00  0.00     0.029 A 
ATOM     20  N   UNL A   1      42.455  26.744  28.345  1.00  0.00    -0.354 N 
ATOM     21  C   UNL A   1      46.672  25.929  27.809  1.00  0.00     0.074 A 
ATOM     22  C   UNL A   1      46.898  24.547  27.441  1.00  0.00     0.031 C 
ATOM     23  C   UNL A   1      40.271  26.256  28.361  1.00  0.00     0.029 A 
ATOM     24  C   UNL A   1      41.233  27.327  28.577  1.00  0.00     0.049 A 
ATOM     25  H   UNL A   1      43.307  27.233  28.409  1.00  0.00     0.167 HD
ATOM     26  C   UNL A   1      47.649  26.859  27.954  1.00  0.00     0.037 A 
ATOM     27  C   UNL A   1      40.918  28.582  28.943  1.00  0.00     0.037 A 
ATOM     28  C   UNL A   1      47.413  28.233  28.324  1.00  0.00     0.049 A 
ATOM     29  C   UNL A   1      42.025  29.579  29.121  1.00  0.00     0.074 A 
ATOM     30  C   UNL A   1      48.333  29.253  28.493  1.00  0.00     0.029 A 
ATOM     31  N   UNL A   1      46.164  28.781  28.583  1.00  0.00    -0.354 N 
ATOM     32  N   UNL A   1      43.316  29.422  28.953  1.00  0.00    -0.248 NA
ATOM     33  C   UNL A   1      41.634  30.930  29.539  1.00  0.00     0.031 C 
ATOM     34  C   UNL A   1      47.648  30.402  28.901  1.00  0.00     0.029 A 
ATOM     35  C   UNL A   1      46.293  30.119  28.928  1.00  0.00     0.049 A 
ATOM     36  H   UNL A   1      45.311  28.292  28.530  1.00  0.00     0.167 HD
ATOM     37  C   UNL A   1      43.889  30.653  29.231  1.00  0.00     0.074 A 
ATOM     38  C   UNL A   1      42.800  31.557  29.542  1.00  0.00     0.031 C 
ATOM     39  C   UNL A   1      45.198  31.003  29.240  1.00  0.00     0.037 A 
BRANCH  26  40
ATOM     40  C   UNL A   1      49.069  26.425  27.720  1.00  0.00     0.064 A 
ATOM     41  C   UNL A   1      49.597  26.305  26.425  1.00  0.00     0.173 A 
ATOM     42  C   UNL A   1      49.933  26.188  28.802  1.00  0.00     0.173 A 
ATOM     43  F   UNL A   1      48.814  26.513  25.355  1.00  0.00    -0.203 F 
ATOM     44  C   UNL A   1      50.927  25.946  26.222  1.00  0.00     0.198 A 
ATOM     45  C   UNL A   1      51.270  25.859  28.595  1.00  0.00     0.198 A 
ATOM     46  F   UNL A   1      49.484  26.297  30.061  1.00  0.00    -0.203 F 
ATOM     47  F   UNL A   1      51.399  25.803  24.976  1.00  0.00    -0.200 F 
ATOM     48  C   UNL A   1      51.765  25.733  27.306  1.00  0.00     0.200 A 
ATOM     49  F   UNL A   1      52.082  25.670  29.645  1.00  0.00    -0.200 F 
ATOM     50  F   UNL A   1      53.049  25.403  27.110  1.00  0.00    -0.200 F 
ENDBRANCH  26  40
BRANCH  27  51
ATOM     51  C   UNL A   1      39.499  28.948  29.193  1.00  0.00     0.064 A 
ATOM     52  C   UNL A   1      38.686  29.458  28.173  1.00  0.00     0.173 A 
ATOM     53  C   UNL A   1      38.929  28.799  30.468  1.00  0.00     0.173 A 
ATOM     54  F   UNL A   1      39.186  29.634  26.941  1.00  0.00    -0.203 F 
ATOM     55  C   UNL A   1      37.368  29.835  28.425  1.00  0.00     0.198 A 
ATOM     56  C   UNL A   1      37.601  29.137  30.708  1.00  0.00     0.198 A 
ATOM     57  F   UNL A   1      39.661  28.306  31.479  1.00  0.00    -0.203 F 
ATOM     58  F   UNL A   1      36.630  30.378  27.447  1.00  0.00    -0.200 F 
ATOM     59  C   UNL A   1      36.825  29.667  29.691  1.00  0.00     0.200 A 
ATOM     60  F   UNL A   1      37.075  28.951  31.927  1.00  0.00    -0.200 F 
ATOM     61  F   UNL A   1      35.556  30.027  29.931  1.00  0.00    -0.200 F 
ENDBRANCH  27  51
BRANCH  39  62
ATOM     62  C   UNL A   1      45.513  32.433  29.573  1.00  0.00     0.064 A 
ATOM     63  C   UNL A   1      45.774  32.843  30.890  1.00  0.00     0.173 A 
ATOM     64  C   UNL A   1      45.549  33.407  28.563  1.00  0.00     0.173 A 
ATOM     65  F   UNL A   1      45.735  31.954  31.894  1.00  0.00    -0.203 F 
ATOM     66  C   UNL A   1      46.014  34.182  31.188  1.00  0.00     0.198 A 
ATOM     67  C   UNL A   1      45.826  34.738  28.860  1.00  0.00     0.198 A 
ATOM     68  F   UNL A   1      45.313  33.068  27.287  1.00  0.00    -0.203 F 
ATOM     69  F   UNL A   1      46.189  34.561  32.462  1.00  0.00    -0.200 F 
ATOM     70  C   UNL A   1      46.045  35.127  30.174  1.00  0.00     0.200 A 
ATOM     71  F   UNL A   1      45.870  35.647  27.877  1.00  0.00    -0.200 F 
ATOM     72  F   UNL A   1      46.274  36.415  30.463  1.00  0.00    -0.200 F 
ENDBRANCH  39  62
ENDBRANCH  13  14
ENDBRANCH   6   8
ENDBRANCH   3   4
ENDBRANCH   2   3
ENDBRANCH   1   2
BRANCH   1  73
ATOM     73  N   UNL A   1      36.780  21.475  25.517  1.00  0.00    -0.356 N 
ATOM     74  C   UNL A   1      35.820  22.423  25.449  1.00  0.00     0.224 C 
ATOM     75  H   UNL A   1      37.604  21.765  25.970  1.00  0.00     0.163 HD
ATOM     76  O   UNL A   1      36.121  23.513  25.942  1.00  0.00    -0.275 OA
BRANCH  74  77
ATOM     77  C   UNL A   1      34.413  22.127  24.933  1.00  0.00     0.094 C 
ATOM     78  C   UNL A   1      33.700  21.210  25.987  1.00  0.00     0.002 C 
ATOM     79  C   UNL A   1      33.379  23.270  24.761  1.00  0.00     0.094 C 
ATOM     80  C   UNL A   1      33.443  21.907  27.341  1.00  0.00     0.005 C 
ATOM     81  C   UNL A   1      32.295  21.201  25.438  1.00  0.00     0.009 C 
ATOM     82  C   UNL A   1      32.136  22.723  25.503  1.00  0.00     0.002 C 
ATOM     83  C   UNL A   1      32.357  22.942  27.011  1.00  0.00     0.005 C 
BRANCH  79  84
ATOM     84  C   UNL A   1      33.134  23.848  23.341  1.00  0.00     0.229 C 
ATOM     85  O   UNL A   1      33.341  23.094  22.375  1.00  0.00    -0.274 OA
ATOM     86  N   UNL A   1      32.590  25.058  23.034  1.00  0.00    -0.317 N 
ATOM     87  H   UNL A   1      32.234  25.144  22.120  1.00  0.00     0.170 HD
BRANCH  86  88
ATOM     88  C   UNL A   1      32.470  26.173  23.820  1.00  0.00     0.108 A 
ATOM     89  S   UNL A   1      33.726  27.315  23.672  1.00  0.00    -0.122 S 
ATOM     90  C   UNL A   1      31.347  26.734  24.440  1.00  0.00     0.078 A 
ATOM     91  C   UNL A   1      33.197  28.052  25.104  1.00  0.00     0.011 A 
ATOM     92  C   UNL A   1      31.893  27.681  25.442  1.00  0.00    -0.019 A 
ATOM     93  C   UNL A   1      34.144  28.900  25.906  1.00  0.00     0.047 C 
ATOM     94  C   UNL A   1      31.379  28.144  26.789  1.00  0.00     0.037 C 
ATOM     95  C   UNL A   1      33.639  29.094  27.337  1.00  0.00     0.006 C 
ATOM     96  C   UNL A   1      32.143  29.358  27.337  1.00  0.00     0.005 C 
BRANCH  90  97
ATOM     97  C   UNL A   1      30.018  26.146  24.116  1.00  0.00     0.254 C 
ATOM     98  O   UNL A   1      29.816  24.932  24.249  1.00  0.00    -0.269 OA
ATOM     99  N   UNL A   1      28.984  26.835  23.520  1.00  0.00    -0.349 N 
ATOM    100  H   UNL A   1      28.247  26.280  23.176  1.00  0.00     0.164 HD
BRANCH  99 101
ATOM    101  C   UNL A   1      28.832  28.247  23.334  1.00  0.00     0.082 C 
ATOM    102  C   UNL A   1      29.765  28.828  22.274  1.00  0.00     0.025 C 
ATOM    103  C   UNL A   1      27.402  28.735  23.102  1.00  0.00     0.025 C 
ATOM    104  C   UNL A   1      29.757  30.356  22.304  1.00  0.00     0.002 C 
ATOM    105  C   UNL A   1      27.393  30.260  23.276  1.00  0.00     0.002 C 
ATOM    106  C   UNL A   1      28.349  30.950  22.303  1.00  0.00     0.000 C 
ENDBRANCH  99 101
ENDBRANCH  90  97
ENDBRANCH  86  88
ENDBRANCH  79  84
ENDBRANCH  74  77
ENDBRANCH   1  73
TORSDOF 14
ENDMDL
MODEL 2
REMARK VINA RESULT:     -14.0      4.934     10.494
REMARK SMILES O=C(NCCCNC(=O)[C@H]1[C@H]2CC[C@H](C2)[C@@H]1C(=O)Nc1sc2c(c1C(=O)NC1CCCCC1)CCCC2)c1ccc(-c2c3nc(c(-c4c(F)c(F)c(F)c(F)c4F)c4ccc([nH]4)c(-c4c(F)c(F)c(F)c(F)c4F)c4nc(c(-c5c(F)c(F)c(F)c(F)c5F)c5ccc2[nH]5)C=C4)C=C3)cc1
REMARK SMILES IDX 6 1 5 2 4 3 3 4 1 5 2 6 38 8 39 9 100 10 40 11 99 12 41 13
REMARK SMILES IDX 42 14 43 15 93 16 44 17 98 18 92 19 94 20 45 21 97 22 91 23
REMARK SMILES IDX 90 24 46 26 78 27 58 28 77 29 59 30 62 31 76 32 95 33 60 34
REMARK SMILES IDX 61 35 75 37 96 38 63 39 47 40 48 41 56 42 49 43 50 44 54 45
REMARK SMILES IDX 57 46 51 47 52 48 55 49 53 50 79 51 80 52 88 53 81 54 82 55
REMARK SMILES IDX 86 56 89 57 83 58 84 59 87 60 85 61 64 62 65 63 73 64 66 65
REMARK SMILES IDX 67 66 71 67 74 68 68 69 69 70 72 71 70 72 7 73 8 74 9 76
REMARK SMILES IDX 10 77 11 78 16 79 12 80 15 81 14 82 13 83 17 84 18 85 19 86
REMARK SMILES IDX 20 88 21 89 24 90 22 91 23 92 37 93 34 94 36 95 35 96 25 97
REMARK SMILES IDX 26 98 27 99 28 101 29 102 33 103 30 104 32 105 31 106
REMARK H PARENT 3 7 94 25 62 36 7 75 19 87 27 100
REMARK Flexibility Score: inf
ROOT
ATOM      1  C   UNL A   1      31.351  30.655  25.715  1.00  0.00     0.117 C 
ENDROOT
BRANCH   1   2
ATOM      2  C   UNL A   1      31.400  31.637  26.875  1.00  0.00     0.042 C 
BRANCH   2   3
ATOM      3  C   UNL A   1      32.648  32.507  26.884  1.00  0.00     0.118 C 
BRANCH   3   4
ATOM      4  N   UNL A   1      32.420  33.828  27.455  1.00  0.00    -0.352 N 
ATOM      5  O   UNL A   1      32.620  35.500  28.959  1.00  0.00    -0.269 OA
ATOM      6  C   UNL A   1      33.062  34.451  28.497  1.00  0.00     0.251 C 
ATOM      7  H   UNL A   1      31.701  34.351  27.031  1.00  0.00     0.163 HD
BRANCH   6   8
ATOM      8  C   UNL A   1      34.281  33.846  29.072  1.00  0.00     0.039 A 
ATOM      9  C   UNL A   1      34.180  32.758  29.938  1.00  0.00     0.014 A 
ATOM     10  C   UNL A   1      35.535  34.370  28.748  1.00  0.00     0.014 A 
ATOM     11  C   UNL A   1      35.303  32.316  30.618  1.00  0.00     0.010 A 
ATOM     12  C   UNL A   1      36.686  33.834  29.339  1.00  0.00     0.010 A 
ATOM     13  C   UNL A   1      36.576  32.821  30.303  1.00  0.00    -0.014 A 
BRANCH  13  14
ATOM     14  C   UNL A   1      37.759  32.191  30.942  1.00  0.00     0.031 A 
ATOM     15  C   UNL A   1      38.190  32.546  32.336  1.00  0.00     0.074 A 
ATOM     16  C   UNL A   1      38.405  31.227  30.256  1.00  0.00     0.049 A 
ATOM     17  N   UNL A   1      39.159  32.031  33.052  1.00  0.00    -0.248 NA
ATOM     18  C   UNL A   1      37.452  33.621  33.015  1.00  0.00     0.031 C 
ATOM     19  C   UNL A   1      38.089  30.818  28.883  1.00  0.00     0.029 A 
ATOM     20  N   UNL A   1      39.431  30.393  30.618  1.00  0.00    -0.354 N 
ATOM     21  C   UNL A   1      39.149  32.717  34.259  1.00  0.00     0.074 A 
ATOM     22  C   UNL A   1      38.106  33.716  34.166  1.00  0.00     0.031 C 
ATOM     23  C   UNL A   1      38.852  29.772  28.546  1.00  0.00     0.029 A 
ATOM     24  C   UNL A   1      39.770  29.489  29.641  1.00  0.00     0.049 A 
ATOM     25  H   UNL A   1      39.881  30.439  31.492  1.00  0.00     0.167 HD
ATOM     26  C   UNL A   1      39.932  32.516  35.349  1.00  0.00     0.037 A 
ATOM     27  C   UNL A   1      40.727  28.545  29.618  1.00  0.00     0.037 A 
ATOM     28  C   UNL A   1      40.971  31.519  35.430  1.00  0.00     0.049 A 
ATOM     29  C   UNL A   1      41.593  28.368  30.830  1.00  0.00     0.074 A 
ATOM     30  C   UNL A   1      41.815  31.235  36.489  1.00  0.00     0.029 A 
ATOM     31  N   UNL A   1      41.308  30.641  34.409  1.00  0.00    -0.354 N 
ATOM     32  N   UNL A   1      41.555  29.006  31.975  1.00  0.00    -0.248 NA
ATOM     33  C   UNL A   1      42.636  27.339  30.750  1.00  0.00     0.031 C 
ATOM     34  C   UNL A   1      42.694  30.220  36.093  1.00  0.00     0.029 A 
ATOM     35  C   UNL A   1      42.359  29.828  34.808  1.00  0.00     0.049 A 
ATOM     36  H   UNL A   1      40.866  30.601  33.530  1.00  0.00     0.167 HD
ATOM     37  C   UNL A   1      42.557  28.449  32.754  1.00  0.00     0.074 A 
ATOM     38  C   UNL A   1      43.160  27.394  31.965  1.00  0.00     0.031 C 
ATOM     39  C   UNL A   1      42.951  28.786  34.007  1.00  0.00     0.037 A 
BRANCH  26  40
ATOM     40  C   UNL A   1      39.703  33.397  36.546  1.00  0.00     0.064 A 
ATOM     41  C   UNL A   1      40.328  34.647  36.669  1.00  0.00     0.173 A 
ATOM     42  C   UNL A   1      38.800  33.016  37.552  1.00  0.00     0.173 A 
ATOM     43  F   UNL A   1      41.205  35.058  35.741  1.00  0.00    -0.203 F 
ATOM     44  C   UNL A   1      40.073  35.473  37.762  1.00  0.00     0.198 A 
ATOM     45  C   UNL A   1      38.524  33.857  38.627  1.00  0.00     0.198 A 
ATOM     46  F   UNL A   1      38.167  31.835  37.480  1.00  0.00    -0.203 F 
ATOM     47  F   UNL A   1      40.709  36.647  37.877  1.00  0.00    -0.200 F 
ATOM     48  C   UNL A   1      39.165  35.082  38.734  1.00  0.00     0.200 A 
ATOM     49  F   UNL A   1      37.633  33.485  39.556  1.00  0.00    -0.200 F 
ATOM     50  F   UNL A   1      38.908  35.885  39.776  1.00  0.00    -0.200 F 
ENDBRANCH  26  40
BRANCH  27  51
ATOM     51  C   UNL A   1      40.930  27.724  28.395  1.00  0.00     0.064 A 
ATOM     52  C   UNL A   1      40.264  26.505  28.215  1.00  0.00     0.173 A 
ATOM     53  C   UNL A   1      41.806  28.144  27.381  1.00  0.00     0.173 A 
ATOM     54  F   UNL A   1      39.429  26.051  29.160  1.00  0.00    -0.203 F 
ATOM     55  C   UNL A   1      40.490  25.723  27.083  1.00  0.00     0.198 A 
ATOM     56  C   UNL A   1      41.998  27.383  26.233  1.00  0.00     0.198 A 
ATOM     57  F   UNL A   1      42.462  29.309  27.498  1.00  0.00    -0.203 F 
ATOM     58  F   UNL A   1      39.887  24.532  26.964  1.00  0.00    -0.200 F 
ATOM     59  C   UNL A   1      41.351  26.166  26.090  1.00  0.00     0.200 A 
ATOM     60  F   UNL A   1      42.813  27.827  25.265  1.00  0.00    -0.200 F 
ATOM     61  F   UNL A   1      41.564  25.415  25.001  1.00  0.00    -0.200 F 
ENDBRANCH  27  51
BRANCH  39  62
ATOM     62  C   UNL A   1      44.071  27.982  34.602  1.00  0.00     0.064 A 
ATOM     63  C   UNL A   1      45.412  28.378  34.474  1.00  0.00     0.173 A 
ATOM     64  C   UNL A   1      43.801  26.798  35.304  1.00  0.00     0.173 A 
ATOM     65  F   UNL A   1      45.724  29.494  33.797  1.00  0.00    -0.203 F 
ATOM     66  C   UNL A   1      46.442  27.594  34.988  1.00  0.00     0.198 A 
ATOM     67  C   UNL A   1      44.832  26.036  35.849  1.00  0.00     0.198 A 
ATOM     68  F   UNL A   1      42.538  26.376  35.461  1.00  0.00    -0.203 F 
ATOM     69  F   UNL A   1      47.717  27.956  34.790  1.00  0.00    -0.200 F 
ATOM     70  C   UNL A   1      46.151  26.428  35.679  1.00  0.00     0.200 A 
ATOM     71  F   UNL A   1      44.548  24.917  36.529  1.00  0.00    -0.200 F 
ATOM     72  F   UNL A   1      47.144  25.674  36.170  1.00  0.00    -0.200 F 
ENDBRANCH  39  62
ENDBRANCH  13  14
ENDBRANCH   6   8
ENDBRANCH   3   4
ENDBRANCH   2   3
ENDBRANCH   1   2
BRANCH   1  73
ATOM     73  N   UNL A   1      32.411  29.680  25.824  1.00  0.00    -0.356 N 
ATOM     74  C   UNL A   1      32.407  28.335  25.705  1.00  0.00     0.224 C 
ATOM     75  H   UNL A   1      33.296  30.066  26.021  1.00  0.00     0.163 HD
ATOM     76  O   UNL A   1      33.499  27.787  25.879  1.00  0.00    -0.275 OA
BRANCH  74  77
ATOM     77  C   UNL A   1      31.175  27.558  25.243  1.00  0.00     0.094 C 
ATOM     78  C   UNL A   1      30.660  28.221  23.919  1.00  0.00     0.002 C 
ATOM     79  C   UNL A   1      31.293  26.069  24.823  1.00  0.00     0.094 C 
ATOM     80  C   UNL A   1      31.637  28.076  22.731  1.00  0.00     0.005 C 
ATOM     81  C   UNL A   1      29.608  27.224  23.502  1.00  0.00     0.009 C 
ATOM     82  C   UNL A   1      30.584  26.044  23.448  1.00  0.00     0.002 C 
ATOM     83  C   UNL A   1      31.576  26.577  22.399  1.00  0.00     0.005 C 
BRANCH  79  84
ATOM     84  C   UNL A   1      30.869  24.972  25.836  1.00  0.00     0.229 C 
ATOM     85  O   UNL A   1      29.833  25.171  26.492  1.00  0.00    -0.274 OA
ATOM     86  N   UNL A   1      31.439  23.745  25.998  1.00  0.00    -0.317 N 
ATOM     87  H   UNL A   1      30.880  23.075  26.455  1.00  0.00     0.170 HD
BRANCH  86  88
ATOM     88  C   UNL A   1      32.681  23.315  25.615  1.00  0.00     0.108 A 
ATOM     89  S   UNL A   1      33.811  23.117  26.876  1.00  0.00    -0.122 S 
ATOM     90  C   UNL A   1      33.098  22.654  24.454  1.00  0.00     0.078 A 
ATOM     91  C   UNL A   1      35.054  23.057  25.724  1.00  0.00     0.011 A 
ATOM     92  C   UNL A   1      34.574  22.798  24.438  1.00  0.00    -0.019 A 
ATOM     93  C   UNL A   1      36.466  23.379  26.127  1.00  0.00     0.047 C 
ATOM     94  C   UNL A   1      35.573  22.891  23.304  1.00  0.00     0.037 C 
ATOM     95  C   UNL A   1      37.330  23.703  24.906  1.00  0.00     0.006 C 
ATOM     96  C   UNL A   1      37.028  22.737  23.773  1.00  0.00     0.005 C 
BRANCH  90  97
ATOM     97  C   UNL A   1      32.043  22.196  23.508  1.00  0.00     0.254 C 
ATOM     98  O   UNL A   1      31.245  23.003  23.014  1.00  0.00    -0.269 OA
ATOM     99  N   UNL A   1      31.769  20.876  23.225  1.00  0.00    -0.349 N 
ATOM    100  H   UNL A   1      30.921  20.710  22.752  1.00  0.00     0.164 HD
BRANCH  99 101
ATOM    101  C   UNL A   1      32.547  19.710  23.523  1.00  0.00     0.082 C 
ATOM    102  C   UNL A   1      32.528  19.323  25.000  1.00  0.00     0.025 C 
ATOM    103  C   UNL A   1      32.265  18.485  22.654  1.00  0.00     0.025 C 
ATOM    104  C   UNL A   1      33.574  18.252  25.307  1.00  0.00     0.002 C 
ATOM    105  C   UNL A   1      33.404  17.481  22.875  1.00  0.00     0.002 C 
ATOM    106  C   UNL A   1      33.524  17.068  24.342  1.00  0.00     0.000 C 
ENDBRANCH  99 101
ENDBRANCH  90  97
ENDBRANCH  86  88
ENDBRANCH  79  84
ENDBRANCH  74  77
ENDBRANCH   1  73
TORSDOF 14
ENDMDL
MODEL 3
REMARK VINA RESULT:     -13.9      0.740      2.064
REMARK SMILES O=C(NCCCNC(=O)[C@H]1[C@H]2CC[C@H](C2)[C@@H]1C(=O)Nc1sc2c(c1C(=O)NC1CCCCC1)CCCC2)c1ccc(-c2c3nc(c(-c4c(F)c(F)c(F)c(F)c4F)c4ccc([nH]4)c(-c4c(F)c(F)c(F)c(F)c4F)c4nc(c(-c5c(F)c(F)c(F)c(F)c5F)c5ccc2[nH]5)C=C4)C=C3)cc1
REMARK SMILES IDX 6 1 5 2 4 3 3 4 1 5 2 6 38 8 39 9 100 10 40 11 99 12 41 13
REMARK SMILES IDX 42 14 43 15 93 16 44 17 98 18 92 19 94 20 45 21 97 22 91 23
REMARK SMILES IDX 90 24 46 26 78 27 58 28 77 29 59 30 62 31 76 32 95 33 60 34
REMARK SMILES IDX 61 35 75 37 96 38 63 39 47 40 48 41 56 42 49 43 50 44 54 45
REMARK SMILES IDX 57 46 51 47 52 48 55 49 53 50 79 51 80 52 88 53 81 54 82 55
REMARK SMILES IDX 86 56 89 57 83 58 84 59 87 60 85 61 64 62 65 63 73 64 66 65
REMARK SMILES IDX 67 66 71 67 74 68 68 69 69 70 72 71 70 72 7 73 8 74 9 76
REMARK SMILES IDX 10 77 11 78 16 79 12 80 15 81 14 82 13 83 17 84 18 85 19 86
REMARK SMILES IDX 20 88 21 89 24 90 22 91 23 92 37 93 34 94 36 95 35 96 25 97
REMARK SMILES IDX 26 98 27 99 28 101 29 102 33 103 30 104 32 105 31 106
REMARK H PARENT 3 7 94 25 62 36 7 75 19 87 27 100
REMARK Flexibility Score: inf
ROOT
ATOM      1  C   UNL A   1      36.677  20.056  25.013  1.00  0.00     0.117 C 
ENDROOT
BRANCH   1   2
ATOM      2  C   UNL A   1      38.080  19.571  24.681  1.00  0.00     0.042 C 
BRANCH   2   3
ATOM      3  C   UNL A   1      39.120  19.961  25.719  1.00  0.00     0.118 C 
BRANCH   3   4
ATOM      4  N   UNL A   1      40.260  19.053  25.756  1.00  0.00    -0.352 N 
ATOM      5  O   UNL A   1      42.438  18.457  25.770  1.00  0.00    -0.269 OA
ATOM      6  C   UNL A   1      41.592  19.331  25.944  1.00  0.00     0.251 C 
ATOM      7  H   UNL A   1      40.043  18.101  25.627  1.00  0.00     0.163 HD
BRANCH   6   8
ATOM      8  C   UNL A   1      42.006  20.691  26.344  1.00  0.00     0.039 A 
ATOM      9  C   UNL A   1      42.124  21.696  25.385  1.00  0.00     0.014 A 
ATOM     10  C   UNL A   1      42.282  20.967  27.686  1.00  0.00     0.014 A 
ATOM     11  C   UNL A   1      42.690  22.912  25.732  1.00  0.00     0.010 A 
ATOM     12  C   UNL A   1      42.730  22.240  28.056  1.00  0.00     0.010 A 
ATOM     13  C   UNL A   1      42.967  23.215  27.076  1.00  0.00    -0.014 A 
BRANCH  13  14
ATOM     14  C   UNL A   1      43.413  24.592  27.407  1.00  0.00     0.031 A 
ATOM     15  C   UNL A   1      44.806  25.068  27.107  1.00  0.00     0.074 A 
ATOM     16  C   UNL A   1      42.504  25.440  27.928  1.00  0.00     0.049 A 
ATOM     17  N   UNL A   1      45.319  26.262  27.275  1.00  0.00    -0.248 NA
ATOM     18  C   UNL A   1      45.750  24.083  26.560  1.00  0.00     0.031 C 
ATOM     19  C   UNL A   1      41.128  25.078  28.285  1.00  0.00     0.029 A 
ATOM     20  N   UNL A   1      42.576  26.778  28.217  1.00  0.00    -0.354 N 
ATOM     21  C   UNL A   1      46.641  26.172  26.858  1.00  0.00     0.074 A 
ATOM     22  C   UNL A   1      46.866  24.797  26.468  1.00  0.00     0.031 C 
ATOM     23  C   UNL A   1      40.470  26.175  28.677  1.00  0.00     0.029 A 
ATOM     24  C   UNL A   1      41.394  27.300  28.682  1.00  0.00     0.049 A 
ATOM     25  H   UNL A   1      43.395  27.312  28.103  1.00  0.00     0.167 HD
ATOM     26  C   UNL A   1      47.573  27.156  26.793  1.00  0.00     0.037 A 
ATOM     27  C   UNL A   1      41.089  28.545  29.089  1.00  0.00     0.037 A 
ATOM     28  C   UNL A   1      47.338  28.524  27.185  1.00  0.00     0.049 A 
ATOM     29  C   UNL A   1      42.151  29.603  29.029  1.00  0.00     0.074 A 
ATOM     30  C   UNL A   1      48.216  29.594  27.154  1.00  0.00     0.029 A 
ATOM     31  N   UNL A   1      46.137  29.011  27.683  1.00  0.00    -0.354 N 
ATOM     32  N   UNL A   1      43.389  29.510  28.607  1.00  0.00    -0.248 NA
ATOM     33  C   UNL A   1      41.776  30.941  29.500  1.00  0.00     0.031 C 
ATOM     34  C   UNL A   1      47.562  30.715  27.677  1.00  0.00     0.029 A 
ATOM     35  C   UNL A   1      46.257  30.361  27.978  1.00  0.00     0.049 A 
ATOM     36  H   UNL A   1      45.320  28.477  27.807  1.00  0.00     0.167 HD
ATOM     37  C   UNL A   1      43.936  30.776  28.750  1.00  0.00     0.074 A 
ATOM     38  C   UNL A   1      42.882  31.628  29.262  1.00  0.00     0.031 C 
ATOM     39  C   UNL A   1      45.199  31.194  28.492  1.00  0.00     0.037 A 
BRANCH  26  40
ATOM     40  C   UNL A   1      48.940  26.792  26.284  1.00  0.00     0.064 A 
ATOM     41  C   UNL A   1      49.906  26.213  27.120  1.00  0.00     0.173 A 
ATOM     42  C   UNL A   1      49.267  26.963  24.928  1.00  0.00     0.173 A 
ATOM     43  F   UNL A   1      49.649  26.032  28.424  1.00  0.00    -0.203 F 
ATOM     44  C   UNL A   1      51.154  25.839  26.626  1.00  0.00     0.198 A 
ATOM     45  C   UNL A   1      50.504  26.560  24.431  1.00  0.00     0.198 A 
ATOM     46  F   UNL A   1      48.378  27.504  24.081  1.00  0.00    -0.203 F 
ATOM     47  F   UNL A   1      52.073  25.321  27.451  1.00  0.00    -0.200 F 
ATOM     48  C   UNL A   1      51.448  26.003  25.281  1.00  0.00     0.200 A 
ATOM     49  F   UNL A   1      50.781  26.704  23.127  1.00  0.00    -0.200 F 
ATOM     50  F   UNL A   1      52.643  25.628  24.802  1.00  0.00    -0.200 F 
ENDBRANCH  26  40
BRANCH  27  51
ATOM     51  C   UNL A   1      39.730  28.842  29.613  1.00  0.00     0.064 A 
ATOM     52  C   UNL A   1      39.415  28.668  30.967  1.00  0.00     0.173 A 
ATOM     53  C   UNL A   1      38.712  29.302  28.762  1.00  0.00     0.173 A 
ATOM     54  F   UNL A   1      40.347  28.216  31.820  1.00  0.00    -0.203 F 
ATOM     55  C   UNL A   1      38.128  28.912  31.444  1.00  0.00     0.198 A 
ATOM     56  C   UNL A   1      37.439  29.585  29.247  1.00  0.00     0.198 A 
ATOM     57  F   UNL A   1      38.962  29.495  27.458  1.00  0.00    -0.203 F 
ATOM     58  F   UNL A   1      37.837  28.679  32.731  1.00  0.00    -0.200 F 
ATOM     59  C   UNL A   1      37.143  29.377  30.584  1.00  0.00     0.200 A 
ATOM     60  F   UNL A   1      36.498  30.056  28.417  1.00  0.00    -0.200 F 
ATOM     61  F   UNL A   1      35.907  29.614  31.044  1.00  0.00    -0.200 F 
ENDBRANCH  27  51
BRANCH  39  62
ATOM     62  C   UNL A   1      45.494  32.646  28.738  1.00  0.00     0.064 A 
ATOM     63  C   UNL A   1      45.278  33.620  27.750  1.00  0.00     0.173 A 
ATOM     64  C   UNL A   1      46.003  33.068  29.975  1.00  0.00     0.173 A 
ATOM     65  F   UNL A   1      44.809  33.266  26.544  1.00  0.00    -0.203 F 
ATOM     66  C   UNL A   1      45.605  34.954  27.977  1.00  0.00     0.198 A 
ATOM     67  C   UNL A   1      46.293  34.409  30.211  1.00  0.00     0.198 A 
ATOM     68  F   UNL A   1      46.222  32.180  30.956  1.00  0.00    -0.203 F 
ATOM     69  F   UNL A   1      45.459  35.853  26.994  1.00  0.00    -0.200 F 
ATOM     70  C   UNL A   1      46.107  35.348  29.208  1.00  0.00     0.200 A 
ATOM     71  F   UNL A   1      46.765  34.791  31.406  1.00  0.00    -0.200 F 
ATOM     72  F   UNL A   1      46.423  36.632  29.423  1.00  0.00    -0.200 F 
ENDBRANCH  39  62
ENDBRANCH  13  14
ENDBRANCH   6   8
ENDBRANCH   3   4
ENDBRANCH   2   3
ENDBRANCH   1   2
BRANCH   1  73
ATOM     73  N   UNL A   1      36.703  21.429  25.462  1.00  0.00    -0.356 N 
ATOM     74  C   UNL A   1      35.787  22.418  25.375  1.00  0.00     0.224 C 
ATOM     75  H   UNL A   1      37.539  21.690  25.913  1.00  0.00     0.163 HD
ATOM     76  O   UNL A   1      36.136  23.502  25.850  1.00  0.00    -0.275 OA
BRANCH  74  77
ATOM     77  C   UNL A   1      34.369  22.177  24.861  1.00  0.00     0.094 C 
ATOM     78  C   UNL A   1      33.620  21.295  25.919  1.00  0.00     0.002 C 
ATOM     79  C   UNL A   1      33.382  23.361  24.684  1.00  0.00     0.094 C 
ATOM     80  C   UNL A   1      33.391  22.008  27.270  1.00  0.00     0.005 C 
ATOM     81  C   UNL A   1      32.215  21.340  25.370  1.00  0.00     0.009 C 
ATOM     82  C   UNL A   1      32.119  22.868  25.428  1.00  0.00     0.002 C 
ATOM     83  C   UNL A   1      32.348  23.085  26.935  1.00  0.00     0.005 C 
BRANCH  79  84
ATOM     84  C   UNL A   1      33.161  23.941  23.261  1.00  0.00     0.229 C 
ATOM     85  O   UNL A   1      33.381  23.189  22.297  1.00  0.00    -0.274 OA
ATOM     86  N   UNL A   1      32.623  25.153  22.947  1.00  0.00    -0.317 N 
ATOM     87  H   UNL A   1      32.282  25.241  22.028  1.00  0.00     0.170 HD
BRANCH  86  88
ATOM     88  C   UNL A   1      32.493  26.267  23.733  1.00  0.00     0.108 A 
ATOM     89  S   UNL A   1      33.729  27.429  23.572  1.00  0.00    -0.122 S 
ATOM     90  C   UNL A   1      31.367  26.810  24.364  1.00  0.00     0.078 A 
ATOM     91  C   UNL A   1      33.202  28.159  25.009  1.00  0.00     0.011 A 
ATOM     92  C   UNL A   1      31.908  27.767  25.360  1.00  0.00    -0.019 A 
ATOM     93  C   UNL A   1      34.143  29.023  25.800  1.00  0.00     0.047 C 
ATOM     94  C   UNL A   1      31.399  28.223  26.710  1.00  0.00     0.037 C 
ATOM     95  C   UNL A   1      33.649  29.210  27.236  1.00  0.00     0.006 C 
ATOM     96  C   UNL A   1      32.149  29.450  27.250  1.00  0.00     0.005 C 
BRANCH  90  97
ATOM     97  C   UNL A   1      30.044  26.200  24.053  1.00  0.00     0.254 C 
ATOM     98  O   UNL A   1      29.867  24.982  24.177  1.00  0.00    -0.269 OA
ATOM     99  N   UNL A   1      28.990  26.875  23.479  1.00  0.00    -0.349 N 
ATOM    100  H   UNL A   1      28.258  26.310  23.140  1.00  0.00     0.164 HD
BRANCH  99 101
ATOM    101  C   UNL A   1      28.809  28.286  23.310  1.00  0.00     0.082 C 
ATOM    102  C   UNL A   1      29.697  28.891  22.225  1.00  0.00     0.025 C 
ATOM    103  C   UNL A   1      27.364  28.752  23.127  1.00  0.00     0.025 C 
ATOM    104  C   UNL A   1      29.665  30.418  22.267  1.00  0.00     0.002 C 
ATOM    105  C   UNL A   1      27.336  30.275  23.313  1.00  0.00     0.002 C 
ATOM    106  C   UNL A   1      28.248  30.989  22.316  1.00  0.00     0.000 C 
ENDBRANCH  99 101
ENDBRANCH  90  97
ENDBRANCH  86  88
ENDBRANCH  79  84
ENDBRANCH  74  77
ENDBRANCH   1  73
TORSDOF 14
ENDMDL
