MODEL 1
REMARK VINA RESULT:     -10.5      0.000      0.000
REMARK SMILES C=CCN(CC(=O)NCCCNC(=O)c1ccc(-c2c3nc(c(-c4c(F)c(F)c(F)c(F)c4F)c4ccc([nH]4)c(-c4c(F)c(F)c(F)c(F)c4F)c4nc(c(-c5c(F)c(F)c(F)c(F)c5F)c5ccc2[nH]5)C=C4)C=C3)cc1)C(=O)NCC(C)C
REMARK SMILES IDX 9 1 8 2 6 3 7 4 5 6 4 7 3 8 2 9 1 10 78 11 79 12 80 13 81 15
REMARK SMILES IDX 82 16 83 17 84 18 10 19 11 20 12 21 13 22 14 24 15 25 16 26
REMARK SMILES IDX 77 27 17 28 76 29 18 30 19 31 20 32 70 33 21 34 75 35 69 36
REMARK SMILES IDX 71 37 22 38 74 39 68 40 67 41 23 43 55 44 35 45 54 46 36 47
REMARK SMILES IDX 39 48 53 49 72 50 37 51 38 52 52 54 73 55 40 56 24 57 25 58
REMARK SMILES IDX 33 59 26 60 27 61 31 62 34 63 28 64 29 65 32 66 30 67 56 68
REMARK SMILES IDX 57 69 65 70 58 71 59 72 63 73 66 74 60 75 61 76 64 77 62 78
REMARK SMILES IDX 41 79 42 80 50 81 43 82 44 83 48 84 51 85 45 86 46 87 49 88
REMARK SMILES IDX 47 89
REMARK H PARENT 8 5 80 14 12 23 71 42 39 53
REMARK Flexibility Score: inf
ROOT
ATOM      1  C   UNL A   1      31.386  30.911  25.862  1.00  0.00     0.117 C 
ENDROOT
BRANCH   1   2
ATOM      2  N   UNL A   1      32.174  29.936  26.582  1.00  0.00    -0.354 N 
ATOM      3  C   UNL A   1      32.394  28.624  26.284  1.00  0.00     0.239 C 
ATOM      4  O   UNL A   1      33.451  28.134  26.698  1.00  0.00    -0.273 OA
ATOM      5  H   UNL A   1      32.612  30.264  27.401  1.00  0.00     0.163 HD
BRANCH   3   6
ATOM      6  C   UNL A   1      31.480  27.824  25.342  1.00  0.00     0.221 C 
BRANCH   6   7
ATOM      7  N   UNL A   1      31.910  27.767  23.947  1.00  0.00    -0.312 N 
BRANCH   7   8
ATOM      8  C   UNL A   1      31.931  26.439  23.329  1.00  0.00     0.149 C 
BRANCH   8   9
ATOM      9  C   UNL A   1      33.327  25.893  23.258  1.00  0.00    -0.013 C 
ATOM     10  C   UNL A   1      34.035  25.564  24.349  1.00  0.00     0.006 C 
ENDBRANCH   8   9
ENDBRANCH   7   8
BRANCH   7  11
ATOM     11  C   UNL A   1      32.248  28.822  23.149  1.00  0.00     0.318 C 
ATOM     12  O   UNL A   1      33.398  29.279  23.143  1.00  0.00    -0.249 OA
ATOM     13  N   UNL A   1      31.403  29.458  22.325  1.00  0.00    -0.338 N 
ATOM     14  H   UNL A   1      31.880  30.167  21.835  1.00  0.00     0.165 HD
BRANCH  13  15
ATOM     15  C   UNL A   1      29.999  29.434  21.925  1.00  0.00     0.120 C 
BRANCH  15  16
ATOM     16  C   UNL A   1      29.078  29.798  23.105  1.00  0.00     0.002 C 
ATOM     17  C   UNL A   1      28.890  31.314  23.219  1.00  0.00     0.009 C 
ATOM     18  C   UNL A   1      27.707  29.135  22.958  1.00  0.00     0.009 C 
ENDBRANCH  15  16
ENDBRANCH  13  15
ENDBRANCH   7  11
ENDBRANCH   6   7
ENDBRANCH   3   6
ENDBRANCH   1   2
BRANCH   1  19
ATOM     19  C   UNL A   1      31.199  32.226  26.607  1.00  0.00     0.042 C 
BRANCH  19  20
ATOM     20  C   UNL A   1      32.474  32.789  27.226  1.00  0.00     0.118 C 
BRANCH  20  21
ATOM     21  N   UNL A   1      32.347  34.190  27.613  1.00  0.00    -0.352 N 
ATOM     22  C   UNL A   1      32.993  34.920  28.574  1.00  0.00     0.251 C 
ATOM     23  H   UNL A   1      31.682  34.698  27.094  1.00  0.00     0.163 HD
ATOM     24  O   UNL A   1      32.572  36.046  28.859  1.00  0.00    -0.269 OA
BRANCH  22  25
ATOM     25  C   UNL A   1      34.173  34.388  29.284  1.00  0.00     0.039 A 
ATOM     26  C   UNL A   1      33.977  33.627  30.443  1.00  0.00     0.014 A 
ATOM     27  C   UNL A   1      35.470  34.670  28.851  1.00  0.00     0.014 A 
ATOM     28  C   UNL A   1      35.075  33.094  31.122  1.00  0.00     0.010 A 
ATOM     29  C   UNL A   1      36.560  34.074  29.482  1.00  0.00     0.010 A 
ATOM     30  C   UNL A   1      36.375  33.279  30.624  1.00  0.00    -0.014 A 
BRANCH  30  31
ATOM     31  C   UNL A   1      37.551  32.647  31.274  1.00  0.00     0.031 A 
ATOM     32  C   UNL A   1      38.271  31.511  30.601  1.00  0.00     0.074 A 
ATOM     33  C   UNL A   1      37.923  33.046  32.506  1.00  0.00     0.049 A 
ATOM     34  N   UNL A   1      39.254  30.772  31.049  1.00  0.00    -0.248 NA
ATOM     35  C   UNL A   1      37.805  31.138  29.257  1.00  0.00     0.031 C 
ATOM     36  C   UNL A   1      37.276  34.106  33.281  1.00  0.00     0.029 A 
ATOM     37  N   UNL A   1      38.924  32.597  33.329  1.00  0.00    -0.354 N 
ATOM     38  C   UNL A   1      39.511  29.839  30.053  1.00  0.00     0.074 A 
ATOM     39  C   UNL A   1      38.549  30.072  28.998  1.00  0.00     0.031 C 
ATOM     40  C   UNL A   1      37.906  34.237  34.458  1.00  0.00     0.029 A 
ATOM     41  C   UNL A   1      38.973  33.244  34.540  1.00  0.00     0.049 A 
ATOM     42  H   UNL A   1      39.549  31.880  33.076  1.00  0.00     0.167 HD
ATOM     43  C   UNL A   1      40.476  28.888  30.014  1.00  0.00     0.037 A 
ATOM     44  C   UNL A   1      39.777  33.049  35.602  1.00  0.00     0.037 A 
ATOM     45  C   UNL A   1      41.446  28.676  31.056  1.00  0.00     0.049 A 
ATOM     46  C   UNL A   1      40.835  31.980  35.536  1.00  0.00     0.074 A 
ATOM     47  C   UNL A   1      42.503  27.783  31.083  1.00  0.00     0.029 A 
ATOM     48  N   UNL A   1      41.476  29.366  32.260  1.00  0.00    -0.354 N 
ATOM     49  N   UNL A   1      41.113  31.151  34.560  1.00  0.00    -0.248 NA
ATOM     50  C   UNL A   1      41.692  31.824  36.719  1.00  0.00     0.031 C 
ATOM     51  C   UNL A   1      43.141  27.897  32.321  1.00  0.00     0.029 A 
ATOM     52  C   UNL A   1      42.518  28.900  33.046  1.00  0.00     0.049 A 
ATOM     53  H   UNL A   1      40.850  30.080  32.518  1.00  0.00     0.167 HD
ATOM     54  C   UNL A   1      42.192  30.396  34.997  1.00  0.00     0.074 A 
ATOM     55  C   UNL A   1      42.529  30.876  36.321  1.00  0.00     0.031 C 
ATOM     56  C   UNL A   1      42.846  29.395  34.358  1.00  0.00     0.037 A 
BRANCH  43  57
ATOM     57  C   UNL A   1      40.531  28.002  28.803  1.00  0.00     0.064 A 
ATOM     58  C   UNL A   1      41.314  28.331  27.686  1.00  0.00     0.173 A 
ATOM     59  C   UNL A   1      39.826  26.790  28.774  1.00  0.00     0.173 A 
ATOM     60  F   UNL A   1      42.000  29.483  27.656  1.00  0.00    -0.203 F 
ATOM     61  C   UNL A   1      41.364  27.495  26.573  1.00  0.00     0.198 A 
ATOM     62  C   UNL A   1      39.902  25.940  27.673  1.00  0.00     0.198 A 
ATOM     63  F   UNL A   1      39.068  26.423  29.818  1.00  0.00    -0.203 F 
ATOM     64  F   UNL A   1      42.078  27.855  25.497  1.00  0.00    -0.200 F 
ATOM     65  C   UNL A   1      40.664  26.297  26.570  1.00  0.00     0.200 A 
ATOM     66  F   UNL A   1      39.238  24.776  27.679  1.00  0.00    -0.200 F 
ATOM     67  F   UNL A   1      40.720  25.489  25.503  1.00  0.00    -0.200 F 
ENDBRANCH  43  57
BRANCH  44  68
ATOM     68  C   UNL A   1      39.627  33.899  36.813  1.00  0.00     0.064 A 
ATOM     69  C   UNL A   1      40.269  35.142  36.902  1.00  0.00     0.173 A 
ATOM     70  C   UNL A   1      38.847  33.487  37.903  1.00  0.00     0.173 A 
ATOM     71  F   UNL A   1      41.043  35.570  35.894  1.00  0.00    -0.203 F 
ATOM     72  C   UNL A   1      40.153  35.932  38.044  1.00  0.00     0.198 A 
ATOM     73  C   UNL A   1      38.707  34.291  39.032  1.00  0.00     0.198 A 
ATOM     74  F   UNL A   1      38.208  32.309  37.866  1.00  0.00    -0.203 F 
ATOM     75  F   UNL A   1      40.815  37.094  38.121  1.00  0.00    -0.200 F 
ATOM     76  C   UNL A   1      39.367  35.509  39.105  1.00  0.00     0.200 A 
ATOM     77  F   UNL A   1      37.935  33.887  40.050  1.00  0.00    -0.200 F 
ATOM     78  F   UNL A   1      39.252  36.271  40.201  1.00  0.00    -0.200 F 
ENDBRANCH  44  68
BRANCH  56  79
ATOM     79  C   UNL A   1      44.016  28.775  35.066  1.00  0.00     0.064 A 
ATOM     80  C   UNL A   1      45.319  29.270  34.910  1.00  0.00     0.173 A 
ATOM     81  C   UNL A   1      43.823  27.699  35.946  1.00  0.00     0.173 A 
ATOM     82  F   UNL A   1      45.559  30.286  34.068  1.00  0.00    -0.203 F 
ATOM     83  C   UNL A   1      46.389  28.694  35.590  1.00  0.00     0.198 A 
ATOM     84  C   UNL A   1      44.890  27.146  36.649  1.00  0.00     0.198 A 
ATOM     85  F   UNL A   1      42.596  27.193  36.137  1.00  0.00    -0.203 F 
ATOM     86  F   UNL A   1      47.633  29.152  35.389  1.00  0.00    -0.200 F 
ATOM     87  C   UNL A   1      46.173  27.639  36.464  1.00  0.00     0.200 A 
ATOM     88  F   UNL A   1      44.677  26.137  37.504  1.00  0.00    -0.200 F 
ATOM     89  F   UNL A   1      47.203  27.093  37.125  1.00  0.00    -0.200 F 
ENDBRANCH  56  79
ENDBRANCH  30  31
ENDBRANCH  22  25
ENDBRANCH  20  21
ENDBRANCH  19  20
ENDBRANCH   1  19
TORSDOF 16
ENDMDL
MODEL 2
REMARK VINA RESULT:     -10.4      0.978      1.642
REMARK SMILES C=CCN(CC(=O)NCCCNC(=O)c1ccc(-c2c3nc(c(-c4c(F)c(F)c(F)c(F)c4F)c4ccc([nH]4)c(-c4c(F)c(F)c(F)c(F)c4F)c4nc(c(-c5c(F)c(F)c(F)c(F)c5F)c5ccc2[nH]5)C=C4)C=C3)cc1)C(=O)NCC(C)C
REMARK SMILES IDX 9 1 8 2 6 3 7 4 5 6 4 7 3 8 2 9 1 10 78 11 79 12 80 13 81 15
REMARK SMILES IDX 82 16 83 17 84 18 10 19 11 20 12 21 13 22 14 24 15 25 16 26
REMARK SMILES IDX 77 27 17 28 76 29 18 30 19 31 20 32 70 33 21 34 75 35 69 36
REMARK SMILES IDX 71 37 22 38 74 39 68 40 67 41 23 43 55 44 35 45 54 46 36 47
REMARK SMILES IDX 39 48 53 49 72 50 37 51 38 52 52 54 73 55 40 56 24 57 25 58
REMARK SMILES IDX 33 59 26 60 27 61 31 62 34 63 28 64 29 65 32 66 30 67 56 68
REMARK SMILES IDX 57 69 65 70 58 71 59 72 63 73 66 74 60 75 61 76 64 77 62 78
REMARK SMILES IDX 41 79 42 80 50 81 43 82 44 83 48 84 51 85 45 86 46 87 49 88
REMARK SMILES IDX 47 89
REMARK H PARENT 8 5 80 14 12 23 71 42 39 53
REMARK Flexibility Score: inf
ROOT
ATOM      1  C   UNL A   1      31.463  30.335  26.006  1.00  0.00     0.117 C 
ENDROOT
BRANCH   1   2
ATOM      2  N   UNL A   1      32.562  30.133  25.088  1.00  0.00    -0.354 N 
ATOM      3  C   UNL A   1      32.961  28.985  24.470  1.00  0.00     0.239 C 
ATOM      4  O   UNL A   1      33.544  29.115  23.388  1.00  0.00    -0.273 OA
ATOM      5  H   UNL A   1      33.095  30.934  24.880  1.00  0.00     0.163 HD
BRANCH   3   6
ATOM      6  C   UNL A   1      32.567  27.589  24.980  1.00  0.00     0.221 C 
BRANCH   6   7
ATOM      7  N   UNL A   1      31.626  26.854  24.139  1.00  0.00    -0.312 N 
BRANCH   7   8
ATOM      8  C   UNL A   1      32.207  25.865  23.228  1.00  0.00     0.149 C 
BRANCH   8   9
ATOM      9  C   UNL A   1      31.855  26.166  21.801  1.00  0.00    -0.013 C 
ATOM     10  C   UNL A   1      32.552  25.682  20.762  1.00  0.00     0.006 C 
ENDBRANCH   8   9
ENDBRANCH   7   8
BRANCH   7  11
ATOM     11  C   UNL A   1      30.264  26.959  24.146  1.00  0.00     0.318 C 
ATOM     12  O   UNL A   1      29.558  26.110  24.704  1.00  0.00    -0.249 OA
ATOM     13  N   UNL A   1      29.573  27.951  23.567  1.00  0.00    -0.338 N 
ATOM     14  H   UNL A   1      28.609  27.827  23.726  1.00  0.00     0.165 HD
BRANCH  13  15
ATOM     15  C   UNL A   1      29.795  29.155  22.772  1.00  0.00     0.120 C 
BRANCH  15  16
ATOM     16  C   UNL A   1      28.532  30.035  22.729  1.00  0.00     0.002 C 
ATOM     17  C   UNL A   1      28.672  31.257  23.643  1.00  0.00     0.009 C 
ATOM     18  C   UNL A   1      28.240  30.511  21.304  1.00  0.00     0.009 C 
ENDBRANCH  15  16
ENDBRANCH  13  15
ENDBRANCH   7  11
ENDBRANCH   6   7
ENDBRANCH   3   6
ENDBRANCH   1   2
BRANCH   1  19
ATOM     19  C   UNL A   1      31.320  31.772  26.490  1.00  0.00     0.042 C 
BRANCH  19  20
ATOM     20  C   UNL A   1      32.623  32.418  26.948  1.00  0.00     0.118 C 
BRANCH  20  21
ATOM     21  N   UNL A   1      32.446  33.792  27.404  1.00  0.00    -0.352 N 
ATOM     22  C   UNL A   1      33.050  34.490  28.415  1.00  0.00     0.251 C 
ATOM     23  H   UNL A   1      31.777  34.307  26.897  1.00  0.00     0.163 HD
ATOM     24  O   UNL A   1      32.590  35.587  28.749  1.00  0.00    -0.269 OA
BRANCH  22  25
ATOM     25  C   UNL A   1      34.231  33.955  29.123  1.00  0.00     0.039 A 
ATOM     26  C   UNL A   1      34.038  33.021  30.147  1.00  0.00     0.014 A 
ATOM     27  C   UNL A   1      35.520  34.400  28.824  1.00  0.00     0.014 A 
ATOM     28  C   UNL A   1      35.139  32.483  30.818  1.00  0.00     0.010 A 
ATOM     29  C   UNL A   1      36.621  33.807  29.437  1.00  0.00     0.010 A 
ATOM     30  C   UNL A   1      36.443  32.843  30.441  1.00  0.00    -0.014 A 
BRANCH  30  31
ATOM     31  C   UNL A   1      37.633  32.219  31.075  1.00  0.00     0.031 A 
ATOM     32  C   UNL A   1      38.409  31.155  30.349  1.00  0.00     0.074 A 
ATOM     33  C   UNL A   1      37.968  32.557  32.335  1.00  0.00     0.049 A 
ATOM     34  N   UNL A   1      39.413  30.428  30.771  1.00  0.00    -0.248 NA
ATOM     35  C   UNL A   1      37.981  30.846  28.976  1.00  0.00     0.031 C 
ATOM     36  C   UNL A   1      37.266  33.541  33.160  1.00  0.00     0.029 A 
ATOM     37  N   UNL A   1      38.972  32.098  33.150  1.00  0.00    -0.354 N 
ATOM     38  C   UNL A   1      39.724  29.568  29.726  1.00  0.00     0.074 A 
ATOM     39  C   UNL A   1      38.772  29.828  28.669  1.00  0.00     0.031 C 
ATOM     40  C   UNL A   1      37.870  33.625  34.355  1.00  0.00     0.029 A 
ATOM     41  C   UNL A   1      38.974  32.672  34.398  1.00  0.00     0.049 A 
ATOM     42  H   UNL A   1      39.630  31.422  32.866  1.00  0.00     0.167 HD
ATOM     43  C   UNL A   1      40.727  28.660  29.649  1.00  0.00     0.037 A 
ATOM     44  C   UNL A   1      39.768  32.444  35.462  1.00  0.00     0.037 A 
ATOM     45  C   UNL A   1      41.687  28.423  30.695  1.00  0.00     0.049 A 
ATOM     46  C   UNL A   1      40.867  31.423  35.352  1.00  0.00     0.074 A 
ATOM     47  C   UNL A   1      42.778  27.572  30.689  1.00  0.00     0.029 A 
ATOM     48  N   UNL A   1      41.669  29.039  31.939  1.00  0.00    -0.354 N 
ATOM     49  N   UNL A   1      41.195  30.666  34.334  1.00  0.00    -0.248 NA
ATOM     50  C   UNL A   1      41.710  31.229  36.540  1.00  0.00     0.031 C 
ATOM     51  C   UNL A   1      43.390  27.635  31.944  1.00  0.00     0.029 A 
ATOM     52  C   UNL A   1      42.715  28.567  32.716  1.00  0.00     0.049 A 
ATOM     53  H   UNL A   1      41.010  29.712  32.226  1.00  0.00     0.167 HD
ATOM     54  C   UNL A   1      42.296  29.928  34.746  1.00  0.00     0.074 A 
ATOM     55  C   UNL A   1      42.591  30.340  36.102  1.00  0.00     0.031 C 
ATOM     56  C   UNL A   1      43.001  28.994  34.061  1.00  0.00     0.037 A 
BRANCH  43  57
ATOM     57  C   UNL A   1      40.838  27.852  28.388  1.00  0.00     0.064 A 
ATOM     58  C   UNL A   1      41.601  28.293  27.296  1.00  0.00     0.173 A 
ATOM     59  C   UNL A   1      40.209  26.602  28.285  1.00  0.00     0.173 A 
ATOM     60  F   UNL A   1      42.215  29.485  27.338  1.00  0.00    -0.203 F 
ATOM     61  C   UNL A   1      41.704  27.528  26.137  1.00  0.00     0.198 A 
ATOM     62  C   UNL A   1      40.339  25.825  27.136  1.00  0.00     0.198 A 
ATOM     63  F   UNL A   1      39.473  26.129  29.301  1.00  0.00    -0.203 F 
ATOM     64  F   UNL A   1      42.396  27.994  25.088  1.00  0.00    -0.200 F 
ATOM     65  C   UNL A   1      41.079  26.292  26.060  1.00  0.00     0.200 A 
ATOM     66  F   UNL A   1      39.747  24.624  27.070  1.00  0.00    -0.200 F 
ATOM     67  F   UNL A   1      41.186  25.553  24.948  1.00  0.00    -0.200 F 
ENDBRANCH  43  57
BRANCH  44  68
ATOM     68  C   UNL A   1      39.562  33.212  36.718  1.00  0.00     0.064 A 
ATOM     69  C   UNL A   1      38.657  32.768  37.692  1.00  0.00     0.173 A 
ATOM     70  C   UNL A   1      40.259  34.403  36.969  1.00  0.00     0.173 A 
ATOM     71  F   UNL A   1      37.953  31.645  37.489  1.00  0.00    -0.203 F 
ATOM     72  C   UNL A   1      38.441  33.496  38.860  1.00  0.00     0.198 A 
ATOM     73  C   UNL A   1      40.064  35.116  38.150  1.00  0.00     0.198 A 
ATOM     74  F   UNL A   1      41.139  34.869  36.071  1.00  0.00    -0.203 F 
ATOM     75  F   UNL A   1      37.536  33.073  39.753  1.00  0.00    -0.200 F 
ATOM     76  C   UNL A   1      39.149  34.666  39.091  1.00  0.00     0.200 A 
ATOM     77  F   UNL A   1      40.760  36.237  38.377  1.00  0.00    -0.200 F 
ATOM     78  F   UNL A   1      38.944  35.364  40.217  1.00  0.00    -0.200 F 
ENDBRANCH  44  68
BRANCH  56  79
ATOM     79  C   UNL A   1      44.182  28.378  34.753  1.00  0.00     0.064 A 
ATOM     80  C   UNL A   1      45.458  28.959  34.692  1.00  0.00     0.173 A 
ATOM     81  C   UNL A   1      44.026  27.216  35.524  1.00  0.00     0.173 A 
ATOM     82  F   UNL A   1      45.663  30.061  33.955  1.00  0.00    -0.203 F 
ATOM     83  C   UNL A   1      46.538  28.384  35.356  1.00  0.00     0.198 A 
ATOM     84  C   UNL A   1      45.101  26.662  36.213  1.00  0.00     0.198 A 
ATOM     85  F   UNL A   1      42.826  26.626  35.621  1.00  0.00    -0.203 F 
ATOM     86  F   UNL A   1      47.758  28.929  35.245  1.00  0.00    -0.200 F 
ATOM     87  C   UNL A   1      46.357  27.242  36.122  1.00  0.00     0.200 A 
ATOM     88  F   UNL A   1      44.921  25.567  36.964  1.00  0.00    -0.200 F 
ATOM     89  F   UNL A   1      47.396  26.696  36.769  1.00  0.00    -0.200 F 
ENDBRANCH  56  79
ENDBRANCH  30  31
ENDBRANCH  22  25
ENDBRANCH  20  21
ENDBRANCH  19  20
ENDBRANCH   1  19
TORSDOF 16
ENDMDL
MODEL 3
REMARK VINA RESULT:     -10.4      4.101     10.397
REMARK SMILES C=CCN(CC(=O)NCCCNC(=O)c1ccc(-c2c3nc(c(-c4c(F)c(F)c(F)c(F)c4F)c4ccc([nH]4)c(-c4c(F)c(F)c(F)c(F)c4F)c4nc(c(-c5c(F)c(F)c(F)c(F)c5F)c5ccc2[nH]5)C=C4)C=C3)cc1)C(=O)NCC(C)C
REMARK SMILES IDX 9 1 8 2 6 3 7 4 5 6 4 7 3 8 2 9 1 10 78 11 79 12 80 13 81 15
REMARK SMILES IDX 82 16 83 17 84 18 10 19 11 20 12 21 13 22 14 24 15 25 16 26
REMARK SMILES IDX 77 27 17 28 76 29 18 30 19 31 20 32 70 33 21 34 75 35 69 36
REMARK SMILES IDX 71 37 22 38 74 39 68 40 67 41 23 43 55 44 35 45 54 46 36 47
REMARK SMILES IDX 39 48 53 49 72 50 37 51 38 52 52 54 73 55 40 56 24 57 25 58
REMARK SMILES IDX 33 59 26 60 27 61 31 62 34 63 28 64 29 65 32 66 30 67 56 68
REMARK SMILES IDX 57 69 65 70 58 71 59 72 63 73 66 74 60 75 61 76 64 77 62 78
REMARK SMILES IDX 41 79 42 80 50 81 43 82 44 83 48 84 51 85 45 86 46 87 49 88
REMARK SMILES IDX 47 89
REMARK H PARENT 8 5 80 14 12 23 71 42 39 53
REMARK Flexibility Score: inf
ROOT
ATOM      1  C   UNL A   1      35.185  32.377  30.466  1.00  0.00     0.117 C 
ENDROOT
BRANCH   1   2
ATOM      2  N   UNL A   1      34.391  32.378  31.674  1.00  0.00    -0.354 N 
ATOM      3  C   UNL A   1      34.310  33.330  32.646  1.00  0.00     0.239 C 
ATOM      4  O   UNL A   1      33.251  33.383  33.280  1.00  0.00    -0.273 OA
ATOM      5  H   UNL A   1      33.830  31.580  31.813  1.00  0.00     0.163 HD
BRANCH   3   6
ATOM      6  C   UNL A   1      35.393  34.402  32.847  1.00  0.00     0.221 C 
BRANCH   6   7
ATOM      7  N   UNL A   1      36.632  33.938  33.468  1.00  0.00    -0.312 N 
BRANCH   7   8
ATOM      8  C   UNL A   1      37.871  34.544  32.976  1.00  0.00     0.149 C 
BRANCH   8   9
ATOM      9  C   UNL A   1      38.101  34.216  31.530  1.00  0.00    -0.013 C 
ATOM     10  C   UNL A   1      39.196  34.608  30.861  1.00  0.00     0.006 C 
ENDBRANCH   8   9
ENDBRANCH   7   8
BRANCH   7  11
ATOM     11  C   UNL A   1      36.750  33.035  34.486  1.00  0.00     0.318 C 
ATOM     12  O   UNL A   1      36.430  33.328  35.644  1.00  0.00    -0.249 OA
ATOM     13  N   UNL A   1      37.215  31.785  34.347  1.00  0.00    -0.338 N 
ATOM     14  H   UNL A   1      37.183  31.316  35.212  1.00  0.00     0.165 HD
BRANCH  13  15
ATOM     15  C   UNL A   1      37.756  30.899  33.320  1.00  0.00     0.120 C 
BRANCH  15  16
ATOM     16  C   UNL A   1      38.937  30.073  33.863  1.00  0.00     0.002 C 
ATOM     17  C   UNL A   1      39.268  28.898  32.938  1.00  0.00     0.009 C 
ATOM     18  C   UNL A   1      40.185  30.941  34.031  1.00  0.00     0.009 C 
ENDBRANCH  15  16
ENDBRANCH  13  15
ENDBRANCH   7  11
ENDBRANCH   6   7
ENDBRANCH   3   6
ENDBRANCH   1   2
BRANCH   1  19
ATOM     19  C   UNL A   1      34.561  33.157  29.316  1.00  0.00     0.042 C 
BRANCH  19  20
ATOM     20  C   UNL A   1      34.794  32.545  27.938  1.00  0.00     0.118 C 
BRANCH  20  21
ATOM     21  N   UNL A   1      34.168  31.237  27.785  1.00  0.00    -0.352 N 
ATOM     22  C   UNL A   1      34.708  29.979  27.745  1.00  0.00     0.251 C 
ATOM     23  H   UNL A   1      33.187  31.261  27.693  1.00  0.00     0.163 HD
ATOM     24  O   UNL A   1      33.998  29.029  27.400  1.00  0.00    -0.269 OA
BRANCH  22  25
ATOM     25  C   UNL A   1      36.122  29.737  28.094  1.00  0.00     0.039 A 
ATOM     26  C   UNL A   1      36.434  29.304  29.388  1.00  0.00     0.014 A 
ATOM     27  C   UNL A   1      37.147  29.977  27.177  1.00  0.00     0.014 A 
ATOM     28  C   UNL A   1      37.762  29.047  29.737  1.00  0.00     0.010 A 
ATOM     29  C   UNL A   1      38.462  29.645  27.500  1.00  0.00     0.010 A 
ATOM     30  C   UNL A   1      38.784  29.177  28.783  1.00  0.00    -0.014 A 
BRANCH  30  31
ATOM     31  C   UNL A   1      40.190  28.822  29.101  1.00  0.00     0.031 A 
ATOM     32  C   UNL A   1      41.075  29.798  29.824  1.00  0.00     0.074 A 
ATOM     33  C   UNL A   1      40.692  27.648  28.669  1.00  0.00     0.049 A 
ATOM     34  N   UNL A   1      42.350  29.709  30.107  1.00  0.00    -0.248 NA
ATOM     35  C   UNL A   1      40.450  31.055  30.265  1.00  0.00     0.031 C 
ATOM     36  C   UNL A   1      39.947  26.637  27.917  1.00  0.00     0.029 A 
ATOM     37  N   UNL A   1      41.951  27.115  28.784  1.00  0.00    -0.354 N 
ATOM     38  C   UNL A   1      42.683  30.900  30.739  1.00  0.00     0.074 A 
ATOM     39  C   UNL A   1      41.488  31.716  30.756  1.00  0.00     0.031 C 
ATOM     40  C   UNL A   1      40.757  25.600  27.654  1.00  0.00     0.029 A 
ATOM     41  C   UNL A   1      42.087  25.889  28.179  1.00  0.00     0.049 A 
ATOM     42  H   UNL A   1      42.687  27.567  29.257  1.00  0.00     0.167 HD
ATOM     43  C   UNL A   1      43.871  31.269  31.276  1.00  0.00     0.037 A 
ATOM     44  C   UNL A   1      43.167  25.094  28.050  1.00  0.00     0.037 A 
ATOM     45  C   UNL A   1      45.050  30.443  31.279  1.00  0.00     0.049 A 
ATOM     46  C   UNL A   1      44.476  25.532  28.648  1.00  0.00     0.074 A 
ATOM     47  C   UNL A   1      46.282  30.699  31.854  1.00  0.00     0.029 A 
ATOM     48  N   UNL A   1      45.143  29.197  30.673  1.00  0.00    -0.354 N 
ATOM     49  N   UNL A   1      44.760  26.630  29.305  1.00  0.00    -0.248 NA
ATOM     50  C   UNL A   1      45.615  24.617  28.489  1.00  0.00     0.031 C 
ATOM     51  C   UNL A   1      47.136  29.633  31.554  1.00  0.00     0.029 A 
ATOM     52  C   UNL A   1      46.421  28.685  30.840  1.00  0.00     0.049 A 
ATOM     53  H   UNL A   1      44.410  28.745  30.196  1.00  0.00     0.167 HD
ATOM     54  C   UNL A   1      46.097  26.527  29.662  1.00  0.00     0.074 A 
ATOM     55  C   UNL A   1      46.565  25.252  29.162  1.00  0.00     0.031 C 
ATOM     56  C   UNL A   1      46.868  27.409  30.344  1.00  0.00     0.037 A 
BRANCH  43  57
ATOM     57  C   UNL A   1      43.956  32.629  31.908  1.00  0.00     0.064 A 
ATOM     58  C   UNL A   1      44.243  33.775  31.151  1.00  0.00     0.173 A 
ATOM     59  C   UNL A   1      43.706  32.795  33.279  1.00  0.00     0.173 A 
ATOM     60  F   UNL A   1      44.499  33.672  29.838  1.00  0.00    -0.203 F 
ATOM     61  C   UNL A   1      44.308  35.032  31.748  1.00  0.00     0.198 A 
ATOM     62  C   UNL A   1      43.742  34.057  33.867  1.00  0.00     0.198 A 
ATOM     63  F   UNL A   1      43.420  31.734  34.048  1.00  0.00    -0.203 F 
ATOM     64  F   UNL A   1      44.634  36.105  31.014  1.00  0.00    -0.200 F 
ATOM     65  C   UNL A   1      44.050  35.173  33.104  1.00  0.00     0.200 A 
ATOM     66  F   UNL A   1      43.477  34.193  35.174  1.00  0.00    -0.200 F 
ATOM     67  F   UNL A   1      44.105  36.383  33.676  1.00  0.00    -0.200 F 
ENDBRANCH  43  57
BRANCH  44  68
ATOM     68  C   UNL A   1      43.050  23.793  27.341  1.00  0.00     0.064 A 
ATOM     69  C   UNL A   1      43.419  23.674  25.994  1.00  0.00     0.173 A 
ATOM     70  C   UNL A   1      42.563  22.648  27.989  1.00  0.00     0.173 A 
ATOM     71  F   UNL A   1      43.871  24.745  25.326  1.00  0.00    -0.203 F 
ATOM     72  C   UNL A   1      43.288  22.463  25.316  1.00  0.00     0.198 A 
ATOM     73  C   UNL A   1      42.460  21.431  27.318  1.00  0.00     0.198 A 
ATOM     74  F   UNL A   1      42.200  22.709  29.278  1.00  0.00    -0.203 F 
ATOM     75  F   UNL A   1      43.606  22.388  24.016  1.00  0.00    -0.200 F 
ATOM     76  C   UNL A   1      42.814  21.342  25.981  1.00  0.00     0.200 A 
ATOM     77  F   UNL A   1      42.016  20.346  27.967  1.00  0.00    -0.200 F 
ATOM     78  F   UNL A   1      42.693  20.177  25.329  1.00  0.00    -0.200 F 
ENDBRANCH  44  68
BRANCH  56  79
ATOM     79  C   UNL A   1      48.289  27.011  30.622  1.00  0.00     0.064 A 
ATOM     80  C   UNL A   1      48.629  26.222  31.731  1.00  0.00     0.173 A 
ATOM     81  C   UNL A   1      49.316  27.388  29.744  1.00  0.00     0.173 A 
ATOM     82  F   UNL A   1      47.687  25.849  32.610  1.00  0.00    -0.203 F 
ATOM     83  C   UNL A   1      49.950  25.847  31.962  1.00  0.00     0.198 A 
ATOM     84  C   UNL A   1      50.630  26.985  29.960  1.00  0.00     0.198 A 
ATOM     85  F   UNL A   1      49.042  28.137  28.665  1.00  0.00    -0.203 F 
ATOM     86  F   UNL A   1      50.260  25.132  33.053  1.00  0.00    -0.200 F 
ATOM     87  C   UNL A   1      50.947  26.221  31.073  1.00  0.00     0.200 A 
ATOM     88  F   UNL A   1      51.589  27.335  29.093  1.00  0.00    -0.200 F 
ATOM     89  F   UNL A   1      52.216  25.849  31.292  1.00  0.00    -0.200 F 
ENDBRANCH  56  79
ENDBRANCH  30  31
ENDBRANCH  22  25
ENDBRANCH  20  21
ENDBRANCH  19  20
ENDBRANCH   1  19
TORSDOF 16
ENDMDL
