MODEL 1
REMARK VINA RESULT:     -12.2      0.000      0.000
REMARK SMILES O=C(NCCCNC(=O)C1(CC#Cc2ccccc2)CC1)c1ccc(-c2c3nc(c(-c4c(F)c(F)c(F)c(F)c4F)c4ccc([nH]4)c(-c4c(F)c(F)c(F)c(F)c4F)c4nc(c(-c5c(F)c(F)c(F)c(F)c5F)c5ccc2[nH]5)C=C4)C=C3)cc1
REMARK SMILES IDX 5 1 4 2 3 3 1 4 2 5 22 7 23 8 84 9 24 10 83 11 25 12 26 13
REMARK SMILES IDX 27 14 77 15 28 16 82 17 76 18 78 19 29 20 81 21 75 22 74 23
REMARK SMILES IDX 30 25 62 26 42 27 61 28 43 29 46 30 60 31 79 32 44 33 45 34
REMARK SMILES IDX 59 36 80 37 47 38 31 39 32 40 40 41 33 42 34 43 38 44 41 45
REMARK SMILES IDX 35 46 36 47 39 48 37 49 63 50 64 51 72 52 65 53 66 54 70 55
REMARK SMILES IDX 73 56 67 57 68 58 71 59 69 60 48 61 49 62 57 63 50 64 51 65
REMARK SMILES IDX 55 66 58 67 52 68 53 69 56 70 54 71 6 72 7 73 8 74 9 76
REMARK SMILES IDX 10 77 20 78 21 79 11 80 12 81 13 82 14 83 15 84 19 85 16 86
REMARK SMILES IDX 18 87 17 88
REMARK H PARENT 3 6 78 24 46 35 7 75
REMARK Flexibility Score: inf
ROOT
ATOM      1  C   UNL A   1      31.409  32.221  26.692  1.00  0.00     0.042 C 
ENDROOT
BRANCH   1   2
ATOM      2  C   UNL A   1      32.694  32.820  27.226  1.00  0.00     0.118 C 
BRANCH   2   3
ATOM      3  N   UNL A   1      32.521  34.210  27.640  1.00  0.00    -0.352 N 
ATOM      4  O   UNL A   1      32.639  35.980  29.039  1.00  0.00    -0.269 OA
ATOM      5  C   UNL A   1      33.081  34.889  28.696  1.00  0.00     0.251 C 
ATOM      6  H   UNL A   1      31.911  34.741  27.079  1.00  0.00     0.163 HD
BRANCH   5   7
ATOM      7  C   UNL A   1      34.215  34.283  29.418  1.00  0.00     0.039 A 
ATOM      8  C   UNL A   1      35.514  34.573  29.010  1.00  0.00     0.014 A 
ATOM      9  C   UNL A   1      33.993  33.412  30.488  1.00  0.00     0.014 A 
ATOM     10  C   UNL A   1      36.567  33.828  29.502  1.00  0.00     0.010 A 
ATOM     11  C   UNL A   1      35.082  32.790  31.106  1.00  0.00     0.010 A 
ATOM     12  C   UNL A   1      36.376  32.971  30.596  1.00  0.00    -0.014 A 
BRANCH  12  13
ATOM     13  C   UNL A   1      37.587  32.390  31.225  1.00  0.00     0.031 A 
ATOM     14  C   UNL A   1      38.019  32.767  32.611  1.00  0.00     0.074 A 
ATOM     15  C   UNL A   1      38.243  31.433  30.537  1.00  0.00     0.049 A 
ATOM     16  N   UNL A   1      39.009  32.284  33.318  1.00  0.00    -0.248 NA
ATOM     17  C   UNL A   1      37.258  33.826  33.291  1.00  0.00     0.031 C 
ATOM     18  C   UNL A   1      37.915  31.008  29.171  1.00  0.00     0.029 A 
ATOM     19  N   UNL A   1      39.279  30.613  30.894  1.00  0.00    -0.354 N 
ATOM     20  C   UNL A   1      38.999  32.982  34.518  1.00  0.00     0.074 A 
ATOM     21  C   UNL A   1      37.924  33.949  34.432  1.00  0.00     0.031 C 
ATOM     22  C   UNL A   1      38.669  29.954  28.841  1.00  0.00     0.029 A 
ATOM     23  C   UNL A   1      39.605  29.694  29.926  1.00  0.00     0.049 A 
ATOM     24  H   UNL A   1      39.744  30.674  31.759  1.00  0.00     0.167 HD
ATOM     25  C   UNL A   1      39.807  32.818  35.593  1.00  0.00     0.037 A 
ATOM     26  C   UNL A   1      40.571  28.760  29.896  1.00  0.00     0.037 A 
ATOM     27  C   UNL A   1      40.872  31.846  35.661  1.00  0.00     0.049 A 
ATOM     28  C   UNL A   1      41.462  28.622  31.094  1.00  0.00     0.074 A 
ATOM     29  C   UNL A   1      41.751  31.599  36.702  1.00  0.00     0.029 A 
ATOM     30  N   UNL A   1      41.203  30.961  34.643  1.00  0.00    -0.354 N 
ATOM     31  N   UNL A   1      41.430  29.281  32.227  1.00  0.00    -0.248 NA
ATOM     32  C   UNL A   1      42.525  27.616  31.008  1.00  0.00     0.031 C 
ATOM     33  C   UNL A   1      42.642  30.600  36.297  1.00  0.00     0.029 A 
ATOM     34  C   UNL A   1      42.283  30.180  35.027  1.00  0.00     0.049 A 
ATOM     35  H   UNL A   1      40.741  30.898  33.777  1.00  0.00     0.167 HD
ATOM     36  C   UNL A   1      42.464  28.765  32.993  1.00  0.00     0.074 A 
ATOM     37  C   UNL A   1      43.074  27.710  32.210  1.00  0.00     0.031 C 
ATOM     38  C   UNL A   1      42.881  29.139  34.228  1.00  0.00     0.037 A 
BRANCH  25  39
ATOM     39  C   UNL A   1      39.585  33.709  36.781  1.00  0.00     0.064 A 
ATOM     40  C   UNL A   1      38.761  33.324  37.848  1.00  0.00     0.173 A 
ATOM     41  C   UNL A   1      40.255  34.940  36.884  1.00  0.00     0.173 A 
ATOM     42  F   UNL A   1      38.087  32.164  37.797  1.00  0.00    -0.203 F 
ATOM     43  C   UNL A   1      38.601  34.142  38.965  1.00  0.00     0.198 A 
ATOM     44  C   UNL A   1      40.116  35.741  38.015  1.00  0.00     0.198 A 
ATOM     45  F   UNL A   1      41.059  35.357  35.896  1.00  0.00    -0.203 F 
ATOM     46  F   UNL A   1      37.778  33.769  39.955  1.00  0.00    -0.200 F 
ATOM     47  C   UNL A   1      39.286  35.344  39.051  1.00  0.00     0.200 A 
ATOM     48  F   UNL A   1      40.791  36.896  38.103  1.00  0.00    -0.200 F 
ATOM     49  F   UNL A   1      39.143  36.123  40.134  1.00  0.00    -0.200 F 
ENDBRANCH  25  39
BRANCH  26  50
ATOM     50  C   UNL A   1      40.762  27.926  28.681  1.00  0.00     0.064 A 
ATOM     51  C   UNL A   1      41.608  28.332  27.642  1.00  0.00     0.173 A 
ATOM     52  C   UNL A   1      40.095  26.699  28.536  1.00  0.00     0.173 A 
ATOM     53  F   UNL A   1      42.260  29.502  27.726  1.00  0.00    -0.203 F 
ATOM     54  C   UNL A   1      41.757  27.559  26.492  1.00  0.00     0.198 A 
ATOM     55  C   UNL A   1      40.276  25.907  27.406  1.00  0.00     0.198 A 
ATOM     56  F   UNL A   1      39.280  26.257  29.507  1.00  0.00    -0.203 F 
ATOM     57  F   UNL A   1      42.527  27.998  25.488  1.00  0.00    -0.200 F 
ATOM     58  C   UNL A   1      41.097  26.344  26.378  1.00  0.00     0.200 A 
ATOM     59  F   UNL A   1      39.657  24.723  27.315  1.00  0.00    -0.200 F 
ATOM     60  F   UNL A   1      41.245  25.598  25.276  1.00  0.00    -0.200 F 
ENDBRANCH  26  50
BRANCH  38  61
ATOM     61  C   UNL A   1      44.040  28.378  34.803  1.00  0.00     0.064 A 
ATOM     62  C   UNL A   1      43.853  27.200  35.542  1.00  0.00     0.173 A 
ATOM     63  C   UNL A   1      45.353  28.839  34.621  1.00  0.00     0.173 A 
ATOM     64  F   UNL A   1      42.615  26.728  35.760  1.00  0.00    -0.203 F 
ATOM     65  C   UNL A   1      44.932  26.538  36.118  1.00  0.00     0.198 A 
ATOM     66  C   UNL A   1      46.433  28.152  35.165  1.00  0.00     0.198 A 
ATOM     67  F   UNL A   1      45.587  29.956  33.916  1.00  0.00    -0.203 F 
ATOM     68  F   UNL A   1      44.723  25.458  36.882  1.00  0.00    -0.200 F 
ATOM     69  C   UNL A   1      46.221  27.011  35.925  1.00  0.00     0.200 A 
ATOM     70  F   UNL A   1      47.680  28.603  34.967  1.00  0.00    -0.200 F 
ATOM     71  F   UNL A   1      47.260  26.374  36.484  1.00  0.00    -0.200 F 
ENDBRANCH  38  61
ENDBRANCH  12  13
ENDBRANCH   5   7
ENDBRANCH   2   3
ENDBRANCH   1   2
BRANCH   1  72
ATOM     72  C   UNL A   1      31.644  30.866  26.053  1.00  0.00     0.117 C 
BRANCH  72  73
ATOM     73  N   UNL A   1      31.644  29.805  27.052  1.00  0.00    -0.356 N 
ATOM     74  C   UNL A   1      31.754  28.440  27.002  1.00  0.00     0.227 C 
ATOM     75  H   UNL A   1      31.543  30.146  27.970  1.00  0.00     0.163 HD
ATOM     76  O   UNL A   1      31.522  27.828  28.044  1.00  0.00    -0.274 OA
BRANCH  74  77
ATOM     77  C   UNL A   1      32.168  27.664  25.768  1.00  0.00     0.060 C 
ATOM     78  C   UNL A   1      33.388  28.142  24.985  1.00  0.00     0.019 C 
ATOM     79  C   UNL A   1      33.485  26.884  25.812  1.00  0.00     0.019 C 
BRANCH  77  80
ATOM     80  C   UNL A   1      30.963  27.119  24.950  1.00  0.00     0.106 C 
BRANCH  80  81
ATOM     81  C   UNL A   1      30.618  28.104  23.915  1.00  0.00    -0.097 C 
ATOM     82  C   UNL A   1      30.138  28.990  23.261  1.00  0.00    -0.067 C 
BRANCH  82  83
ATOM     83  C   UNL A   1      29.298  30.067  22.837  1.00  0.00     0.024 A 
ATOM     84  C   UNL A   1      28.804  30.076  21.527  1.00  0.00     0.017 A 
ATOM     85  C   UNL A   1      29.151  31.194  23.645  1.00  0.00     0.017 A 
ATOM     86  C   UNL A   1      28.172  31.214  21.025  1.00  0.00     0.001 A 
ATOM     87  C   UNL A   1      28.511  32.330  23.142  1.00  0.00     0.001 A 
ATOM     88  C   UNL A   1      28.027  32.340  21.833  1.00  0.00     0.000 A 
ENDBRANCH  82  83
ENDBRANCH  80  81
ENDBRANCH  77  80
ENDBRANCH  74  77
ENDBRANCH  72  73
ENDBRANCH   1  72
TORSDOF 13
ENDMDL
MODEL 2
REMARK VINA RESULT:     -12.2      6.441     11.832
REMARK SMILES O=C(NCCCNC(=O)C1(CC#Cc2ccccc2)CC1)c1ccc(-c2c3nc(c(-c4c(F)c(F)c(F)c(F)c4F)c4ccc([nH]4)c(-c4c(F)c(F)c(F)c(F)c4F)c4nc(c(-c5c(F)c(F)c(F)c(F)c5F)c5ccc2[nH]5)C=C4)C=C3)cc1
REMARK SMILES IDX 5 1 4 2 3 3 1 4 2 5 22 7 23 8 84 9 24 10 83 11 25 12 26 13
REMARK SMILES IDX 27 14 77 15 28 16 82 17 76 18 78 19 29 20 81 21 75 22 74 23
REMARK SMILES IDX 30 25 62 26 42 27 61 28 43 29 46 30 60 31 79 32 44 33 45 34
REMARK SMILES IDX 59 36 80 37 47 38 31 39 32 40 40 41 33 42 34 43 38 44 41 45
REMARK SMILES IDX 35 46 36 47 39 48 37 49 63 50 64 51 72 52 65 53 66 54 70 55
REMARK SMILES IDX 73 56 67 57 68 58 71 59 69 60 48 61 49 62 57 63 50 64 51 65
REMARK SMILES IDX 55 66 58 67 52 68 53 69 56 70 54 71 6 72 7 73 8 74 9 76
REMARK SMILES IDX 10 77 20 78 21 79 11 80 12 81 13 82 14 83 15 84 19 85 16 86
REMARK SMILES IDX 18 87 17 88
REMARK H PARENT 3 6 78 24 46 35 7 75
REMARK Flexibility Score: inf
ROOT
ATOM      1  C   UNL A   1      37.855  19.522  24.994  1.00  0.00     0.042 C 
ENDROOT
BRANCH   1   2
ATOM      2  C   UNL A   1      39.034  20.114  25.736  1.00  0.00     0.118 C 
BRANCH   2   3
ATOM      3  N   UNL A   1      40.164  19.190  25.800  1.00  0.00    -0.352 N 
ATOM      4  O   UNL A   1      42.337  18.576  25.758  1.00  0.00    -0.269 OA
ATOM      5  C   UNL A   1      41.503  19.448  25.973  1.00  0.00     0.251 C 
ATOM      6  H   UNL A   1      39.931  18.238  25.704  1.00  0.00     0.163 HD
BRANCH   5   7
ATOM      7  C   UNL A   1      41.923  20.792  26.412  1.00  0.00     0.039 A 
ATOM      8  C   UNL A   1      42.026  21.813  25.471  1.00  0.00     0.014 A 
ATOM      9  C   UNL A   1      42.235  21.037  27.752  1.00  0.00     0.014 A 
ATOM     10  C   UNL A   1      42.654  22.994  25.812  1.00  0.00     0.010 A 
ATOM     11  C   UNL A   1      42.706  22.298  28.129  1.00  0.00     0.010 A 
ATOM     12  C   UNL A   1      42.947  23.277  27.154  1.00  0.00    -0.014 A 
BRANCH  12  13
ATOM     13  C   UNL A   1      43.395  24.654  27.477  1.00  0.00     0.031 A 
ATOM     14  C   UNL A   1      44.775  25.137  27.146  1.00  0.00     0.074 A 
ATOM     15  C   UNL A   1      42.479  25.495  28.001  1.00  0.00     0.049 A 
ATOM     16  N   UNL A   1      45.280  26.336  27.299  1.00  0.00    -0.248 NA
ATOM     17  C   UNL A   1      45.718  24.158  26.587  1.00  0.00     0.031 C 
ATOM     18  C   UNL A   1      41.112  25.116  28.379  1.00  0.00     0.029 A 
ATOM     19  N   UNL A   1      42.530  26.837  28.262  1.00  0.00    -0.354 N 
ATOM     20  C   UNL A   1      46.596  26.256  26.865  1.00  0.00     0.074 A 
ATOM     21  C   UNL A   1      46.825  24.880  26.475  1.00  0.00     0.031 C 
ATOM     22  C   UNL A   1      40.431  26.210  28.737  1.00  0.00     0.029 A 
ATOM     23  C   UNL A   1      41.338  27.349  28.716  1.00  0.00     0.049 A 
ATOM     24  H   UNL A   1      43.339  27.383  28.137  1.00  0.00     0.167 HD
ATOM     25  C   UNL A   1      47.518  27.245  26.791  1.00  0.00     0.037 A 
ATOM     26  C   UNL A   1      41.012  28.594  29.103  1.00  0.00     0.037 A 
ATOM     27  C   UNL A   1      47.269  28.611  27.182  1.00  0.00     0.049 A 
ATOM     28  C   UNL A   1      42.065  29.659  29.030  1.00  0.00     0.074 A 
ATOM     29  C   UNL A   1      48.136  29.691  27.149  1.00  0.00     0.029 A 
ATOM     30  N   UNL A   1      46.063  29.086  27.680  1.00  0.00    -0.354 N 
ATOM     31  N   UNL A   1      43.302  29.569  28.604  1.00  0.00    -0.248 NA
ATOM     32  C   UNL A   1      41.680  30.995  29.495  1.00  0.00     0.031 C 
ATOM     33  C   UNL A   1      47.470  30.805  27.670  1.00  0.00     0.029 A 
ATOM     34  C   UNL A   1      46.169  30.438  27.973  1.00  0.00     0.049 A 
ATOM     35  H   UNL A   1      45.252  28.543  27.808  1.00  0.00     0.167 HD
ATOM     36  C   UNL A   1      43.842  30.839  28.743  1.00  0.00     0.074 A 
ATOM     37  C   UNL A   1      42.783  31.687  29.251  1.00  0.00     0.031 C 
ATOM     38  C   UNL A   1      45.104  31.262  28.487  1.00  0.00     0.037 A 
BRANCH  25  39
ATOM     39  C   UNL A   1      48.886  26.893  26.279  1.00  0.00     0.064 A 
ATOM     40  C   UNL A   1      49.876  26.369  27.123  1.00  0.00     0.173 A 
ATOM     41  C   UNL A   1      49.191  27.022  24.915  1.00  0.00     0.173 A 
ATOM     42  F   UNL A   1      49.642  26.236  28.438  1.00  0.00    -0.203 F 
ATOM     43  C   UNL A   1      51.126  26.004  26.626  1.00  0.00     0.198 A 
ATOM     44  C   UNL A   1      50.431  26.628  24.416  1.00  0.00     0.198 A 
ATOM     45  F   UNL A   1      48.281  27.512  24.061  1.00  0.00    -0.203 F 
ATOM     46  F   UNL A   1      52.068  25.542  27.458  1.00  0.00    -0.200 F 
ATOM     47  C   UNL A   1      51.398  26.125  25.271  1.00  0.00     0.200 A 
ATOM     48  F   UNL A   1      50.687  26.731  23.104  1.00  0.00    -0.200 F 
ATOM     49  F   UNL A   1      52.596  25.759  24.791  1.00  0.00    -0.200 F 
ENDBRANCH  25  39
BRANCH  26  50
ATOM     50  C   UNL A   1      39.651  28.877  29.628  1.00  0.00     0.064 A 
ATOM     51  C   UNL A   1      38.634  29.362  28.796  1.00  0.00     0.173 A 
ATOM     52  C   UNL A   1      39.341  28.667  30.982  1.00  0.00     0.173 A 
ATOM     53  F   UNL A   1      38.881  29.591  27.498  1.00  0.00    -0.203 F 
ATOM     54  C   UNL A   1      37.369  29.655  29.304  1.00  0.00     0.198 A 
ATOM     55  C   UNL A   1      38.066  28.920  31.479  1.00  0.00     0.198 A 
ATOM     56  F   UNL A   1      40.276  28.193  31.820  1.00  0.00    -0.203 F 
ATOM     57  F   UNL A   1      36.431  30.174  28.500  1.00  0.00    -0.200 F 
ATOM     58  C   UNL A   1      37.084  29.427  30.642  1.00  0.00     0.200 A 
ATOM     59  F   UNL A   1      37.791  28.672  32.765  1.00  0.00    -0.200 F 
ATOM     60  F   UNL A   1      35.867  29.703  31.128  1.00  0.00    -0.200 F 
ENDBRANCH  26  50
BRANCH  38  61
ATOM     61  C   UNL A   1      45.387  32.715  28.737  1.00  0.00     0.064 A 
ATOM     62  C   UNL A   1      45.825  33.175  29.988  1.00  0.00     0.173 A 
ATOM     63  C   UNL A   1      45.206  33.660  27.715  1.00  0.00     0.173 A 
ATOM     64  F   UNL A   1      45.994  32.314  31.004  1.00  0.00    -0.203 F 
ATOM     65  C   UNL A   1      46.026  34.532  30.221  1.00  0.00     0.198 A 
ATOM     66  C   UNL A   1      45.446  35.011  27.941  1.00  0.00     0.198 A 
ATOM     67  F   UNL A   1      44.796  33.272  26.499  1.00  0.00    -0.203 F 
ATOM     68  F   UNL A   1      46.371  34.955  31.444  1.00  0.00    -0.200 F 
ATOM     69  C   UNL A   1      45.841  35.448  29.197  1.00  0.00     0.200 A 
ATOM     70  F   UNL A   1      45.280  35.895  26.946  1.00  0.00    -0.200 F 
ATOM     71  F   UNL A   1      46.031  36.755  29.424  1.00  0.00    -0.200 F 
ENDBRANCH  38  61
ENDBRANCH  12  13
ENDBRANCH   5   7
ENDBRANCH   2   3
ENDBRANCH   1   2
BRANCH   1  72
ATOM     72  C   UNL A   1      36.655  20.449  25.015  1.00  0.00     0.117 C 
BRANCH  72  73
ATOM     73  N   UNL A   1      36.853  21.587  24.127  1.00  0.00    -0.356 N 
ATOM     74  C   UNL A   1      36.066  22.631  23.715  1.00  0.00     0.227 C 
ATOM     75  H   UNL A   1      37.755  21.612  23.735  1.00  0.00     0.163 HD
ATOM     76  O   UNL A   1      36.502  23.322  22.795  1.00  0.00    -0.274 OA
BRANCH  74  77
ATOM     77  C   UNL A   1      34.732  22.990  24.338  1.00  0.00     0.060 C 
ATOM     78  C   UNL A   1      34.619  22.986  25.861  1.00  0.00     0.019 C 
ATOM     79  C   UNL A   1      34.631  24.302  25.122  1.00  0.00     0.019 C 
BRANCH  77  80
ATOM     80  C   UNL A   1      33.512  22.465  23.530  1.00  0.00     0.106 C 
BRANCH  80  81
ATOM     81  C   UNL A   1      33.069  21.197  24.125  1.00  0.00    -0.097 C 
ATOM     82  C   UNL A   1      32.896  20.048  24.429  1.00  0.00    -0.067 C 
BRANCH  82  83
ATOM     83  C   UNL A   1      32.987  18.621  24.463  1.00  0.00     0.024 A 
ATOM     84  C   UNL A   1      32.583  17.936  25.615  1.00  0.00     0.017 A 
ATOM     85  C   UNL A   1      33.668  17.943  23.452  1.00  0.00     0.017 A 
ATOM     86  C   UNL A   1      32.867  16.578  25.758  1.00  0.00     0.001 A 
ATOM     87  C   UNL A   1      33.943  16.580  23.594  1.00  0.00     0.001 A 
ATOM     88  C   UNL A   1      33.547  15.902  24.747  1.00  0.00     0.000 A 
ENDBRANCH  82  83
ENDBRANCH  80  81
ENDBRANCH  77  80
ENDBRANCH  74  77
ENDBRANCH  72  73
ENDBRANCH   1  72
TORSDOF 13
ENDMDL
MODEL 3
REMARK VINA RESULT:     -12.2      0.280      1.662
REMARK SMILES O=C(NCCCNC(=O)C1(CC#Cc2ccccc2)CC1)c1ccc(-c2c3nc(c(-c4c(F)c(F)c(F)c(F)c4F)c4ccc([nH]4)c(-c4c(F)c(F)c(F)c(F)c4F)c4nc(c(-c5c(F)c(F)c(F)c(F)c5F)c5ccc2[nH]5)C=C4)C=C3)cc1
REMARK SMILES IDX 5 1 4 2 3 3 1 4 2 5 22 7 23 8 84 9 24 10 83 11 25 12 26 13
REMARK SMILES IDX 27 14 77 15 28 16 82 17 76 18 78 19 29 20 81 21 75 22 74 23
REMARK SMILES IDX 30 25 62 26 42 27 61 28 43 29 46 30 60 31 79 32 44 33 45 34
REMARK SMILES IDX 59 36 80 37 47 38 31 39 32 40 40 41 33 42 34 43 38 44 41 45
REMARK SMILES IDX 35 46 36 47 39 48 37 49 63 50 64 51 72 52 65 53 66 54 70 55
REMARK SMILES IDX 73 56 67 57 68 58 71 59 69 60 48 61 49 62 57 63 50 64 51 65
REMARK SMILES IDX 55 66 58 67 52 68 53 69 56 70 54 71 6 72 7 73 8 74 9 76
REMARK SMILES IDX 10 77 20 78 21 79 11 80 12 81 13 82 14 83 15 84 19 85 16 86
REMARK SMILES IDX 18 87 17 88
REMARK H PARENT 3 6 78 24 46 35 7 75
REMARK Flexibility Score: inf
ROOT
ATOM      1  C   UNL A   1      31.404  32.204  26.523  1.00  0.00     0.042 C 
ENDROOT
BRANCH   1   2
ATOM      2  C   UNL A   1      32.631  32.713  27.250  1.00  0.00     0.118 C 
BRANCH   2   3
ATOM      3  N   UNL A   1      32.505  34.122  27.619  1.00  0.00    -0.352 N 
ATOM      4  O   UNL A   1      32.720  35.938  28.944  1.00  0.00    -0.269 OA
ATOM      5  C   UNL A   1      33.124  34.826  28.624  1.00  0.00     0.251 C 
ATOM      6  H   UNL A   1      31.883  34.645  27.065  1.00  0.00     0.163 HD
BRANCH   5   7
ATOM      7  C   UNL A   1      34.275  34.222  29.320  1.00  0.00     0.039 A 
ATOM      8  C   UNL A   1      35.565  34.588  28.945  1.00  0.00     0.014 A 
ATOM      9  C   UNL A   1      34.079  33.278  30.331  1.00  0.00     0.014 A 
ATOM     10  C   UNL A   1      36.642  33.856  29.402  1.00  0.00     0.010 A 
ATOM     11  C   UNL A   1      35.186  32.662  30.922  1.00  0.00     0.010 A 
ATOM     12  C   UNL A   1      36.477  32.926  30.439  1.00  0.00    -0.014 A 
BRANCH  12  13
ATOM     13  C   UNL A   1      37.704  32.356  31.044  1.00  0.00     0.031 A 
ATOM     14  C   UNL A   1      38.159  32.736  32.422  1.00  0.00     0.074 A 
ATOM     15  C   UNL A   1      38.356  31.406  30.344  1.00  0.00     0.049 A 
ATOM     16  N   UNL A   1      39.167  32.261  33.111  1.00  0.00    -0.248 NA
ATOM     17  C   UNL A   1      37.402  33.787  33.117  1.00  0.00     0.031 C 
ATOM     18  C   UNL A   1      38.006  30.978  28.983  1.00  0.00     0.029 A 
ATOM     19  N   UNL A   1      39.406  30.595  30.680  1.00  0.00    -0.354 N 
ATOM     20  C   UNL A   1      39.172  32.958  34.311  1.00  0.00     0.074 A 
ATOM     21  C   UNL A   1      38.088  33.915  34.246  1.00  0.00     0.031 C 
ATOM     22  C   UNL A   1      38.764  29.931  28.638  1.00  0.00     0.029 A 
ATOM     23  C   UNL A   1      39.722  29.679  29.705  1.00  0.00     0.049 A 
ATOM     24  H   UNL A   1      39.887  30.659  31.536  1.00  0.00     0.167 HD
ATOM     25  C   UNL A   1      40.002  32.801  35.370  1.00  0.00     0.037 A 
ATOM     26  C   UNL A   1      40.695  28.754  29.657  1.00  0.00     0.037 A 
ATOM     27  C   UNL A   1      41.077  31.839  35.417  1.00  0.00     0.049 A 
ATOM     28  C   UNL A   1      41.611  28.623  30.837  1.00  0.00     0.074 A 
ATOM     29  C   UNL A   1      41.978  31.599  36.441  1.00  0.00     0.029 A 
ATOM     30  N   UNL A   1      41.397  30.958  34.393  1.00  0.00    -0.354 N 
ATOM     31  N   UNL A   1      41.594  29.281  31.971  1.00  0.00    -0.248 NA
ATOM     32  C   UNL A   1      42.681  27.627  30.731  1.00  0.00     0.031 C 
ATOM     33  C   UNL A   1      42.870  30.609  36.019  1.00  0.00     0.029 A 
ATOM     34  C   UNL A   1      42.491  30.185  34.756  1.00  0.00     0.049 A 
ATOM     35  H   UNL A   1      40.919  30.890  33.535  1.00  0.00     0.167 HD
ATOM     36  C   UNL A   1      42.647  28.774  32.717  1.00  0.00     0.074 A 
ATOM     37  C   UNL A   1      43.251  27.725  31.922  1.00  0.00     0.031 C 
ATOM     38  C   UNL A   1      43.083  29.151  33.944  1.00  0.00     0.037 A 
BRANCH  25  39
ATOM     39  C   UNL A   1      39.795  33.690  36.563  1.00  0.00     0.064 A 
ATOM     40  C   UNL A   1      40.406  34.948  36.659  1.00  0.00     0.173 A 
ATOM     41  C   UNL A   1      38.925  33.305  37.596  1.00  0.00     0.173 A 
ATOM     42  F   UNL A   1      41.257  35.361  35.706  1.00  0.00    -0.203 F 
ATOM     43  C   UNL A   1      40.168  35.782  37.750  1.00  0.00     0.198 A 
ATOM     44  C   UNL A   1      38.666  34.153  38.671  1.00  0.00     0.198 A 
ATOM     45  F   UNL A   1      38.310  32.114  37.554  1.00  0.00    -0.203 F 
ATOM     46  F   UNL A   1      40.793  36.964  37.838  1.00  0.00    -0.200 F 
ATOM     47  C   UNL A   1      39.291  35.387  38.750  1.00  0.00     0.200 A 
ATOM     48  F   UNL A   1      37.807  33.776  39.628  1.00  0.00    -0.200 F 
ATOM     49  F   UNL A   1      39.052  36.197  39.792  1.00  0.00    -0.200 F 
ENDBRANCH  25  39
BRANCH  26  50
ATOM     50  C   UNL A   1      40.871  27.922  28.438  1.00  0.00     0.064 A 
ATOM     51  C   UNL A   1      40.255  26.670  28.313  1.00  0.00     0.173 A 
ATOM     52  C   UNL A   1      41.664  28.368  27.368  1.00  0.00     0.173 A 
ATOM     53  F   UNL A   1      39.497  26.193  29.311  1.00  0.00    -0.203 F 
ATOM     54  C   UNL A   1      40.451  25.883  27.179  1.00  0.00     0.198 A 
ATOM     55  C   UNL A   1      41.824  27.600  26.218  1.00  0.00     0.198 A 
ATOM     56  F   UNL A   1      42.267  29.564  27.430  1.00  0.00    -0.203 F 
ATOM     57  F   UNL A   1      39.899  24.664  27.111  1.00  0.00    -0.200 F 
ATOM     58  C   UNL A   1      41.228  26.351  26.131  1.00  0.00     0.200 A 
ATOM     59  F   UNL A   1      42.555  28.069  25.199  1.00  0.00    -0.200 F 
ATOM     60  F   UNL A   1      41.411  25.597  25.039  1.00  0.00    -0.200 F 
ENDBRANCH  26  50
BRANCH  38  61
ATOM     61  C   UNL A   1      44.260  28.400  34.496  1.00  0.00     0.064 A 
ATOM     62  C   UNL A   1      44.097  27.218  35.236  1.00  0.00     0.173 A 
ATOM     63  C   UNL A   1      45.564  28.874  34.292  1.00  0.00     0.173 A 
ATOM     64  F   UNL A   1      42.868  26.734  35.475  1.00  0.00    -0.203 F 
ATOM     65  C   UNL A   1      45.193  26.565  35.791  1.00  0.00     0.198 A 
ATOM     66  C   UNL A   1      46.661  28.197  34.816  1.00  0.00     0.198 A 
ATOM     67  F   UNL A   1      45.775  29.995  33.586  1.00  0.00    -0.203 F 
ATOM     68  F   UNL A   1      45.008  25.482  36.556  1.00  0.00    -0.200 F 
ATOM     69  C   UNL A   1      46.474  27.052  35.576  1.00  0.00     0.200 A 
ATOM     70  F   UNL A   1      47.899  28.660  34.597  1.00  0.00    -0.200 F 
ATOM     71  F   UNL A   1      47.529  26.424  36.115  1.00  0.00    -0.200 F 
ENDBRANCH  38  61
ENDBRANCH  12  13
ENDBRANCH   5   7
ENDBRANCH   2   3
ENDBRANCH   1   2
BRANCH   1  72
ATOM     72  C   UNL A   1      31.629  30.819  25.946  1.00  0.00     0.117 C 
BRANCH  72  73
ATOM     73  N   UNL A   1      31.624  29.806  26.992  1.00  0.00    -0.356 N 
ATOM     74  C   UNL A   1      31.697  28.437  27.003  1.00  0.00     0.227 C 
ATOM     75  H   UNL A   1      31.553  30.190  27.895  1.00  0.00     0.163 HD
ATOM     76  O   UNL A   1      31.473  27.880  28.077  1.00  0.00    -0.274 OA
BRANCH  74  77
ATOM     77  C   UNL A   1      32.061  27.594  25.797  1.00  0.00     0.060 C 
ATOM     78  C   UNL A   1      33.229  28.045  24.923  1.00  0.00     0.019 C 
ATOM     79  C   UNL A   1      33.394  26.841  25.818  1.00  0.00     0.019 C 
BRANCH  77  80
ATOM     80  C   UNL A   1      30.827  26.980  25.079  1.00  0.00     0.106 C 
BRANCH  80  81
ATOM     81  C   UNL A   1      30.419  27.885  23.995  1.00  0.00    -0.097 C 
ATOM     82  C   UNL A   1      29.943  28.757  23.320  1.00  0.00    -0.067 C 
BRANCH  82  83
ATOM     83  C   UNL A   1      29.188  29.899  22.907  1.00  0.00     0.024 A 
ATOM     84  C   UNL A   1      28.673  29.946  21.605  1.00  0.00     0.017 A 
ATOM     85  C   UNL A   1      29.149  31.036  23.712  1.00  0.00     0.017 A 
ATOM     86  C   UNL A   1      28.130  31.131  21.110  1.00  0.00     0.001 A 
ATOM     87  C   UNL A   1      28.597  32.220  23.216  1.00  0.00     0.001 A 
ATOM     88  C   UNL A   1      28.093  32.267  21.916  1.00  0.00     0.000 A 
ENDBRANCH  82  83
ENDBRANCH  80  81
ENDBRANCH  77  80
ENDBRANCH  74  77
ENDBRANCH  72  73
ENDBRANCH   1  72
TORSDOF 13
ENDMDL
