MODEL 1
REMARK VINA RESULT:     -11.5      0.000      0.000
REMARK SMILES CCCCc1[nH]ncc1C(=O)NCCCNC(=O)c1ccc(-c2c3nc(c(-c4c(F)c(F)c(F)c(F)c4F)c4ccc([nH]4)c(-c4c(F)c(F)c(F)c(F)c4F)c4nc(c(-c5c(F)c(F)c(F)c(F)c5F)c5ccc2[nH]5)C=C4)C=C3)cc1
REMARK SMILES IDX 13 1 12 2 10 3 11 4 9 6 5 7 6 8 7 9 8 11 4 12 3 13 2 14 1 15
REMARK SMILES IDX 14 16 15 17 16 18 17 19 18 21 19 22 20 23 81 24 21 25 80 26
REMARK SMILES IDX 22 27 23 28 24 29 74 30 25 31 79 32 73 33 75 34 26 35 78 36
REMARK SMILES IDX 72 37 71 38 27 40 59 41 39 42 58 43 40 44 43 45 57 46 76 47
REMARK SMILES IDX 41 48 42 49 56 51 77 52 44 53 28 54 29 55 37 56 30 57 31 58
REMARK SMILES IDX 35 59 38 60 32 61 33 62 36 63 34 64 60 65 61 66 69 67 62 68
REMARK SMILES IDX 63 69 67 70 70 71 64 72 65 73 68 74 66 75 45 76 46 77 54 78
REMARK SMILES IDX 47 79 48 80 52 81 55 82 49 83 50 84 53 85 51 86
REMARK H PARENT 12 5 6 10 16 20 75 39 43 50
REMARK Flexibility Score: inf
ROOT
ATOM      1  C   UNL A   1      31.629  30.336  26.427  1.00  0.00     0.118 C 
ENDROOT
BRANCH   1   2
ATOM      2  N   UNL A   1      32.386  29.989  25.253  1.00  0.00    -0.352 N 
ATOM      3  C   UNL A   1      32.155  29.150  24.201  1.00  0.00     0.254 C 
ATOM      4  O   UNL A   1      33.024  29.188  23.323  1.00  0.00    -0.269 OA
ATOM      5  H   UNL A   1      33.252  30.455  25.196  1.00  0.00     0.163 HD
BRANCH   3   6
ATOM      6  C   UNL A   1      30.990  28.280  24.030  1.00  0.00     0.080 A 
ATOM      7  C   UNL A   1      29.774  28.298  23.344  1.00  0.00     0.048 A 
ATOM      8  N   UNL A   1      29.118  27.146  23.716  1.00  0.00    -0.282 N 
ATOM      9  N   UNL A   1      29.791  26.372  24.563  1.00  0.00    -0.183 NA
ATOM     10  H   UNL A   1      28.222  26.914  23.381  1.00  0.00     0.190 HD
ATOM     11  C   UNL A   1      30.913  27.057  24.767  1.00  0.00     0.149 A 
BRANCH   7  12
ATOM     12  C   UNL A   1      29.035  29.229  22.444  1.00  0.00     0.056 C 
BRANCH  12  13
ATOM     13  C   UNL A   1      27.671  29.665  23.002  1.00  0.00     0.006 C 
BRANCH  13  14
ATOM     14  C   UNL A   1      27.594  31.122  23.473  1.00  0.00    -0.003 C 
ATOM     15  C   UNL A   1      28.954  31.731  23.784  1.00  0.00     0.004 C 
ENDBRANCH  13  14
ENDBRANCH  12  13
ENDBRANCH   7  12
ENDBRANCH   3   6
ENDBRANCH   1   2
BRANCH   1  16
ATOM     16  C   UNL A   1      31.500  31.851  26.564  1.00  0.00     0.042 C 
BRANCH  16  17
ATOM     17  C   UNL A   1      32.704  32.503  27.219  1.00  0.00     0.118 C 
BRANCH  17  18
ATOM     18  N   UNL A   1      32.455  33.908  27.521  1.00  0.00    -0.352 N 
ATOM     19  C   UNL A   1      33.016  34.705  28.489  1.00  0.00     0.251 C 
ATOM     20  H   UNL A   1      31.788  34.350  26.948  1.00  0.00     0.163 HD
ATOM     21  O   UNL A   1      32.513  35.794  28.756  1.00  0.00    -0.269 OA
BRANCH  19  22
ATOM     22  C   UNL A   1      34.213  34.244  29.218  1.00  0.00     0.039 A 
ATOM     23  C   UNL A   1      34.062  33.520  30.405  1.00  0.00     0.014 A 
ATOM     24  C   UNL A   1      35.489  34.527  28.726  1.00  0.00     0.014 A 
ATOM     25  C   UNL A   1      35.190  33.019  31.059  1.00  0.00     0.010 A 
ATOM     26  C   UNL A   1      36.599  33.946  29.319  1.00  0.00     0.010 A 
ATOM     27  C   UNL A   1      36.463  33.196  30.498  1.00  0.00    -0.014 A 
BRANCH  27  28
ATOM     28  C   UNL A   1      37.692  32.647  31.122  1.00  0.00     0.031 A 
ATOM     29  C   UNL A   1      38.412  31.516  30.446  1.00  0.00     0.074 A 
ATOM     30  C   UNL A   1      38.077  33.071  32.339  1.00  0.00     0.049 A 
ATOM     31  N   UNL A   1      39.365  30.746  30.902  1.00  0.00    -0.248 NA
ATOM     32  C   UNL A   1      37.963  31.178  29.086  1.00  0.00     0.031 C 
ATOM     33  C   UNL A   1      37.433  34.135  33.108  1.00  0.00     0.029 A 
ATOM     34  N   UNL A   1      39.083  32.628  33.160  1.00  0.00    -0.354 N 
ATOM     35  C   UNL A   1      39.603  29.814  29.900  1.00  0.00     0.074 A 
ATOM     36  C   UNL A   1      38.653  30.077  28.841  1.00  0.00     0.031 C 
ATOM     37  C   UNL A   1      38.056  34.262  34.290  1.00  0.00     0.029 A 
ATOM     38  C   UNL A   1      39.107  33.252  34.383  1.00  0.00     0.049 A 
ATOM     39  H   UNL A   1      39.725  31.928  32.898  1.00  0.00     0.167 HD
ATOM     40  C   UNL A   1      40.544  28.841  29.859  1.00  0.00     0.037 A 
ATOM     41  C   UNL A   1      39.871  33.016  35.467  1.00  0.00     0.037 A 
ATOM     42  C   UNL A   1      41.494  28.605  30.913  1.00  0.00     0.049 A 
ATOM     43  C   UNL A   1      40.902  31.923  35.412  1.00  0.00     0.074 A 
ATOM     44  C   UNL A   1      42.526  27.686  30.956  1.00  0.00     0.029 A 
ATOM     45  N   UNL A   1      41.519  29.294  32.119  1.00  0.00    -0.354 N 
ATOM     46  N   UNL A   1      41.162  31.081  34.440  1.00  0.00    -0.248 NA
ATOM     47  C   UNL A   1      41.751  31.748  36.598  1.00  0.00     0.031 C 
ATOM     48  C   UNL A   1      43.138  27.778  32.210  1.00  0.00     0.029 A 
ATOM     49  C   UNL A   1      42.534  28.803  32.923  1.00  0.00     0.049 A 
ATOM     50  H   UNL A   1      40.906  30.023  32.366  1.00  0.00     0.167 HD
ATOM     51  C   UNL A   1      42.222  30.301  34.881  1.00  0.00     0.074 A 
ATOM     52  C   UNL A   1      42.558  30.770  36.210  1.00  0.00     0.031 C 
ATOM     53  C   UNL A   1      42.864  29.294  34.238  1.00  0.00     0.037 A 
BRANCH  40  54
ATOM     54  C   UNL A   1      40.573  27.960  28.641  1.00  0.00     0.064 A 
ATOM     55  C   UNL A   1      39.880  26.740  28.592  1.00  0.00     0.173 A 
ATOM     56  C   UNL A   1      41.317  28.333  27.512  1.00  0.00     0.173 A 
ATOM     57  F   UNL A   1      39.160  26.329  29.648  1.00  0.00    -0.203 F 
ATOM     58  C   UNL A   1      39.976  25.902  27.483  1.00  0.00     0.198 A 
ATOM     59  C   UNL A   1      41.377  27.513  26.388  1.00  0.00     0.198 A 
ATOM     60  F   UNL A   1      41.993  29.491  27.497  1.00  0.00    -0.203 F 
ATOM     61  F   UNL A   1      39.372  24.707  27.496  1.00  0.00    -0.200 F 
ATOM     62  C   UNL A   1      40.721  26.291  26.381  1.00  0.00     0.200 A 
ATOM     63  F   UNL A   1      42.084  27.897  25.316  1.00  0.00    -0.200 F 
ATOM     64  F   UNL A   1      40.817  25.482  25.317  1.00  0.00    -0.200 F 
ENDBRANCH  40  54
BRANCH  41  65
ATOM     65  C   UNL A   1      39.682  33.845  36.687  1.00  0.00     0.064 A 
ATOM     66  C   UNL A   1      40.298  35.098  36.809  1.00  0.00     0.173 A 
ATOM     67  C   UNL A   1      38.850  33.422  37.734  1.00  0.00     0.173 A 
ATOM     68  F   UNL A   1      41.116  35.539  35.842  1.00  0.00    -0.203 F 
ATOM     69  C   UNL A   1      40.096  35.892  37.936  1.00  0.00     0.198 A 
ATOM     70  C   UNL A   1      38.625  34.230  38.847  1.00  0.00     0.198 A 
ATOM     71  F   UNL A   1      38.228  32.236  37.660  1.00  0.00    -0.203 F 
ATOM     72  F   UNL A   1      40.721  37.073  38.041  1.00  0.00    -0.200 F 
ATOM     73  C   UNL A   1      39.253  35.462  38.950  1.00  0.00     0.200 A 
ATOM     74  F   UNL A   1      37.793  33.819  39.814  1.00  0.00    -0.200 F 
ATOM     75  F   UNL A   1      39.044  36.235  40.024  1.00  0.00    -0.200 F 
ENDBRANCH  41  65
BRANCH  53  76
ATOM     76  C   UNL A   1      44.033  28.656  34.931  1.00  0.00     0.064 A 
ATOM     77  C   UNL A   1      45.332  29.172  34.820  1.00  0.00     0.173 A 
ATOM     78  C   UNL A   1      43.828  27.566  35.791  1.00  0.00     0.173 A 
ATOM     79  F   UNL A   1      45.583  30.202  33.999  1.00  0.00    -0.203 F 
ATOM     80  C   UNL A   1      46.385  28.613  35.540  1.00  0.00     0.198 A 
ATOM     81  C   UNL A   1      44.876  27.031  36.534  1.00  0.00     0.198 A 
ATOM     82  F   UNL A   1      42.602  27.041  35.936  1.00  0.00    -0.203 F 
ATOM     83  F   UNL A   1      47.625  29.101  35.397  1.00  0.00    -0.200 F 
ATOM     84  C   UNL A   1      46.154  27.553  36.405  1.00  0.00     0.200 A 
ATOM     85  F   UNL A   1      44.647  26.020  37.381  1.00  0.00    -0.200 F 
ATOM     86  F   UNL A   1      47.165  27.034  37.116  1.00  0.00    -0.200 F 
ENDBRANCH  53  76
ENDBRANCH  27  28
ENDBRANCH  19  22
ENDBRANCH  17  18
ENDBRANCH  16  17
ENDBRANCH   1  16
TORSDOF 13
ENDMDL
MODEL 2
REMARK VINA RESULT:     -11.5      5.152      9.986
REMARK SMILES CCCCc1[nH]ncc1C(=O)NCCCNC(=O)c1ccc(-c2c3nc(c(-c4c(F)c(F)c(F)c(F)c4F)c4ccc([nH]4)c(-c4c(F)c(F)c(F)c(F)c4F)c4nc(c(-c5c(F)c(F)c(F)c(F)c5F)c5ccc2[nH]5)C=C4)C=C3)cc1
REMARK SMILES IDX 13 1 12 2 10 3 11 4 9 6 5 7 6 8 7 9 8 11 4 12 3 13 2 14 1 15
REMARK SMILES IDX 14 16 15 17 16 18 17 19 18 21 19 22 20 23 81 24 21 25 80 26
REMARK SMILES IDX 22 27 23 28 24 29 74 30 25 31 79 32 73 33 75 34 26 35 78 36
REMARK SMILES IDX 72 37 71 38 27 40 59 41 39 42 58 43 40 44 43 45 57 46 76 47
REMARK SMILES IDX 41 48 42 49 56 51 77 52 44 53 28 54 29 55 37 56 30 57 31 58
REMARK SMILES IDX 35 59 38 60 32 61 33 62 36 63 34 64 60 65 61 66 69 67 62 68
REMARK SMILES IDX 63 69 67 70 70 71 64 72 65 73 68 74 66 75 45 76 46 77 54 78
REMARK SMILES IDX 47 79 48 80 52 81 55 82 49 83 50 84 53 85 51 86
REMARK H PARENT 12 5 6 10 16 20 75 39 43 50
REMARK Flexibility Score: inf
ROOT
ATOM      1  C   UNL A   1      42.591  21.085  26.990  1.00  0.00     0.118 C 
ENDROOT
BRANCH   1   2
ATOM      2  N   UNL A   1      42.687  19.803  26.343  1.00  0.00    -0.352 N 
ATOM      3  C   UNL A   1      43.629  19.223  25.542  1.00  0.00     0.254 C 
ATOM      4  O   UNL A   1      43.388  18.048  25.247  1.00  0.00    -0.269 OA
ATOM      5  H   UNL A   1      41.911  19.221  26.514  1.00  0.00     0.163 HD
BRANCH   3   6
ATOM      6  C   UNL A   1      44.860  19.852  25.062  1.00  0.00     0.080 A 
ATOM      7  C   UNL A   1      45.237  21.024  24.402  1.00  0.00     0.048 A 
ATOM      8  N   UNL A   1      46.594  20.917  24.197  1.00  0.00    -0.282 N 
ATOM      9  N   UNL A   1      47.142  19.801  24.670  1.00  0.00    -0.183 NA
ATOM     10  H   UNL A   1      47.118  21.613  23.737  1.00  0.00     0.190 HD
ATOM     11  C   UNL A   1      46.100  19.149  25.178  1.00  0.00     0.149 A 
BRANCH   7  12
ATOM     12  C   UNL A   1      44.567  22.229  23.835  1.00  0.00     0.056 C 
BRANCH  12  13
ATOM     13  C   UNL A   1      44.938  23.533  24.559  1.00  0.00     0.006 C 
BRANCH  13  14
ATOM     14  C   UNL A   1      43.752  24.334  25.108  1.00  0.00    -0.003 C 
ATOM     15  C   UNL A   1      44.038  25.822  25.251  1.00  0.00     0.004 C 
ENDBRANCH  13  14
ENDBRANCH  12  13
ENDBRANCH   7  12
ENDBRANCH   3   6
ENDBRANCH   1   2
BRANCH   1  16
ATOM     16  C   UNL A   1      41.491  21.934  26.357  1.00  0.00     0.042 C 
BRANCH  16  17
ATOM     17  C   UNL A   1      40.092  21.522  26.781  1.00  0.00     0.118 C 
BRANCH  17  18
ATOM     18  N   UNL A   1      39.079  22.055  25.877  1.00  0.00    -0.352 N 
ATOM     19  C   UNL A   1      38.514  23.306  25.842  1.00  0.00     0.251 C 
ATOM     20  H   UNL A   1      38.752  21.427  25.194  1.00  0.00     0.163 HD
ATOM     21  O   UNL A   1      37.504  23.506  25.171  1.00  0.00    -0.269 OA
BRANCH  19  22
ATOM     22  C   UNL A   1      39.112  24.407  26.622  1.00  0.00     0.039 A 
ATOM     23  C   UNL A   1      39.968  25.315  25.991  1.00  0.00     0.014 A 
ATOM     24  C   UNL A   1      38.825  24.542  27.982  1.00  0.00     0.014 A 
ATOM     25  C   UNL A   1      40.478  26.399  26.708  1.00  0.00     0.010 A 
ATOM     26  C   UNL A   1      39.249  25.671  28.665  1.00  0.00     0.010 A 
ATOM     27  C   UNL A   1      40.090  26.606  28.039  1.00  0.00    -0.014 A 
BRANCH  27  28
ATOM     28  C   UNL A   1      40.561  27.764  28.836  1.00  0.00     0.031 A 
ATOM     29  C   UNL A   1      41.914  27.703  29.486  1.00  0.00     0.074 A 
ATOM     30  C   UNL A   1      39.733  28.796  29.081  1.00  0.00     0.049 A 
ATOM     31  N   UNL A   1      42.439  28.488  30.390  1.00  0.00    -0.248 NA
ATOM     32  C   UNL A   1      42.773  26.573  29.096  1.00  0.00     0.031 C 
ATOM     33  C   UNL A   1      38.384  28.946  28.536  1.00  0.00     0.029 A 
ATOM     34  N   UNL A   1      39.893  29.897  29.883  1.00  0.00    -0.354 N 
ATOM     35  C   UNL A   1      43.672  27.928  30.699  1.00  0.00     0.074 A 
ATOM     36  C   UNL A   1      43.787  26.706  29.935  1.00  0.00     0.031 C 
ATOM     37  C   UNL A   1      37.838  30.071  29.022  1.00  0.00     0.029 A 
ATOM     38  C   UNL A   1      38.776  30.692  29.952  1.00  0.00     0.049 A 
ATOM     39  H   UNL A   1      40.729  30.097  30.364  1.00  0.00     0.167 HD
ATOM     40  C   UNL A   1      44.629  28.404  31.531  1.00  0.00     0.037 A 
ATOM     41  C   UNL A   1      38.526  31.781  30.705  1.00  0.00     0.037 A 
ATOM     42  C   UNL A   1      44.506  29.632  32.270  1.00  0.00     0.049 A 
ATOM     43  C   UNL A   1      39.594  32.289  31.634  1.00  0.00     0.074 A 
ATOM     44  C   UNL A   1      45.433  30.238  33.097  1.00  0.00     0.029 A 
ATOM     45  N   UNL A   1      43.376  30.438  32.275  1.00  0.00    -0.354 N 
ATOM     46  N   UNL A   1      40.780  31.788  31.881  1.00  0.00    -0.248 NA
ATOM     47  C   UNL A   1      39.294  33.515  32.385  1.00  0.00     0.031 C 
ATOM     48  C   UNL A   1      44.843  31.380  33.648  1.00  0.00     0.029 A 
ATOM     49  C   UNL A   1      43.573  31.524  33.110  1.00  0.00     0.049 A 
ATOM     50  H   UNL A   1      42.554  30.262  31.760  1.00  0.00     0.167 HD
ATOM     51  C   UNL A   1      41.382  32.651  32.787  1.00  0.00     0.074 A 
ATOM     52  C   UNL A   1      40.427  33.710  33.047  1.00  0.00     0.031 C 
ATOM     53  C   UNL A   1      42.615  32.577  33.344  1.00  0.00     0.037 A 
BRANCH  40  54
ATOM     54  C   UNL A   1      45.878  27.581  31.687  1.00  0.00     0.064 A 
ATOM     55  C   UNL A   1      47.003  27.778  30.871  1.00  0.00     0.173 A 
ATOM     56  C   UNL A   1      45.945  26.570  32.657  1.00  0.00     0.173 A 
ATOM     57  F   UNL A   1      46.990  28.725  29.919  1.00  0.00    -0.203 F 
ATOM     58  C   UNL A   1      48.124  26.959  30.981  1.00  0.00     0.198 A 
ATOM     59  C   UNL A   1      47.084  25.780  32.793  1.00  0.00     0.198 A 
ATOM     60  F   UNL A   1      44.905  26.341  33.471  1.00  0.00    -0.203 F 
ATOM     61  F   UNL A   1      49.151  27.115  30.135  1.00  0.00    -0.200 F 
ATOM     62  C   UNL A   1      48.165  25.963  31.944  1.00  0.00     0.200 A 
ATOM     63  F   UNL A   1      47.130  24.829  33.736  1.00  0.00    -0.200 F 
ATOM     64  F   UNL A   1      49.243  25.173  32.046  1.00  0.00    -0.200 F 
ENDBRANCH  40  54
BRANCH  41  65
ATOM     65  C   UNL A   1      37.207  32.458  30.594  1.00  0.00     0.064 A 
ATOM     66  C   UNL A   1      36.209  32.252  31.556  1.00  0.00     0.173 A 
ATOM     67  C   UNL A   1      36.933  33.355  29.550  1.00  0.00     0.173 A 
ATOM     68  F   UNL A   1      36.417  31.392  32.563  1.00  0.00    -0.203 F 
ATOM     69  C   UNL A   1      34.984  32.911  31.474  1.00  0.00     0.198 A 
ATOM     70  C   UNL A   1      35.719  34.036  29.486  1.00  0.00     0.198 A 
ATOM     71  F   UNL A   1      37.859  33.595  28.611  1.00  0.00    -0.203 F 
ATOM     72  F   UNL A   1      34.036  32.674  32.391  1.00  0.00    -0.200 F 
ATOM     73  C   UNL A   1      34.743  33.809  30.445  1.00  0.00     0.200 A 
ATOM     74  F   UNL A   1      35.499  34.918  28.502  1.00  0.00    -0.200 F 
ATOM     75  F   UNL A   1      33.572  34.457  30.378  1.00  0.00    -0.200 F 
ENDBRANCH  41  65
BRANCH  53  76
ATOM     76  C   UNL A   1      43.039  33.695  34.253  1.00  0.00     0.064 A 
ATOM     77  C   UNL A   1      43.639  34.863  33.762  1.00  0.00     0.173 A 
ATOM     78  C   UNL A   1      42.755  33.627  35.626  1.00  0.00     0.173 A 
ATOM     79  F   UNL A   1      43.945  34.970  32.461  1.00  0.00    -0.203 F 
ATOM     80  C   UNL A   1      43.946  35.920  34.615  1.00  0.00     0.198 A 
ATOM     81  C   UNL A   1      43.033  34.698  36.470  1.00  0.00     0.198 A 
ATOM     82  F   UNL A   1      42.176  32.533  36.143  1.00  0.00    -0.203 F 
ATOM     83  F   UNL A   1      44.546  37.016  34.132  1.00  0.00    -0.200 F 
ATOM     84  C   UNL A   1      43.630  35.842  35.964  1.00  0.00     0.200 A 
ATOM     85  F   UNL A   1      42.711  34.627  37.768  1.00  0.00    -0.200 F 
ATOM     86  F   UNL A   1      43.903  36.871  36.778  1.00  0.00    -0.200 F 
ENDBRANCH  53  76
ENDBRANCH  27  28
ENDBRANCH  19  22
ENDBRANCH  17  18
ENDBRANCH  16  17
ENDBRANCH   1  16
TORSDOF 13
ENDMDL
MODEL 3
REMARK VINA RESULT:     -11.4      5.133      9.873
REMARK SMILES CCCCc1[nH]ncc1C(=O)NCCCNC(=O)c1ccc(-c2c3nc(c(-c4c(F)c(F)c(F)c(F)c4F)c4ccc([nH]4)c(-c4c(F)c(F)c(F)c(F)c4F)c4nc(c(-c5c(F)c(F)c(F)c(F)c5F)c5ccc2[nH]5)C=C4)C=C3)cc1
REMARK SMILES IDX 13 1 12 2 10 3 11 4 9 6 5 7 6 8 7 9 8 11 4 12 3 13 2 14 1 15
REMARK SMILES IDX 14 16 15 17 16 18 17 19 18 21 19 22 20 23 81 24 21 25 80 26
REMARK SMILES IDX 22 27 23 28 24 29 74 30 25 31 79 32 73 33 75 34 26 35 78 36
REMARK SMILES IDX 72 37 71 38 27 40 59 41 39 42 58 43 40 44 43 45 57 46 76 47
REMARK SMILES IDX 41 48 42 49 56 51 77 52 44 53 28 54 29 55 37 56 30 57 31 58
REMARK SMILES IDX 35 59 38 60 32 61 33 62 36 63 34 64 60 65 61 66 69 67 62 68
REMARK SMILES IDX 63 69 67 70 70 71 64 72 65 73 68 74 66 75 45 76 46 77 54 78
REMARK SMILES IDX 47 79 48 80 52 81 55 82 49 83 50 84 53 85 51 86
REMARK H PARENT 12 5 6 10 16 20 75 39 43 50
REMARK Flexibility Score: inf
ROOT
ATOM      1  C   UNL A   1      42.558  21.042  26.950  1.00  0.00     0.118 C 
ENDROOT
BRANCH   1   2
ATOM      2  N   UNL A   1      42.680  19.752  26.323  1.00  0.00    -0.352 N 
ATOM      3  C   UNL A   1      43.640  19.173  25.544  1.00  0.00     0.254 C 
ATOM      4  O   UNL A   1      43.419  17.990  25.263  1.00  0.00    -0.269 OA
ATOM      5  H   UNL A   1      41.909  19.162  26.492  1.00  0.00     0.163 HD
BRANCH   3   6
ATOM      6  C   UNL A   1      44.870  19.812  25.072  1.00  0.00     0.080 A 
ATOM      7  C   UNL A   1      45.246  20.999  24.441  1.00  0.00     0.048 A 
ATOM      8  N   UNL A   1      46.601  20.894  24.224  1.00  0.00    -0.282 N 
ATOM      9  N   UNL A   1      47.149  19.764  24.662  1.00  0.00    -0.183 NA
ATOM     10  H   UNL A   1      47.123  21.601  23.779  1.00  0.00     0.190 HD
ATOM     11  C   UNL A   1      46.108  19.102  25.160  1.00  0.00     0.149 A 
BRANCH   7  12
ATOM     12  C   UNL A   1      44.576  22.222  23.912  1.00  0.00     0.056 C 
BRANCH  12  13
ATOM     13  C   UNL A   1      45.133  23.528  24.499  1.00  0.00     0.006 C 
BRANCH  13  14
ATOM     14  C   UNL A   1      44.676  23.849  25.927  1.00  0.00    -0.003 C 
ATOM     15  C   UNL A   1      44.007  25.210  26.059  1.00  0.00     0.004 C 
ENDBRANCH  13  14
ENDBRANCH  12  13
ENDBRANCH   7  12
ENDBRANCH   3   6
ENDBRANCH   1   2
BRANCH   1  16
ATOM     16  C   UNL A   1      41.492  21.886  26.257  1.00  0.00     0.042 C 
BRANCH  16  17
ATOM     17  C   UNL A   1      40.086  21.618  26.764  1.00  0.00     0.118 C 
BRANCH  17  18
ATOM     18  N   UNL A   1      39.078  22.183  25.874  1.00  0.00    -0.352 N 
ATOM     19  C   UNL A   1      38.518  23.437  25.876  1.00  0.00     0.251 C 
ATOM     20  H   UNL A   1      38.750  21.577  25.171  1.00  0.00     0.163 HD
ATOM     21  O   UNL A   1      37.511  23.661  25.209  1.00  0.00    -0.269 OA
BRANCH  19  22
ATOM     22  C   UNL A   1      39.119  24.510  26.692  1.00  0.00     0.039 A 
ATOM     23  C   UNL A   1      40.012  25.408  26.099  1.00  0.00     0.014 A 
ATOM     24  C   UNL A   1      38.797  24.629  28.045  1.00  0.00     0.014 A 
ATOM     25  C   UNL A   1      40.525  26.469  26.849  1.00  0.00     0.010 A 
ATOM     26  C   UNL A   1      39.227  25.736  28.759  1.00  0.00     0.010 A 
ATOM     27  C   UNL A   1      40.105  26.662  28.173  1.00  0.00    -0.014 A 
BRANCH  27  28
ATOM     28  C   UNL A   1      40.580  27.795  29.003  1.00  0.00     0.031 A 
ATOM     29  C   UNL A   1      41.916  27.696  29.682  1.00  0.00     0.074 A 
ATOM     30  C   UNL A   1      39.766  28.839  29.248  1.00  0.00     0.049 A 
ATOM     31  N   UNL A   1      42.435  28.453  30.613  1.00  0.00    -0.248 NA
ATOM     32  C   UNL A   1      42.762  26.557  29.290  1.00  0.00     0.031 C 
ATOM     33  C   UNL A   1      38.433  29.025  28.675  1.00  0.00     0.029 A 
ATOM     34  N   UNL A   1      39.929  29.921  30.075  1.00  0.00    -0.354 N 
ATOM     35  C   UNL A   1      43.649  27.864  30.939  1.00  0.00     0.074 A 
ATOM     36  C   UNL A   1      43.759  26.654  30.154  1.00  0.00     0.031 C 
ATOM     37  C   UNL A   1      37.897  30.151  29.170  1.00  0.00     0.029 A 
ATOM     38  C   UNL A   1      38.825  30.736  30.134  1.00  0.00     0.049 A 
ATOM     39  H   UNL A   1      40.757  30.096  30.579  1.00  0.00     0.167 HD
ATOM     40  C   UNL A   1      44.596  28.305  31.802  1.00  0.00     0.037 A 
ATOM     41  C   UNL A   1      38.579  31.815  30.901  1.00  0.00     0.037 A 
ATOM     42  C   UNL A   1      44.479  29.521  32.561  1.00  0.00     0.049 A 
ATOM     43  C   UNL A   1      39.634  32.285  31.865  1.00  0.00     0.074 A 
ATOM     44  C   UNL A   1      45.398  30.094  33.421  1.00  0.00     0.029 A 
ATOM     45  N   UNL A   1      43.364  30.349  32.556  1.00  0.00    -0.354 N 
ATOM     46  N   UNL A   1      40.805  31.756  32.129  1.00  0.00    -0.248 NA
ATOM     47  C   UNL A   1      39.341  33.503  32.632  1.00  0.00     0.031 C 
ATOM     48  C   UNL A   1      44.816  31.236  33.980  1.00  0.00     0.029 A 
ATOM     49  C   UNL A   1      43.562  31.415  33.416  1.00  0.00     0.049 A 
ATOM     50  H   UNL A   1      42.551  30.199  32.020  1.00  0.00     0.167 HD
ATOM     51  C   UNL A   1      41.401  32.590  33.065  1.00  0.00     0.074 A 
ATOM     52  C   UNL A   1      40.461  33.663  33.323  1.00  0.00     0.031 C 
ATOM     53  C   UNL A   1      42.619  32.482  33.648  1.00  0.00     0.037 A 
BRANCH  40  54
ATOM     54  C   UNL A   1      45.824  27.456  31.970  1.00  0.00     0.064 A 
ATOM     55  C   UNL A   1      45.882  26.414  32.909  1.00  0.00     0.173 A 
ATOM     56  C   UNL A   1      46.967  27.696  31.193  1.00  0.00     0.173 A 
ATOM     57  F   UNL A   1      44.821  26.145  33.687  1.00  0.00    -0.203 F 
ATOM     58  C   UNL A   1      47.052  25.683  33.103  1.00  0.00     0.198 A 
ATOM     59  C   UNL A   1      48.122  26.937  31.359  1.00  0.00     0.198 A 
ATOM     60  F   UNL A   1      46.969  28.673  30.274  1.00  0.00    -0.203 F 
ATOM     61  F   UNL A   1      47.106  24.750  34.062  1.00  0.00    -0.200 F 
ATOM     62  C   UNL A   1      48.170  25.943  32.325  1.00  0.00     0.200 A 
ATOM     63  F   UNL A   1      49.197  27.177  30.595  1.00  0.00    -0.200 F 
ATOM     64  F   UNL A   1      49.297  25.243  32.516  1.00  0.00    -0.200 F 
ENDBRANCH  40  54
BRANCH  41  65
ATOM     65  C   UNL A   1      37.276  32.519  30.773  1.00  0.00     0.064 A 
ATOM     66  C   UNL A   1      37.026  33.381  29.696  1.00  0.00     0.173 A 
ATOM     67  C   UNL A   1      36.241  32.312  31.698  1.00  0.00     0.173 A 
ATOM     68  F   UNL A   1      37.989  33.624  28.796  1.00  0.00    -0.203 F 
ATOM     69  C   UNL A   1      35.793  34.016  29.554  1.00  0.00     0.198 A 
ATOM     70  C   UNL A   1      34.999  32.925  31.538  1.00  0.00     0.198 A 
ATOM     71  F   UNL A   1      36.426  31.488  32.738  1.00  0.00    -0.203 F 
ATOM     72  F   UNL A   1      35.591  34.858  28.532  1.00  0.00    -0.200 F 
ATOM     73  C   UNL A   1      34.778  33.781  30.470  1.00  0.00     0.200 A 
ATOM     74  F   UNL A   1      34.015  32.677  32.413  1.00  0.00    -0.200 F 
ATOM     75  F   UNL A   1      33.588  34.377  30.322  1.00  0.00    -0.200 F 
ENDBRANCH  41  65
BRANCH  53  76
ATOM     76  C   UNL A   1      43.044  33.574  34.588  1.00  0.00     0.064 A 
ATOM     77  C   UNL A   1      43.684  34.735  34.134  1.00  0.00     0.173 A 
ATOM     78  C   UNL A   1      42.719  33.489  35.951  1.00  0.00     0.173 A 
ATOM     79  F   UNL A   1      44.029  34.858  32.845  1.00  0.00    -0.203 F 
ATOM     80  C   UNL A   1      43.990  35.771  35.014  1.00  0.00     0.198 A 
ATOM     81  C   UNL A   1      42.998  34.539  36.821  1.00  0.00     0.198 A 
ATOM     82  F   UNL A   1      42.101  32.400  36.433  1.00  0.00    -0.203 F 
ATOM     83  F   UNL A   1      44.629  36.861  34.567  1.00  0.00    -0.200 F 
ATOM     84  C   UNL A   1      43.636  35.677  36.353  1.00  0.00     0.200 A 
ATOM     85  F   UNL A   1      42.639  34.454  38.109  1.00  0.00    -0.200 F 
ATOM     86  F   UNL A   1      43.909  36.686  37.192  1.00  0.00    -0.200 F 
ENDBRANCH  53  76
ENDBRANCH  27  28
ENDBRANCH  19  22
ENDBRANCH  17  18
ENDBRANCH  16  17
ENDBRANCH   1  16
TORSDOF 13
ENDMDL
