MODEL 1
REMARK VINA RESULT:     -12.2      0.000      0.000
REMARK SMILES O=C(NCCCNC(=O)[C@@H]1CSc2ccccc21)c1ccc(-c2c3nc(c(-c4c(F)c(F)c(F)c(F)c4F)c4ccc([nH]4)c(-c4c(F)c(F)c(F)c(F)c4F)c4nc(c(-c5c(F)c(F)c(F)c(F)c5F)c5ccc2[nH]5)C=C4)C=C3)cc1
REMARK SMILES IDX 4 1 3 2 1 3 2 4 19 6 20 7 81 8 21 9 80 10 22 11 23 12 24 13
REMARK SMILES IDX 74 14 25 15 79 16 73 17 75 18 26 19 78 20 72 21 71 22 27 24
REMARK SMILES IDX 59 25 39 26 58 27 40 28 43 29 57 30 76 31 41 32 42 33 56 35
REMARK SMILES IDX 77 36 44 37 28 38 29 39 37 40 30 41 31 42 35 43 38 44 32 45
REMARK SMILES IDX 33 46 36 47 34 48 60 49 61 50 69 51 62 52 63 53 67 54 70 55
REMARK SMILES IDX 64 56 65 57 68 58 66 59 45 60 46 61 54 62 47 63 48 64 52 65
REMARK SMILES IDX 55 66 49 67 50 68 53 69 51 70 5 71 6 72 7 73 8 74 9 76 10 77
REMARK SMILES IDX 11 78 18 79 12 80 13 81 17 82 14 83 16 84 15 85
REMARK H PARENT 3 5 75 23 43 34 7 75
REMARK Flexibility Score: inf
ROOT
ATOM      1  C   UNL A   1      32.745  32.717  27.377  1.00  0.00     0.118 C 
ENDROOT
BRANCH   1   2
ATOM      2  N   UNL A   1      32.528  34.129  27.636  1.00  0.00    -0.352 N 
ATOM      3  O   UNL A   1      32.541  36.053  28.778  1.00  0.00    -0.269 OA
ATOM      4  C   UNL A   1      33.041  34.943  28.611  1.00  0.00     0.251 C 
ATOM      5  H   UNL A   1      31.912  34.573  27.011  1.00  0.00     0.163 HD
BRANCH   4   6
ATOM      6  C   UNL A   1      34.188  34.531  29.456  1.00  0.00     0.039 A 
ATOM      7  C   UNL A   1      35.471  34.592  28.898  1.00  0.00     0.014 A 
ATOM      8  C   UNL A   1      34.012  33.960  30.720  1.00  0.00     0.014 A 
ATOM      9  C   UNL A   1      36.569  34.078  29.595  1.00  0.00     0.010 A 
ATOM     10  C   UNL A   1      35.116  33.497  31.440  1.00  0.00     0.010 A 
ATOM     11  C   UNL A   1      36.397  33.517  30.867  1.00  0.00    -0.014 A 
BRANCH  11  12
ATOM     12  C   UNL A   1      37.520  32.832  31.557  1.00  0.00     0.031 A 
ATOM     13  C   UNL A   1      38.223  31.692  30.869  1.00  0.00     0.074 A 
ATOM     14  C   UNL A   1      37.907  33.215  32.786  1.00  0.00     0.049 A 
ATOM     15  N   UNL A   1      39.156  30.895  31.324  1.00  0.00    -0.248 NA
ATOM     16  C   UNL A   1      37.807  31.403  29.488  1.00  0.00     0.031 C 
ATOM     17  C   UNL A   1      37.322  34.311  33.555  1.00  0.00     0.029 A 
ATOM     18  N   UNL A   1      38.891  32.718  33.605  1.00  0.00    -0.354 N 
ATOM     19  C   UNL A   1      39.418  29.997  30.297  1.00  0.00     0.074 A 
ATOM     20  C   UNL A   1      38.524  30.325  29.208  1.00  0.00     0.031 C 
ATOM     21  C   UNL A   1      37.971  34.420  34.725  1.00  0.00     0.029 A 
ATOM     22  C   UNL A   1      38.993  33.377  34.804  1.00  0.00     0.049 A 
ATOM     23  H   UNL A   1      39.468  31.960  33.356  1.00  0.00     0.167 HD
ATOM     24  C   UNL A   1      40.332  28.999  30.258  1.00  0.00     0.037 A 
ATOM     25  C   UNL A   1      39.813  33.159  35.849  1.00  0.00     0.037 A 
ATOM     26  C   UNL A   1      41.249  28.694  31.322  1.00  0.00     0.049 A 
ATOM     27  C   UNL A   1      40.804  32.030  35.793  1.00  0.00     0.074 A 
ATOM     28  C   UNL A   1      42.233  27.722  31.364  1.00  0.00     0.029 A 
ATOM     29  N   UNL A   1      41.301  29.369  32.532  1.00  0.00    -0.354 N 
ATOM     30  N   UNL A   1      41.035  31.179  34.824  1.00  0.00    -0.248 NA
ATOM     31  C   UNL A   1      41.644  31.826  36.983  1.00  0.00     0.031 C 
ATOM     32  C   UNL A   1      42.864  27.792  32.610  1.00  0.00     0.029 A 
ATOM     33  C   UNL A   1      42.294  28.829  33.332  1.00  0.00     0.049 A 
ATOM     34  H   UNL A   1      40.719  30.123  32.785  1.00  0.00     0.167 HD
ATOM     35  C   UNL A   1      42.046  30.345  35.280  1.00  0.00     0.074 A 
ATOM     36  C   UNL A   1      42.400  30.803  36.607  1.00  0.00     0.031 C 
ATOM     37  C   UNL A   1      42.626  29.291  34.655  1.00  0.00     0.037 A 
BRANCH  24  38
ATOM     38  C   UNL A   1      40.381  28.161  29.015  1.00  0.00     0.064 A 
ATOM     39  C   UNL A   1      41.157  28.536  27.908  1.00  0.00     0.173 A 
ATOM     40  C   UNL A   1      39.661  26.960  28.937  1.00  0.00     0.173 A 
ATOM     41  F   UNL A   1      41.850  29.684  27.929  1.00  0.00    -0.203 F 
ATOM     42  C   UNL A   1      41.189  27.752  26.759  1.00  0.00     0.198 A 
ATOM     43  C   UNL A   1      39.715  26.166  27.795  1.00  0.00     0.198 A 
ATOM     44  F   UNL A   1      38.907  26.556  29.971  1.00  0.00    -0.203 F 
ATOM     45  F   UNL A   1      41.900  28.153  25.696  1.00  0.00    -0.200 F 
ATOM     46  C   UNL A   1      40.473  26.566  26.705  1.00  0.00     0.200 A 
ATOM     47  F   UNL A   1      39.029  25.016  27.747  1.00  0.00    -0.200 F 
ATOM     48  F   UNL A   1      40.506  25.812  25.598  1.00  0.00    -0.200 F 
ENDBRANCH  24  38
BRANCH  25  49
ATOM     49  C   UNL A   1      39.739  34.047  37.036  1.00  0.00     0.064 A 
ATOM     50  C   UNL A   1      40.469  35.243  37.078  1.00  0.00     0.173 A 
ATOM     51  C   UNL A   1      38.928  33.734  38.135  1.00  0.00     0.173 A 
ATOM     52  F   UNL A   1      41.276  35.570  36.058  1.00  0.00    -0.203 F 
ATOM     53  C   UNL A   1      40.392  36.093  38.178  1.00  0.00     0.198 A 
ATOM     54  C   UNL A   1      38.837  34.594  39.227  1.00  0.00     0.198 A 
ATOM     55  F   UNL A   1      38.213  32.599  38.141  1.00  0.00    -0.203 F 
ATOM     56  F   UNL A   1      41.118  37.218  38.205  1.00  0.00    -0.200 F 
ATOM     57  C   UNL A   1      39.571  35.771  39.249  1.00  0.00     0.200 A 
ATOM     58  F   UNL A   1      38.036  34.284  40.257  1.00  0.00    -0.200 F 
ATOM     59  F   UNL A   1      39.489  36.594  40.304  1.00  0.00    -0.200 F 
ENDBRANCH  25  49
BRANCH  37  60
ATOM     60  C   UNL A   1      43.701  28.559  35.398  1.00  0.00     0.064 A 
ATOM     61  C   UNL A   1      45.053  28.899  35.241  1.00  0.00     0.173 A 
ATOM     62  C   UNL A   1      43.375  27.550  36.316  1.00  0.00     0.173 A 
ATOM     63  F   UNL A   1      45.412  29.848  34.364  1.00  0.00    -0.203 F 
ATOM     64  C   UNL A   1      46.042  28.244  35.969  1.00  0.00     0.198 A 
ATOM     65  C   UNL A   1      44.366  26.912  37.057  1.00  0.00     0.198 A 
ATOM     66  F   UNL A   1      42.096  27.194  36.504  1.00  0.00    -0.203 F 
ATOM     67  F   UNL A   1      47.330  28.563  35.782  1.00  0.00    -0.200 F 
ATOM     68  C   UNL A   1      45.698  27.257  36.881  1.00  0.00     0.200 A 
ATOM     69  F   UNL A   1      44.032  25.964  37.944  1.00  0.00    -0.200 F 
ATOM     70  F   UNL A   1      46.652  26.633  37.586  1.00  0.00    -0.200 F 
ENDBRANCH  37  60
ENDBRANCH  11  12
ENDBRANCH   4   6
ENDBRANCH   1   2
BRANCH   1  71
ATOM     71  C   UNL A   1      31.514  32.047  26.771  1.00  0.00     0.042 C 
BRANCH  71  72
ATOM     72  C   UNL A   1      31.760  30.633  26.233  1.00  0.00     0.117 C 
BRANCH  72  73
ATOM     73  N   UNL A   1      33.048  30.119  26.653  1.00  0.00    -0.355 N 
ATOM     74  C   UNL A   1      33.826  29.070  26.292  1.00  0.00     0.228 C 
ATOM     75  H   UNL A   1      33.452  30.660  27.369  1.00  0.00     0.163 HD
ATOM     76  O   UNL A   1      34.837  28.957  27.001  1.00  0.00    -0.274 OA
BRANCH  74  77
ATOM     77  C   UNL A   1      33.616  28.174  25.052  1.00  0.00     0.120 C 
ATOM     78  C   UNL A   1      33.608  28.831  23.663  1.00  0.00     0.093 C 
ATOM     79  C   UNL A   1      32.334  27.349  25.144  1.00  0.00    -0.021 A 
ATOM     80  S   UNL A   1      32.040  28.538  22.802  1.00  0.00    -0.125 SA
ATOM     81  C   UNL A   1      31.445  27.489  24.079  1.00  0.00     0.011 A 
ATOM     82  C   UNL A   1      32.000  26.493  26.196  1.00  0.00     0.006 A 
ATOM     83  C   UNL A   1      30.219  26.836  24.061  1.00  0.00     0.015 A 
ATOM     84  C   UNL A   1      30.766  25.837  26.191  1.00  0.00     0.000 A 
ATOM     85  C   UNL A   1      29.875  26.013  25.130  1.00  0.00     0.001 A 
ENDBRANCH  74  77
ENDBRANCH  72  73
ENDBRANCH  71  72
ENDBRANCH   1  71
TORSDOF 10
ENDMDL
MODEL 2
REMARK VINA RESULT:     -12.2      0.091      1.672
REMARK SMILES O=C(NCCCNC(=O)[C@@H]1CSc2ccccc21)c1ccc(-c2c3nc(c(-c4c(F)c(F)c(F)c(F)c4F)c4ccc([nH]4)c(-c4c(F)c(F)c(F)c(F)c4F)c4nc(c(-c5c(F)c(F)c(F)c(F)c5F)c5ccc2[nH]5)C=C4)C=C3)cc1
REMARK SMILES IDX 4 1 3 2 1 3 2 4 19 6 20 7 81 8 21 9 80 10 22 11 23 12 24 13
REMARK SMILES IDX 74 14 25 15 79 16 73 17 75 18 26 19 78 20 72 21 71 22 27 24
REMARK SMILES IDX 59 25 39 26 58 27 40 28 43 29 57 30 76 31 41 32 42 33 56 35
REMARK SMILES IDX 77 36 44 37 28 38 29 39 37 40 30 41 31 42 35 43 38 44 32 45
REMARK SMILES IDX 33 46 36 47 34 48 60 49 61 50 69 51 62 52 63 53 67 54 70 55
REMARK SMILES IDX 64 56 65 57 68 58 66 59 45 60 46 61 54 62 47 63 48 64 52 65
REMARK SMILES IDX 55 66 49 67 50 68 53 69 51 70 5 71 6 72 7 73 8 74 9 76 10 77
REMARK SMILES IDX 11 78 18 79 12 80 13 81 17 82 14 83 16 84 15 85
REMARK H PARENT 3 5 75 23 43 34 7 75
REMARK Flexibility Score: inf
ROOT
ATOM      1  C   UNL A   1      32.730  32.707  27.386  1.00  0.00     0.118 C 
ENDROOT
BRANCH   1   2
ATOM      2  N   UNL A   1      32.509  34.119  27.642  1.00  0.00    -0.352 N 
ATOM      3  O   UNL A   1      32.520  36.048  28.776  1.00  0.00    -0.269 OA
ATOM      4  C   UNL A   1      33.023  34.939  28.610  1.00  0.00     0.251 C 
ATOM      5  H   UNL A   1      31.887  34.558  27.018  1.00  0.00     0.163 HD
BRANCH   4   6
ATOM      6  C   UNL A   1      34.177  34.535  29.450  1.00  0.00     0.039 A 
ATOM      7  C   UNL A   1      35.453  34.563  28.873  1.00  0.00     0.014 A 
ATOM      8  C   UNL A   1      34.012  34.003  30.732  1.00  0.00     0.014 A 
ATOM      9  C   UNL A   1      36.553  34.053  29.568  1.00  0.00     0.010 A 
ATOM     10  C   UNL A   1      35.120  33.544  31.450  1.00  0.00     0.010 A 
ATOM     11  C   UNL A   1      36.392  33.530  30.858  1.00  0.00    -0.014 A 
BRANCH  11  12
ATOM     12  C   UNL A   1      37.516  32.850  31.551  1.00  0.00     0.031 A 
ATOM     13  C   UNL A   1      38.207  31.695  30.876  1.00  0.00     0.074 A 
ATOM     14  C   UNL A   1      37.913  33.249  32.772  1.00  0.00     0.049 A 
ATOM     15  N   UNL A   1      39.139  30.899  31.337  1.00  0.00    -0.248 NA
ATOM     16  C   UNL A   1      37.781  31.387  29.502  1.00  0.00     0.031 C 
ATOM     17  C   UNL A   1      37.339  34.360  33.527  1.00  0.00     0.029 A 
ATOM     18  N   UNL A   1      38.900  32.759  33.592  1.00  0.00    -0.354 N 
ATOM     19  C   UNL A   1      39.389  29.984  30.323  1.00  0.00     0.074 A 
ATOM     20  C   UNL A   1      38.490  30.301  29.235  1.00  0.00     0.031 C 
ATOM     21  C   UNL A   1      37.997  34.483  34.692  1.00  0.00     0.029 A 
ATOM     22  C   UNL A   1      39.013  33.436  34.780  1.00  0.00     0.049 A 
ATOM     23  H   UNL A   1      39.471  31.994  33.351  1.00  0.00     0.167 HD
ATOM     24  C   UNL A   1      40.297  28.980  30.293  1.00  0.00     0.037 A 
ATOM     25  C   UNL A   1      39.839  33.229  35.823  1.00  0.00     0.037 A 
ATOM     26  C   UNL A   1      41.219  28.686  31.356  1.00  0.00     0.049 A 
ATOM     27  C   UNL A   1      40.823  32.094  35.778  1.00  0.00     0.074 A 
ATOM     28  C   UNL A   1      42.198  27.709  31.406  1.00  0.00     0.029 A 
ATOM     29  N   UNL A   1      41.283  29.380  32.555  1.00  0.00    -0.354 N 
ATOM     30  N   UNL A   1      41.042  31.226  34.821  1.00  0.00    -0.248 NA
ATOM     31  C   UNL A   1      41.669  31.903  36.965  1.00  0.00     0.031 C 
ATOM     32  C   UNL A   1      42.838  27.795  32.647  1.00  0.00     0.029 A 
ATOM     33  C   UNL A   1      42.278  28.846  33.357  1.00  0.00     0.049 A 
ATOM     34  H   UNL A   1      40.707  30.140  32.800  1.00  0.00     0.167 HD
ATOM     35  C   UNL A   1      42.051  30.394  35.283  1.00  0.00     0.074 A 
ATOM     36  C   UNL A   1      42.417  30.870  36.600  1.00  0.00     0.031 C 
ATOM     37  C   UNL A   1      42.621  29.326  34.670  1.00  0.00     0.037 A 
BRANCH  24  38
ATOM     38  C   UNL A   1      40.333  28.123  29.063  1.00  0.00     0.064 A 
ATOM     39  C   UNL A   1      41.104  28.476  27.946  1.00  0.00     0.173 A 
ATOM     40  C   UNL A   1      39.605  26.926  29.008  1.00  0.00     0.173 A 
ATOM     41  F   UNL A   1      41.805  29.620  27.945  1.00  0.00    -0.203 F 
ATOM     42  C   UNL A   1      41.124  27.675  26.808  1.00  0.00     0.198 A 
ATOM     43  C   UNL A   1      39.646  26.114  27.878  1.00  0.00     0.198 A 
ATOM     44  F   UNL A   1      38.855  26.542  30.053  1.00  0.00    -0.203 F 
ATOM     45  F   UNL A   1      41.831  28.055  25.735  1.00  0.00    -0.200 F 
ATOM     46  C   UNL A   1      40.400  26.492  26.777  1.00  0.00     0.200 A 
ATOM     47  F   UNL A   1      38.953  24.968  27.852  1.00  0.00    -0.200 F 
ATOM     48  F   UNL A   1      40.422  25.721  25.681  1.00  0.00    -0.200 F 
ENDBRANCH  24  38
BRANCH  25  49
ATOM     49  C   UNL A   1      39.778  34.135  36.996  1.00  0.00     0.064 A 
ATOM     50  C   UNL A   1      38.959  33.829  38.091  1.00  0.00     0.173 A 
ATOM     51  C   UNL A   1      40.548  35.305  37.059  1.00  0.00     0.173 A 
ATOM     52  F   UNL A   1      38.188  32.732  38.064  1.00  0.00    -0.203 F 
ATOM     53  C   UNL A   1      38.909  34.662  39.207  1.00  0.00     0.198 A 
ATOM     54  C   UNL A   1      40.511  36.128  38.183  1.00  0.00     0.198 A 
ATOM     55  F   UNL A   1      41.345  35.640  36.034  1.00  0.00    -0.203 F 
ATOM     56  F   UNL A   1      38.100  34.360  40.230  1.00  0.00    -0.200 F 
ATOM     57  C   UNL A   1      39.691  35.807  39.254  1.00  0.00     0.200 A 
ATOM     58  F   UNL A   1      41.274  37.229  38.229  1.00  0.00    -0.200 F 
ATOM     59  F   UNL A   1      39.650  36.603  40.331  1.00  0.00    -0.200 F 
ENDBRANCH  25  49
BRANCH  37  60
ATOM     60  C   UNL A   1      43.697  28.600  35.417  1.00  0.00     0.064 A 
ATOM     61  C   UNL A   1      43.388  27.572  36.321  1.00  0.00     0.173 A 
ATOM     62  C   UNL A   1      45.049  28.891  35.185  1.00  0.00     0.173 A 
ATOM     63  F   UNL A   1      42.108  27.268  36.584  1.00  0.00    -0.203 F 
ATOM     64  C   UNL A   1      44.396  26.872  36.978  1.00  0.00     0.198 A 
ATOM     65  C   UNL A   1      46.055  28.174  35.829  1.00  0.00     0.198 A 
ATOM     66  F   UNL A   1      45.394  29.861  34.326  1.00  0.00    -0.203 F 
ATOM     67  F   UNL A   1      44.079  25.915  37.860  1.00  0.00    -0.200 F 
ATOM     68  C   UNL A   1      45.728  27.169  36.726  1.00  0.00     0.200 A 
ATOM     69  F   UNL A   1      47.341  28.456  35.578  1.00  0.00    -0.200 F 
ATOM     70  F   UNL A   1      46.697  26.487  37.353  1.00  0.00    -0.200 F 
ENDBRANCH  37  60
ENDBRANCH  11  12
ENDBRANCH   4   6
ENDBRANCH   1   2
BRANCH   1  71
ATOM     71  C   UNL A   1      31.515  32.041  26.743  1.00  0.00     0.042 C 
BRANCH  71  72
ATOM     72  C   UNL A   1      31.776  30.631  26.203  1.00  0.00     0.117 C 
BRANCH  72  73
ATOM     73  N   UNL A   1      33.049  30.112  26.661  1.00  0.00    -0.355 N 
ATOM     74  C   UNL A   1      33.828  29.053  26.330  1.00  0.00     0.228 C 
ATOM     75  H   UNL A   1      33.440  30.656  27.381  1.00  0.00     0.163 HD
ATOM     76  O   UNL A   1      34.821  28.939  27.064  1.00  0.00    -0.274 OA
BRANCH  74  77
ATOM     77  C   UNL A   1      33.642  28.146  25.093  1.00  0.00     0.120 C 
ATOM     78  C   UNL A   1      33.693  28.787  23.698  1.00  0.00     0.093 C 
ATOM     79  C   UNL A   1      32.343  27.346  25.152  1.00  0.00    -0.021 A 
ATOM     80  S   UNL A   1      32.149  28.512  22.789  1.00  0.00    -0.125 SA
ATOM     81  C   UNL A   1      31.493  27.490  24.056  1.00  0.00     0.011 A 
ATOM     82  C   UNL A   1      31.958  26.510  26.202  1.00  0.00     0.006 A 
ATOM     83  C   UNL A   1      30.256  26.860  24.005  1.00  0.00     0.015 A 
ATOM     84  C   UNL A   1      30.713  25.876  26.164  1.00  0.00     0.000 A 
ATOM     85  C   UNL A   1      29.861  26.056  25.072  1.00  0.00     0.001 A 
ENDBRANCH  74  77
ENDBRANCH  72  73
ENDBRANCH  71  72
ENDBRANCH   1  71
TORSDOF 10
ENDMDL
MODEL 3
REMARK VINA RESULT:     -12.2      2.057      3.202
REMARK SMILES O=C(NCCCNC(=O)[C@@H]1CSc2ccccc21)c1ccc(-c2c3nc(c(-c4c(F)c(F)c(F)c(F)c4F)c4ccc([nH]4)c(-c4c(F)c(F)c(F)c(F)c4F)c4nc(c(-c5c(F)c(F)c(F)c(F)c5F)c5ccc2[nH]5)C=C4)C=C3)cc1
REMARK SMILES IDX 4 1 3 2 1 3 2 4 19 6 20 7 81 8 21 9 80 10 22 11 23 12 24 13
REMARK SMILES IDX 74 14 25 15 79 16 73 17 75 18 26 19 78 20 72 21 71 22 27 24
REMARK SMILES IDX 59 25 39 26 58 27 40 28 43 29 57 30 76 31 41 32 42 33 56 35
REMARK SMILES IDX 77 36 44 37 28 38 29 39 37 40 30 41 31 42 35 43 38 44 32 45
REMARK SMILES IDX 33 46 36 47 34 48 60 49 61 50 69 51 62 52 63 53 67 54 70 55
REMARK SMILES IDX 64 56 65 57 68 58 66 59 45 60 46 61 54 62 47 63 48 64 52 65
REMARK SMILES IDX 55 66 49 67 50 68 53 69 51 70 5 71 6 72 7 73 8 74 9 76 10 77
REMARK SMILES IDX 11 78 18 79 12 80 13 81 17 82 14 83 16 84 15 85
REMARK H PARENT 3 5 75 23 43 34 7 75
REMARK Flexibility Score: inf
ROOT
ATOM      1  C   UNL A   1      32.826  29.814  25.867  1.00  0.00     0.118 C 
ENDROOT
BRANCH   1   2
ATOM      2  N   UNL A   1      32.643  31.185  26.310  1.00  0.00    -0.352 N 
ATOM      3  O   UNL A   1      32.849  32.984  27.625  1.00  0.00    -0.269 OA
ATOM      4  C   UNL A   1      33.323  31.914  27.249  1.00  0.00     0.251 C 
ATOM      5  H   UNL A   1      31.911  31.668  25.865  1.00  0.00     0.163 HD
BRANCH   4   6
ATOM      6  C   UNL A   1      34.618  31.459  27.811  1.00  0.00     0.039 A 
ATOM      7  C   UNL A   1      34.708  30.139  28.271  1.00  0.00     0.014 A 
ATOM      8  C   UNL A   1      35.687  32.336  28.020  1.00  0.00     0.014 A 
ATOM      9  C   UNL A   1      35.854  29.703  28.944  1.00  0.00     0.010 A 
ATOM     10  C   UNL A   1      36.854  31.885  28.642  1.00  0.00     0.010 A 
ATOM     11  C   UNL A   1      36.931  30.577  29.143  1.00  0.00    -0.014 A 
BRANCH  11  12
ATOM     12  C   UNL A   1      38.090  30.180  29.982  1.00  0.00     0.031 A 
ATOM     13  C   UNL A   1      39.131  29.255  29.411  1.00  0.00     0.074 A 
ATOM     14  C   UNL A   1      38.212  30.630  31.243  1.00  0.00     0.049 A 
ATOM     15  N   UNL A   1      40.166  28.705  29.995  1.00  0.00    -0.248 NA
ATOM     16  C   UNL A   1      38.978  28.889  27.994  1.00  0.00     0.031 C 
ATOM     17  C   UNL A   1      37.284  31.540  31.910  1.00  0.00     0.029 A 
ATOM     18  N   UNL A   1      39.176  30.380  32.189  1.00  0.00    -0.354 N 
ATOM     19  C   UNL A   1      40.767  27.911  29.027  1.00  0.00     0.074 A 
ATOM     20  C   UNL A   1      39.967  28.024  27.828  1.00  0.00     0.031 C 
ATOM     21  C   UNL A   1      37.733  31.790  33.150  1.00  0.00     0.029 A 
ATOM     22  C   UNL A   1      38.959  31.029  33.378  1.00  0.00     0.049 A 
ATOM     23  H   UNL A   1      39.947  29.789  32.029  1.00  0.00     0.167 HD
ATOM     24  C   UNL A   1      41.895  27.167  29.123  1.00  0.00     0.037 A 
ATOM     25  C   UNL A   1      39.669  31.005  34.522  1.00  0.00     0.037 A 
ATOM     26  C   UNL A   1      42.716  27.083  30.300  1.00  0.00     0.049 A 
ATOM     27  C   UNL A   1      40.904  30.154  34.614  1.00  0.00     0.074 A 
ATOM     28  C   UNL A   1      43.894  26.381  30.484  1.00  0.00     0.029 A 
ATOM     29  N   UNL A   1      42.447  27.736  31.493  1.00  0.00    -0.354 N 
ATOM     30  N   UNL A   1      41.457  29.397  33.698  1.00  0.00    -0.248 NA
ATOM     31  C   UNL A   1      41.610  30.147  35.904  1.00  0.00     0.031 C 
ATOM     32  C   UNL A   1      44.325  26.589  31.799  1.00  0.00     0.029 A 
ATOM     33  C   UNL A   1      43.431  27.445  32.423  1.00  0.00     0.049 A 
ATOM     34  H   UNL A   1      41.671  28.321  31.656  1.00  0.00     0.167 HD
ATOM     35  C   UNL A   1      42.575  28.831  34.294  1.00  0.00     0.074 A 
ATOM     36  C   UNL A   1      42.634  29.345  35.646  1.00  0.00     0.031 C 
ATOM     37  C   UNL A   1      43.469  27.958  33.768  1.00  0.00     0.037 A 
BRANCH  24  38
ATOM     38  C   UNL A   1      42.305  26.382  27.913  1.00  0.00     0.064 A 
ATOM     39  C   UNL A   1      43.247  26.880  27.000  1.00  0.00     0.173 A 
ATOM     40  C   UNL A   1      41.766  25.110  27.673  1.00  0.00     0.173 A 
ATOM     41  F   UNL A   1      43.778  28.099  27.178  1.00  0.00    -0.203 F 
ATOM     42  C   UNL A   1      43.614  26.144  25.878  1.00  0.00     0.198 A 
ATOM     43  C   UNL A   1      42.153  24.365  26.563  1.00  0.00     0.198 A 
ATOM     44  F   UNL A   1      40.864  24.588  28.519  1.00  0.00    -0.203 F 
ATOM     45  F   UNL A   1      44.481  26.659  24.995  1.00  0.00    -0.200 F 
ATOM     46  C   UNL A   1      43.072  24.886  25.663  1.00  0.00     0.200 A 
ATOM     47  F   UNL A   1      41.635  23.147  26.360  1.00  0.00    -0.200 F 
ATOM     48  F   UNL A   1      43.428  24.177  24.582  1.00  0.00    -0.200 F 
ENDBRANCH  24  38
BRANCH  25  49
ATOM     49  C   UNL A   1      39.230  31.833  35.673  1.00  0.00     0.064 A 
ATOM     50  C   UNL A   1      39.692  33.148  35.823  1.00  0.00     0.173 A 
ATOM     51  C   UNL A   1      38.329  31.341  36.628  1.00  0.00     0.173 A 
ATOM     52  F   UNL A   1      40.573  33.651  34.945  1.00  0.00    -0.203 F 
ATOM     53  C   UNL A   1      39.271  33.941  36.887  1.00  0.00     0.198 A 
ATOM     54  C   UNL A   1      37.895  32.141  37.682  1.00  0.00     0.198 A 
ATOM     55  F   UNL A   1      37.862  30.088  36.528  1.00  0.00    -0.203 F 
ATOM     56  F   UNL A   1      39.747  35.185  37.022  1.00  0.00    -0.200 F 
ATOM     57  C   UNL A   1      38.368  33.439  37.813  1.00  0.00     0.200 A 
ATOM     58  F   UNL A   1      37.016  31.656  38.571  1.00  0.00    -0.200 F 
ATOM     59  F   UNL A   1      37.956  34.205  38.832  1.00  0.00    -0.200 F 
ENDBRANCH  25  49
BRANCH  37  60
ATOM     60  C   UNL A   1      44.587  27.503  34.654  1.00  0.00     0.064 A 
ATOM     61  C   UNL A   1      44.478  26.332  35.420  1.00  0.00     0.173 A 
ATOM     62  C   UNL A   1      45.799  28.208  34.696  1.00  0.00     0.173 A 
ATOM     63  F   UNL A   1      43.333  25.633  35.421  1.00  0.00    -0.203 F 
ATOM     64  C   UNL A   1      45.539  25.892  36.207  1.00  0.00     0.198 A 
ATOM     65  C   UNL A   1      46.864  27.753  35.468  1.00  0.00     0.198 A 
ATOM     66  F   UNL A   1      45.953  29.330  33.977  1.00  0.00    -0.203 F 
ATOM     67  F   UNL A   1      45.403  24.788  36.954  1.00  0.00    -0.200 F 
ATOM     68  C   UNL A   1      46.732  26.599  36.225  1.00  0.00     0.200 A 
ATOM     69  F   UNL A   1      48.020  28.432  35.478  1.00  0.00    -0.200 F 
ATOM     70  F   UNL A   1      47.755  26.168  36.977  1.00  0.00    -0.200 F 
ENDBRANCH  37  60
ENDBRANCH  11  12
ENDBRANCH   4   6
ENDBRANCH   1   2
BRANCH   1  71
ATOM     71  C   UNL A   1      31.753  28.881  26.425  1.00  0.00     0.042 C 
BRANCH  71  72
ATOM     72  C   UNL A   1      32.262  27.490  26.817  1.00  0.00     0.117 C 
BRANCH  72  73
ATOM     73  N   UNL A   1      31.184  26.524  26.877  1.00  0.00    -0.355 N 
ATOM     74  C   UNL A   1      30.422  25.880  25.959  1.00  0.00     0.228 C 
ATOM     75  H   UNL A   1      30.950  26.278  27.800  1.00  0.00     0.163 HD
ATOM     76  O   UNL A   1      29.531  25.189  26.475  1.00  0.00    -0.274 OA
BRANCH  74  77
ATOM     77  C   UNL A   1      30.680  25.843  24.436  1.00  0.00     0.120 C 
ATOM     78  C   UNL A   1      32.130  25.736  23.939  1.00  0.00     0.093 C 
ATOM     79  C   UNL A   1      30.066  27.041  23.716  1.00  0.00    -0.021 A 
ATOM     80  S   UNL A   1      32.574  27.145  22.889  1.00  0.00    -0.125 SA
ATOM     81  C   UNL A   1      30.943  27.795  22.938  1.00  0.00     0.011 A 
ATOM     82  C   UNL A   1      28.724  27.423  23.787  1.00  0.00     0.006 A 
ATOM     83  C   UNL A   1      30.527  28.940  22.271  1.00  0.00     0.015 A 
ATOM     84  C   UNL A   1      28.296  28.578  23.126  1.00  0.00     0.000 A 
ATOM     85  C   UNL A   1      29.196  29.339  22.376  1.00  0.00     0.001 A 
ENDBRANCH  74  77
ENDBRANCH  72  73
ENDBRANCH  71  72
ENDBRANCH   1  71
TORSDOF 10
ENDMDL
