MODEL 1
REMARK VINA RESULT:     -11.9      0.000      0.000
REMARK SMILES C[C@H]1[C@@H](C(=O)NCCCNC(=O)c2ccc(-c3c4nc(c(-c5c(F)c(F)c(F)c(F)c5F)c5ccc([nH]5)c(-c5c(F)c(F)c(F)c(F)c5F)c5nc(c(-c6c(F)c(F)c(F)c(F)c6F)c6ccc3[nH]6)C=C5)C=C4)cc2)CC[N@@H+]1CC1(O)CCCC1
REMARK SMILES IDX 7 1 6 2 4 3 5 4 3 6 1 7 2 8 78 9 76 10 77 11 79 13 80 14
REMARK SMILES IDX 82 15 85 16 83 17 84 18 81 19 8 21 9 22 10 23 11 24 12 26
REMARK SMILES IDX 13 27 14 28 75 29 15 30 74 31 16 32 17 33 18 34 68 35 19 36
REMARK SMILES IDX 73 37 67 38 69 39 20 40 72 41 66 42 65 43 21 45 53 46 33 47
REMARK SMILES IDX 52 48 34 49 37 50 51 51 70 52 35 53 36 54 50 56 71 57 38 58
REMARK SMILES IDX 22 59 23 60 31 61 24 62 25 63 29 64 32 65 26 66 27 67 30 68
REMARK SMILES IDX 28 69 54 70 55 71 63 72 56 73 57 74 61 75 64 76 58 77 59 78
REMARK SMILES IDX 62 79 60 80 39 81 40 82 48 83 41 84 42 85 46 86 49 87 43 88
REMARK SMILES IDX 44 89 47 90 45 91
REMARK H PARENT 6 5 78 12 81 20 10 25 69 44 37 55
REMARK Flexibility Score: inf
ROOT
ATOM      1  C   UNL A   1      34.564  24.781  25.547  1.00  0.00     0.117 C 
ENDROOT
BRANCH   1   2
ATOM      2  N   UNL A   1      33.283  24.475  26.152  1.00  0.00    -0.356 N 
ATOM      3  C   UNL A   1      32.050  25.005  25.925  1.00  0.00     0.229 C 
ATOM      4  O   UNL A   1      31.226  24.871  26.831  1.00  0.00    -0.275 OA
ATOM      5  H   UNL A   1      33.309  23.769  26.838  1.00  0.00     0.163 HD
BRANCH   3   6
ATOM      6  C   UNL A   1      31.697  25.592  24.561  1.00  0.00     0.142 C 
ATOM      7  C   UNL A   1      31.896  28.034  25.544  1.00  0.00     0.076 C 
ATOM      8  C   UNL A   1      31.611  27.120  24.364  1.00  0.00     0.193 C 
ATOM      9  N   UNL A   1      30.240  27.424  23.946  1.00  0.00    -0.330 N 
ATOM     10  C   UNL A   1      30.319  25.078  24.108  1.00  0.00     0.081 C 
ATOM     11  C   UNL A   1      29.404  26.274  24.255  1.00  0.00     0.263 C 
ATOM     12  H   UNL A   1      29.903  28.216  24.493  1.00  0.00     0.348 HD
BRANCH   9  13
ATOM     13  C   UNL A   1      30.077  28.028  22.618  1.00  0.00     0.297 C 
BRANCH  13  14
ATOM     14  C   UNL A   1      29.686  29.521  22.443  1.00  0.00     0.113 C 
ATOM     15  C   UNL A   1      29.723  30.381  23.710  1.00  0.00     0.041 C 
ATOM     16  C   UNL A   1      28.211  29.650  22.036  1.00  0.00     0.041 C 
ATOM     17  C   UNL A   1      28.814  31.573  23.406  1.00  0.00     0.003 C 
ATOM     18  C   UNL A   1      27.874  31.117  22.293  1.00  0.00     0.003 C 
BRANCH  14  19
ATOM     19  O   UNL A   1      30.481  30.102  21.402  1.00  0.00    -0.384 OA
ATOM     20  H   UNL A   1      30.771  30.987  21.673  1.00  0.00     0.211 HD
ENDBRANCH  14  19
ENDBRANCH  13  14
ENDBRANCH   9  13
ENDBRANCH   3   6
ENDBRANCH   1   2
BRANCH   1  21
ATOM     21  C   UNL A   1      35.536  23.625  25.786  1.00  0.00     0.042 C 
BRANCH  21  22
ATOM     22  C   UNL A   1      36.844  23.742  25.018  1.00  0.00     0.118 C 
BRANCH  22  23
ATOM     23  N   UNL A   1      37.822  22.761  25.446  1.00  0.00    -0.352 N 
ATOM     24  C   UNL A   1      38.999  22.930  26.128  1.00  0.00     0.251 C 
ATOM     25  H   UNL A   1      37.607  21.830  25.211  1.00  0.00     0.163 HD
ATOM     26  O   UNL A   1      39.789  21.983  26.191  1.00  0.00    -0.269 OA
BRANCH  24  27
ATOM     27  C   UNL A   1      39.356  24.217  26.774  1.00  0.00     0.039 A 
ATOM     28  C   UNL A   1      40.087  25.152  26.033  1.00  0.00     0.014 A 
ATOM     29  C   UNL A   1      39.053  24.493  28.110  1.00  0.00     0.014 A 
ATOM     30  C   UNL A   1      40.485  26.358  26.617  1.00  0.00     0.010 A 
ATOM     31  C   UNL A   1      39.360  25.738  28.661  1.00  0.00     0.010 A 
ATOM     32  C   UNL A   1      40.109  26.673  27.933  1.00  0.00    -0.014 A 
BRANCH  32  33
ATOM     33  C   UNL A   1      40.545  27.943  28.571  1.00  0.00     0.031 A 
ATOM     34  C   UNL A   1      41.988  28.141  28.961  1.00  0.00     0.074 A 
ATOM     35  C   UNL A   1      39.646  28.911  28.830  1.00  0.00     0.049 A 
ATOM     36  N   UNL A   1      42.557  29.164  29.548  1.00  0.00    -0.248 NA
ATOM     37  C   UNL A   1      42.909  27.029  28.679  1.00  0.00     0.031 C 
ATOM     38  C   UNL A   1      38.210  28.827  28.556  1.00  0.00     0.029 A 
ATOM     39  N   UNL A   1      39.805  30.158  29.383  1.00  0.00    -0.354 N 
ATOM     40  C   UNL A   1      43.889  28.809  29.721  1.00  0.00     0.074 A 
ATOM     41  C   UNL A   1      44.034  27.457  29.231  1.00  0.00     0.031 C 
ATOM     42  C   UNL A   1      37.626  29.980  28.917  1.00  0.00     0.029 A 
ATOM     43  C   UNL A   1      38.637  30.876  29.471  1.00  0.00     0.049 A 
ATOM     44  H   UNL A   1      40.675  30.506  29.687  1.00  0.00     0.167 HD
ATOM     45  C   UNL A   1      44.909  29.552  30.214  1.00  0.00     0.037 A 
ATOM     46  C   UNL A   1      38.408  32.115  29.945  1.00  0.00     0.037 A 
ATOM     47  C   UNL A   1      44.777  30.912  30.667  1.00  0.00     0.049 A 
ATOM     48  C   UNL A   1      39.561  32.933  30.458  1.00  0.00     0.074 A 
ATOM     49  C   UNL A   1      45.761  31.769  31.129  1.00  0.00     0.029 A 
ATOM     50  N   UNL A   1      43.581  31.614  30.710  1.00  0.00    -0.354 N 
ATOM     51  N   UNL A   1      40.827  32.609  30.554  1.00  0.00    -0.248 NA
ATOM     52  C   UNL A   1      39.254  34.295  30.916  1.00  0.00     0.031 C 
ATOM     53  C   UNL A   1      45.154  32.980  31.484  1.00  0.00     0.029 A 
ATOM     54  C   UNL A   1      43.801  32.891  31.204  1.00  0.00     0.049 A 
ATOM     55  H   UNL A   1      42.707  31.258  30.432  1.00  0.00     0.167 HD
ATOM     56  C   UNL A   1      41.471  33.728  31.065  1.00  0.00     0.074 A 
ATOM     57  C   UNL A   1      40.458  34.749  31.237  1.00  0.00     0.031 C 
ATOM     58  C   UNL A   1      42.781  33.894  31.368  1.00  0.00     0.037 A 
BRANCH  45  59
ATOM     59  C   UNL A   1      46.266  28.910  30.276  1.00  0.00     0.064 A 
ATOM     60  C   UNL A   1      47.162  28.983  29.198  1.00  0.00     0.173 A 
ATOM     61  C   UNL A   1      46.686  28.236  31.431  1.00  0.00     0.173 A 
ATOM     62  F   UNL A   1      46.806  29.606  28.064  1.00  0.00    -0.203 F 
ATOM     63  C   UNL A   1      48.415  28.376  29.263  1.00  0.00     0.198 A 
ATOM     64  C   UNL A   1      47.950  27.656  31.505  1.00  0.00     0.198 A 
ATOM     65  F   UNL A   1      45.871  28.142  32.493  1.00  0.00    -0.203 F 
ATOM     66  F   UNL A   1      49.231  28.414  28.202  1.00  0.00    -0.200 F 
ATOM     67  C   UNL A   1      48.809  27.719  30.418  1.00  0.00     0.200 A 
ATOM     68  F   UNL A   1      48.336  27.031  32.626  1.00  0.00    -0.200 F 
ATOM     69  F   UNL A   1      50.015  27.138  30.480  1.00  0.00    -0.200 F 
ENDBRANCH  45  59
BRANCH  46  70
ATOM     70  C   UNL A   1      37.030  32.671  29.921  1.00  0.00     0.064 A 
ATOM     71  C   UNL A   1      36.544  33.343  28.791  1.00  0.00     0.173 A 
ATOM     72  C   UNL A   1      36.171  32.536  31.021  1.00  0.00     0.173 A 
ATOM     73  F   UNL A   1      37.336  33.514  27.722  1.00  0.00    -0.203 F 
ATOM     74  C   UNL A   1      35.256  33.874  28.768  1.00  0.00     0.198 A 
ATOM     75  C   UNL A   1      34.874  33.044  30.987  1.00  0.00     0.198 A 
ATOM     76  F   UNL A   1      36.587  31.897  32.123  1.00  0.00    -0.203 F 
ATOM     77  F   UNL A   1      34.831  34.546  27.689  1.00  0.00    -0.200 F 
ATOM     78  C   UNL A   1      34.420  33.718  29.863  1.00  0.00     0.200 A 
ATOM     79  F   UNL A   1      34.064  32.880  32.041  1.00  0.00    -0.200 F 
ATOM     80  F   UNL A   1      33.179  34.222  29.838  1.00  0.00    -0.200 F 
ENDBRANCH  46  70
BRANCH  58  81
ATOM     81  C   UNL A   1      43.197  35.235  31.898  1.00  0.00     0.064 A 
ATOM     82  C   UNL A   1      43.695  36.236  31.049  1.00  0.00     0.173 A 
ATOM     83  C   UNL A   1      43.071  35.533  33.262  1.00  0.00     0.173 A 
ATOM     84  F   UNL A   1      43.848  35.994  29.738  1.00  0.00    -0.203 F 
ATOM     85  C   UNL A   1      44.076  37.475  31.553  1.00  0.00     0.198 A 
ATOM     86  C   UNL A   1      43.428  36.782  33.759  1.00  0.00     0.198 A 
ATOM     87  F   UNL A   1      42.594  34.611  34.114  1.00  0.00    -0.203 F 
ATOM     88  F   UNL A   1      44.595  38.399  30.733  1.00  0.00    -0.200 F 
ATOM     89  C   UNL A   1      43.938  37.750  32.906  1.00  0.00     0.200 A 
ATOM     90  F   UNL A   1      43.284  37.050  35.064  1.00  0.00    -0.200 F 
ATOM     91  F   UNL A   1      44.304  38.945  33.389  1.00  0.00    -0.200 F 
ENDBRANCH  58  81
ENDBRANCH  32  33
ENDBRANCH  24  27
ENDBRANCH  22  23
ENDBRANCH  21  22
ENDBRANCH   1  21
TORSDOF 13
ENDMDL
MODEL 2
REMARK VINA RESULT:     -11.9      0.137      1.635
REMARK SMILES C[C@H]1[C@@H](C(=O)NCCCNC(=O)c2ccc(-c3c4nc(c(-c5c(F)c(F)c(F)c(F)c5F)c5ccc([nH]5)c(-c5c(F)c(F)c(F)c(F)c5F)c5nc(c(-c6c(F)c(F)c(F)c(F)c6F)c6ccc3[nH]6)C=C5)C=C4)cc2)CC[N@@H+]1CC1(O)CCCC1
REMARK SMILES IDX 7 1 6 2 4 3 5 4 3 6 1 7 2 8 78 9 76 10 77 11 79 13 80 14
REMARK SMILES IDX 82 15 85 16 83 17 84 18 81 19 8 21 9 22 10 23 11 24 12 26
REMARK SMILES IDX 13 27 14 28 75 29 15 30 74 31 16 32 17 33 18 34 68 35 19 36
REMARK SMILES IDX 73 37 67 38 69 39 20 40 72 41 66 42 65 43 21 45 53 46 33 47
REMARK SMILES IDX 52 48 34 49 37 50 51 51 70 52 35 53 36 54 50 56 71 57 38 58
REMARK SMILES IDX 22 59 23 60 31 61 24 62 25 63 29 64 32 65 26 66 27 67 30 68
REMARK SMILES IDX 28 69 54 70 55 71 63 72 56 73 57 74 61 75 64 76 58 77 59 78
REMARK SMILES IDX 62 79 60 80 39 81 40 82 48 83 41 84 42 85 46 86 49 87 43 88
REMARK SMILES IDX 44 89 47 90 45 91
REMARK H PARENT 6 5 78 12 81 20 10 25 69 44 37 55
REMARK Flexibility Score: inf
ROOT
ATOM      1  C   UNL A   1      34.558  24.726  25.642  1.00  0.00     0.117 C 
ENDROOT
BRANCH   1   2
ATOM      2  N   UNL A   1      33.260  24.376  26.185  1.00  0.00    -0.356 N 
ATOM      3  C   UNL A   1      32.027  24.893  25.929  1.00  0.00     0.229 C 
ATOM      4  O   UNL A   1      31.171  24.713  26.796  1.00  0.00    -0.275 OA
ATOM      5  H   UNL A   1      33.272  23.648  26.847  1.00  0.00     0.163 HD
BRANCH   3   6
ATOM      6  C   UNL A   1      31.716  25.521  24.572  1.00  0.00     0.142 C 
ATOM      7  C   UNL A   1      31.989  27.933  25.610  1.00  0.00     0.076 C 
ATOM      8  C   UNL A   1      31.689  27.055  24.406  1.00  0.00     0.193 C 
ATOM      9  N   UNL A   1      30.336  27.417  23.975  1.00  0.00    -0.330 N 
ATOM     10  C   UNL A   1      30.327  25.067  24.089  1.00  0.00     0.081 C 
ATOM     11  C   UNL A   1      29.454  26.292  24.248  1.00  0.00     0.263 C 
ATOM     12  H   UNL A   1      30.019  28.209  24.535  1.00  0.00     0.348 HD
BRANCH   9  13
ATOM     13  C   UNL A   1      30.215  28.054  22.659  1.00  0.00     0.297 C 
BRANCH  13  14
ATOM     14  C   UNL A   1      29.599  29.470  22.490  1.00  0.00     0.113 C 
ATOM     15  C   UNL A   1      29.778  30.428  23.672  1.00  0.00     0.041 C 
ATOM     16  C   UNL A   1      28.068  29.387  22.402  1.00  0.00     0.041 C 
ATOM     17  C   UNL A   1      28.674  31.473  23.505  1.00  0.00     0.003 C 
ATOM     18  C   UNL A   1      27.595  30.818  22.645  1.00  0.00     0.003 C 
BRANCH  14  19
ATOM     19  O   UNL A   1      30.078  30.056  21.274  1.00  0.00    -0.384 OA
ATOM     20  H   UNL A   1      29.324  30.307  20.718  1.00  0.00     0.211 HD
ENDBRANCH  14  19
ENDBRANCH  13  14
ENDBRANCH   9  13
ENDBRANCH   3   6
ENDBRANCH   1   2
BRANCH   1  21
ATOM     21  C   UNL A   1      35.516  23.544  25.798  1.00  0.00     0.042 C 
BRANCH  21  22
ATOM     22  C   UNL A   1      36.819  23.692  25.025  1.00  0.00     0.118 C 
BRANCH  22  23
ATOM     23  N   UNL A   1      37.810  22.716  25.429  1.00  0.00    -0.352 N 
ATOM     24  C   UNL A   1      38.994  22.888  26.098  1.00  0.00     0.251 C 
ATOM     25  H   UNL A   1      37.601  21.785  25.186  1.00  0.00     0.163 HD
ATOM     26  O   UNL A   1      39.794  21.949  26.140  1.00  0.00    -0.269 OA
BRANCH  24  27
ATOM     27  C   UNL A   1      39.347  24.171  26.755  1.00  0.00     0.039 A 
ATOM     28  C   UNL A   1      40.040  25.131  26.009  1.00  0.00     0.014 A 
ATOM     29  C   UNL A   1      39.079  24.420  28.104  1.00  0.00     0.014 A 
ATOM     30  C   UNL A   1      40.433  26.335  26.601  1.00  0.00     0.010 A 
ATOM     31  C   UNL A   1      39.380  25.661  28.666  1.00  0.00     0.010 A 
ATOM     32  C   UNL A   1      40.090  26.621  27.933  1.00  0.00    -0.014 A 
BRANCH  32  33
ATOM     33  C   UNL A   1      40.522  27.889  28.579  1.00  0.00     0.031 A 
ATOM     34  C   UNL A   1      41.960  28.079  28.991  1.00  0.00     0.074 A 
ATOM     35  C   UNL A   1      39.623  28.861  28.824  1.00  0.00     0.049 A 
ATOM     36  N   UNL A   1      42.524  29.099  29.589  1.00  0.00    -0.248 NA
ATOM     37  C   UNL A   1      42.880  26.963  28.722  1.00  0.00     0.031 C 
ATOM     38  C   UNL A   1      38.192  28.783  28.528  1.00  0.00     0.029 A 
ATOM     39  N   UNL A   1      39.780  30.107  29.381  1.00  0.00    -0.354 N 
ATOM     40  C   UNL A   1      43.852  28.738  29.782  1.00  0.00     0.074 A 
ATOM     41  C   UNL A   1      43.998  27.385  29.292  1.00  0.00     0.031 C 
ATOM     42  C   UNL A   1      37.607  29.939  28.881  1.00  0.00     0.029 A 
ATOM     43  C   UNL A   1      38.613  30.829  29.452  1.00  0.00     0.049 A 
ATOM     44  H   UNL A   1      40.646  30.449  29.699  1.00  0.00     0.167 HD
ATOM     45  C   UNL A   1      44.868  29.476  30.291  1.00  0.00     0.037 A 
ATOM     46  C   UNL A   1      38.383  32.069  29.924  1.00  0.00     0.037 A 
ATOM     47  C   UNL A   1      44.735  30.836  30.743  1.00  0.00     0.049 A 
ATOM     48  C   UNL A   1      39.531  32.881  30.456  1.00  0.00     0.074 A 
ATOM     49  C   UNL A   1      45.715  31.688  31.222  1.00  0.00     0.029 A 
ATOM     50  N   UNL A   1      43.542  31.543  30.769  1.00  0.00    -0.354 N 
ATOM     51  N   UNL A   1      40.795  32.551  30.571  1.00  0.00    -0.248 NA
ATOM     52  C   UNL A   1      39.224  34.244  30.910  1.00  0.00     0.031 C 
ATOM     53  C   UNL A   1      45.108  32.901  31.569  1.00  0.00     0.029 A 
ATOM     54  C   UNL A   1      43.759  32.818  31.267  1.00  0.00     0.049 A 
ATOM     55  H   UNL A   1      42.670  31.192  30.477  1.00  0.00     0.167 HD
ATOM     56  C   UNL A   1      41.435  33.666  31.093  1.00  0.00     0.074 A 
ATOM     57  C   UNL A   1      40.425  34.692  31.251  1.00  0.00     0.031 C 
ATOM     58  C   UNL A   1      42.742  33.826  31.417  1.00  0.00     0.037 A 
BRANCH  45  59
ATOM     59  C   UNL A   1      46.221  28.827  30.373  1.00  0.00     0.064 A 
ATOM     60  C   UNL A   1      46.626  28.119  31.515  1.00  0.00     0.173 A 
ATOM     61  C   UNL A   1      47.111  28.893  29.292  1.00  0.00     0.173 A 
ATOM     62  F   UNL A   1      45.817  28.037  32.582  1.00  0.00    -0.203 F 
ATOM     63  C   UNL A   1      47.886  27.529  31.583  1.00  0.00     0.198 A 
ATOM     64  C   UNL A   1      48.358  28.276  29.352  1.00  0.00     0.198 A 
ATOM     65  F   UNL A   1      46.771  29.552  28.174  1.00  0.00    -0.203 F 
ATOM     66  F   UNL A   1      48.272  26.904  32.704  1.00  0.00    -0.200 F 
ATOM     67  C   UNL A   1      48.748  27.603  30.500  1.00  0.00     0.200 A 
ATOM     68  F   UNL A   1      49.186  28.337  28.300  1.00  0.00    -0.200 F 
ATOM     69  F   UNL A   1      49.959  27.032  30.566  1.00  0.00    -0.200 F 
ENDBRANCH  45  59
BRANCH  46  70
ATOM     70  C   UNL A   1      37.009  32.631  29.878  1.00  0.00     0.064 A 
ATOM     71  C   UNL A   1      36.132  32.478  30.961  1.00  0.00     0.173 A 
ATOM     72  C   UNL A   1      36.547  33.338  28.758  1.00  0.00     0.173 A 
ATOM     73  F   UNL A   1      36.521  31.793  32.046  1.00  0.00    -0.203 F 
ATOM     74  C   UNL A   1      34.838  32.996  30.918  1.00  0.00     0.198 A 
ATOM     75  C   UNL A   1      35.263  33.878  28.727  1.00  0.00     0.198 A 
ATOM     76  F   UNL A   1      37.349  33.515  27.699  1.00  0.00    -0.203 F 
ATOM     77  F   UNL A   1      34.007  32.801  31.951  1.00  0.00    -0.200 F 
ATOM     78  C   UNL A   1      34.408  33.701  29.805  1.00  0.00     0.200 A 
ATOM     79  F   UNL A   1      34.855  34.570  27.655  1.00  0.00    -0.200 F 
ATOM     80  F   UNL A   1      33.167  34.204  29.767  1.00  0.00    -0.200 F 
ENDBRANCH  46  70
BRANCH  58  81
ATOM     81  C   UNL A   1      43.155  35.165  31.955  1.00  0.00     0.064 A 
ATOM     82  C   UNL A   1      43.691  36.157  31.118  1.00  0.00     0.173 A 
ATOM     83  C   UNL A   1      42.989  35.469  33.313  1.00  0.00     0.173 A 
ATOM     84  F   UNL A   1      43.883  35.908  29.814  1.00  0.00    -0.203 F 
ATOM     85  C   UNL A   1      44.070  37.393  31.630  1.00  0.00     0.198 A 
ATOM     86  C   UNL A   1      43.344  36.717  33.817  1.00  0.00     0.198 A 
ATOM     87  F   UNL A   1      42.476  34.557  34.152  1.00  0.00    -0.203 F 
ATOM     88  F   UNL A   1      44.625  38.309  30.823  1.00  0.00    -0.200 F 
ATOM     89  C   UNL A   1      43.892  37.676  32.977  1.00  0.00     0.200 A 
ATOM     90  F   UNL A   1      43.161  36.992  35.115  1.00  0.00    -0.200 F 
ATOM     91  F   UNL A   1      44.255  38.868  33.467  1.00  0.00    -0.200 F 
ENDBRANCH  58  81
ENDBRANCH  32  33
ENDBRANCH  24  27
ENDBRANCH  22  23
ENDBRANCH  21  22
ENDBRANCH   1  21
TORSDOF 13
ENDMDL
MODEL 3
REMARK VINA RESULT:     -11.8      4.054      6.839
REMARK SMILES C[C@H]1[C@@H](C(=O)NCCCNC(=O)c2ccc(-c3c4nc(c(-c5c(F)c(F)c(F)c(F)c5F)c5ccc([nH]5)c(-c5c(F)c(F)c(F)c(F)c5F)c5nc(c(-c6c(F)c(F)c(F)c(F)c6F)c6ccc3[nH]6)C=C5)C=C4)cc2)CC[N@@H+]1CC1(O)CCCC1
REMARK SMILES IDX 7 1 6 2 4 3 5 4 3 6 1 7 2 8 78 9 76 10 77 11 79 13 80 14
REMARK SMILES IDX 82 15 85 16 83 17 84 18 81 19 8 21 9 22 10 23 11 24 12 26
REMARK SMILES IDX 13 27 14 28 75 29 15 30 74 31 16 32 17 33 18 34 68 35 19 36
REMARK SMILES IDX 73 37 67 38 69 39 20 40 72 41 66 42 65 43 21 45 53 46 33 47
REMARK SMILES IDX 52 48 34 49 37 50 51 51 70 52 35 53 36 54 50 56 71 57 38 58
REMARK SMILES IDX 22 59 23 60 31 61 24 62 25 63 29 64 32 65 26 66 27 67 30 68
REMARK SMILES IDX 28 69 54 70 55 71 63 72 56 73 57 74 61 75 64 76 58 77 59 78
REMARK SMILES IDX 62 79 60 80 39 81 40 82 48 83 41 84 42 85 46 86 49 87 43 88
REMARK SMILES IDX 44 89 47 90 45 91
REMARK H PARENT 6 5 78 12 81 20 10 25 69 44 37 55
REMARK Flexibility Score: inf
ROOT
ATOM      1  C   UNL A   1      42.333  19.713  26.882  1.00  0.00     0.117 C 
ENDROOT
BRANCH   1   2
ATOM      2  N   UNL A   1      43.114  19.380  25.707  1.00  0.00    -0.356 N 
ATOM      3  C   UNL A   1      44.005  20.125  24.998  1.00  0.00     0.229 C 
ATOM      4  O   UNL A   1      44.212  19.766  23.838  1.00  0.00    -0.275 OA
ATOM      5  H   UNL A   1      42.975  18.467  25.365  1.00  0.00     0.163 HD
BRANCH   3   6
ATOM      6  C   UNL A   1      44.797  21.239  25.676  1.00  0.00     0.142 C 
ATOM      7  C   UNL A   1      42.910  22.978  25.052  1.00  0.00     0.076 C 
ATOM      8  C   UNL A   1      44.253  22.683  25.702  1.00  0.00     0.193 C 
ATOM      9  N   UNL A   1      45.227  23.523  25.001  1.00  0.00    -0.330 N 
ATOM     10  C   UNL A   1      46.184  21.373  25.022  1.00  0.00     0.081 C 
ATOM     11  C   UNL A   1      46.102  22.656  24.224  1.00  0.00     0.263 C 
ATOM     12  H   UNL A   1      44.726  24.128  24.351  1.00  0.00     0.348 HD
BRANCH   9  13
ATOM     13  C   UNL A   1      45.869  24.582  25.789  1.00  0.00     0.297 C 
BRANCH  13  14
ATOM     14  C   UNL A   1      45.543  26.083  25.560  1.00  0.00     0.113 C 
ATOM     15  C   UNL A   1      46.008  27.048  26.653  1.00  0.00     0.041 C 
ATOM     16  C   UNL A   1      44.025  26.316  25.581  1.00  0.00     0.041 C 
ATOM     17  C   UNL A   1      45.131  28.290  26.485  1.00  0.00     0.003 C 
ATOM     18  C   UNL A   1      43.875  27.825  25.751  1.00  0.00     0.003 C 
BRANCH  14  19
ATOM     19  O   UNL A   1      46.030  26.485  24.274  1.00  0.00    -0.384 OA
ATOM     20  H   UNL A   1      46.251  27.429  24.293  1.00  0.00     0.211 HD
ENDBRANCH  14  19
ENDBRANCH  13  14
ENDBRANCH   9  13
ENDBRANCH   3   6
ENDBRANCH   1   2
BRANCH   1  21
ATOM     21  C   UNL A   1      40.896  20.038  26.472  1.00  0.00     0.042 C 
BRANCH  21  22
ATOM     22  C   UNL A   1      40.454  21.452  26.818  1.00  0.00     0.118 C 
BRANCH  22  23
ATOM     23  N   UNL A   1      39.363  21.906  25.978  1.00  0.00    -0.352 N 
ATOM     24  C   UNL A   1      38.711  23.111  25.956  1.00  0.00     0.251 C 
ATOM     25  H   UNL A   1      39.040  21.246  25.323  1.00  0.00     0.163 HD
ATOM     26  O   UNL A   1      37.660  23.206  25.315  1.00  0.00    -0.269 OA
BRANCH  24  27
ATOM     27  C   UNL A   1      39.221  24.294  26.692  1.00  0.00     0.039 A 
ATOM     28  C   UNL A   1      38.852  24.453  28.033  1.00  0.00     0.014 A 
ATOM     29  C   UNL A   1      39.989  25.286  26.076  1.00  0.00     0.014 A 
ATOM     30  C   UNL A   1      39.271  25.576  28.751  1.00  0.00     0.010 A 
ATOM     31  C   UNL A   1      40.492  26.354  26.820  1.00  0.00     0.010 A 
ATOM     32  C   UNL A   1      40.112  26.531  28.157  1.00  0.00    -0.014 A 
BRANCH  32  33
ATOM     33  C   UNL A   1      40.546  27.740  28.905  1.00  0.00     0.031 A 
ATOM     34  C   UNL A   1      41.964  27.855  29.406  1.00  0.00     0.074 A 
ATOM     35  C   UNL A   1      39.666  28.726  29.162  1.00  0.00     0.049 A 
ATOM     36  N   UNL A   1      42.525  28.816  30.096  1.00  0.00    -0.248 NA
ATOM     37  C   UNL A   1      42.862  26.727  29.117  1.00  0.00     0.031 C 
ATOM     38  C   UNL A   1      38.252  28.717  28.784  1.00  0.00     0.029 A 
ATOM     39  N   UNL A   1      39.830  29.929  29.804  1.00  0.00    -0.354 N 
ATOM     40  C   UNL A   1      43.828  28.398  30.338  1.00  0.00     0.074 A 
ATOM     41  C   UNL A   1      43.959  27.074  29.773  1.00  0.00     0.031 C 
ATOM     42  C   UNL A   1      37.685  29.868  29.177  1.00  0.00     0.029 A 
ATOM     43  C   UNL A   1      38.685  30.686  29.857  1.00  0.00     0.049 A 
ATOM     44  H   UNL A   1      40.687  30.222  30.190  1.00  0.00     0.167 HD
ATOM     45  C   UNL A   1      44.836  29.068  30.947  1.00  0.00     0.037 A 
ATOM     46  C   UNL A   1      38.467  31.903  30.393  1.00  0.00     0.037 A 
ATOM     47  C   UNL A   1      44.721  30.401  31.476  1.00  0.00     0.049 A 
ATOM     48  C   UNL A   1      39.608  32.640  31.036  1.00  0.00     0.074 A 
ATOM     49  C   UNL A   1      45.698  31.188  32.061  1.00  0.00     0.029 A 
ATOM     50  N   UNL A   1      43.551  31.147  31.482  1.00  0.00    -0.354 N 
ATOM     51  N   UNL A   1      40.852  32.260  31.199  1.00  0.00    -0.248 NA
ATOM     52  C   UNL A   1      39.319  33.983  31.559  1.00  0.00     0.031 C 
ATOM     53  C   UNL A   1      45.112  32.398  32.450  1.00  0.00     0.029 A 
ATOM     54  C   UNL A   1      43.779  32.381  32.071  1.00  0.00     0.049 A 
ATOM     55  H   UNL A   1      42.686  30.845  31.121  1.00  0.00     0.167 HD
ATOM     56  C   UNL A   1      41.497  33.318  31.825  1.00  0.00     0.074 A 
ATOM     57  C   UNL A   1      40.512  34.366  31.991  1.00  0.00     0.031 C 
ATOM     58  C   UNL A   1      42.787  33.412  32.228  1.00  0.00     0.037 A 
BRANCH  45  59
ATOM     59  C   UNL A   1      46.161  28.369  31.062  1.00  0.00     0.064 A 
ATOM     60  C   UNL A   1      47.167  28.542  30.099  1.00  0.00     0.173 A 
ATOM     61  C   UNL A   1      46.438  27.537  32.156  1.00  0.00     0.173 A 
ATOM     62  F   UNL A   1      46.949  29.318  29.026  1.00  0.00    -0.203 F 
ATOM     63  C   UNL A   1      48.389  27.882  30.211  1.00  0.00     0.198 A 
ATOM     64  C   UNL A   1      47.671  26.902  32.281  1.00  0.00     0.198 A 
ATOM     65  F   UNL A   1      45.514  27.342  33.109  1.00  0.00    -0.203 F 
ATOM     66  F   UNL A   1      49.314  28.021  29.251  1.00  0.00    -0.200 F 
ATOM     67  C   UNL A   1      48.642  27.067  31.304  1.00  0.00     0.200 A 
ATOM     68  F   UNL A   1      47.920  26.125  33.344  1.00  0.00    -0.200 F 
ATOM     69  F   UNL A   1      49.819  26.436  31.412  1.00  0.00    -0.200 F 
ENDBRANCH  45  59
BRANCH  46  70
ATOM     70  C   UNL A   1      37.115  32.514  30.308  1.00  0.00     0.064 A 
ATOM     71  C   UNL A   1      36.738  33.276  29.195  1.00  0.00     0.173 A 
ATOM     72  C   UNL A   1      36.173  32.343  31.333  1.00  0.00     0.173 A 
ATOM     73  F   UNL A   1      37.611  33.484  28.198  1.00  0.00    -0.203 F 
ATOM     74  C   UNL A   1      35.474  33.859  29.117  1.00  0.00     0.198 A 
ATOM     75  C   UNL A   1      34.901  32.904  31.242  1.00  0.00     0.198 A 
ATOM     76  F   UNL A   1      36.485  31.618  32.418  1.00  0.00    -0.203 F 
ATOM     77  F   UNL A   1      35.153  34.616  28.058  1.00  0.00    -0.200 F 
ATOM     78  C   UNL A   1      34.555  33.667  30.137  1.00  0.00     0.200 A 
ATOM     79  F   UNL A   1      34.011  32.705  32.223  1.00  0.00    -0.200 F 
ATOM     80  F   UNL A   1      33.338  34.222  30.058  1.00  0.00    -0.200 F 
ENDBRANCH  46  70
BRANCH  58  81
ATOM     81  C   UNL A   1      43.212  34.700  32.871  1.00  0.00     0.064 A 
ATOM     82  C   UNL A   1      43.609  35.806  32.103  1.00  0.00     0.173 A 
ATOM     83  C   UNL A   1      43.195  34.840  34.266  1.00  0.00     0.173 A 
ATOM     84  F   UNL A   1      43.657  35.717  30.765  1.00  0.00    -0.203 F 
ATOM     85  C   UNL A   1      44.000  36.994  32.712  1.00  0.00     0.198 A 
ATOM     86  C   UNL A   1      43.560  36.039  34.871  1.00  0.00     0.198 A 
ATOM     87  F   UNL A   1      42.816  33.814  35.043  1.00  0.00    -0.203 F 
ATOM     88  F   UNL A   1      44.424  38.021  31.962  1.00  0.00    -0.200 F 
ATOM     89  C   UNL A   1      43.970  37.113  34.094  1.00  0.00     0.200 A 
ATOM     90  F   UNL A   1      43.520  36.155  36.205  1.00  0.00    -0.200 F 
ATOM     91  F   UNL A   1      44.345  38.258  34.678  1.00  0.00    -0.200 F 
ENDBRANCH  58  81
ENDBRANCH  32  33
ENDBRANCH  24  27
ENDBRANCH  22  23
ENDBRANCH  21  22
ENDBRANCH   1  21
TORSDOF 13
ENDMDL
