MODEL 1
REMARK VINA RESULT:     -10.9      0.000      0.000
REMARK SMILES CCN1C(=O)/C(=C/c2cc([N+](=O)[O-])ccc2O)S/C1=[NH+]\c1ccc(C(=O)NCCCNC(=O)c2ccc(-c3c4nc(c(-c5c(F)c(F)c(F)c(F)c5F)c5ccc([nH]5)c(-c5c(F)c(F)c(F)c(F)c5F)c5nc(c(-c6c(F)c(F)c(F)c(F)c6F)c6ccc3[nH]6)C=C5)C=C4)cc2)cc1
REMARK SMILES IDX 28 1 27 2 25 3 26 4 24 6 21 7 22 8 98 9 23 10 97 11 20 12
REMARK SMILES IDX 3 13 4 14 19 15 5 16 6 17 18 18 7 19 2 21 1 22 8 23 9 24
REMARK SMILES IDX 16 25 10 26 15 27 14 28 17 29 11 31 12 32 13 33 29 34 30 35
REMARK SMILES IDX 31 36 32 37 33 39 34 40 35 41 96 42 36 43 95 44 37 45 38 46
REMARK SMILES IDX 39 47 89 48 40 49 94 50 88 51 90 52 41 53 93 54 87 55 86 56
REMARK SMILES IDX 42 58 74 59 54 60 73 61 55 62 58 63 72 64 91 65 56 66 57 67
REMARK SMILES IDX 71 69 92 70 59 71 43 72 44 73 52 74 45 75 46 76 50 77 53 78
REMARK SMILES IDX 47 79 48 80 51 81 49 82 75 83 76 84 84 85 77 86 78 87 82 88
REMARK SMILES IDX 85 89 79 90 80 91 83 92 81 93 60 94 61 95 69 96 62 97 63 98
REMARK SMILES IDX 67 99 70 100 64 101 65 102 68 103 66 104
REMARK H PARENT 27 5 20 20 17 30 31 38 90 57 58 68
REMARK Flexibility Score: inf
ROOT
ATOM      1  C   UNL A   1      39.279  24.964  27.976  1.00  0.00     0.118 C 
ENDROOT
BRANCH   1   2
ATOM      2  N   UNL A   1      40.435  25.573  28.607  1.00  0.00    -0.352 N 
ATOM      3  C   UNL A   1      40.627  26.822  29.139  1.00  0.00     0.251 C 
ATOM      4  O   UNL A   1      41.708  27.066  29.672  1.00  0.00    -0.269 OA
ATOM      5  H   UNL A   1      41.222  24.984  28.665  1.00  0.00     0.163 HD
BRANCH   3   6
ATOM      6  C   UNL A   1      39.560  27.857  29.148  1.00  0.00     0.040 A 
ATOM      7  C   UNL A   1      37.666  29.931  29.070  1.00  0.00     0.125 A 
ATOM      8  C   UNL A   1      38.477  29.679  27.963  1.00  0.00     0.052 A 
ATOM      9  C   UNL A   1      37.746  29.089  30.179  1.00  0.00     0.052 A 
ATOM     10  C   UNL A   1      39.423  28.650  28.001  1.00  0.00     0.018 A 
ATOM     11  C   UNL A   1      38.677  28.052  30.213  1.00  0.00     0.018 A 
BRANCH   7  12
ATOM     12  N   UNL A   1      36.725  30.961  29.030  1.00  0.00    -0.234 N 
ATOM     13  N   UNL A   1      34.667  31.818  28.350  1.00  0.00    -0.186 N 
ATOM     14  C   UNL A   1      33.564  31.573  27.555  1.00  0.00     0.348 C 
ATOM     15  C   UNL A   1      35.594  30.810  28.424  1.00  0.00     0.324 C 
ATOM     16  O   UNL A   1      32.692  32.381  27.252  1.00  0.00    -0.240 OA
ATOM     17  C   UNL A   1      33.595  30.177  27.040  1.00  0.00     0.110 C 
ATOM     18  S   UNL A   1      35.018  29.384  27.588  1.00  0.00     0.007 SA
ATOM     19  C   UNL A   1      32.631  29.685  26.248  1.00  0.00     0.036 C 
ATOM     20  H   UNL A   1      36.927  31.817  29.471  1.00  0.00     0.313 HD
BRANCH  13  21
ATOM     21  C   UNL A   1      34.885  33.149  28.913  1.00  0.00     0.244 C 
ATOM     22  C   UNL A   1      34.405  33.332  30.349  1.00  0.00     0.055 C 
ENDBRANCH  13  21
BRANCH  19  23
ATOM     23  C   UNL A   1      32.567  28.307  25.734  1.00  0.00     0.024 A 
ATOM     24  C   UNL A   1      31.763  27.369  26.393  1.00  0.00     0.097 A 
ATOM     25  C   UNL A   1      33.303  27.904  24.607  1.00  0.00     0.123 A 
ATOM     26  C   UNL A   1      31.684  26.055  25.903  1.00  0.00     0.270 A 
ATOM     27  C   UNL A   1      33.219  26.600  24.116  1.00  0.00     0.054 A 
ATOM     28  C   UNL A   1      32.404  25.670  24.763  1.00  0.00     0.089 A 
BRANCH  25  29
ATOM     29  O   UNL A   1      34.127  28.806  23.990  1.00  0.00    -0.507 OA
ATOM     30  H   UNL A   1      34.549  28.579  23.185  1.00  0.00     0.293 HD
ENDBRANCH  25  29
BRANCH  26  31
ATOM     31  N   UNL A   1      30.837  25.069  26.589  1.00  0.00     0.062 N 
ATOM     32  O   UNL A   1      29.609  25.203  26.500  1.00  0.00    -0.258 OA
ATOM     33  O   UNL A   1      31.402  24.161  27.215  1.00  0.00    -0.258 OA
ENDBRANCH  26  31
ENDBRANCH  19  23
ENDBRANCH   7  12
ENDBRANCH   3   6
ENDBRANCH   1   2
BRANCH   1  34
ATOM     34  C   UNL A   1      39.544  24.697  26.496  1.00  0.00     0.042 C 
BRANCH  34  35
ATOM     35  C   UNL A   1      40.436  25.750  25.847  1.00  0.00     0.118 C 
BRANCH  35  36
ATOM     36  N   UNL A   1      41.734  25.205  25.483  1.00  0.00    -0.352 N 
ATOM     37  C   UNL A   1      42.973  25.787  25.500  1.00  0.00     0.251 C 
ATOM     38  H   UNL A   1      41.720  24.270  25.175  1.00  0.00     0.163 HD
ATOM     39  O   UNL A   1      43.901  25.238  24.911  1.00  0.00    -0.269 OA
BRANCH  37  40
ATOM     40  C   UNL A   1      43.209  27.060  26.215  1.00  0.00     0.039 A 
ATOM     41  C   UNL A   1      42.489  28.190  25.817  1.00  0.00     0.014 A 
ATOM     42  C   UNL A   1      44.178  27.169  27.217  1.00  0.00     0.014 A 
ATOM     43  C   UNL A   1      42.725  29.417  26.436  1.00  0.00     0.010 A 
ATOM     44  C   UNL A   1      44.351  28.373  27.894  1.00  0.00     0.010 A 
ATOM     45  C   UNL A   1      43.644  29.516  27.494  1.00  0.00    -0.014 A 
BRANCH  45  46
ATOM     46  C   UNL A   1      43.890  30.819  28.162  1.00  0.00     0.031 A 
ATOM     47  C   UNL A   1      42.972  31.299  29.252  1.00  0.00     0.074 A 
ATOM     48  C   UNL A   1      44.930  31.579  27.767  1.00  0.00     0.049 A 
ATOM     49  N   UNL A   1      43.024  32.406  29.951  1.00  0.00    -0.248 NA
ATOM     50  C   UNL A   1      41.829  30.435  29.587  1.00  0.00     0.031 C 
ATOM     51  C   UNL A   1      45.858  31.241  26.688  1.00  0.00     0.029 A 
ATOM     52  N   UNL A   1      45.381  32.789  28.228  1.00  0.00    -0.354 N 
ATOM     53  C   UNL A   1      41.923  32.372  30.798  1.00  0.00     0.074 A 
ATOM     54  C   UNL A   1      41.184  31.170  30.482  1.00  0.00     0.031 C 
ATOM     55  C   UNL A   1      46.788  32.203  26.591  1.00  0.00     0.029 A 
ATOM     56  C   UNL A   1      46.500  33.243  27.575  1.00  0.00     0.049 A 
ATOM     57  H   UNL A   1      44.944  33.285  28.958  1.00  0.00     0.167 HD
ATOM     58  C   UNL A   1      41.578  33.247  31.772  1.00  0.00     0.037 A 
ATOM     59  C   UNL A   1      47.211  34.372  27.748  1.00  0.00     0.037 A 
ATOM     60  C   UNL A   1      42.327  34.434  32.091  1.00  0.00     0.049 A 
ATOM     61  C   UNL A   1      46.798  35.336  28.828  1.00  0.00     0.074 A 
ATOM     62  C   UNL A   1      42.093  35.360  33.092  1.00  0.00     0.029 A 
ATOM     63  N   UNL A   1      43.457  34.861  31.408  1.00  0.00    -0.354 N 
ATOM     64  N   UNL A   1      45.800  35.255  29.674  1.00  0.00    -0.248 NA
ATOM     65  C   UNL A   1      47.618  36.546  28.982  1.00  0.00     0.031 C 
ATOM     66  C   UNL A   1      43.047  36.377  32.979  1.00  0.00     0.029 A 
ATOM     67  C   UNL A   1      43.915  36.052  31.948  1.00  0.00     0.049 A 
ATOM     68  H   UNL A   1      43.872  34.387  30.651  1.00  0.00     0.167 HD
ATOM     69  C   UNL A   1      45.886  36.384  30.477  1.00  0.00     0.074 A 
ATOM     70  C   UNL A   1      47.048  37.123  30.031  1.00  0.00     0.031 C 
ATOM     71  C   UNL A   1      45.076  36.774  31.492  1.00  0.00     0.037 A 
BRANCH  58  72
ATOM     72  C   UNL A   1      40.335  32.952  32.565  1.00  0.00     0.064 A 
ATOM     73  C   UNL A   1      39.090  33.499  32.214  1.00  0.00     0.173 A 
ATOM     74  C   UNL A   1      40.380  32.087  33.668  1.00  0.00     0.173 A 
ATOM     75  F   UNL A   1      38.991  34.341  31.175  1.00  0.00    -0.203 F 
ATOM     76  C   UNL A   1      37.946  33.217  32.958  1.00  0.00     0.198 A 
ATOM     77  C   UNL A   1      39.228  31.780  34.388  1.00  0.00     0.198 A 
ATOM     78  F   UNL A   1      41.542  31.530  34.046  1.00  0.00    -0.203 F 
ATOM     79  F   UNL A   1      36.781  33.796  32.636  1.00  0.00    -0.200 F 
ATOM     80  C   UNL A   1      38.015  32.352  34.039  1.00  0.00     0.200 A 
ATOM     81  F   UNL A   1      39.293  30.931  35.424  1.00  0.00    -0.200 F 
ATOM     82  F   UNL A   1      36.912  32.075  34.749  1.00  0.00    -0.200 F 
ENDBRANCH  58  72
BRANCH  59  83
ATOM     83  C   UNL A   1      48.399  34.641  26.895  1.00  0.00     0.064 A 
ATOM     84  C   UNL A   1      48.312  35.492  25.783  1.00  0.00     0.173 A 
ATOM     85  C   UNL A   1      49.642  34.051  27.167  1.00  0.00     0.173 A 
ATOM     86  F   UNL A   1      47.142  36.067  25.470  1.00  0.00    -0.203 F 
ATOM     87  C   UNL A   1      49.416  35.722  24.964  1.00  0.00     0.198 A 
ATOM     88  C   UNL A   1      50.752  34.306  26.366  1.00  0.00     0.198 A 
ATOM     89  F   UNL A   1      49.781  33.235  28.222  1.00  0.00    -0.203 F 
ATOM     90  F   UNL A   1      49.291  36.497  23.879  1.00  0.00    -0.200 F 
ATOM     91  C   UNL A   1      50.636  35.133  25.259  1.00  0.00     0.200 A 
ATOM     92  F   UNL A   1      51.934  33.751  26.666  1.00  0.00    -0.200 F 
ATOM     93  F   UNL A   1      51.698  35.357  24.473  1.00  0.00    -0.200 F 
ENDBRANCH  59  83
BRANCH  71  94
ATOM     94  C   UNL A   1      45.435  38.045  32.207  1.00  0.00     0.064 A 
ATOM     95  C   UNL A   1      44.876  39.280  31.845  1.00  0.00     0.173 A 
ATOM     96  C   UNL A   1      46.325  38.022  33.292  1.00  0.00     0.173 A 
ATOM     97  F   UNL A   1      44.030  39.360  30.807  1.00  0.00    -0.203 F 
ATOM     98  C   UNL A   1      45.219  40.448  32.522  1.00  0.00     0.198 A 
ATOM     99  C   UNL A   1      46.638  39.185  33.989  1.00  0.00     0.198 A 
ATOM    100  F   UNL A   1      46.882  36.867  33.686  1.00  0.00    -0.203 F 
ATOM    101  F   UNL A   1      44.716  41.624  32.122  1.00  0.00    -0.200 F 
ATOM    102  C   UNL A   1      46.093  40.398  33.597  1.00  0.00     0.200 A 
ATOM    103  F   UNL A   1      47.469  39.132  35.039  1.00  0.00    -0.200 F 
ATOM    104  F   UNL A   1      46.416  41.521  34.252  1.00  0.00    -0.200 F 
ENDBRANCH  71  94
ENDBRANCH  45  46
ENDBRANCH  37  40
ENDBRANCH  35  36
ENDBRANCH  34  35
ENDBRANCH   1  34
TORSDOF 15
ENDMDL
MODEL 2
REMARK VINA RESULT:     -10.9      0.413      7.144
REMARK SMILES CCN1C(=O)/C(=C/c2cc([N+](=O)[O-])ccc2O)S/C1=[NH+]\c1ccc(C(=O)NCCCNC(=O)c2ccc(-c3c4nc(c(-c5c(F)c(F)c(F)c(F)c5F)c5ccc([nH]5)c(-c5c(F)c(F)c(F)c(F)c5F)c5nc(c(-c6c(F)c(F)c(F)c(F)c6F)c6ccc3[nH]6)C=C5)C=C4)cc2)cc1
REMARK SMILES IDX 28 1 27 2 25 3 26 4 24 6 21 7 22 8 98 9 23 10 97 11 20 12
REMARK SMILES IDX 3 13 4 14 19 15 5 16 6 17 18 18 7 19 2 21 1 22 8 23 9 24
REMARK SMILES IDX 16 25 10 26 15 27 14 28 17 29 11 31 12 32 13 33 29 34 30 35
REMARK SMILES IDX 31 36 32 37 33 39 34 40 35 41 96 42 36 43 95 44 37 45 38 46
REMARK SMILES IDX 39 47 89 48 40 49 94 50 88 51 90 52 41 53 93 54 87 55 86 56
REMARK SMILES IDX 42 58 74 59 54 60 73 61 55 62 58 63 72 64 91 65 56 66 57 67
REMARK SMILES IDX 71 69 92 70 59 71 43 72 44 73 52 74 45 75 46 76 50 77 53 78
REMARK SMILES IDX 47 79 48 80 51 81 49 82 75 83 76 84 84 85 77 86 78 87 82 88
REMARK SMILES IDX 85 89 79 90 80 91 83 92 81 93 60 94 61 95 69 96 62 97 63 98
REMARK SMILES IDX 67 99 70 100 64 101 65 102 68 103 66 104
REMARK H PARENT 27 5 20 20 17 30 31 38 90 57 58 68
REMARK Flexibility Score: inf
ROOT
ATOM      1  C   UNL A   1      39.315  24.993  27.888  1.00  0.00     0.118 C 
ENDROOT
BRANCH   1   2
ATOM      2  N   UNL A   1      40.451  25.574  28.579  1.00  0.00    -0.352 N 
ATOM      3  C   UNL A   1      40.629  26.802  29.161  1.00  0.00     0.251 C 
ATOM      4  O   UNL A   1      41.693  27.021  29.740  1.00  0.00    -0.269 OA
ATOM      5  H   UNL A   1      41.233  24.979  28.642  1.00  0.00     0.163 HD
BRANCH   3   6
ATOM      6  C   UNL A   1      39.566  27.841  29.171  1.00  0.00     0.040 A 
ATOM      7  C   UNL A   1      37.682  29.925  29.100  1.00  0.00     0.125 A 
ATOM      8  C   UNL A   1      38.514  29.692  28.004  1.00  0.00     0.052 A 
ATOM      9  C   UNL A   1      37.737  29.060  30.193  1.00  0.00     0.052 A 
ATOM     10  C   UNL A   1      39.454  28.659  28.039  1.00  0.00     0.018 A 
ATOM     11  C   UNL A   1      38.664  28.018  30.222  1.00  0.00     0.018 A 
BRANCH   7  12
ATOM     12  N   UNL A   1      36.746  30.959  29.063  1.00  0.00    -0.234 N 
ATOM     13  N   UNL A   1      34.694  31.830  28.383  1.00  0.00    -0.186 N 
ATOM     14  C   UNL A   1      33.592  31.594  27.584  1.00  0.00     0.348 C 
ATOM     15  C   UNL A   1      35.616  30.817  28.454  1.00  0.00     0.324 C 
ATOM     16  O   UNL A   1      32.724  32.408  27.284  1.00  0.00    -0.240 OA
ATOM     17  C   UNL A   1      33.617  30.200  27.062  1.00  0.00     0.110 C 
ATOM     18  S   UNL A   1      35.035  29.398  27.609  1.00  0.00     0.007 SA
ATOM     19  C   UNL A   1      32.652  29.717  26.266  1.00  0.00     0.036 C 
ATOM     20  H   UNL A   1      36.952  31.813  29.509  1.00  0.00     0.313 HD
BRANCH  13  21
ATOM     21  C   UNL A   1      34.917  33.156  28.954  1.00  0.00     0.244 C 
ATOM     22  C   UNL A   1      34.495  33.315  30.410  1.00  0.00     0.055 C 
ENDBRANCH  13  21
BRANCH  19  23
ATOM     23  C   UNL A   1      32.583  28.343  25.744  1.00  0.00     0.024 A 
ATOM     24  C   UNL A   1      31.789  27.399  26.409  1.00  0.00     0.097 A 
ATOM     25  C   UNL A   1      33.304  27.947  24.605  1.00  0.00     0.123 A 
ATOM     26  C   UNL A   1      31.706  26.088  25.913  1.00  0.00     0.270 A 
ATOM     27  C   UNL A   1      33.215  26.646  24.108  1.00  0.00     0.054 A 
ATOM     28  C   UNL A   1      32.410  25.711  24.760  1.00  0.00     0.089 A 
BRANCH  25  29
ATOM     29  O   UNL A   1      34.118  28.853  23.982  1.00  0.00    -0.507 OA
ATOM     30  H   UNL A   1      34.291  28.774  23.065  1.00  0.00     0.293 HD
ENDBRANCH  25  29
BRANCH  26  31
ATOM     31  N   UNL A   1      30.870  25.097  26.604  1.00  0.00     0.062 N 
ATOM     32  O   UNL A   1      29.640  25.207  26.501  1.00  0.00    -0.258 OA
ATOM     33  O   UNL A   1      31.444  24.209  27.249  1.00  0.00    -0.258 OA
ENDBRANCH  26  31
ENDBRANCH  19  23
ENDBRANCH   7  12
ENDBRANCH   3   6
ENDBRANCH   1   2
BRANCH   1  34
ATOM     34  C   UNL A   1      39.660  24.693  26.430  1.00  0.00     0.042 C 
BRANCH  34  35
ATOM     35  C   UNL A   1      40.494  25.787  25.773  1.00  0.00     0.118 C 
BRANCH  35  36
ATOM     36  N   UNL A   1      41.805  25.300  25.377  1.00  0.00    -0.352 N 
ATOM     37  C   UNL A   1      43.027  25.916  25.420  1.00  0.00     0.251 C 
ATOM     38  H   UNL A   1      41.815  24.383  25.020  1.00  0.00     0.163 HD
ATOM     39  O   UNL A   1      43.967  25.425  24.800  1.00  0.00    -0.269 OA
BRANCH  37  40
ATOM     40  C   UNL A   1      43.230  27.155  26.200  1.00  0.00     0.039 A 
ATOM     41  C   UNL A   1      42.511  28.296  25.835  1.00  0.00     0.014 A 
ATOM     42  C   UNL A   1      44.170  27.226  27.233  1.00  0.00     0.014 A 
ATOM     43  C   UNL A   1      42.717  29.495  26.517  1.00  0.00     0.010 A 
ATOM     44  C   UNL A   1      44.311  28.398  27.970  1.00  0.00     0.010 A 
ATOM     45  C   UNL A   1      43.605  29.552  27.604  1.00  0.00    -0.014 A 
BRANCH  45  46
ATOM     46  C   UNL A   1      43.819  30.824  28.339  1.00  0.00     0.031 A 
ATOM     47  C   UNL A   1      44.954  31.737  27.962  1.00  0.00     0.074 A 
ATOM     48  C   UNL A   1      43.004  31.142  29.363  1.00  0.00     0.049 A 
ATOM     49  N   UNL A   1      45.300  32.887  28.487  1.00  0.00    -0.248 NA
ATOM     50  C   UNL A   1      45.831  31.292  26.868  1.00  0.00     0.031 C 
ATOM     51  C   UNL A   1      41.902  30.312  29.851  1.00  0.00     0.029 A 
ATOM     52  N   UNL A   1      42.973  32.247  30.174  1.00  0.00    -0.354 N 
ATOM     53  C   UNL A   1      46.433  33.294  27.792  1.00  0.00     0.074 A 
ATOM     54  C   UNL A   1      46.756  32.240  26.856  1.00  0.00     0.031 C 
ATOM     55  C   UNL A   1      41.282  30.952  30.855  1.00  0.00     0.029 A 
ATOM     56  C   UNL A   1      41.966  32.217  31.106  1.00  0.00     0.049 A 
ATOM     57  H   UNL A   1      43.613  32.992  30.096  1.00  0.00     0.167 HD
ATOM     58  C   UNL A   1      47.122  34.454  27.905  1.00  0.00     0.037 A 
ATOM     59  C   UNL A   1      41.632  33.109  32.057  1.00  0.00     0.037 A 
ATOM     60  C   UNL A   1      46.786  35.505  28.828  1.00  0.00     0.049 A 
ATOM     61  C   UNL A   1      42.423  34.384  32.171  1.00  0.00     0.074 A 
ATOM     62  C   UNL A   1      47.387  36.741  28.987  1.00  0.00     0.029 A 
ATOM     63  N   UNL A   1      45.756  35.439  29.757  1.00  0.00    -0.354 N 
ATOM     64  N   UNL A   1      43.445  34.793  31.457  1.00  0.00    -0.248 NA
ATOM     65  C   UNL A   1      42.008  35.328  33.217  1.00  0.00     0.031 C 
ATOM     66  C   UNL A   1      46.758  37.400  30.049  1.00  0.00     0.029 A 
ATOM     67  C   UNL A   1      45.723  36.602  30.510  1.00  0.00     0.049 A 
ATOM     68  H   UNL A   1      45.140  34.679  29.864  1.00  0.00     0.167 HD
ATOM     69  C   UNL A   1      43.777  36.048  31.948  1.00  0.00     0.074 A 
ATOM     70  C   UNL A   1      42.833  36.343  33.005  1.00  0.00     0.031 C 
ATOM     71  C   UNL A   1      44.774  36.880  31.559  1.00  0.00     0.037 A 
BRANCH  58  72
ATOM     72  C   UNL A   1      48.310  34.649  27.003  1.00  0.00     0.064 A 
ATOM     73  C   UNL A   1      49.537  34.016  27.254  1.00  0.00     0.173 A 
ATOM     74  C   UNL A   1      48.211  35.452  25.856  1.00  0.00     0.173 A 
ATOM     75  F   UNL A   1      49.690  33.246  28.341  1.00  0.00    -0.203 F 
ATOM     76  C   UNL A   1      50.629  34.205  26.410  1.00  0.00     0.198 A 
ATOM     77  C   UNL A   1      49.295  35.611  24.996  1.00  0.00     0.198 A 
ATOM     78  F   UNL A   1      47.060  36.077  25.563  1.00  0.00    -0.203 F 
ATOM     79  F   UNL A   1      51.806  33.635  26.701  1.00  0.00    -0.200 F 
ATOM     80  C   UNL A   1      50.504  34.996  25.278  1.00  0.00     0.200 A 
ATOM     81  F   UNL A   1      49.168  36.363  23.893  1.00  0.00    -0.200 F 
ATOM     82  F   UNL A   1      51.554  35.171  24.462  1.00  0.00    -0.200 F 
ENDBRANCH  58  72
BRANCH  59  83
ATOM     83  C   UNL A   1      40.483  32.837  32.961  1.00  0.00     0.064 A 
ATOM     84  C   UNL A   1      40.671  32.203  34.197  1.00  0.00     0.173 A 
ATOM     85  C   UNL A   1      39.175  33.199  32.607  1.00  0.00     0.173 A 
ATOM     86  F   UNL A   1      41.900  31.820  34.574  1.00  0.00    -0.203 F 
ATOM     87  C   UNL A   1      39.592  31.919  35.033  1.00  0.00     0.198 A 
ATOM     88  C   UNL A   1      38.102  32.944  33.458  1.00  0.00     0.198 A 
ATOM     89  F   UNL A   1      38.941  33.815  31.440  1.00  0.00    -0.203 F 
ATOM     90  F   UNL A   1      39.795  31.265  36.185  1.00  0.00    -0.200 F 
ATOM     91  C   UNL A   1      38.309  32.294  34.665  1.00  0.00     0.200 A 
ATOM     92  F   UNL A   1      36.866  33.326  33.107  1.00  0.00    -0.200 F 
ATOM     93  F   UNL A   1      37.273  32.025  35.470  1.00  0.00    -0.200 F 
ENDBRANCH  59  83
BRANCH  71  94
ATOM     94  C   UNL A   1      44.877  38.204  32.263  1.00  0.00     0.064 A 
ATOM     95  C   UNL A   1      45.683  38.376  33.398  1.00  0.00     0.173 A 
ATOM     96  C   UNL A   1      44.187  39.323  31.774  1.00  0.00     0.173 A 
ATOM     97  F   UNL A   1      46.354  37.334  33.915  1.00  0.00    -0.203 F 
ATOM     98  C   UNL A   1      45.769  39.611  34.036  1.00  0.00     0.198 A 
ATOM     99  C   UNL A   1      44.303  40.564  32.393  1.00  0.00     0.198 A 
ATOM    100  F   UNL A   1      43.408  39.217  30.687  1.00  0.00    -0.203 F 
ATOM    101  F   UNL A   1      46.500  39.737  35.152  1.00  0.00    -0.200 F 
ATOM    102  C   UNL A   1      45.085  40.705  33.528  1.00  0.00     0.200 A 
ATOM    103  F   UNL A   1      43.655  41.625  31.890  1.00  0.00    -0.200 F 
ATOM    104  F   UNL A   1      45.174  41.894  34.139  1.00  0.00    -0.200 F 
ENDBRANCH  71  94
ENDBRANCH  45  46
ENDBRANCH  37  40
ENDBRANCH  35  36
ENDBRANCH  34  35
ENDBRANCH   1  34
TORSDOF 15
ENDMDL
MODEL 3
REMARK VINA RESULT:     -10.8      6.046     10.451
REMARK SMILES CCN1C(=O)/C(=C/c2cc([N+](=O)[O-])ccc2O)S/C1=[NH+]\c1ccc(C(=O)NCCCNC(=O)c2ccc(-c3c4nc(c(-c5c(F)c(F)c(F)c(F)c5F)c5ccc([nH]5)c(-c5c(F)c(F)c(F)c(F)c5F)c5nc(c(-c6c(F)c(F)c(F)c(F)c6F)c6ccc3[nH]6)C=C5)C=C4)cc2)cc1
REMARK SMILES IDX 28 1 27 2 25 3 26 4 24 6 21 7 22 8 98 9 23 10 97 11 20 12
REMARK SMILES IDX 3 13 4 14 19 15 5 16 6 17 18 18 7 19 2 21 1 22 8 23 9 24
REMARK SMILES IDX 16 25 10 26 15 27 14 28 17 29 11 31 12 32 13 33 29 34 30 35
REMARK SMILES IDX 31 36 32 37 33 39 34 40 35 41 96 42 36 43 95 44 37 45 38 46
REMARK SMILES IDX 39 47 89 48 40 49 94 50 88 51 90 52 41 53 93 54 87 55 86 56
REMARK SMILES IDX 42 58 74 59 54 60 73 61 55 62 58 63 72 64 91 65 56 66 57 67
REMARK SMILES IDX 71 69 92 70 59 71 43 72 44 73 52 74 45 75 46 76 50 77 53 78
REMARK SMILES IDX 47 79 48 80 51 81 49 82 75 83 76 84 84 85 77 86 78 87 82 88
REMARK SMILES IDX 85 89 79 90 80 91 83 92 81 93 60 94 61 95 69 96 62 97 63 98
REMARK SMILES IDX 67 99 70 100 64 101 65 102 68 103 66 104
REMARK H PARENT 27 5 20 20 17 30 31 38 90 57 58 68
REMARK Flexibility Score: inf
ROOT
ATOM      1  C   UNL A   1      34.649  34.231  27.835  1.00  0.00     0.118 C 
ENDROOT
BRANCH   1   2
ATOM      2  N   UNL A   1      35.186  33.120  28.597  1.00  0.00    -0.352 N 
ATOM      3  C   UNL A   1      34.916  31.777  28.559  1.00  0.00     0.251 C 
ATOM      4  O   UNL A   1      35.567  31.033  29.291  1.00  0.00    -0.269 OA
ATOM      5  H   UNL A   1      35.867  33.377  29.261  1.00  0.00     0.163 HD
BRANCH   3   6
ATOM      6  C   UNL A   1      33.918  31.191  27.625  1.00  0.00     0.040 A 
ATOM      7  C   UNL A   1      32.178  30.054  25.734  1.00  0.00     0.125 A 
ATOM      8  C   UNL A   1      33.446  29.507  25.941  1.00  0.00     0.052 A 
ATOM      9  C   UNL A   1      31.755  31.115  26.535  1.00  0.00     0.052 A 
ATOM     10  C   UNL A   1      34.314  30.074  26.878  1.00  0.00     0.018 A 
ATOM     11  C   UNL A   1      32.614  31.671  27.482  1.00  0.00     0.018 A 
BRANCH   7  12
ATOM     12  N   UNL A   1      31.316  29.488  24.795  1.00  0.00    -0.234 N 
ATOM     13  N   UNL A   1      30.395  27.631  23.729  1.00  0.00    -0.186 N 
ATOM     14  C   UNL A   1      30.492  26.259  23.599  1.00  0.00     0.348 C 
ATOM     15  C   UNL A   1      31.218  28.207  24.664  1.00  0.00     0.324 C 
ATOM     16  O   UNL A   1      29.946  25.570  22.742  1.00  0.00    -0.240 OA
ATOM     17  C   UNL A   1      31.419  25.703  24.620  1.00  0.00     0.110 C 
ATOM     18  S   UNL A   1      32.072  26.977  25.571  1.00  0.00     0.007 SA
ATOM     19  C   UNL A   1      31.680  24.390  24.712  1.00  0.00     0.036 C 
ATOM     20  H   UNL A   1      30.771  30.076  24.223  1.00  0.00     0.313 HD
BRANCH  13  21
ATOM     21  C   UNL A   1      29.590  28.404  22.787  1.00  0.00     0.244 C 
ATOM     22  C   UNL A   1      28.106  28.497  23.126  1.00  0.00     0.055 C 
ENDBRANCH  13  21
BRANCH  19  23
ATOM     23  C   UNL A   1      32.550  23.760  25.717  1.00  0.00     0.024 A 
ATOM     24  C   UNL A   1      33.901  23.544  25.414  1.00  0.00     0.097 A 
ATOM     25  C   UNL A   1      32.059  23.353  26.970  1.00  0.00     0.123 A 
ATOM     26  C   UNL A   1      34.742  22.955  26.371  1.00  0.00     0.270 A 
ATOM     27  C   UNL A   1      32.898  22.775  27.923  1.00  0.00     0.054 A 
ATOM     28  C   UNL A   1      34.247  22.577  27.627  1.00  0.00     0.089 A 
BRANCH  25  29
ATOM     29  O   UNL A   1      30.730  23.519  27.251  1.00  0.00    -0.507 OA
ATOM     30  H   UNL A   1      30.178  22.769  27.358  1.00  0.00     0.293 HD
ENDBRANCH  25  29
BRANCH  26  31
ATOM     31  N   UNL A   1      36.161  22.732  26.058  1.00  0.00     0.062 N 
ATOM     32  O   UNL A   1      36.512  21.584  25.756  1.00  0.00    -0.258 OA
ATOM     33  O   UNL A   1      36.922  23.708  26.113  1.00  0.00    -0.258 OA
ENDBRANCH  26  31
ENDBRANCH  19  23
ENDBRANCH   7  12
ENDBRANCH   3   6
ENDBRANCH   1   2
BRANCH   1  34
ATOM     34  C   UNL A   1      34.023  35.274  28.758  1.00  0.00     0.042 C 
BRANCH  34  35
ATOM     35  C   UNL A   1      32.924  34.705  29.648  1.00  0.00     0.118 C 
BRANCH  35  36
ATOM     36  N   UNL A   1      32.525  35.646  30.681  1.00  0.00    -0.352 N 
ATOM     37  C   UNL A   1      32.925  35.749  31.987  1.00  0.00     0.251 C 
ATOM     38  H   UNL A   1      31.862  36.317  30.398  1.00  0.00     0.163 HD
ATOM     39  O   UNL A   1      32.278  36.451  32.759  1.00  0.00    -0.269 OA
BRANCH  37  40
ATOM     40  C   UNL A   1      34.122  35.030  32.476  1.00  0.00     0.039 A 
ATOM     41  C   UNL A   1      35.377  35.605  32.261  1.00  0.00     0.014 A 
ATOM     42  C   UNL A   1      34.026  33.769  33.074  1.00  0.00     0.014 A 
ATOM     43  C   UNL A   1      36.529  34.929  32.664  1.00  0.00     0.010 A 
ATOM     44  C   UNL A   1      35.169  33.136  33.554  1.00  0.00     0.010 A 
ATOM     45  C   UNL A   1      36.434  33.697  33.332  1.00  0.00    -0.014 A 
BRANCH  45  46
ATOM     46  C   UNL A   1      37.657  32.979  33.772  1.00  0.00     0.031 A 
ATOM     47  C   UNL A   1      38.286  31.939  32.887  1.00  0.00     0.074 A 
ATOM     48  C   UNL A   1      38.185  33.251  34.981  1.00  0.00     0.049 A 
ATOM     49  N   UNL A   1      39.353  31.208  33.099  1.00  0.00    -0.248 NA
ATOM     50  C   UNL A   1      37.618  31.662  31.606  1.00  0.00     0.031 C 
ATOM     51  C   UNL A   1      37.634  34.203  35.946  1.00  0.00     0.029 A 
ATOM     52  N   UNL A   1      39.301  32.755  35.604  1.00  0.00    -0.354 N 
ATOM     53  C   UNL A   1      39.476  30.387  31.984  1.00  0.00     0.074 A 
ATOM     54  C   UNL A   1      38.342  30.660  31.130  1.00  0.00     0.031 C 
ATOM     55  C   UNL A   1      38.432  34.247  37.024  1.00  0.00     0.029 A 
ATOM     56  C   UNL A   1      39.527  33.299  36.843  1.00  0.00     0.049 A 
ATOM     57  H   UNL A   1      39.885  32.072  35.200  1.00  0.00     0.167 HD
ATOM     58  C   UNL A   1      40.463  29.508  31.686  1.00  0.00     0.037 A 
ATOM     59  C   UNL A   1      40.508  33.060  37.734  1.00  0.00     0.037 A 
ATOM     60  C   UNL A   1      41.598  29.252  32.534  1.00  0.00     0.049 A 
ATOM     61  C   UNL A   1      41.584  32.068  37.385  1.00  0.00     0.074 A 
ATOM     62  C   UNL A   1      42.679  28.421  32.303  1.00  0.00     0.029 A 
ATOM     63  N   UNL A   1      41.794  29.825  33.783  1.00  0.00    -0.354 N 
ATOM     64  N   UNL A   1      41.732  31.355  36.295  1.00  0.00    -0.248 NA
ATOM     65  C   UNL A   1      42.636  31.855  38.388  1.00  0.00     0.031 C 
ATOM     66  C   UNL A   1      43.501  28.447  33.435  1.00  0.00     0.029 A 
ATOM     67  C   UNL A   1      42.965  29.344  34.346  1.00  0.00     0.049 A 
ATOM     68  H   UNL A   1      41.190  30.478  34.206  1.00  0.00     0.167 HD
ATOM     69  C   UNL A   1      42.904  30.630  36.468  1.00  0.00     0.074 A 
ATOM     70  C   UNL A   1      43.439  31.008  37.758  1.00  0.00     0.031 C 
ATOM     71  C   UNL A   1      43.484  29.733  35.634  1.00  0.00     0.037 A 
BRANCH  58  72
ATOM     72  C   UNL A   1      40.360  28.759  30.387  1.00  0.00     0.064 A 
ATOM     73  C   UNL A   1      40.995  29.215  29.221  1.00  0.00     0.173 A 
ATOM     74  C   UNL A   1      39.645  27.554  30.313  1.00  0.00     0.173 A 
ATOM     75  F   UNL A   1      41.683  30.366  29.232  1.00  0.00    -0.203 F 
ATOM     76  C   UNL A   1      40.891  28.510  28.023  1.00  0.00     0.198 A 
ATOM     77  C   UNL A   1      39.571  26.835  29.122  1.00  0.00     0.198 A 
ATOM     78  F   UNL A   1      39.022  27.067  31.397  1.00  0.00    -0.203 F 
ATOM     79  F   UNL A   1      41.460  28.995  26.911  1.00  0.00    -0.200 F 
ATOM     80  C   UNL A   1      40.186  27.317  27.978  1.00  0.00     0.200 A 
ATOM     81  F   UNL A   1      38.903  25.673  29.083  1.00  0.00    -0.200 F 
ATOM     82  F   UNL A   1      40.093  26.636  26.826  1.00  0.00    -0.200 F 
ENDBRANCH  58  72
BRANCH  59  83
ATOM     83  C   UNL A   1      40.528  33.788  39.030  1.00  0.00     0.064 A 
ATOM     84  C   UNL A   1      39.717  33.381  40.100  1.00  0.00     0.173 A 
ATOM     85  C   UNL A   1      41.351  34.906  39.227  1.00  0.00     0.173 A 
ATOM     86  F   UNL A   1      38.898  32.328  39.957  1.00  0.00    -0.203 F 
ATOM     87  C   UNL A   1      39.711  34.079  41.306  1.00  0.00     0.198 A 
ATOM     88  C   UNL A   1      41.367  35.584  40.444  1.00  0.00     0.198 A 
ATOM     89  F   UNL A   1      42.151  35.333  38.240  1.00  0.00    -0.203 F 
ATOM     90  F   UNL A   1      38.888  33.700  42.292  1.00  0.00    -0.200 F 
ATOM     91  C   UNL A   1      40.540  35.177  41.479  1.00  0.00     0.200 A 
ATOM     92  F   UNL A   1      42.185  36.633  40.612  1.00  0.00    -0.200 F 
ATOM     93  F   UNL A   1      40.537  35.846  42.639  1.00  0.00    -0.200 F 
ENDBRANCH  59  83
BRANCH  71  94
ATOM     94  C   UNL A   1      44.780  29.118  36.080  1.00  0.00     0.064 A 
ATOM     95  C   UNL A   1      46.017  29.714  35.793  1.00  0.00     0.173 A 
ATOM     96  C   UNL A   1      44.783  27.935  36.834  1.00  0.00     0.173 A 
ATOM     97  F   UNL A   1      46.072  30.839  35.063  1.00  0.00    -0.203 F 
ATOM     98  C   UNL A   1      47.209  29.132  36.217  1.00  0.00     0.198 A 
ATOM     99  C   UNL A   1      45.973  27.375  37.286  1.00  0.00     0.198 A 
ATOM    100  F   UNL A   1      43.627  27.327  37.144  1.00  0.00    -0.203 F 
ATOM    101  F   UNL A   1      48.381  29.689  35.882  1.00  0.00    -0.200 F 
ATOM    102  C   UNL A   1      47.185  27.967  36.969  1.00  0.00     0.200 A 
ATOM    103  F   UNL A   1      45.947  26.258  38.029  1.00  0.00    -0.200 F 
ATOM    104  F   UNL A   1      48.332  27.412  37.382  1.00  0.00    -0.200 F 
ENDBRANCH  71  94
ENDBRANCH  45  46
ENDBRANCH  37  40
ENDBRANCH  35  36
ENDBRANCH  34  35
ENDBRANCH   1  34
TORSDOF 15
ENDMDL
