MODEL 1
REMARK VINA RESULT:     -12.9      0.000      0.000
REMARK SMILES Cc1ccc(S(=O)(=O)Nc2cccc(F)c2C(=O)NCCCNC(=O)c2ccc(-c3c4nc(c(-c5c(F)c(F)c(F)c(F)c5F)c5ccc([nH]5)c(-c5c(F)c(F)c(F)c(F)c5F)c5nc(c(-c6c(F)c(F)c(F)c(F)c6F)c6ccc3[nH]6)C=C5)C=C4)cc2)cc1Cl
REMARK SMILES IDX 20 1 19 2 17 3 18 4 16 6 10 7 11 8 12 9 14 10 13 11 15 12
REMARK SMILES IDX 9 13 6 15 7 16 8 17 5 18 1 19 2 20 3 21 90 22 4 23 89 24
REMARK SMILES IDX 91 25 21 26 22 27 23 28 24 29 25 31 26 32 27 33 88 34 28 35
REMARK SMILES IDX 87 36 29 37 30 38 31 39 81 40 32 41 86 42 80 43 82 44 33 45
REMARK SMILES IDX 85 46 79 47 78 48 34 50 66 51 46 52 65 53 47 54 50 55 64 56
REMARK SMILES IDX 83 57 48 58 49 59 63 61 84 62 51 63 35 64 36 65 44 66 37 67
REMARK SMILES IDX 38 68 42 69 45 70 39 71 40 72 43 73 41 74 67 75 68 76 76 77
REMARK SMILES IDX 69 78 70 79 74 80 77 81 71 82 72 83 75 84 73 85 52 86 53 87
REMARK SMILES IDX 61 88 54 89 55 90 59 91 62 92 56 93 57 94 60 95 58 96
REMARK H PARENT 19 5 9 14 23 30 82 49 50 60
REMARK Flexibility Score: inf
ROOT
ATOM      1  C   UNL A   1      32.282  27.201  26.812  1.00  0.00     0.118 C 
ENDROOT
BRANCH   1   2
ATOM      2  N   UNL A   1      31.430  26.050  26.566  1.00  0.00    -0.352 N 
ATOM      3  C   UNL A   1      31.634  24.718  26.317  1.00  0.00     0.256 C 
ATOM      4  O   UNL A   1      30.601  24.044  26.223  1.00  0.00    -0.269 OA
ATOM      5  H   UNL A   1      30.473  26.285  26.582  1.00  0.00     0.163 HD
BRANCH   3   6
ATOM      6  C   UNL A   1      32.944  24.041  26.072  1.00  0.00     0.099 A 
ATOM      7  C   UNL A   1      33.579  24.198  24.807  1.00  0.00     0.065 A 
ATOM      8  C   UNL A   1      34.883  23.729  24.594  1.00  0.00     0.028 A 
ATOM      9  C   UNL A   1      35.518  22.973  25.575  1.00  0.00     0.005 A 
ATOM     10  C   UNL A   1      33.546  23.156  26.962  1.00  0.00     0.138 A 
ATOM     11  C   UNL A   1      34.827  22.648  26.737  1.00  0.00     0.040 A 
ATOM     12  F   UNL A   1      32.865  22.616  27.980  1.00  0.00    -0.206 F 
BRANCH   7  13
ATOM     13  N   UNL A   1      32.839  24.721  23.695  1.00  0.00    -0.279 N 
ATOM     14  H   UNL A   1      32.101  24.183  23.327  1.00  0.00     0.180 HD
BRANCH  13  15
ATOM     15  S   UNL A   1      33.178  26.218  22.990  1.00  0.00     0.261 S 
ATOM     16  O   UNL A   1      33.628  25.939  21.637  1.00  0.00    -0.201 OA
ATOM     17  O   UNL A   1      34.026  26.924  23.923  1.00  0.00    -0.201 OA
BRANCH  15  18
ATOM     18  C   UNL A   1      31.702  27.209  22.814  1.00  0.00     0.089 A 
ATOM     19  C   UNL A   1      28.143  29.638  23.118  1.00  0.00     0.046 C 
ATOM     20  C   UNL A   1      29.355  28.757  22.981  1.00  0.00    -0.032 A 
ATOM     21  C   UNL A   1      30.528  29.284  22.419  1.00  0.00     0.006 A 
ATOM     22  C   UNL A   1      29.343  27.406  23.354  1.00  0.00     0.045 A 
ATOM     23  C   UNL A   1      31.684  28.501  22.299  1.00  0.00     0.022 A 
ATOM     24  C   UNL A   1      30.514  26.647  23.298  1.00  0.00     0.043 A 
ATOM     25  Cl  UNL A   1      27.903  26.627  23.901  1.00  0.00    -0.084 Cl
ENDBRANCH  15  18
ENDBRANCH  13  15
ENDBRANCH   7  13
ENDBRANCH   3   6
ENDBRANCH   1   2
BRANCH   1  26
ATOM     26  C   UNL A   1      31.695  28.523  26.337  1.00  0.00     0.042 C 
BRANCH  26  27
ATOM     27  C   UNL A   1      32.697  29.508  25.750  1.00  0.00     0.118 C 
BRANCH  27  28
ATOM     28  N   UNL A   1      32.434  30.890  26.130  1.00  0.00    -0.352 N 
ATOM     29  C   UNL A   1      33.039  31.724  27.038  1.00  0.00     0.251 C 
ATOM     30  H   UNL A   1      31.684  31.304  25.643  1.00  0.00     0.163 HD
ATOM     31  O   UNL A   1      32.505  32.799  27.306  1.00  0.00    -0.269 OA
BRANCH  29  32
ATOM     32  C   UNL A   1      34.301  31.356  27.720  1.00  0.00     0.039 A 
ATOM     33  C   UNL A   1      35.271  32.346  27.921  1.00  0.00     0.014 A 
ATOM     34  C   UNL A   1      34.574  30.044  28.106  1.00  0.00     0.014 A 
ATOM     35  C   UNL A   1      36.469  32.035  28.574  1.00  0.00     0.010 A 
ATOM     36  C   UNL A   1      35.724  29.752  28.837  1.00  0.00     0.010 A 
ATOM     37  C   UNL A   1      36.687  30.744  29.075  1.00  0.00    -0.014 A 
BRANCH  37  38
ATOM     38  C   UNL A   1      37.908  30.403  29.849  1.00  0.00     0.031 A 
ATOM     39  C   UNL A   1      38.937  29.468  29.276  1.00  0.00     0.074 A 
ATOM     40  C   UNL A   1      38.047  30.860  31.109  1.00  0.00     0.049 A 
ATOM     41  N   UNL A   1      40.006  28.965  29.841  1.00  0.00    -0.248 NA
ATOM     42  C   UNL A   1      38.716  29.008  27.896  1.00  0.00     0.031 C 
ATOM     43  C   UNL A   1      37.092  31.725  31.801  1.00  0.00     0.029 A 
ATOM     44  N   UNL A   1      39.037  30.646  32.036  1.00  0.00    -0.354 N 
ATOM     45  C   UNL A   1      40.561  28.107  28.901  1.00  0.00     0.074 A 
ATOM     46  C   UNL A   1      39.690  28.124  27.746  1.00  0.00     0.031 C 
ATOM     47  C   UNL A   1      37.551  31.986  33.034  1.00  0.00     0.029 A 
ATOM     48  C   UNL A   1      38.812  31.277  33.235  1.00  0.00     0.049 A 
ATOM     49  H   UNL A   1      39.832  30.094  31.860  1.00  0.00     0.167 HD
ATOM     50  C   UNL A   1      41.706  27.386  28.987  1.00  0.00     0.037 A 
ATOM     51  C   UNL A   1      39.533  31.281  34.373  1.00  0.00     0.037 A 
ATOM     52  C   UNL A   1      42.596  27.415  30.117  1.00  0.00     0.049 A 
ATOM     53  C   UNL A   1      40.818  30.505  34.434  1.00  0.00     0.074 A 
ATOM     54  C   UNL A   1      43.831  26.806  30.256  1.00  0.00     0.029 A 
ATOM     55  N   UNL A   1      42.348  28.092  31.302  1.00  0.00    -0.354 N 
ATOM     56  N   UNL A   1      41.370  29.752  33.514  1.00  0.00    -0.248 NA
ATOM     57  C   UNL A   1      41.582  30.580  35.687  1.00  0.00     0.031 C 
ATOM     58  C   UNL A   1      44.308  27.075  31.542  1.00  0.00     0.029 A 
ATOM     59  C   UNL A   1      43.394  27.893  32.188  1.00  0.00     0.049 A 
ATOM     60  H   UNL A   1      41.547  28.634  31.487  1.00  0.00     0.167 HD
ATOM     61  C   UNL A   1      42.548  29.274  34.068  1.00  0.00     0.074 A 
ATOM     62  C   UNL A   1      42.640  29.832  35.401  1.00  0.00     0.031 C 
ATOM     63  C   UNL A   1      43.470  28.447  33.516  1.00  0.00     0.037 A 
BRANCH  50  64
ATOM     64  C   UNL A   1      42.064  26.506  27.825  1.00  0.00     0.064 A 
ATOM     65  C   UNL A   1      41.509  25.221  27.711  1.00  0.00     0.173 A 
ATOM     66  C   UNL A   1      42.985  26.911  26.847  1.00  0.00     0.173 A 
ATOM     67  F   UNL A   1      40.630  24.780  28.623  1.00  0.00    -0.203 F 
ATOM     68  C   UNL A   1      41.863  24.378  26.661  1.00  0.00     0.198 A 
ATOM     69  C   UNL A   1      43.313  26.077  25.782  1.00  0.00     0.198 A 
ATOM     70  F   UNL A   1      43.537  28.132  26.906  1.00  0.00    -0.203 F 
ATOM     71  F   UNL A   1      41.336  23.148  26.583  1.00  0.00    -0.200 F 
ATOM     72  C   UNL A   1      42.758  24.810  25.693  1.00  0.00     0.200 A 
ATOM     73  F   UNL A   1      44.157  26.507  24.833  1.00  0.00    -0.200 F 
ATOM     74  F   UNL A   1      43.081  24.005  24.670  1.00  0.00    -0.200 F 
ENDBRANCH  50  64
BRANCH  51  75
ATOM     75  C   UNL A   1      39.057  32.089  35.523  1.00  0.00     0.064 A 
ATOM     76  C   UNL A   1      39.414  33.438  35.665  1.00  0.00     0.173 A 
ATOM     77  C   UNL A   1      38.302  31.499  36.545  1.00  0.00     0.173 A 
ATOM     78  F   UNL A   1      40.145  34.042  34.717  1.00  0.00    -0.203 F 
ATOM     79  C   UNL A   1      39.058  34.157  36.803  1.00  0.00     0.198 A 
ATOM     80  C   UNL A   1      37.929  32.227  37.673  1.00  0.00     0.198 A 
ATOM     81  F   UNL A   1      37.924  30.216  36.443  1.00  0.00    -0.203 F 
ATOM     82  F   UNL A   1      39.450  35.431  36.937  1.00  0.00    -0.200 F 
ATOM     83  C   UNL A   1      38.317  33.551  37.806  1.00  0.00     0.200 A 
ATOM     84  F   UNL A   1      37.201  31.641  38.633  1.00  0.00    -0.200 F 
ATOM     85  F   UNL A   1      37.982  34.242  38.904  1.00  0.00    -0.200 F 
ENDBRANCH  51  75
BRANCH  63  86
ATOM     86  C   UNL A   1      44.668  28.090  34.344  1.00  0.00     0.064 A 
ATOM     87  C   UNL A   1      45.828  28.878  34.295  1.00  0.00     0.173 A 
ATOM     88  C   UNL A   1      44.700  26.919  35.115  1.00  0.00     0.173 A 
ATOM     89  F   UNL A   1      45.850  30.004  33.564  1.00  0.00    -0.203 F 
ATOM     90  C   UNL A   1      46.982  28.496  34.973  1.00  0.00     0.198 A 
ATOM     91  C   UNL A   1      45.848  26.554  35.812  1.00  0.00     0.198 A 
ATOM     92  F   UNL A   1      43.611  26.140  35.205  1.00  0.00    -0.203 F 
ATOM     93  F   UNL A   1      48.089  29.246  34.882  1.00  0.00    -0.200 F 
ATOM     94  C   UNL A   1      46.991  27.336  35.731  1.00  0.00     0.200 A 
ATOM     95  F   UNL A   1      45.849  25.444  36.563  1.00  0.00    -0.200 F 
ATOM     96  F   UNL A   1      48.102  26.972  36.387  1.00  0.00    -0.200 F 
ENDBRANCH  63  86
ENDBRANCH  37  38
ENDBRANCH  29  32
ENDBRANCH  27  28
ENDBRANCH  26  27
ENDBRANCH   1  26
TORSDOF 13
ENDMDL
MODEL 2
REMARK VINA RESULT:     -12.8      2.157      4.110
REMARK SMILES Cc1ccc(S(=O)(=O)Nc2cccc(F)c2C(=O)NCCCNC(=O)c2ccc(-c3c4nc(c(-c5c(F)c(F)c(F)c(F)c5F)c5ccc([nH]5)c(-c5c(F)c(F)c(F)c(F)c5F)c5nc(c(-c6c(F)c(F)c(F)c(F)c6F)c6ccc3[nH]6)C=C5)C=C4)cc2)cc1Cl
REMARK SMILES IDX 20 1 19 2 17 3 18 4 16 6 10 7 11 8 12 9 14 10 13 11 15 12
REMARK SMILES IDX 9 13 6 15 7 16 8 17 5 18 1 19 2 20 3 21 90 22 4 23 89 24
REMARK SMILES IDX 91 25 21 26 22 27 23 28 24 29 25 31 26 32 27 33 88 34 28 35
REMARK SMILES IDX 87 36 29 37 30 38 31 39 81 40 32 41 86 42 80 43 82 44 33 45
REMARK SMILES IDX 85 46 79 47 78 48 34 50 66 51 46 52 65 53 47 54 50 55 64 56
REMARK SMILES IDX 83 57 48 58 49 59 63 61 84 62 51 63 35 64 36 65 44 66 37 67
REMARK SMILES IDX 38 68 42 69 45 70 39 71 40 72 43 73 41 74 67 75 68 76 76 77
REMARK SMILES IDX 69 78 70 79 74 80 77 81 71 82 72 83 75 84 73 85 52 86 53 87
REMARK SMILES IDX 61 88 54 89 55 90 59 91 62 92 56 93 57 94 60 95 58 96
REMARK H PARENT 19 5 9 14 23 30 82 49 50 60
REMARK Flexibility Score: inf
ROOT
ATOM      1  C   UNL A   1      31.531  30.541  26.528  1.00  0.00     0.118 C 
ENDROOT
BRANCH   1   2
ATOM      2  N   UNL A   1      32.295  30.100  25.374  1.00  0.00    -0.352 N 
ATOM      3  C   UNL A   1      32.022  29.387  24.235  1.00  0.00     0.256 C 
ATOM      4  O   UNL A   1      32.973  29.279  23.451  1.00  0.00    -0.269 OA
ATOM      5  H   UNL A   1      33.238  30.380  25.422  1.00  0.00     0.163 HD
BRANCH   3   6
ATOM      6  C   UNL A   1      30.749  28.679  23.903  1.00  0.00     0.099 A 
ATOM      7  C   UNL A   1      30.657  27.276  24.127  1.00  0.00     0.065 A 
ATOM      8  C   UNL A   1      29.434  26.604  23.996  1.00  0.00     0.028 A 
ATOM      9  C   UNL A   1      28.322  27.279  23.501  1.00  0.00     0.005 A 
ATOM     10  C   UNL A   1      29.663  29.276  23.268  1.00  0.00     0.138 A 
ATOM     11  C   UNL A   1      28.454  28.602  23.092  1.00  0.00     0.040 A 
ATOM     12  F   UNL A   1      29.780  30.455  22.645  1.00  0.00    -0.206 F 
BRANCH   7  13
ATOM     13  N   UNL A   1      31.848  26.510  24.361  1.00  0.00    -0.279 N 
ATOM     14  H   UNL A   1      32.380  26.220  23.586  1.00  0.00     0.180 HD
BRANCH  13  15
ATOM     15  S   UNL A   1      32.375  26.084  25.909  1.00  0.00     0.261 S 
ATOM     16  O   UNL A   1      31.240  25.462  26.570  1.00  0.00    -0.201 OA
ATOM     17  O   UNL A   1      33.002  27.262  26.463  1.00  0.00    -0.201 OA
BRANCH  15  18
ATOM     18  C   UNL A   1      33.645  24.829  25.847  1.00  0.00     0.089 A 
ATOM     19  C   UNL A   1      36.201  21.378  25.388  1.00  0.00     0.046 C 
ATOM     20  C   UNL A   1      35.324  22.581  25.601  1.00  0.00    -0.032 A 
ATOM     21  C   UNL A   1      35.566  23.748  24.858  1.00  0.00     0.006 A 
ATOM     22  C   UNL A   1      34.296  22.599  26.553  1.00  0.00     0.045 A 
ATOM     23  C   UNL A   1      34.755  24.880  25.010  1.00  0.00     0.022 A 
ATOM     24  C   UNL A   1      33.445  23.702  26.655  1.00  0.00     0.043 A 
ATOM     25  Cl  UNL A   1      34.028  21.274  27.626  1.00  0.00    -0.084 Cl
ENDBRANCH  15  18
ENDBRANCH  13  15
ENDBRANCH   7  13
ENDBRANCH   3   6
ENDBRANCH   1   2
BRANCH   1  26
ATOM     26  C   UNL A   1      31.403  32.053  26.649  1.00  0.00     0.042 C 
BRANCH  26  27
ATOM     27  C   UNL A   1      32.694  32.793  26.970  1.00  0.00     0.118 C 
BRANCH  27  28
ATOM     28  N   UNL A   1      32.472  34.106  27.563  1.00  0.00    -0.352 N 
ATOM     29  C   UNL A   1      33.041  34.734  28.644  1.00  0.00     0.251 C 
ATOM     30  H   UNL A   1      31.788  34.644  27.102  1.00  0.00     0.163 HD
ATOM     31  O   UNL A   1      32.543  35.780  29.054  1.00  0.00    -0.269 OA
BRANCH  29  32
ATOM     32  C   UNL A   1      34.221  34.174  29.344  1.00  0.00     0.039 A 
ATOM     33  C   UNL A   1      34.013  33.297  30.415  1.00  0.00     0.014 A 
ATOM     34  C   UNL A   1      35.522  34.545  29.006  1.00  0.00     0.014 A 
ATOM     35  C   UNL A   1      35.105  32.739  31.089  1.00  0.00     0.010 A 
ATOM     36  C   UNL A   1      36.609  33.921  29.614  1.00  0.00     0.010 A 
ATOM     37  C   UNL A   1      36.413  33.014  30.666  1.00  0.00    -0.014 A 
BRANCH  37  38
ATOM     38  C   UNL A   1      37.591  32.371  31.302  1.00  0.00     0.031 A 
ATOM     39  C   UNL A   1      38.299  31.232  30.620  1.00  0.00     0.074 A 
ATOM     40  C   UNL A   1      37.967  32.747  32.540  1.00  0.00     0.049 A 
ATOM     41  N   UNL A   1      39.269  30.474  31.065  1.00  0.00    -0.248 NA
ATOM     42  C   UNL A   1      37.830  30.877  29.272  1.00  0.00     0.031 C 
ATOM     43  C   UNL A   1      37.327  33.796  33.333  1.00  0.00     0.029 A 
ATOM     44  N   UNL A   1      38.969  32.278  33.355  1.00  0.00    -0.354 N 
ATOM     45  C   UNL A   1      39.500  29.534  30.070  1.00  0.00     0.074 A 
ATOM     46  C   UNL A   1      38.542  29.789  29.017  1.00  0.00     0.031 C 
ATOM     47  C   UNL A   1      37.962  33.907  34.510  1.00  0.00     0.029 A 
ATOM     48  C   UNL A   1      39.029  32.911  34.571  1.00  0.00     0.049 A 
ATOM     49  H   UNL A   1      39.584  31.557  33.093  1.00  0.00     0.167 HD
ATOM     50  C   UNL A   1      40.439  28.558  30.032  1.00  0.00     0.037 A 
ATOM     51  C   UNL A   1      39.845  32.712  35.624  1.00  0.00     0.037 A 
ATOM     52  C   UNL A   1      41.425  28.343  31.058  1.00  0.00     0.049 A 
ATOM     53  C   UNL A   1      40.904  31.650  35.546  1.00  0.00     0.074 A 
ATOM     54  C   UNL A   1      42.483  27.452  31.062  1.00  0.00     0.029 A 
ATOM     55  N   UNL A   1      41.472  29.027  32.264  1.00  0.00    -0.354 N 
ATOM     56  N   UNL A   1      41.160  30.812  34.570  1.00  0.00    -0.248 NA
ATOM     57  C   UNL A   1      41.791  31.506  36.709  1.00  0.00     0.031 C 
ATOM     58  C   UNL A   1      43.144  27.565  32.288  1.00  0.00     0.029 A 
ATOM     59  C   UNL A   1      42.527  28.559  33.031  1.00  0.00     0.049 A 
ATOM     60  H   UNL A   1      40.849  29.739  32.534  1.00  0.00     0.167 HD
ATOM     61  C   UNL A   1      42.240  30.052  34.993  1.00  0.00     0.074 A 
ATOM     62  C   UNL A   1      42.602  30.536  36.309  1.00  0.00     0.031 C 
ATOM     63  C   UNL A   1      42.872  29.044  34.343  1.00  0.00     0.037 A 
BRANCH  50  64
ATOM     64  C   UNL A   1      40.452  27.650  28.836  1.00  0.00     0.064 A 
ATOM     65  C   UNL A   1      39.681  26.476  28.830  1.00  0.00     0.173 A 
ATOM     66  C   UNL A   1      41.253  27.913  27.716  1.00  0.00     0.173 A 
ATOM     67  F   UNL A   1      38.903  26.171  29.879  1.00  0.00    -0.203 F 
ATOM     68  C   UNL A   1      39.714  25.603  27.746  1.00  0.00     0.198 A 
ATOM     69  C   UNL A   1      41.260  27.054  26.621  1.00  0.00     0.198 A 
ATOM     70  F   UNL A   1      42.002  29.025  27.668  1.00  0.00    -0.203 F 
ATOM     71  F   UNL A   1      38.985  24.478  27.770  1.00  0.00    -0.200 F 
ATOM     72  C   UNL A   1      40.496  25.897  26.639  1.00  0.00     0.200 A 
ATOM     73  F   UNL A   1      41.996  27.353  25.541  1.00  0.00    -0.200 F 
ATOM     74  F   UNL A   1      40.509  25.066  25.586  1.00  0.00    -0.200 F 
ENDBRANCH  50  64
BRANCH  51  75
ATOM     75  C   UNL A   1      39.701  33.579  36.820  1.00  0.00     0.064 A 
ATOM     76  C   UNL A   1      38.850  33.228  37.878  1.00  0.00     0.173 A 
ATOM     77  C   UNL A   1      40.351  34.818  36.886  1.00  0.00     0.173 A 
ATOM     78  F   UNL A   1      38.198  32.056  37.855  1.00  0.00    -0.203 F 
ATOM     79  C   UNL A   1      38.634  34.099  38.944  1.00  0.00     0.198 A 
ATOM     80  C   UNL A   1      40.150  35.679  37.962  1.00  0.00     0.198 A 
ATOM     81  F   UNL A   1      41.187  35.188  35.903  1.00  0.00    -0.203 F 
ATOM     82  F   UNL A   1      37.781  33.760  39.920  1.00  0.00    -0.200 F 
ATOM     83  C   UNL A   1      39.283  35.324  38.984  1.00  0.00     0.200 A 
ATOM     84  F   UNL A   1      40.790  36.856  38.004  1.00  0.00    -0.200 F 
ATOM     85  F   UNL A   1      39.067  36.163  40.005  1.00  0.00    -0.200 F 
ENDBRANCH  51  75
BRANCH  63  86
ATOM     86  C   UNL A   1      44.029  28.388  35.037  1.00  0.00     0.064 A 
ATOM     87  C   UNL A   1      45.332  28.881  34.868  1.00  0.00     0.173 A 
ATOM     88  C   UNL A   1      43.861  27.220  35.793  1.00  0.00     0.173 A 
ATOM     89  F   UNL A   1      45.547  29.992  34.146  1.00  0.00    -0.203 F 
ATOM     90  C   UNL A   1      46.425  28.217  35.416  1.00  0.00     0.198 A 
ATOM     91  C   UNL A   1      44.954  26.573  36.361  1.00  0.00     0.198 A 
ATOM     92  F   UNL A   1      42.633  26.718  35.994  1.00  0.00    -0.203 F 
ATOM     93  F   UNL A   1      47.664  28.687  35.212  1.00  0.00    -0.200 F 
ATOM     94  C   UNL A   1      46.236  27.065  36.163  1.00  0.00     0.200 A 
ATOM     95  F   UNL A   1      44.767  25.470  37.101  1.00  0.00    -0.200 F 
ATOM     96  F   UNL A   1      47.289  26.428  36.693  1.00  0.00    -0.200 F 
ENDBRANCH  63  86
ENDBRANCH  37  38
ENDBRANCH  29  32
ENDBRANCH  27  28
ENDBRANCH  26  27
ENDBRANCH   1  26
TORSDOF 13
ENDMDL
MODEL 3
REMARK VINA RESULT:     -12.8      0.733      7.357
REMARK SMILES Cc1ccc(S(=O)(=O)Nc2cccc(F)c2C(=O)NCCCNC(=O)c2ccc(-c3c4nc(c(-c5c(F)c(F)c(F)c(F)c5F)c5ccc([nH]5)c(-c5c(F)c(F)c(F)c(F)c5F)c5nc(c(-c6c(F)c(F)c(F)c(F)c6F)c6ccc3[nH]6)C=C5)C=C4)cc2)cc1Cl
REMARK SMILES IDX 20 1 19 2 17 3 18 4 16 6 10 7 11 8 12 9 14 10 13 11 15 12
REMARK SMILES IDX 9 13 6 15 7 16 8 17 5 18 1 19 2 20 3 21 90 22 4 23 89 24
REMARK SMILES IDX 91 25 21 26 22 27 23 28 24 29 25 31 26 32 27 33 88 34 28 35
REMARK SMILES IDX 87 36 29 37 30 38 31 39 81 40 32 41 86 42 80 43 82 44 33 45
REMARK SMILES IDX 85 46 79 47 78 48 34 50 66 51 46 52 65 53 47 54 50 55 64 56
REMARK SMILES IDX 83 57 48 58 49 59 63 61 84 62 51 63 35 64 36 65 44 66 37 67
REMARK SMILES IDX 38 68 42 69 45 70 39 71 40 72 43 73 41 74 67 75 68 76 76 77
REMARK SMILES IDX 69 78 70 79 74 80 77 81 71 82 72 83 75 84 73 85 52 86 53 87
REMARK SMILES IDX 61 88 54 89 55 90 59 91 62 92 56 93 57 94 60 95 58 96
REMARK H PARENT 19 5 9 14 23 30 82 49 50 60
REMARK Flexibility Score: inf
ROOT
ATOM      1  C   UNL A   1      32.622  27.014  26.596  1.00  0.00     0.118 C 
ENDROOT
BRANCH   1   2
ATOM      2  N   UNL A   1      31.680  25.912  26.697  1.00  0.00    -0.352 N 
ATOM      3  C   UNL A   1      31.753  24.549  26.575  1.00  0.00     0.256 C 
ATOM      4  O   UNL A   1      30.695  23.951  26.804  1.00  0.00    -0.269 OA
ATOM      5  H   UNL A   1      30.767  26.220  26.903  1.00  0.00     0.163 HD
BRANCH   3   6
ATOM      6  C   UNL A   1      32.931  23.750  26.121  1.00  0.00     0.099 A 
ATOM      7  C   UNL A   1      33.219  23.668  24.729  1.00  0.00     0.065 A 
ATOM      8  C   UNL A   1      34.407  23.080  24.273  1.00  0.00     0.028 A 
ATOM      9  C   UNL A   1      35.252  22.436  25.172  1.00  0.00     0.005 A 
ATOM     10  C   UNL A   1      33.718  22.968  26.963  1.00  0.00     0.138 A 
ATOM     11  C   UNL A   1      34.879  22.340  26.508  1.00  0.00     0.040 A 
ATOM     12  F   UNL A   1      33.309  22.638  28.194  1.00  0.00    -0.206 F 
BRANCH   7  13
ATOM     13  N   UNL A   1      32.230  24.069  23.770  1.00  0.00    -0.279 N 
ATOM     14  H   UNL A   1      31.465  23.472  23.605  1.00  0.00     0.180 HD
BRANCH  13  15
ATOM     15  S   UNL A   1      32.321  25.522  22.911  1.00  0.00     0.261 S 
ATOM     16  O   UNL A   1      32.314  25.164  21.503  1.00  0.00    -0.201 OA
ATOM     17  O   UNL A   1      33.421  26.263  23.483  1.00  0.00    -0.201 OA
BRANCH  15  18
ATOM     18  C   UNL A   1      30.864  26.525  23.162  1.00  0.00     0.089 A 
ATOM     19  C   UNL A   1      27.230  28.856  23.053  1.00  0.00     0.046 C 
ATOM     20  C   UNL A   1      28.521  28.086  23.115  1.00  0.00    -0.032 A 
ATOM     21  C   UNL A   1      28.558  26.862  23.801  1.00  0.00     0.006 A 
ATOM     22  C   UNL A   1      29.708  28.570  22.550  1.00  0.00     0.045 A 
ATOM     23  C   UNL A   1      29.736  26.104  23.858  1.00  0.00     0.022 A 
ATOM     24  C   UNL A   1      30.863  27.784  22.548  1.00  0.00     0.043 A 
ATOM     25  Cl  UNL A   1      29.800  30.137  21.832  1.00  0.00    -0.084 Cl
ENDBRANCH  15  18
ENDBRANCH  13  15
ENDBRANCH   7  13
ENDBRANCH   3   6
ENDBRANCH   1   2
BRANCH   1  26
ATOM     26  C   UNL A   1      31.990  28.339  26.197  1.00  0.00     0.042 C 
BRANCH  26  27
ATOM     27  C   UNL A   1      32.941  29.356  25.581  1.00  0.00     0.118 C 
BRANCH  27  28
ATOM     28  N   UNL A   1      32.707  30.718  26.046  1.00  0.00    -0.352 N 
ATOM     29  C   UNL A   1      33.307  31.469  27.028  1.00  0.00     0.251 C 
ATOM     30  H   UNL A   1      31.986  31.187  25.567  1.00  0.00     0.163 HD
ATOM     31  O   UNL A   1      32.797  32.539  27.352  1.00  0.00    -0.269 OA
BRANCH  29  32
ATOM     32  C   UNL A   1      34.535  31.015  27.721  1.00  0.00     0.039 A 
ATOM     33  C   UNL A   1      35.539  31.952  27.994  1.00  0.00     0.014 A 
ATOM     34  C   UNL A   1      34.743  29.675  28.048  1.00  0.00     0.014 A 
ATOM     35  C   UNL A   1      36.706  31.560  28.658  1.00  0.00     0.010 A 
ATOM     36  C   UNL A   1      35.861  29.301  28.791  1.00  0.00     0.010 A 
ATOM     37  C   UNL A   1      36.857  30.238  29.100  1.00  0.00    -0.014 A 
BRANCH  37  38
ATOM     38  C   UNL A   1      38.043  29.809  29.886  1.00  0.00     0.031 A 
ATOM     39  C   UNL A   1      38.260  30.324  31.282  1.00  0.00     0.074 A 
ATOM     40  C   UNL A   1      38.978  29.030  29.308  1.00  0.00     0.049 A 
ATOM     41  N   UNL A   1      39.285  30.154  32.078  1.00  0.00    -0.248 NA
ATOM     42  C   UNL A   1      37.197  31.171  31.845  1.00  0.00     0.031 C 
ATOM     43  C   UNL A   1      38.916  28.513  27.940  1.00  0.00     0.029 A 
ATOM     44  N   UNL A   1      40.171  28.551  29.791  1.00  0.00    -0.354 N 
ATOM     45  C   UNL A   1      39.007  30.900  33.216  1.00  0.00     0.074 A 
ATOM     46  C   UNL A   1      37.738  31.557  32.991  1.00  0.00     0.031 C 
ATOM     47  C   UNL A   1      40.009  27.773  27.701  1.00  0.00     0.029 A 
ATOM     48  C   UNL A   1      40.868  27.794  28.882  1.00  0.00     0.049 A 
ATOM     49  H   UNL A   1      40.496  28.733  30.702  1.00  0.00     0.167 HD
ATOM     50  C   UNL A   1      39.736  31.010  34.353  1.00  0.00     0.037 A 
ATOM     51  C   UNL A   1      42.067  27.188  28.982  1.00  0.00     0.037 A 
ATOM     52  C   UNL A   1      40.970  30.312  34.593  1.00  0.00     0.049 A 
ATOM     53  C   UNL A   1      42.841  27.291  30.265  1.00  0.00     0.074 A 
ATOM     54  C   UNL A   1      41.727  30.274  35.750  1.00  0.00     0.029 A 
ATOM     55  N   UNL A   1      41.630  29.528  33.657  1.00  0.00    -0.354 N 
ATOM     56  N   UNL A   1      42.536  27.943  31.361  1.00  0.00    -0.248 NA
ATOM     57  C   UNL A   1      44.123  26.576  30.329  1.00  0.00     0.031 C 
ATOM     58  C   UNL A   1      42.868  29.504  35.501  1.00  0.00     0.029 A 
ATOM     59  C   UNL A   1      42.799  29.023  34.203  1.00  0.00     0.049 A 
ATOM     60  H   UNL A   1      41.314  29.356  32.740  1.00  0.00     0.167 HD
ATOM     61  C   UNL A   1      43.576  27.707  32.248  1.00  0.00     0.074 A 
ATOM     62  C   UNL A   1      44.517  26.842  31.567  1.00  0.00     0.031 C 
ATOM     63  C   UNL A   1      43.732  28.169  33.512  1.00  0.00     0.037 A 
BRANCH  50  64
ATOM     64  C   UNL A   1      39.214  31.917  35.430  1.00  0.00     0.064 A 
ATOM     65  C   UNL A   1      39.548  33.281  35.432  1.00  0.00     0.173 A 
ATOM     66  C   UNL A   1      38.421  31.435  36.482  1.00  0.00     0.173 A 
ATOM     67  F   UNL A   1      40.310  33.793  34.454  1.00  0.00    -0.203 F 
ATOM     68  C   UNL A   1      39.105  34.125  36.446  1.00  0.00     0.198 A 
ATOM     69  C   UNL A   1      37.955  32.289  37.478  1.00  0.00     0.198 A 
ATOM     70  F   UNL A   1      38.068  30.142  36.523  1.00  0.00    -0.203 F 
ATOM     71  F   UNL A   1      39.453  35.420  36.438  1.00  0.00    -0.200 F 
ATOM     72  C   UNL A   1      38.302  33.631  37.463  1.00  0.00     0.200 A 
ATOM     73  F   UNL A   1      37.158  31.814  38.445  1.00  0.00    -0.200 F 
ATOM     74  F   UNL A   1      37.859  34.451  38.427  1.00  0.00    -0.200 F 
ENDBRANCH  50  64
BRANCH  51  75
ATOM     75  C   UNL A   1      42.571  26.397  27.832  1.00  0.00     0.064 A 
ATOM     76  C   UNL A   1      43.451  26.954  26.893  1.00  0.00     0.173 A 
ATOM     77  C   UNL A   1      42.112  25.093  27.607  1.00  0.00     0.173 A 
ATOM     78  F   UNL A   1      43.909  28.203  27.061  1.00  0.00    -0.203 F 
ATOM     79  C   UNL A   1      43.830  26.244  25.756  1.00  0.00     0.198 A 
ATOM     80  C   UNL A   1      42.509  24.376  26.480  1.00  0.00     0.198 A 
ATOM     81  F   UNL A   1      41.281  24.514  28.488  1.00  0.00    -0.203 F 
ATOM     82  F   UNL A   1      44.636  26.814  24.850  1.00  0.00    -0.200 F 
ATOM     83  C   UNL A   1      43.358  24.956  25.550  1.00  0.00     0.200 A 
ATOM     84  F   UNL A   1      42.061  23.127  26.292  1.00  0.00    -0.200 F 
ATOM     85  F   UNL A   1      43.717  24.277  24.453  1.00  0.00    -0.200 F 
ENDBRANCH  51  75
BRANCH  63  86
ATOM     86  C   UNL A   1      44.964  27.751  34.259  1.00  0.00     0.064 A 
ATOM     87  C   UNL A   1      44.969  26.572  35.018  1.00  0.00     0.173 A 
ATOM     88  C   UNL A   1      46.107  28.562  34.294  1.00  0.00     0.173 A 
ATOM     89  F   UNL A   1      43.897  25.765  35.023  1.00  0.00    -0.203 F 
ATOM     90  C   UNL A   1      46.068  26.230  35.802  1.00  0.00     0.198 A 
ATOM     91  C   UNL A   1      47.213  28.205  35.059  1.00  0.00     0.198 A 
ATOM     92  F   UNL A   1      46.154  29.693  33.574  1.00  0.00    -0.203 F 
ATOM     93  F   UNL A   1      46.037  25.116  36.548  1.00  0.00    -0.200 F 
ATOM     94  C   UNL A   1      47.189  27.045  35.821  1.00  0.00     0.200 A 
ATOM     95  F   UNL A   1      48.305  28.983  35.060  1.00  0.00    -0.200 F 
ATOM     96  F   UNL A   1      48.247  26.713  36.573  1.00  0.00    -0.200 F 
ENDBRANCH  63  86
ENDBRANCH  37  38
ENDBRANCH  29  32
ENDBRANCH  27  28
ENDBRANCH  26  27
ENDBRANCH   1  26
TORSDOF 13
ENDMDL
