MODEL 1
REMARK VINA RESULT:     -13.4      0.000      0.000
REMARK SMILES O=C(NCCCNC(=O)[C@H]1CC2(CCN(S(=O)(=O)N3CCOCC3)CC2)C[NH2+]1)c1ccc(-c2c3nc(c(-c4c(F)c(F)c(F)c(F)c4F)c4ccc([nH]4)c(-c4c(F)c(F)c(F)c(F)c4F)c4nc(c(-c5c(F)c(F)c(F)c(F)c5F)c5ccc2[nH]5)C=C4)C=C3)cc1
REMARK SMILES IDX 5 1 4 2 3 3 1 4 2 5 29 7 30 8 91 9 31 10 90 11 32 12 33 13
REMARK SMILES IDX 34 14 84 15 35 16 89 17 83 18 85 19 36 20 88 21 82 22 81 23
REMARK SMILES IDX 37 25 69 26 49 27 68 28 50 29 53 30 67 31 86 32 51 33 52 34
REMARK SMILES IDX 66 36 87 37 54 38 38 39 39 40 47 41 40 42 41 43 45 44 48 45
REMARK SMILES IDX 42 46 43 47 46 48 44 49 70 50 71 51 79 52 72 53 73 54 77 55
REMARK SMILES IDX 80 56 74 57 75 58 78 59 76 60 55 61 56 62 64 63 57 64 58 65
REMARK SMILES IDX 62 66 65 67 59 68 60 69 63 70 61 71 6 72 7 73 8 74 9 76
REMARK SMILES IDX 10 77 11 78 28 79 12 80 27 81 13 84 26 85 14 86 25 87 15 88
REMARK SMILES IDX 16 89 17 90 18 91 19 92 20 93 24 94 21 95 23 96 22 97
REMARK H PARENT 3 6 85 24 53 35 7 75 28 82 28 83
REMARK Flexibility Score: inf
ROOT
ATOM      1  C   UNL A   1      31.420  32.570  26.556  1.00  0.00     0.042 C 
ENDROOT
BRANCH   1   2
ATOM      2  C   UNL A   1      32.609  33.089  27.334  1.00  0.00     0.118 C 
BRANCH   2   3
ATOM      3  N   UNL A   1      32.416  34.456  27.800  1.00  0.00    -0.352 N 
ATOM      4  O   UNL A   1      32.606  36.219  29.190  1.00  0.00    -0.269 OA
ATOM      5  C   UNL A   1      33.048  35.141  28.808  1.00  0.00     0.251 C 
ATOM      6  H   UNL A   1      31.726  34.966  27.318  1.00  0.00     0.163 HD
BRANCH   5   7
ATOM      7  C   UNL A   1      34.243  34.559  29.453  1.00  0.00     0.039 A 
ATOM      8  C   UNL A   1      35.507  34.713  28.882  1.00  0.00     0.014 A 
ATOM      9  C   UNL A   1      34.094  33.849  30.647  1.00  0.00     0.014 A 
ATOM     10  C   UNL A   1      36.587  34.004  29.387  1.00  0.00     0.010 A 
ATOM     11  C   UNL A   1      35.209  33.242  31.227  1.00  0.00     0.010 A 
ATOM     12  C   UNL A   1      36.455  33.286  30.582  1.00  0.00    -0.014 A 
BRANCH  12  13
ATOM     13  C   UNL A   1      37.643  32.645  31.189  1.00  0.00     0.031 A 
ATOM     14  C   UNL A   1      38.354  31.527  30.487  1.00  0.00     0.074 A 
ATOM     15  C   UNL A   1      38.055  33.062  32.401  1.00  0.00     0.049 A 
ATOM     16  N   UNL A   1      39.332  30.771  30.916  1.00  0.00    -0.248 NA
ATOM     17  C   UNL A   1      37.897  31.206  29.127  1.00  0.00     0.031 C 
ATOM     18  C   UNL A   1      37.445  34.149  33.169  1.00  0.00     0.029 A 
ATOM     19  N   UNL A   1      39.071  32.616  33.205  1.00  0.00    -0.354 N 
ATOM     20  C   UNL A   1      39.586  29.865  29.896  1.00  0.00     0.074 A 
ATOM     21  C   UNL A   1      38.642  30.149  28.836  1.00  0.00     0.031 C 
ATOM     22  C   UNL A   1      38.102  34.292  34.327  1.00  0.00     0.029 A 
ATOM     23  C   UNL A   1      39.124  33.256  34.417  1.00  0.00     0.049 A 
ATOM     24  H   UNL A   1      39.700  31.905  32.940  1.00  0.00     0.167 HD
ATOM     25  C   UNL A   1      40.525  28.888  29.855  1.00  0.00     0.037 A 
ATOM     26  C   UNL A   1      39.875  33.008  35.504  1.00  0.00     0.037 A 
ATOM     27  C   UNL A   1      41.453  28.622  30.923  1.00  0.00     0.049 A 
ATOM     28  C   UNL A   1      40.868  31.885  35.460  1.00  0.00     0.074 A 
ATOM     29  C   UNL A   1      42.466  27.679  30.972  1.00  0.00     0.029 A 
ATOM     30  N   UNL A   1      41.471  29.288  32.142  1.00  0.00    -0.354 N 
ATOM     31  N   UNL A   1      41.122  31.048  34.482  1.00  0.00    -0.248 NA
ATOM     32  C   UNL A   1      41.679  31.668  36.664  1.00  0.00     0.031 C 
ATOM     33  C   UNL A   1      43.047  27.727  32.243  1.00  0.00     0.029 A 
ATOM     34  C   UNL A   1      42.454  28.755  32.960  1.00  0.00     0.049 A 
ATOM     35  H   UNL A   1      40.874  30.031  32.387  1.00  0.00     0.167 HD
ATOM     36  C   UNL A   1      42.143  30.228  34.938  1.00  0.00     0.074 A 
ATOM     37  C   UNL A   1      42.460  30.667  36.282  1.00  0.00     0.031 C 
ATOM     38  C   UNL A   1      42.767  29.212  34.293  1.00  0.00     0.037 A 
BRANCH  25  39
ATOM     39  C   UNL A   1      40.556  28.007  28.637  1.00  0.00     0.064 A 
ATOM     40  C   UNL A   1      39.856  26.791  28.576  1.00  0.00     0.173 A 
ATOM     41  C   UNL A   1      41.298  28.388  27.507  1.00  0.00     0.173 A 
ATOM     42  F   UNL A   1      39.137  26.372  29.629  1.00  0.00    -0.203 F 
ATOM     43  C   UNL A   1      39.940  25.969  27.455  1.00  0.00     0.198 A 
ATOM     44  C   UNL A   1      41.348  27.582  26.372  1.00  0.00     0.198 A 
ATOM     45  F   UNL A   1      41.978  29.544  27.502  1.00  0.00    -0.203 F 
ATOM     46  F   UNL A   1      39.324  24.779  27.451  1.00  0.00    -0.200 F 
ATOM     47  C   UNL A   1      40.682  26.367  26.353  1.00  0.00     0.200 A 
ATOM     48  F   UNL A   1      42.050  27.977  25.302  1.00  0.00    -0.200 F 
ATOM     49  F   UNL A   1      40.764  25.572  25.276  1.00  0.00    -0.200 F 
ENDBRANCH  25  39
BRANCH  26  50
ATOM     50  C   UNL A   1      39.688  33.842  36.719  1.00  0.00     0.064 A 
ATOM     51  C   UNL A   1      40.288  35.102  36.828  1.00  0.00     0.173 A 
ATOM     52  C   UNL A   1      38.852  33.421  37.765  1.00  0.00     0.173 A 
ATOM     53  F   UNL A   1      41.102  35.542  35.857  1.00  0.00    -0.203 F 
ATOM     54  C   UNL A   1      40.065  35.908  37.942  1.00  0.00     0.198 A 
ATOM     55  C   UNL A   1      38.605  34.241  38.863  1.00  0.00     0.198 A 
ATOM     56  F   UNL A   1      38.242  32.228  37.700  1.00  0.00    -0.203 F 
ATOM     57  F   UNL A   1      40.672  37.098  38.035  1.00  0.00    -0.200 F 
ATOM     58  C   UNL A   1      39.216  35.481  38.953  1.00  0.00     0.200 A 
ATOM     59  F   UNL A   1      37.766  33.834  39.825  1.00  0.00    -0.200 F 
ATOM     60  F   UNL A   1      38.987  36.268  40.014  1.00  0.00    -0.200 F 
ENDBRANCH  26  50
BRANCH  38  61
ATOM     61  C   UNL A   1      43.904  28.533  35.003  1.00  0.00     0.064 A 
ATOM     62  C   UNL A   1      43.725  27.353  35.737  1.00  0.00     0.173 A 
ATOM     63  C   UNL A   1      45.208  29.037  34.874  1.00  0.00     0.173 A 
ATOM     64  F   UNL A   1      42.497  26.841  35.905  1.00  0.00    -0.203 F 
ATOM     65  C   UNL A   1      44.809  26.706  36.325  1.00  0.00     0.198 A 
ATOM     66  C   UNL A   1      46.293  28.371  35.435  1.00  0.00     0.198 A 
ATOM     67  F   UNL A   1      45.432  30.163  34.179  1.00  0.00    -0.203 F 
ATOM     68  F   UNL A   1      44.613  25.597  37.051  1.00  0.00    -0.200 F 
ATOM     69  C   UNL A   1      46.093  27.209  36.162  1.00  0.00     0.200 A 
ATOM     70  F   UNL A   1      47.533  28.849  35.261  1.00  0.00    -0.200 F 
ATOM     71  F   UNL A   1      47.137  26.572  36.708  1.00  0.00    -0.200 F 
ENDBRANCH  38  61
ENDBRANCH  12  13
ENDBRANCH   5   7
ENDBRANCH   2   3
ENDBRANCH   1   2
BRANCH   1  72
ATOM     72  C   UNL A   1      31.547  31.106  26.205  1.00  0.00     0.118 C 
BRANCH  72  73
ATOM     73  N   UNL A   1      30.722  30.723  25.071  1.00  0.00    -0.351 N 
ATOM     74  C   UNL A   1      30.991  29.786  24.105  1.00  0.00     0.278 C 
ATOM     75  H   UNL A   1      29.862  31.195  24.986  1.00  0.00     0.163 HD
ATOM     76  O   UNL A   1      30.207  29.669  23.165  1.00  0.00    -0.268 OA
BRANCH  74  77
ATOM     77  C   UNL A   1      32.278  28.980  24.269  1.00  0.00     0.273 C 
ATOM     78  C   UNL A   1      32.079  27.553  23.808  1.00  0.00     0.088 C 
ATOM     79  N   UNL A   1      33.351  29.377  23.348  1.00  0.00    -0.336 N 
ATOM     80  C   UNL A   1      33.502  27.011  23.678  1.00  0.00     0.028 C 
ATOM     81  C   UNL A   1      34.320  28.277  23.355  1.00  0.00     0.268 C 
ATOM     82  H   UNL A   1      33.793  30.239  23.669  1.00  0.00     0.346 HD
ATOM     83  H   UNL A   1      32.991  29.550  22.410  1.00  0.00     0.346 HD
ATOM     84  C   UNL A   1      33.486  25.978  22.547  1.00  0.00     0.030 C 
ATOM     85  C   UNL A   1      33.986  26.382  25.021  1.00  0.00     0.030 C 
ATOM     86  C   UNL A   1      32.764  24.730  23.028  1.00  0.00     0.104 C 
ATOM     87  C   UNL A   1      33.388  25.006  25.343  1.00  0.00     0.104 C 
ATOM     88  N   UNL A   1      33.460  24.103  24.163  1.00  0.00    -0.189 NA
BRANCH  88  89
ATOM     89  S   UNL A   1      34.972  23.369  23.931  1.00  0.00     0.282 S 
ATOM     90  O   UNL A   1      35.170  23.145  22.521  1.00  0.00    -0.195 OA
ATOM     91  O   UNL A   1      35.923  24.155  24.687  1.00  0.00    -0.195 OA
BRANCH  89  92
ATOM     92  N   UNL A   1      34.798  21.905  24.685  1.00  0.00    -0.184 NA
ATOM     93  C   UNL A   1      35.454  21.634  25.970  1.00  0.00     0.132 C 
ATOM     94  C   UNL A   1      33.754  20.923  24.336  1.00  0.00     0.132 C 
ATOM     95  C   UNL A   1      34.389  21.570  27.058  1.00  0.00     0.177 C 
ATOM     96  C   UNL A   1      32.815  20.607  25.515  1.00  0.00     0.177 C 
ATOM     97  O   UNL A   1      33.458  20.509  26.794  1.00  0.00    -0.379 OA
ENDBRANCH  89  92
ENDBRANCH  88  89
ENDBRANCH  74  77
ENDBRANCH  72  73
ENDBRANCH   1  72
TORSDOF 12
ENDMDL
MODEL 2
REMARK VINA RESULT:     -13.2      5.398     11.208
REMARK SMILES O=C(NCCCNC(=O)[C@H]1CC2(CCN(S(=O)(=O)N3CCOCC3)CC2)C[NH2+]1)c1ccc(-c2c3nc(c(-c4c(F)c(F)c(F)c(F)c4F)c4ccc([nH]4)c(-c4c(F)c(F)c(F)c(F)c4F)c4nc(c(-c5c(F)c(F)c(F)c(F)c5F)c5ccc2[nH]5)C=C4)C=C3)cc1
REMARK SMILES IDX 5 1 4 2 3 3 1 4 2 5 29 7 30 8 91 9 31 10 90 11 32 12 33 13
REMARK SMILES IDX 34 14 84 15 35 16 89 17 83 18 85 19 36 20 88 21 82 22 81 23
REMARK SMILES IDX 37 25 69 26 49 27 68 28 50 29 53 30 67 31 86 32 51 33 52 34
REMARK SMILES IDX 66 36 87 37 54 38 38 39 39 40 47 41 40 42 41 43 45 44 48 45
REMARK SMILES IDX 42 46 43 47 46 48 44 49 70 50 71 51 79 52 72 53 73 54 77 55
REMARK SMILES IDX 80 56 74 57 75 58 78 59 76 60 55 61 56 62 64 63 57 64 58 65
REMARK SMILES IDX 62 66 65 67 59 68 60 69 63 70 61 71 6 72 7 73 8 74 9 76
REMARK SMILES IDX 10 77 11 78 28 79 12 80 27 81 13 84 26 85 14 86 25 87 15 88
REMARK SMILES IDX 16 89 17 90 18 91 19 92 20 93 24 94 21 95 23 96 22 97
REMARK H PARENT 3 6 85 24 53 35 7 75 28 82 28 83
REMARK Flexibility Score: inf
ROOT
ATOM      1  C   UNL A   1      38.282  19.570  24.850  1.00  0.00     0.042 C 
ENDROOT
BRANCH   1   2
ATOM      2  C   UNL A   1      39.351  19.943  25.854  1.00  0.00     0.118 C 
BRANCH   2   3
ATOM      3  N   UNL A   1      40.433  18.969  25.902  1.00  0.00    -0.352 N 
ATOM      4  O   UNL A   1      42.562  18.230  25.856  1.00  0.00    -0.269 OA
ATOM      5  C   UNL A   1      41.785  19.161  26.047  1.00  0.00     0.251 C 
ATOM      6  H   UNL A   1      40.152  18.030  25.817  1.00  0.00     0.163 HD
BRANCH   5   7
ATOM      7  C   UNL A   1      42.303  20.498  26.399  1.00  0.00     0.039 A 
ATOM      8  C   UNL A   1      42.361  20.911  27.732  1.00  0.00     0.014 A 
ATOM      9  C   UNL A   1      42.737  21.350  25.382  1.00  0.00     0.014 A 
ATOM     10  C   UNL A   1      42.664  22.229  28.037  1.00  0.00     0.010 A 
ATOM     11  C   UNL A   1      43.166  22.639  25.703  1.00  0.00     0.010 A 
ATOM     12  C   UNL A   1      43.099  23.098  27.028  1.00  0.00    -0.014 A 
BRANCH  12  13
ATOM     13  C   UNL A   1      43.551  24.464  27.379  1.00  0.00     0.031 A 
ATOM     14  C   UNL A   1      42.582  25.483  27.898  1.00  0.00     0.074 A 
ATOM     15  C   UNL A   1      44.845  24.784  27.191  1.00  0.00     0.049 A 
ATOM     16  N   UNL A   1      42.772  26.754  28.143  1.00  0.00    -0.248 NA
ATOM     17  C   UNL A   1      41.214  25.016  28.165  1.00  0.00     0.031 C 
ATOM     18  C   UNL A   1      45.877  23.868  26.701  1.00  0.00     0.029 A 
ATOM     19  N   UNL A   1      45.511  25.967  27.374  1.00  0.00    -0.354 N 
ATOM     20  C   UNL A   1      41.544  27.247  28.561  1.00  0.00     0.074 A 
ATOM     21  C   UNL A   1      40.609  26.143  28.513  1.00  0.00     0.031 C 
ATOM     22  C   UNL A   1      47.045  24.518  26.631  1.00  0.00     0.029 A 
ATOM     23  C   UNL A   1      46.827  25.914  26.992  1.00  0.00     0.049 A 
ATOM     24  H   UNL A   1      45.087  26.777  27.742  1.00  0.00     0.167 HD
ATOM     25  C   UNL A   1      41.233  28.507  28.950  1.00  0.00     0.037 A 
ATOM     26  C   UNL A   1      47.749  26.888  26.892  1.00  0.00     0.037 A 
ATOM     27  C   UNL A   1      42.180  29.592  28.989  1.00  0.00     0.049 A 
ATOM     28  C   UNL A   1      47.369  28.288  27.271  1.00  0.00     0.074 A 
ATOM     29  C   UNL A   1      41.980  30.899  29.397  1.00  0.00     0.029 A 
ATOM     30  N   UNL A   1      43.506  29.500  28.586  1.00  0.00    -0.354 N 
ATOM     31  N   UNL A   1      46.213  28.744  27.691  1.00  0.00    -0.248 NA
ATOM     32  C   UNL A   1      48.416  29.312  27.165  1.00  0.00     0.031 C 
ATOM     33  C   UNL A   1      43.161  31.613  29.175  1.00  0.00     0.029 A 
ATOM     34  C   UNL A   1      44.125  30.734  28.704  1.00  0.00     0.049 A 
ATOM     35  H   UNL A   1      43.943  28.679  28.264  1.00  0.00     0.167 HD
ATOM     36  C   UNL A   1      46.399  30.096  27.932  1.00  0.00     0.074 A 
ATOM     37  C   UNL A   1      47.782  30.389  27.608  1.00  0.00     0.031 C 
ATOM     38  C   UNL A   1      45.507  31.007  28.390  1.00  0.00     0.037 A 
BRANCH  25  39
ATOM     39  C   UNL A   1      39.801  28.788  29.313  1.00  0.00     0.064 A 
ATOM     40  C   UNL A   1      39.307  28.589  30.612  1.00  0.00     0.173 A 
ATOM     41  C   UNL A   1      38.906  29.267  28.342  1.00  0.00     0.173 A 
ATOM     42  F   UNL A   1      40.114  28.125  31.579  1.00  0.00    -0.203 F 
ATOM     43  C   UNL A   1      37.965  28.810  30.911  1.00  0.00     0.198 A 
ATOM     44  C   UNL A   1      37.574  29.525  28.655  1.00  0.00     0.198 A 
ATOM     45  F   UNL A   1      39.323  29.487  27.087  1.00  0.00    -0.203 F 
ATOM     46  F   UNL A   1      37.502  28.542  32.141  1.00  0.00    -0.200 F 
ATOM     47  C   UNL A   1      37.101  29.282  29.935  1.00  0.00     0.200 A 
ATOM     48  F   UNL A   1      36.746  29.997  27.714  1.00  0.00    -0.200 F 
ATOM     49  F   UNL A   1      35.809  29.490  30.224  1.00  0.00    -0.200 F 
ENDBRANCH  25  39
BRANCH  26  50
ATOM     50  C   UNL A   1      49.107  26.551  26.394  1.00  0.00     0.064 A 
ATOM     51  C   UNL A   1      49.458  26.763  25.056  1.00  0.00     0.173 A 
ATOM     52  C   UNL A   1      50.099  26.071  27.264  1.00  0.00     0.173 A 
ATOM     53  F   UNL A   1      48.540  27.213  24.186  1.00  0.00    -0.203 F 
ATOM     54  C   UNL A   1      50.748  26.502  24.603  1.00  0.00     0.198 A 
ATOM     55  C   UNL A   1      51.397  25.839  26.816  1.00  0.00     0.198 A 
ATOM     56  F   UNL A   1      49.816  25.865  28.558  1.00  0.00    -0.203 F 
ATOM     57  F   UNL A   1      51.052  26.688  23.311  1.00  0.00    -0.200 F 
ATOM     58  C   UNL A   1      51.720  26.049  25.485  1.00  0.00     0.200 A 
ATOM     59  F   UNL A   1      52.336  25.426  27.677  1.00  0.00    -0.200 F 
ATOM     60  F   UNL A   1      52.966  25.818  25.051  1.00  0.00    -0.200 F 
ENDBRANCH  26  50
BRANCH  38  61
ATOM     61  C   UNL A   1      46.005  32.404  28.633  1.00  0.00     0.064 A 
ATOM     62  C   UNL A   1      46.593  32.784  29.846  1.00  0.00     0.173 A 
ATOM     63  C   UNL A   1      45.959  33.352  27.598  1.00  0.00     0.173 A 
ATOM     64  F   UNL A   1      46.644  31.922  30.873  1.00  0.00    -0.203 F 
ATOM     65  C   UNL A   1      47.111  34.066  30.018  1.00  0.00     0.198 A 
ATOM     66  C   UNL A   1      46.506  34.620  27.762  1.00  0.00     0.198 A 
ATOM     67  F   UNL A   1      45.408  33.035  26.416  1.00  0.00    -0.203 F 
ATOM     68  F   UNL A   1      47.639  34.421  31.198  1.00  0.00    -0.200 F 
ATOM     69  C   UNL A   1      47.078  34.977  28.972  1.00  0.00     0.200 A 
ATOM     70  F   UNL A   1      46.489  35.492  26.744  1.00  0.00    -0.200 F 
ATOM     71  F   UNL A   1      47.598  36.201  29.132  1.00  0.00    -0.200 F 
ENDBRANCH  38  61
ENDBRANCH  12  13
ENDBRANCH   5   7
ENDBRANCH   2   3
ENDBRANCH   1   2
BRANCH   1  72
ATOM     72  C   UNL A   1      36.992  20.326  25.065  1.00  0.00     0.118 C 
BRANCH  72  73
ATOM     73  N   UNL A   1      35.812  19.519  24.799  1.00  0.00    -0.351 N 
ATOM     74  C   UNL A   1      34.517  19.757  25.185  1.00  0.00     0.278 C 
ATOM     75  H   UNL A   1      35.962  18.698  24.276  1.00  0.00     0.163 HD
ATOM     76  O   UNL A   1      33.665  18.905  24.943  1.00  0.00    -0.268 OA
BRANCH  74  77
ATOM     77  C   UNL A   1      34.249  21.070  25.919  1.00  0.00     0.273 C 
ATOM     78  C   UNL A   1      33.154  21.854  25.231  1.00  0.00     0.088 C 
ATOM     79  N   UNL A   1      33.624  20.898  27.237  1.00  0.00    -0.336 N 
ATOM     80  C   UNL A   1      32.757  22.907  26.266  1.00  0.00     0.028 C 
ATOM     81  C   UNL A   1      33.080  22.209  27.603  1.00  0.00     0.268 C 
ATOM     82  H   UNL A   1      34.318  20.599  27.922  1.00  0.00     0.346 HD
ATOM     83  H   UNL A   1      32.894  20.186  27.212  1.00  0.00     0.346 HD
ATOM     84  C   UNL A   1      31.265  23.194  26.062  1.00  0.00     0.030 C 
ATOM     85  C   UNL A   1      33.616  24.199  26.109  1.00  0.00     0.030 C 
ATOM     86  C   UNL A   1      31.087  23.993  24.781  1.00  0.00     0.104 C 
ATOM     87  C   UNL A   1      33.233  25.087  24.916  1.00  0.00     0.104 C 
ATOM     88  N   UNL A   1      31.762  25.298  24.856  1.00  0.00    -0.189 NA
BRANCH  88  89
ATOM     89  S   UNL A   1      31.180  26.495  25.909  1.00  0.00     0.282 S 
ATOM     90  O   UNL A   1      29.951  26.036  26.504  1.00  0.00    -0.195 OA
ATOM     91  O   UNL A   1      32.299  26.877  26.744  1.00  0.00    -0.195 OA
BRANCH  89  92
ATOM     92  N   UNL A   1      30.843  27.758  24.891  1.00  0.00    -0.184 NA
ATOM     93  C   UNL A   1      31.666  28.973  24.896  1.00  0.00     0.132 C 
ATOM     94  C   UNL A   1      29.957  27.648  23.716  1.00  0.00     0.132 C 
ATOM     95  C   UNL A   1      32.475  29.020  23.606  1.00  0.00     0.177 C 
ATOM     96  C   UNL A   1      30.678  27.975  22.395  1.00  0.00     0.177 C 
ATOM     97  O   UNL A   1      31.605  29.068  22.464  1.00  0.00    -0.379 OA
ENDBRANCH  89  92
ENDBRANCH  88  89
ENDBRANCH  74  77
ENDBRANCH  72  73
ENDBRANCH   1  72
TORSDOF 12
ENDMDL
MODEL 3
REMARK VINA RESULT:     -13.2      0.365      1.615
REMARK SMILES O=C(NCCCNC(=O)[C@H]1CC2(CCN(S(=O)(=O)N3CCOCC3)CC2)C[NH2+]1)c1ccc(-c2c3nc(c(-c4c(F)c(F)c(F)c(F)c4F)c4ccc([nH]4)c(-c4c(F)c(F)c(F)c(F)c4F)c4nc(c(-c5c(F)c(F)c(F)c(F)c5F)c5ccc2[nH]5)C=C4)C=C3)cc1
REMARK SMILES IDX 5 1 4 2 3 3 1 4 2 5 29 7 30 8 91 9 31 10 90 11 32 12 33 13
REMARK SMILES IDX 34 14 84 15 35 16 89 17 83 18 85 19 36 20 88 21 82 22 81 23
REMARK SMILES IDX 37 25 69 26 49 27 68 28 50 29 53 30 67 31 86 32 51 33 52 34
REMARK SMILES IDX 66 36 87 37 54 38 38 39 39 40 47 41 40 42 41 43 45 44 48 45
REMARK SMILES IDX 42 46 43 47 46 48 44 49 70 50 71 51 79 52 72 53 73 54 77 55
REMARK SMILES IDX 80 56 74 57 75 58 78 59 76 60 55 61 56 62 64 63 57 64 58 65
REMARK SMILES IDX 62 66 65 67 59 68 60 69 63 70 61 71 6 72 7 73 8 74 9 76
REMARK SMILES IDX 10 77 11 78 28 79 12 80 27 81 13 84 26 85 14 86 25 87 15 88
REMARK SMILES IDX 16 89 17 90 18 91 19 92 20 93 24 94 21 95 23 96 22 97
REMARK H PARENT 3 6 85 24 53 35 7 75 28 82 28 83
REMARK Flexibility Score: inf
ROOT
ATOM      1  C   UNL A   1      31.349  32.221  26.609  1.00  0.00     0.042 C 
ENDROOT
BRANCH   1   2
ATOM      2  C   UNL A   1      32.601  32.820  27.211  1.00  0.00     0.118 C 
BRANCH   2   3
ATOM      3  N   UNL A   1      32.412  34.203  27.626  1.00  0.00    -0.352 N 
ATOM      4  O   UNL A   1      32.595  36.012  28.958  1.00  0.00    -0.269 OA
ATOM      5  C   UNL A   1      33.034  34.917  28.621  1.00  0.00     0.251 C 
ATOM      6  H   UNL A   1      31.735  34.702  27.116  1.00  0.00     0.163 HD
BRANCH   5   7
ATOM      7  C   UNL A   1      34.212  34.348  29.306  1.00  0.00     0.039 A 
ATOM      8  C   UNL A   1      35.499  34.565  28.809  1.00  0.00     0.014 A 
ATOM      9  C   UNL A   1      34.026  33.588  30.462  1.00  0.00     0.014 A 
ATOM     10  C   UNL A   1      36.574  33.871  29.343  1.00  0.00     0.010 A 
ATOM     11  C   UNL A   1      35.129  32.994  31.077  1.00  0.00     0.010 A 
ATOM     12  C   UNL A   1      36.405  33.102  30.501  1.00  0.00    -0.014 A 
BRANCH  12  13
ATOM     13  C   UNL A   1      37.581  32.475  31.146  1.00  0.00     0.031 A 
ATOM     14  C   UNL A   1      38.297  31.333  30.489  1.00  0.00     0.074 A 
ATOM     15  C   UNL A   1      37.976  32.927  32.350  1.00  0.00     0.049 A 
ATOM     16  N   UNL A   1      39.265  30.587  30.955  1.00  0.00    -0.248 NA
ATOM     17  C   UNL A   1      37.859  30.973  29.133  1.00  0.00     0.031 C 
ATOM     18  C   UNL A   1      37.359  34.039  33.076  1.00  0.00     0.029 A 
ATOM     19  N   UNL A   1      38.977  32.502  33.183  1.00  0.00    -0.354 N 
ATOM     20  C   UNL A   1      39.531  29.650  29.967  1.00  0.00     0.074 A 
ATOM     21  C   UNL A   1      38.605  29.905  28.885  1.00  0.00     0.031 C 
ATOM     22  C   UNL A   1      37.998  34.215  34.239  1.00  0.00     0.029 A 
ATOM     23  C   UNL A   1      39.015  33.178  34.376  1.00  0.00     0.049 A 
ATOM     24  H   UNL A   1      39.607  31.781  32.949  1.00  0.00     0.167 HD
ATOM     25  C   UNL A   1      40.466  28.669  29.970  1.00  0.00     0.037 A 
ATOM     26  C   UNL A   1      39.749  32.960  35.482  1.00  0.00     0.037 A 
ATOM     27  C   UNL A   1      41.377  28.431  31.060  1.00  0.00     0.049 A 
ATOM     28  C   UNL A   1      40.737  31.833  35.486  1.00  0.00     0.074 A 
ATOM     29  C   UNL A   1      42.384  27.487  31.153  1.00  0.00     0.029 A 
ATOM     30  N   UNL A   1      41.379  29.134  32.258  1.00  0.00    -0.354 N 
ATOM     31  N   UNL A   1      41.002  30.965  34.539  1.00  0.00    -0.248 NA
ATOM     32  C   UNL A   1      41.528  31.649  36.709  1.00  0.00     0.031 C 
ATOM     33  C   UNL A   1      42.947  27.571  32.431  1.00  0.00     0.029 A 
ATOM     34  C   UNL A   1      42.347  28.622  33.108  1.00  0.00     0.049 A 
ATOM     35  H   UNL A   1      40.781  29.886  32.472  1.00  0.00     0.167 HD
ATOM     36  C   UNL A   1      42.013  30.156  35.034  1.00  0.00     0.074 A 
ATOM     37  C   UNL A   1      42.311  30.634  36.370  1.00  0.00     0.031 C 
ATOM     38  C   UNL A   1      42.642  29.118  34.431  1.00  0.00     0.037 A 
BRANCH  25  39
ATOM     39  C   UNL A   1      40.512  27.751  28.780  1.00  0.00     0.064 A 
ATOM     40  C   UNL A   1      41.318  28.017  27.662  1.00  0.00     0.173 A 
ATOM     41  C   UNL A   1      39.735  26.581  28.758  1.00  0.00     0.173 A 
ATOM     42  F   UNL A   1      42.075  29.124  27.622  1.00  0.00    -0.203 F 
ATOM     43  C   UNL A   1      41.306  27.176  26.551  1.00  0.00     0.198 A 
ATOM     44  C   UNL A   1      39.755  25.722  27.663  1.00  0.00     0.198 A 
ATOM     45  F   UNL A   1      38.953  26.268  29.802  1.00  0.00    -0.203 F 
ATOM     46  F   UNL A   1      42.028  27.492  25.467  1.00  0.00    -0.200 F 
ATOM     47  C   UNL A   1      40.529  26.028  26.554  1.00  0.00     0.200 A 
ATOM     48  F   UNL A   1      39.017  24.604  27.676  1.00  0.00    -0.200 F 
ATOM     49  F   UNL A   1      40.516  25.222  25.482  1.00  0.00    -0.200 F 
ENDBRANCH  25  39
BRANCH  26  50
ATOM     50  C   UNL A   1      39.546  33.831  36.667  1.00  0.00     0.064 A 
ATOM     51  C   UNL A   1      38.730  33.425  37.729  1.00  0.00     0.173 A 
ATOM     52  C   UNL A   1      40.218  35.058  36.789  1.00  0.00     0.173 A 
ATOM     53  F   UNL A   1      38.061  32.264  37.654  1.00  0.00    -0.203 F 
ATOM     54  C   UNL A   1      38.586  34.216  38.867  1.00  0.00     0.198 A 
ATOM     55  C   UNL A   1      40.097  35.833  37.939  1.00  0.00     0.198 A 
ATOM     56  F   UNL A   1      41.023  35.484  35.804  1.00  0.00    -0.203 F 
ATOM     57  F   UNL A   1      37.778  33.818  39.858  1.00  0.00    -0.200 F 
ATOM     58  C   UNL A   1      39.278  35.415  38.975  1.00  0.00     0.200 A 
ATOM     59  F   UNL A   1      40.786  36.977  38.049  1.00  0.00    -0.200 F 
ATOM     60  F   UNL A   1      39.154  36.163  40.079  1.00  0.00    -0.200 F 
ENDBRANCH  26  50
BRANCH  38  61
ATOM     61  C   UNL A   1      43.765  28.457  35.178  1.00  0.00     0.064 A 
ATOM     62  C   UNL A   1      43.557  27.340  35.998  1.00  0.00     0.173 A 
ATOM     63  C   UNL A   1      45.083  28.909  35.002  1.00  0.00     0.173 A 
ATOM     64  F   UNL A   1      42.316  26.881  36.214  1.00  0.00    -0.203 F 
ATOM     65  C   UNL A   1      44.627  26.703  36.622  1.00  0.00     0.198 A 
ATOM     66  C   UNL A   1      46.152  28.251  35.600  1.00  0.00     0.198 A 
ATOM     67  F   UNL A   1      45.334  29.973  34.224  1.00  0.00    -0.203 F 
ATOM     68  F   UNL A   1      44.405  25.657  37.429  1.00  0.00    -0.200 F 
ATOM     69  C   UNL A   1      45.924  27.151  36.411  1.00  0.00     0.200 A 
ATOM     70  F   UNL A   1      47.405  28.675  35.380  1.00  0.00    -0.200 F 
ATOM     71  F   UNL A   1      46.954  26.523  36.993  1.00  0.00    -0.200 F 
ENDBRANCH  38  61
ENDBRANCH  12  13
ENDBRANCH   5   7
ENDBRANCH   2   3
ENDBRANCH   1   2
BRANCH   1  72
ATOM     72  C   UNL A   1      31.608  30.904  25.916  1.00  0.00     0.118 C 
BRANCH  72  73
ATOM     73  N   UNL A   1      30.611  30.591  24.906  1.00  0.00    -0.351 N 
ATOM     74  C   UNL A   1      30.723  29.732  23.841  1.00  0.00     0.278 C 
ATOM     75  H   UNL A   1      29.746  31.053  24.996  1.00  0.00     0.163 HD
ATOM     76  O   UNL A   1      29.796  29.670  23.035  1.00  0.00    -0.268 OA
BRANCH  74  77
ATOM     77  C   UNL A   1      32.022  28.937  23.734  1.00  0.00     0.273 C 
ATOM     78  C   UNL A   1      31.741  27.451  23.718  1.00  0.00     0.088 C 
ATOM     79  N   UNL A   1      32.692  29.063  22.432  1.00  0.00    -0.336 N 
ATOM     80  C   UNL A   1      33.056  26.838  23.235  1.00  0.00     0.028 C 
ATOM     81  C   UNL A   1      33.653  27.959  22.360  1.00  0.00     0.268 C 
ATOM     82  H   UNL A   1      33.177  29.959  22.369  1.00  0.00     0.346 HD
ATOM     83  H   UNL A   1      32.022  29.025  21.665  1.00  0.00     0.346 HD
ATOM     84  C   UNL A   1      32.697  25.569  22.455  1.00  0.00     0.030 C 
ATOM     85  C   UNL A   1      34.003  26.524  24.434  1.00  0.00     0.030 C 
ATOM     86  C   UNL A   1      32.243  24.498  23.434  1.00  0.00     0.104 C 
ATOM     87  C   UNL A   1      33.616  25.286  25.255  1.00  0.00     0.104 C 
ATOM     88  N   UNL A   1      33.317  24.130  24.371  1.00  0.00    -0.189 NA
BRANCH  88  89
ATOM     89  S   UNL A   1      34.687  23.303  23.808  1.00  0.00     0.282 S 
ATOM     90  O   UNL A   1      34.570  23.120  22.383  1.00  0.00    -0.195 OA
ATOM     91  O   UNL A   1      35.832  23.990  24.365  1.00  0.00    -0.195 OA
BRANCH  89  92
ATOM     92  N   UNL A   1      34.564  21.825  24.547  1.00  0.00    -0.184 NA
ATOM     93  C   UNL A   1      35.232  21.563  25.828  1.00  0.00     0.132 C 
ATOM     94  C   UNL A   1      33.552  20.813  24.191  1.00  0.00     0.132 C 
ATOM     95  C   UNL A   1      34.174  21.453  26.918  1.00  0.00     0.177 C 
ATOM     96  C   UNL A   1      32.627  20.454  25.370  1.00  0.00     0.177 C 
ATOM     97  O   UNL A   1      33.278  20.364  26.645  1.00  0.00    -0.379 OA
ENDBRANCH  89  92
ENDBRANCH  88  89
ENDBRANCH  74  77
ENDBRANCH  72  73
ENDBRANCH   1  72
TORSDOF 12
ENDMDL
