MODEL 1
REMARK VINA RESULT:     -12.9      0.000      0.000
REMARK SMILES CCc1cc(/C=C/C(=O)NCCCNC(=O)c2ccc(-c3c4nc(c(-c5c(F)c(F)c(F)c(F)c5F)c5ccc([nH]5)c(-c5c(F)c(F)c(F)c(F)c5F)c5nc(c(-c6c(F)c(F)c(F)c(F)c6F)c6ccc3[nH]6)C=C5)C=C4)cc2)cc(C(=O)c2ccccc2)c1
REMARK SMILES IDX 11 1 10 2 8 3 9 4 7 6 6 7 5 8 3 9 4 10 90 11 81 12 80 13
REMARK SMILES IDX 2 14 1 15 82 16 83 17 84 18 85 19 89 20 86 21 88 22 87 23
REMARK SMILES IDX 12 24 13 25 14 26 15 27 16 29 17 30 18 31 79 32 19 33 78 34
REMARK SMILES IDX 20 35 21 36 22 37 72 38 23 39 77 40 71 41 73 42 24 43 76 44
REMARK SMILES IDX 70 45 69 46 25 48 57 49 37 50 56 51 38 52 41 53 55 54 74 55
REMARK SMILES IDX 39 56 40 57 54 59 75 60 42 61 26 62 27 63 35 64 28 65 29 66
REMARK SMILES IDX 33 67 36 68 30 69 31 70 34 71 32 72 58 73 59 74 67 75 60 76
REMARK SMILES IDX 61 77 65 78 68 79 62 80 63 81 66 82 64 83 43 84 44 85 52 86
REMARK SMILES IDX 45 87 46 88 50 89 53 90 47 91 48 92 51 93 49 94
REMARK H PARENT 10 5 14 28 73 47 41 58
REMARK Flexibility Score: inf
ROOT
ATOM      1  C   UNL A   1      31.824  27.275  24.247  1.00  0.00     0.118 C 
ENDROOT
BRANCH   1   2
ATOM      2  N   UNL A   1      32.389  27.185  22.913  1.00  0.00    -0.352 N 
ATOM      3  C   UNL A   1      33.063  26.175  22.304  1.00  0.00     0.244 C 
ATOM      4  O   UNL A   1      33.352  26.272  21.113  1.00  0.00    -0.270 OA
ATOM      5  H   UNL A   1      32.262  27.988  22.357  1.00  0.00     0.163 HD
BRANCH   3   6
ATOM      6  C   UNL A   1      33.397  24.929  23.026  1.00  0.00     0.072 C 
ATOM      7  C   UNL A   1      34.582  24.303  22.951  1.00  0.00     0.014 C 
BRANCH   7   8
ATOM      8  C   UNL A   1      34.877  23.013  23.585  1.00  0.00    -0.024 A 
ATOM      9  C   UNL A   1      36.428  21.498  24.705  1.00  0.00    -0.047 A 
ATOM     10  C   UNL A   1      36.171  22.682  24.000  1.00  0.00     0.011 A 
ATOM     11  C   UNL A   1      35.369  20.621  24.972  1.00  0.00     0.016 A 
ATOM     12  C   UNL A   1      34.063  20.945  24.581  1.00  0.00     0.023 A 
ATOM     13  C   UNL A   1      33.825  22.139  23.884  1.00  0.00     0.020 A 
BRANCH   9  14
ATOM     14  C   UNL A   1      37.822  21.199  25.199  1.00  0.00     0.032 C 
ATOM     15  C   UNL A   1      38.202  19.741  24.967  1.00  0.00     0.009 C 
ENDBRANCH   9  14
BRANCH  12  16
ATOM     16  C   UNL A   1      32.905  20.053  24.866  1.00  0.00     0.193 C 
ATOM     17  O   UNL A   1      31.820  20.538  25.175  1.00  0.00    -0.289 OA
BRANCH  16  18
ATOM     18  C   UNL A   1      33.024  18.579  24.774  1.00  0.00     0.022 A 
ATOM     19  C   UNL A   1      33.554  18.023  23.606  1.00  0.00     0.012 A 
ATOM     20  C   UNL A   1      32.597  17.748  25.817  1.00  0.00     0.012 A 
ATOM     21  C   UNL A   1      33.702  16.639  23.500  1.00  0.00     0.001 A 
ATOM     22  C   UNL A   1      32.747  16.365  25.706  1.00  0.00     0.001 A 
ATOM     23  C   UNL A   1      33.305  15.813  24.552  1.00  0.00     0.000 A 
ENDBRANCH  16  18
ENDBRANCH  12  16
ENDBRANCH   7   8
ENDBRANCH   3   6
ENDBRANCH   1   2
BRANCH   1  24
ATOM     24  C   UNL A   1      32.878  27.673  25.278  1.00  0.00     0.042 C 
BRANCH  24  25
ATOM     25  C   UNL A   1      33.626  28.955  24.926  1.00  0.00     0.118 C 
BRANCH  25  26
ATOM     26  N   UNL A   1      32.972  30.137  25.469  1.00  0.00    -0.352 N 
ATOM     27  C   UNL A   1      33.233  30.846  26.613  1.00  0.00     0.251 C 
ATOM     28  H   UNL A   1      32.225  30.481  24.929  1.00  0.00     0.163 HD
ATOM     29  O   UNL A   1      32.422  31.680  27.003  1.00  0.00    -0.269 OA
BRANCH  27  30
ATOM     30  C   UNL A   1      34.476  30.622  27.381  1.00  0.00     0.039 A 
ATOM     31  C   UNL A   1      34.680  29.371  27.974  1.00  0.00     0.014 A 
ATOM     32  C   UNL A   1      35.407  31.646  27.579  1.00  0.00     0.014 A 
ATOM     33  C   UNL A   1      35.830  29.135  28.728  1.00  0.00     0.010 A 
ATOM     34  C   UNL A   1      36.585  31.391  28.275  1.00  0.00     0.010 A 
ATOM     35  C   UNL A   1      36.803  30.137  28.866  1.00  0.00    -0.014 A 
BRANCH  35  36
ATOM     36  C   UNL A   1      38.051  29.892  29.631  1.00  0.00     0.031 A 
ATOM     37  C   UNL A   1      39.093  28.948  29.100  1.00  0.00     0.074 A 
ATOM     38  C   UNL A   1      38.212  30.466  30.838  1.00  0.00     0.049 A 
ATOM     39  N   UNL A   1      40.212  28.552  29.654  1.00  0.00    -0.248 NA
ATOM     40  C   UNL A   1      38.826  28.342  27.787  1.00  0.00     0.031 C 
ATOM     41  C   UNL A   1      37.242  31.352  31.485  1.00  0.00     0.029 A 
ATOM     42  N   UNL A   1      39.237  30.374  31.744  1.00  0.00    -0.354 N 
ATOM     43  C   UNL A   1      40.766  27.636  28.771  1.00  0.00     0.074 A 
ATOM     44  C   UNL A   1      39.842  27.501  27.665  1.00  0.00     0.031 C 
ATOM     45  C   UNL A   1      37.722  31.727  32.680  1.00  0.00     0.029 A 
ATOM     46  C   UNL A   1      39.016  31.086  32.896  1.00  0.00     0.049 A 
ATOM     47  H   UNL A   1      40.053  29.847  31.583  1.00  0.00     0.167 HD
ATOM     48  C   UNL A   1      41.949  26.979  28.866  1.00  0.00     0.037 A 
ATOM     49  C   UNL A   1      39.769  31.203  34.006  1.00  0.00     0.037 A 
ATOM     50  C   UNL A   1      42.880  27.146  29.951  1.00  0.00     0.049 A 
ATOM     51  C   UNL A   1      41.094  30.498  34.072  1.00  0.00     0.074 A 
ATOM     52  C   UNL A   1      44.144  26.602  30.096  1.00  0.00     0.029 A 
ATOM     53  N   UNL A   1      42.643  27.914  31.082  1.00  0.00    -0.354 N 
ATOM     54  N   UNL A   1      41.650  29.701  33.193  1.00  0.00    -0.248 NA
ATOM     55  C   UNL A   1      41.902  30.718  35.279  1.00  0.00     0.031 C 
ATOM     56  C   UNL A   1      44.654  27.005  31.335  1.00  0.00     0.029 A 
ATOM     57  C   UNL A   1      43.727  27.837  31.942  1.00  0.00     0.049 A 
ATOM     58  H   UNL A   1      41.825  28.437  31.249  1.00  0.00     0.167 HD
ATOM     59  C   UNL A   1      42.877  29.337  33.728  1.00  0.00     0.074 A 
ATOM     60  C   UNL A   1      42.993  30.015  35.003  1.00  0.00     0.031 C 
ATOM     61  C   UNL A   1      43.823  28.514  33.211  1.00  0.00     0.037 A 
BRANCH  48  62
ATOM     62  C   UNL A   1      42.298  26.016  27.767  1.00  0.00     0.064 A 
ATOM     63  C   UNL A   1      43.178  26.364  26.731  1.00  0.00     0.173 A 
ATOM     64  C   UNL A   1      41.761  24.720  27.763  1.00  0.00     0.173 A 
ATOM     65  F   UNL A   1      43.712  27.594  26.684  1.00  0.00    -0.203 F 
ATOM     66  C   UNL A   1      43.479  25.463  25.713  1.00  0.00     0.198 A 
ATOM     67  C   UNL A   1      42.088  23.812  26.760  1.00  0.00     0.198 A 
ATOM     68  F   UNL A   1      40.920  24.333  28.734  1.00  0.00    -0.203 F 
ATOM     69  F   UNL A   1      44.278  25.836  24.705  1.00  0.00    -0.200 F 
ATOM     70  C   UNL A   1      42.938  24.186  25.732  1.00  0.00     0.200 A 
ATOM     71  F   UNL A   1      41.575  22.573  26.785  1.00  0.00    -0.200 F 
ATOM     72  F   UNL A   1      43.230  23.320  24.752  1.00  0.00    -0.200 F 
ENDBRANCH  48  62
BRANCH  49  73
ATOM     73  C   UNL A   1      39.286  32.043  35.132  1.00  0.00     0.064 A 
ATOM     74  C   UNL A   1      39.533  33.422  35.159  1.00  0.00     0.173 A 
ATOM     75  C   UNL A   1      38.541  31.490  36.183  1.00  0.00     0.173 A 
ATOM     76  F   UNL A   1      40.258  33.991  34.184  1.00  0.00    -0.203 F 
ATOM     77  C   UNL A   1      39.063  34.216  36.203  1.00  0.00     0.198 A 
ATOM     78  C   UNL A   1      38.050  32.289  37.213  1.00  0.00     0.198 A 
ATOM     79  F   UNL A   1      38.272  30.177  36.197  1.00  0.00    -0.203 F 
ATOM     80  F   UNL A   1      39.341  35.526  36.222  1.00  0.00    -0.200 F 
ATOM     81  C   UNL A   1      38.316  33.651  37.225  1.00  0.00     0.200 A 
ATOM     82  F   UNL A   1      37.315  31.741  38.191  1.00  0.00    -0.200 F 
ATOM     83  F   UNL A   1      37.854  34.416  38.223  1.00  0.00    -0.200 F 
ENDBRANCH  49  73
BRANCH  61  84
ATOM     84  C   UNL A   1      45.071  28.312  34.019  1.00  0.00     0.064 A 
ATOM     85  C   UNL A   1      46.171  29.174  33.893  1.00  0.00     0.173 A 
ATOM     86  C   UNL A   1      45.152  27.271  34.956  1.00  0.00     0.173 A 
ATOM     87  F   UNL A   1      46.148  30.174  33.000  1.00  0.00    -0.203 F 
ATOM     88  C   UNL A   1      47.317  28.985  34.662  1.00  0.00     0.198 A 
ATOM     89  C   UNL A   1      46.289  27.102  35.741  1.00  0.00     0.198 A 
ATOM     90  F   UNL A   1      44.124  26.424  35.116  1.00  0.00    -0.203 F 
ATOM     91  F   UNL A   1      48.374  29.793  34.496  1.00  0.00    -0.200 F 
ATOM     92  C   UNL A   1      47.372  27.955  35.589  1.00  0.00     0.200 A 
ATOM     93  F   UNL A   1      46.336  26.114  36.645  1.00  0.00    -0.200 F 
ATOM     94  F   UNL A   1      48.473  27.779  36.332  1.00  0.00    -0.200 F 
ENDBRANCH  61  84
ENDBRANCH  35  36
ENDBRANCH  27  30
ENDBRANCH  25  26
ENDBRANCH  24  25
ENDBRANCH   1  24
TORSDOF 14
ENDMDL
MODEL 2
REMARK VINA RESULT:     -12.7      2.725      7.675
REMARK SMILES CCc1cc(/C=C/C(=O)NCCCNC(=O)c2ccc(-c3c4nc(c(-c5c(F)c(F)c(F)c(F)c5F)c5ccc([nH]5)c(-c5c(F)c(F)c(F)c(F)c5F)c5nc(c(-c6c(F)c(F)c(F)c(F)c6F)c6ccc3[nH]6)C=C5)C=C4)cc2)cc(C(=O)c2ccccc2)c1
REMARK SMILES IDX 11 1 10 2 8 3 9 4 7 6 6 7 5 8 3 9 4 10 90 11 81 12 80 13
REMARK SMILES IDX 2 14 1 15 82 16 83 17 84 18 85 19 89 20 86 21 88 22 87 23
REMARK SMILES IDX 12 24 13 25 14 26 15 27 16 29 17 30 18 31 79 32 19 33 78 34
REMARK SMILES IDX 20 35 21 36 22 37 72 38 23 39 77 40 71 41 73 42 24 43 76 44
REMARK SMILES IDX 70 45 69 46 25 48 57 49 37 50 56 51 38 52 41 53 55 54 74 55
REMARK SMILES IDX 39 56 40 57 54 59 75 60 42 61 26 62 27 63 35 64 28 65 29 66
REMARK SMILES IDX 33 67 36 68 30 69 31 70 34 71 32 72 58 73 59 74 67 75 60 76
REMARK SMILES IDX 61 77 65 78 68 79 62 80 63 81 66 82 64 83 43 84 44 85 52 86
REMARK SMILES IDX 45 87 46 88 50 89 53 90 47 91 48 92 51 93 49 94
REMARK H PARENT 10 5 14 28 73 47 41 58
REMARK Flexibility Score: inf
ROOT
ATOM      1  C   UNL A   1      33.926  27.831  23.991  1.00  0.00     0.118 C 
ENDROOT
BRANCH   1   2
ATOM      2  N   UNL A   1      33.053  27.433  22.901  1.00  0.00    -0.352 N 
ATOM      3  C   UNL A   1      32.602  26.207  22.531  1.00  0.00     0.244 C 
ATOM      4  O   UNL A   1      31.765  26.114  21.636  1.00  0.00    -0.270 OA
ATOM      5  H   UNL A   1      32.734  28.175  22.338  1.00  0.00     0.163 HD
BRANCH   3   6
ATOM      6  C   UNL A   1      33.046  24.981  23.232  1.00  0.00     0.072 C 
ATOM      7  C   UNL A   1      34.228  24.380  23.033  1.00  0.00     0.014 C 
BRANCH   7   8
ATOM      8  C   UNL A   1      34.623  23.109  23.650  1.00  0.00    -0.024 A 
ATOM      9  C   UNL A   1      36.284  21.710  24.765  1.00  0.00    -0.047 A 
ATOM     10  C   UNL A   1      35.937  22.880  24.075  1.00  0.00     0.011 A 
ATOM     11  C   UNL A   1      35.299  20.744  25.006  1.00  0.00     0.016 A 
ATOM     12  C   UNL A   1      33.975  20.965  24.605  1.00  0.00     0.023 A 
ATOM     13  C   UNL A   1      33.645  22.145  23.924  1.00  0.00     0.020 A 
BRANCH   9  14
ATOM     14  C   UNL A   1      37.693  21.520  25.270  1.00  0.00     0.032 C 
ATOM     15  C   UNL A   1      38.289  22.826  25.785  1.00  0.00     0.009 C 
ENDBRANCH   9  14
BRANCH  12  16
ATOM     16  C   UNL A   1      32.893  19.974  24.864  1.00  0.00     0.193 C 
ATOM     17  O   UNL A   1      31.771  20.362  25.179  1.00  0.00    -0.289 OA
BRANCH  16  18
ATOM     18  C   UNL A   1      33.130  18.518  24.737  1.00  0.00     0.022 A 
ATOM     19  C   UNL A   1      32.679  17.676  25.758  1.00  0.00     0.012 A 
ATOM     20  C   UNL A   1      33.810  17.985  23.634  1.00  0.00     0.012 A 
ATOM     21  C   UNL A   1      32.865  16.296  25.654  1.00  0.00     0.001 A 
ATOM     22  C   UNL A   1      33.993  16.604  23.536  1.00  0.00     0.001 A 
ATOM     23  C   UNL A   1      33.515  15.763  24.541  1.00  0.00     0.000 A 
ENDBRANCH  16  18
ENDBRANCH  12  16
ENDBRANCH   7   8
ENDBRANCH   3   6
ENDBRANCH   1   2
BRANCH   1  24
ATOM     24  C   UNL A   1      33.137  28.127  25.264  1.00  0.00     0.042 C 
BRANCH  24  25
ATOM     25  C   UNL A   1      34.017  28.412  26.478  1.00  0.00     0.118 C 
BRANCH  25  26
ATOM     26  N   UNL A   1      33.804  29.751  27.007  1.00  0.00    -0.352 N 
ATOM     27  C   UNL A   1      34.557  30.486  27.885  1.00  0.00     0.251 C 
ATOM     28  H   UNL A   1      32.990  30.199  26.682  1.00  0.00     0.163 HD
ATOM     29  O   UNL A   1      34.086  31.508  28.375  1.00  0.00    -0.269 OA
BRANCH  27  30
ATOM     30  C   UNL A   1      35.927  30.067  28.250  1.00  0.00     0.039 A 
ATOM     31  C   UNL A   1      36.926  30.124  27.273  1.00  0.00     0.014 A 
ATOM     32  C   UNL A   1      36.221  29.558  29.518  1.00  0.00     0.014 A 
ATOM     33  C   UNL A   1      38.224  29.710  27.577  1.00  0.00     0.010 A 
ATOM     34  C   UNL A   1      37.529  29.208  29.842  1.00  0.00     0.010 A 
ATOM     35  C   UNL A   1      38.541  29.269  28.871  1.00  0.00    -0.014 A 
BRANCH  35  36
ATOM     36  C   UNL A   1      39.924  28.862  29.225  1.00  0.00     0.031 A 
ATOM     37  C   UNL A   1      40.816  29.798  29.991  1.00  0.00     0.074 A 
ATOM     38  C   UNL A   1      40.398  27.680  28.792  1.00  0.00     0.049 A 
ATOM     39  N   UNL A   1      42.073  29.652  30.331  1.00  0.00    -0.248 NA
ATOM     40  C   UNL A   1      40.229  31.082  30.402  1.00  0.00     0.031 C 
ATOM     41  C   UNL A   1      39.646  26.714  27.987  1.00  0.00     0.029 A 
ATOM     42  N   UNL A   1      41.629  27.097  28.948  1.00  0.00    -0.354 N 
ATOM     43  C   UNL A   1      42.430  30.831  30.971  1.00  0.00     0.074 A 
ATOM     44  C   UNL A   1      41.273  31.699  30.935  1.00  0.00     0.031 C 
ATOM     45  C   UNL A   1      40.430  25.657  27.727  1.00  0.00     0.029 A 
ATOM     46  C   UNL A   1      41.745  25.883  28.318  1.00  0.00     0.049 A 
ATOM     47  H   UNL A   1      42.360  27.510  29.463  1.00  0.00     0.167 HD
ATOM     48  C   UNL A   1      43.612  31.153  31.550  1.00  0.00     0.037 A 
ATOM     49  C   UNL A   1      42.797  25.048  28.223  1.00  0.00     0.037 A 
ATOM     50  C   UNL A   1      44.747  30.270  31.614  1.00  0.00     0.049 A 
ATOM     51  C   UNL A   1      44.085  25.408  28.908  1.00  0.00     0.074 A 
ATOM     52  C   UNL A   1      45.956  30.463  32.260  1.00  0.00     0.029 A 
ATOM     53  N   UNL A   1      44.814  29.026  31.004  1.00  0.00    -0.354 N 
ATOM     54  N   UNL A   1      44.386  26.489  29.585  1.00  0.00    -0.248 NA
ATOM     55  C   UNL A   1      45.176  24.427  28.826  1.00  0.00     0.031 C 
ATOM     56  C   UNL A   1      46.771  29.354  32.003  1.00  0.00     0.029 A 
ATOM     57  C   UNL A   1      46.053  28.450  31.236  1.00  0.00     0.049 A 
ATOM     58  H   UNL A   1      44.087  28.612  30.484  1.00  0.00     0.167 HD
ATOM     59  C   UNL A   1      45.690  26.315  30.024  1.00  0.00     0.074 A 
ATOM     60  C   UNL A   1      46.119  25.014  29.552  1.00  0.00     0.031 C 
ATOM     61  C   UNL A   1      46.465  27.157  30.753  1.00  0.00     0.037 A 
BRANCH  48  62
ATOM     62  C   UNL A   1      43.737  32.522  32.157  1.00  0.00     0.064 A 
ATOM     63  C   UNL A   1      43.422  32.764  33.504  1.00  0.00     0.173 A 
ATOM     64  C   UNL A   1      44.200  33.600  31.388  1.00  0.00     0.173 A 
ATOM     65  F   UNL A   1      42.967  31.770  34.280  1.00  0.00    -0.203 F 
ATOM     66  C   UNL A   1      43.529  34.043  34.045  1.00  0.00     0.198 A 
ATOM     67  C   UNL A   1      44.334  34.870  31.941  1.00  0.00     0.198 A 
ATOM     68  F   UNL A   1      44.521  33.421  30.098  1.00  0.00    -0.203 F 
ATOM     69  F   UNL A   1      43.170  34.262  35.317  1.00  0.00    -0.200 F 
ATOM     70  C   UNL A   1      43.991  35.093  33.266  1.00  0.00     0.200 A 
ATOM     71  F   UNL A   1      44.793  35.882  31.191  1.00  0.00    -0.200 F 
ATOM     72  F   UNL A   1      44.096  36.322  33.790  1.00  0.00    -0.200 F 
ENDBRANCH  48  62
BRANCH  49  73
ATOM     73  C   UNL A   1      42.657  23.780  27.462  1.00  0.00     0.064 A 
ATOM     74  C   UNL A   1      43.041  23.699  26.118  1.00  0.00     0.173 A 
ATOM     75  C   UNL A   1      42.167  22.617  28.074  1.00  0.00     0.173 A 
ATOM     76  F   UNL A   1      43.497  24.791  25.486  1.00  0.00    -0.203 F 
ATOM     77  C   UNL A   1      42.930  22.505  25.409  1.00  0.00     0.198 A 
ATOM     78  C   UNL A   1      42.080  21.418  27.371  1.00  0.00     0.198 A 
ATOM     79  F   UNL A   1      41.793  22.642  29.362  1.00  0.00    -0.203 F 
ATOM     80  F   UNL A   1      43.274  22.463  24.114  1.00  0.00    -0.200 F 
ATOM     81  C   UNL A   1      42.456  21.364  26.038  1.00  0.00     0.200 A 
ATOM     82  F   UNL A   1      41.636  20.313  27.987  1.00  0.00    -0.200 F 
ATOM     83  F   UNL A   1      42.360  20.213  25.359  1.00  0.00    -0.200 F 
ENDBRANCH  49  73
BRANCH  61  84
ATOM     84  C   UNL A   1      47.849  26.690  31.094  1.00  0.00     0.064 A 
ATOM     85  C   UNL A   1      48.095  25.886  32.217  1.00  0.00     0.173 A 
ATOM     86  C   UNL A   1      48.935  27.019  30.268  1.00  0.00     0.173 A 
ATOM     87  F   UNL A   1      47.092  25.558  33.045  1.00  0.00    -0.203 F 
ATOM     88  C   UNL A   1      49.383  25.446  32.512  1.00  0.00     0.198 A 
ATOM     89  C   UNL A   1      50.216  26.555  30.553  1.00  0.00     0.198 A 
ATOM     90  F   UNL A   1      48.750  27.782  29.180  1.00  0.00    -0.203 F 
ATOM     91  F   UNL A   1      49.603  24.715  33.614  1.00  0.00    -0.200 F 
ATOM     92  C   UNL A   1      50.440  25.775  31.677  1.00  0.00     0.200 A 
ATOM     93  F   UNL A   1      51.234  26.864  29.738  1.00  0.00    -0.200 F 
ATOM     94  F   UNL A   1      51.677  25.345  31.959  1.00  0.00    -0.200 F 
ENDBRANCH  61  84
ENDBRANCH  35  36
ENDBRANCH  27  30
ENDBRANCH  25  26
ENDBRANCH  24  25
ENDBRANCH   1  24
TORSDOF 14
ENDMDL
MODEL 3
REMARK VINA RESULT:     -12.7      5.508     12.341
REMARK SMILES CCc1cc(/C=C/C(=O)NCCCNC(=O)c2ccc(-c3c4nc(c(-c5c(F)c(F)c(F)c(F)c5F)c5ccc([nH]5)c(-c5c(F)c(F)c(F)c(F)c5F)c5nc(c(-c6c(F)c(F)c(F)c(F)c6F)c6ccc3[nH]6)C=C5)C=C4)cc2)cc(C(=O)c2ccccc2)c1
REMARK SMILES IDX 11 1 10 2 8 3 9 4 7 6 6 7 5 8 3 9 4 10 90 11 81 12 80 13
REMARK SMILES IDX 2 14 1 15 82 16 83 17 84 18 85 19 89 20 86 21 88 22 87 23
REMARK SMILES IDX 12 24 13 25 14 26 15 27 16 29 17 30 18 31 79 32 19 33 78 34
REMARK SMILES IDX 20 35 21 36 22 37 72 38 23 39 77 40 71 41 73 42 24 43 76 44
REMARK SMILES IDX 70 45 69 46 25 48 57 49 37 50 56 51 38 52 41 53 55 54 74 55
REMARK SMILES IDX 39 56 40 57 54 59 75 60 42 61 26 62 27 63 35 64 28 65 29 66
REMARK SMILES IDX 33 67 36 68 30 69 31 70 34 71 32 72 58 73 59 74 67 75 60 76
REMARK SMILES IDX 61 77 65 78 68 79 62 80 63 81 66 82 64 83 43 84 44 85 52 86
REMARK SMILES IDX 45 87 46 88 50 89 53 90 47 91 48 92 51 93 49 94
REMARK H PARENT 10 5 14 28 73 47 41 58
REMARK Flexibility Score: inf
ROOT
ATOM      1  C   UNL A   1      46.520  25.173  33.123  1.00  0.00     0.118 C 
ENDROOT
BRANCH   1   2
ATOM      2  N   UNL A   1      45.309  24.373  33.146  1.00  0.00    -0.352 N 
ATOM      3  C   UNL A   1      44.520  23.933  32.132  1.00  0.00     0.244 C 
ATOM      4  O   UNL A   1      43.596  23.160  32.375  1.00  0.00    -0.270 OA
ATOM      5  H   UNL A   1      45.011  24.104  34.046  1.00  0.00     0.163 HD
BRANCH   3   6
ATOM      6  C   UNL A   1      44.792  24.311  30.728  1.00  0.00     0.072 C 
ATOM      7  C   UNL A   1      44.003  23.991  29.690  1.00  0.00     0.014 C 
BRANCH   7   8
ATOM      8  C   UNL A   1      44.327  24.276  28.287  1.00  0.00    -0.024 A 
ATOM      9  C   UNL A   1      45.410  25.657  26.592  1.00  0.00    -0.047 A 
ATOM     10  C   UNL A   1      45.004  25.443  27.916  1.00  0.00     0.011 A 
ATOM     11  C   UNL A   1      45.105  24.695  25.621  1.00  0.00     0.016 A 
ATOM     12  C   UNL A   1      44.445  23.511  25.979  1.00  0.00     0.023 A 
ATOM     13  C   UNL A   1      44.054  23.311  27.311  1.00  0.00     0.020 A 
BRANCH   9  14
ATOM     14  C   UNL A   1      46.197  26.894  26.234  1.00  0.00     0.032 C 
ATOM     15  C   UNL A   1      47.013  26.694  24.961  1.00  0.00     0.009 C 
ENDBRANCH   9  14
BRANCH  12  16
ATOM     16  C   UNL A   1      44.124  22.451  24.983  1.00  0.00     0.193 C 
ATOM     17  O   UNL A   1      43.412  22.715  24.017  1.00  0.00    -0.289 OA
BRANCH  16  18
ATOM     18  C   UNL A   1      44.656  21.075  25.118  1.00  0.00     0.022 A 
ATOM     19  C   UNL A   1      43.763  20.040  25.408  1.00  0.00     0.012 A 
ATOM     20  C   UNL A   1      46.024  20.808  24.983  1.00  0.00     0.012 A 
ATOM     21  C   UNL A   1      44.231  18.729  25.516  1.00  0.00     0.001 A 
ATOM     22  C   UNL A   1      46.486  19.495  25.092  1.00  0.00     0.001 A 
ATOM     23  C   UNL A   1      45.589  18.458  25.351  1.00  0.00     0.000 A 
ENDBRANCH  16  18
ENDBRANCH  12  16
ENDBRANCH   7   8
ENDBRANCH   3   6
ENDBRANCH   1   2
BRANCH   1  24
ATOM     24  C   UNL A   1      47.590  24.600  34.051  1.00  0.00     0.042 C 
BRANCH  24  25
ATOM     25  C   UNL A   1      48.424  25.666  34.757  1.00  0.00     0.118 C 
BRANCH  25  26
ATOM     26  N   UNL A   1      48.094  25.773  36.170  1.00  0.00    -0.352 N 
ATOM     27  C   UNL A   1      47.109  26.490  36.798  1.00  0.00     0.251 C 
ATOM     28  H   UNL A   1      48.671  25.248  36.770  1.00  0.00     0.163 HD
ATOM     29  O   UNL A   1      47.140  26.620  38.017  1.00  0.00    -0.269 OA
BRANCH  27  30
ATOM     30  C   UNL A   1      46.008  27.108  36.027  1.00  0.00     0.039 A 
ATOM     31  C   UNL A   1      44.761  26.474  36.016  1.00  0.00     0.014 A 
ATOM     32  C   UNL A   1      46.210  28.262  35.265  1.00  0.00     0.014 A 
ATOM     33  C   UNL A   1      43.709  27.016  35.277  1.00  0.00     0.010 A 
ATOM     34  C   UNL A   1      45.143  28.840  34.581  1.00  0.00     0.010 A 
ATOM     35  C   UNL A   1      43.886  28.217  34.570  1.00  0.00    -0.014 A 
BRANCH  35  36
ATOM     36  C   UNL A   1      42.769  28.831  33.811  1.00  0.00     0.031 A 
ATOM     37  C   UNL A   1      41.810  29.765  34.495  1.00  0.00     0.074 A 
ATOM     38  C   UNL A   1      42.575  28.487  32.524  1.00  0.00     0.049 A 
ATOM     39  N   UNL A   1      40.735  30.343  34.019  1.00  0.00    -0.248 NA
ATOM     40  C   UNL A   1      42.077  30.065  35.909  1.00  0.00     0.031 C 
ATOM     41  C   UNL A   1      43.402  27.543  31.770  1.00  0.00     0.029 A 
ATOM     42  N   UNL A   1      41.613  28.877  31.628  1.00  0.00    -0.354 N 
ATOM     43  C   UNL A   1      40.187  31.050  35.080  1.00  0.00     0.074 A 
ATOM     44  C   UNL A   1      41.022  30.797  36.235  1.00  0.00     0.031 C 
ATOM     45  C   UNL A   1      42.915  27.431  30.525  1.00  0.00     0.029 A 
ATOM     46  C   UNL A   1      41.727  28.271  30.402  1.00  0.00     0.049 A 
ATOM     47  H   UNL A   1      40.907  29.528  31.844  1.00  0.00     0.167 HD
ATOM     48  C   UNL A   1      39.095  31.853  35.086  1.00  0.00     0.037 A 
ATOM     49  C   UNL A   1      40.957  28.375  29.303  1.00  0.00     0.037 A 
ATOM     50  C   UNL A   1      38.290  32.130  33.925  1.00  0.00     0.049 A 
ATOM     51  C   UNL A   1      39.774  29.302  29.321  1.00  0.00     0.074 A 
ATOM     52  C   UNL A   1      37.221  33.001  33.803  1.00  0.00     0.029 A 
ATOM     53  N   UNL A   1      38.464  31.533  32.685  1.00  0.00    -0.354 N 
ATOM     54  N   UNL A   1      39.314  30.035  30.305  1.00  0.00    -0.248 NA
ATOM     55  C   UNL A   1      39.011  29.426  28.071  1.00  0.00     0.031 C 
ATOM     56  C   UNL A   1      36.721  32.899  32.499  1.00  0.00     0.029 A 
ATOM     57  C   UNL A   1      37.506  31.998  31.797  1.00  0.00     0.049 A 
ATOM     58  H   UNL A   1      39.165  30.877  32.466  1.00  0.00     0.167 HD
ATOM     59  C   UNL A   1      38.221  30.719  29.794  1.00  0.00     0.074 A 
ATOM     60  C   UNL A   1      38.096  30.328  28.404  1.00  0.00     0.031 C 
ATOM     61  C   UNL A   1      37.393  31.593  30.419  1.00  0.00     0.037 A 
BRANCH  48  62
ATOM     62  C   UNL A   1      38.705  32.485  36.392  1.00  0.00     0.064 A 
ATOM     63  C   UNL A   1      39.063  33.805  36.710  1.00  0.00     0.173 A 
ATOM     64  C   UNL A   1      37.945  31.769  37.328  1.00  0.00     0.173 A 
ATOM     65  F   UNL A   1      39.797  34.530  35.854  1.00  0.00    -0.203 F 
ATOM     66  C   UNL A   1      38.706  34.369  37.932  1.00  0.00     0.198 A 
ATOM     67  C   UNL A   1      37.564  32.347  38.536  1.00  0.00     0.198 A 
ATOM     68  F   UNL A   1      37.570  30.506  37.072  1.00  0.00    -0.203 F 
ATOM     69  F   UNL A   1      39.106  35.611  38.237  1.00  0.00    -0.200 F 
ATOM     70  C   UNL A   1      37.952  33.642  38.841  1.00  0.00     0.200 A 
ATOM     71  F   UNL A   1      36.825  31.648  39.409  1.00  0.00    -0.200 F 
ATOM     72  F   UNL A   1      37.608  34.188  40.016  1.00  0.00    -0.200 F 
ENDBRANCH  48  62
BRANCH  49  73
ATOM     73  C   UNL A   1      41.303  27.590  28.090  1.00  0.00     0.064 A 
ATOM     74  C   UNL A   1      40.815  26.290  27.909  1.00  0.00     0.173 A 
ATOM     75  C   UNL A   1      42.102  28.137  27.075  1.00  0.00     0.173 A 
ATOM     76  F   UNL A   1      40.063  25.719  28.863  1.00  0.00    -0.203 F 
ATOM     77  C   UNL A   1      41.121  25.560  26.763  1.00  0.00     0.198 A 
ATOM     78  C   UNL A   1      42.387  27.416  25.918  1.00  0.00     0.198 A 
ATOM     79  F   UNL A   1      42.587  29.381  27.199  1.00  0.00    -0.203 F 
ATOM     80  F   UNL A   1      40.668  24.306  26.629  1.00  0.00    -0.200 F 
ATOM     81  C   UNL A   1      41.901  26.126  25.765  1.00  0.00     0.200 A 
ATOM     82  F   UNL A   1      43.128  27.972  24.950  1.00  0.00    -0.200 F 
ATOM     83  F   UNL A   1      42.186  25.428  24.658  1.00  0.00    -0.200 F 
ENDBRANCH  49  73
BRANCH  61  84
ATOM     84  C   UNL A   1      36.288  32.194  29.601  1.00  0.00     0.064 A 
ATOM     85  C   UNL A   1      35.208  31.422  29.150  1.00  0.00     0.173 A 
ATOM     86  C   UNL A   1      36.292  33.564  29.299  1.00  0.00     0.173 A 
ATOM     87  F   UNL A   1      35.167  30.105  29.400  1.00  0.00    -0.203 F 
ATOM     88  C   UNL A   1      34.181  31.998  28.405  1.00  0.00     0.198 A 
ATOM     89  C   UNL A   1      35.251  34.140  28.577  1.00  0.00     0.198 A 
ATOM     90  F   UNL A   1      37.301  34.346  29.712  1.00  0.00    -0.203 F 
ATOM     91  F   UNL A   1      33.179  31.234  27.947  1.00  0.00    -0.200 F 
ATOM     92  C   UNL A   1      34.200  33.356  28.126  1.00  0.00     0.200 A 
ATOM     93  F   UNL A   1      35.264  35.455  28.319  1.00  0.00    -0.200 F 
ATOM     94  F   UNL A   1      33.207  33.909  27.415  1.00  0.00    -0.200 F 
ENDBRANCH  61  84
ENDBRANCH  35  36
ENDBRANCH  27  30
ENDBRANCH  25  26
ENDBRANCH  24  25
ENDBRANCH   1  24
TORSDOF 14
ENDMDL
