MODEL 1
REMARK VINA RESULT:     -10.9      0.000      0.000
REMARK SMILES C=C(C)C(=O)OCC[C@@H](C(C)=O)C(=O)NCCCNC(=O)c1ccc(-c2c3nc(c(-c4c(F)c(F)c(F)c(F)c4F)c4ccc([nH]4)c(-c4c(F)c(F)c(F)c(F)c4F)c4nc(c(-c5c(F)c(F)c(F)c(F)c5F)c5ccc2[nH]5)C=C4)C=C3)cc1
REMARK SMILES IDX 13 1 14 2 15 3 9 5 8 6 7 7 6 8 4 9 5 10 2 11 1 12 3 13 10 14
REMARK SMILES IDX 11 15 12 16 16 17 17 18 18 19 19 20 20 21 21 23 22 24 23 25
REMARK SMILES IDX 84 26 24 27 83 28 25 29 26 30 27 31 77 32 28 33 82 34 76 35
REMARK SMILES IDX 78 36 29 37 81 38 75 39 74 40 30 42 62 43 42 44 61 45 43 46
REMARK SMILES IDX 46 47 60 48 79 49 44 50 45 51 59 53 80 54 47 55 31 56 32 57
REMARK SMILES IDX 40 58 33 59 34 60 38 61 41 62 35 63 36 64 39 65 37 66 63 67
REMARK SMILES IDX 64 68 72 69 65 70 66 71 70 72 73 73 67 74 68 75 71 76 69 77
REMARK SMILES IDX 48 78 49 79 57 80 50 81 51 82 55 83 58 84 52 85 53 86 56 87
REMARK SMILES IDX 54 88
REMARK H PARENT 15 4 19 22 78 41 46 52
REMARK Flexibility Score: inf
ROOT
ATOM      1  C   UNL A   1      30.825  29.328  24.164  1.00  0.00     0.230 C 
ATOM      2  O   UNL A   1      30.130  29.427  23.151  1.00  0.00    -0.274 OA
ATOM      3  N   UNL A   1      31.039  30.452  24.901  1.00  0.00    -0.355 N 
ATOM      4  H   UNL A   1      30.607  31.266  24.555  1.00  0.00     0.163 HD
ENDROOT
BRANCH   1   5
ATOM      5  C   UNL A   1      31.444  28.006  24.567  1.00  0.00     0.148 C 
BRANCH   5   6
ATOM      6  C   UNL A   1      30.323  26.949  24.646  1.00  0.00     0.063 C 
BRANCH   6   7
ATOM      7  C   UNL A   1      30.250  26.162  25.954  1.00  0.00     0.234 C 
BRANCH   7   8
ATOM      8  O   UNL A   1      30.475  24.764  25.731  1.00  0.00    -0.462 OA
BRANCH   8   9
ATOM      9  C   UNL A   1      31.546  24.222  26.358  1.00  0.00     0.333 C 
ATOM     10  O   UNL A   1      31.563  23.737  27.479  1.00  0.00    -0.247 OA
BRANCH   9  11
ATOM     11  C   UNL A   1      32.703  24.221  25.431  1.00  0.00     0.027 C 
ATOM     12  C   UNL A   1      32.555  23.584  24.260  1.00  0.00     0.020 C 
ATOM     13  C   UNL A   1      33.961  24.897  25.868  1.00  0.00     0.051 C 
ENDBRANCH   9  11
ENDBRANCH   8   9
ENDBRANCH   7   8
ENDBRANCH   6   7
ENDBRANCH   5   6
BRANCH   5  14
ATOM     14  C   UNL A   1      32.612  27.615  23.668  1.00  0.00     0.142 C 
ATOM     15  C   UNL A   1      33.969  28.212  23.961  1.00  0.00     0.088 C 
ATOM     16  O   UNL A   1      32.476  26.849  22.711  1.00  0.00    -0.299 OA
ENDBRANCH   5  14
ENDBRANCH   1   5
BRANCH   3  17
ATOM     17  C   UNL A   1      31.809  30.636  26.120  1.00  0.00     0.117 C 
BRANCH  17  18
ATOM     18  C   UNL A   1      31.471  31.945  26.808  1.00  0.00     0.042 C 
BRANCH  18  19
ATOM     19  C   UNL A   1      32.692  32.648  27.373  1.00  0.00     0.118 C 
BRANCH  19  20
ATOM     20  N   UNL A   1      32.453  34.066  27.613  1.00  0.00    -0.352 N 
ATOM     21  C   UNL A   1      33.007  34.902  28.549  1.00  0.00     0.251 C 
ATOM     22  H   UNL A   1      31.794  34.487  27.015  1.00  0.00     0.163 HD
ATOM     23  O   UNL A   1      32.521  36.008  28.756  1.00  0.00    -0.269 OA
BRANCH  21  24
ATOM     24  C   UNL A   1      34.180  34.450  29.320  1.00  0.00     0.039 A 
ATOM     25  C   UNL A   1      33.987  33.881  30.580  1.00  0.00     0.014 A 
ATOM     26  C   UNL A   1      35.465  34.568  28.786  1.00  0.00     0.014 A 
ATOM     27  C   UNL A   1      35.081  33.355  31.268  1.00  0.00     0.010 A 
ATOM     28  C   UNL A   1      36.534  33.952  29.422  1.00  0.00     0.010 A 
ATOM     29  C   UNL A   1      36.353  33.342  30.671  1.00  0.00    -0.014 A 
BRANCH  29  30
ATOM     30  C   UNL A   1      37.502  32.675  31.327  1.00  0.00     0.031 A 
ATOM     31  C   UNL A   1      38.182  31.513  30.664  1.00  0.00     0.074 A 
ATOM     32  C   UNL A   1      37.872  33.067  32.562  1.00  0.00     0.049 A 
ATOM     33  N   UNL A   1      39.157  30.761  31.108  1.00  0.00    -0.248 NA
ATOM     34  C   UNL A   1      37.675  31.116  29.342  1.00  0.00     0.031 C 
ATOM     35  C   UNL A   1      37.237  34.136  33.333  1.00  0.00     0.029 A 
ATOM     36  N   UNL A   1      38.860  32.600  33.390  1.00  0.00    -0.354 N 
ATOM     37  C   UNL A   1      39.367  29.799  30.131  1.00  0.00     0.074 A 
ATOM     38  C   UNL A   1      38.378  30.022  29.099  1.00  0.00     0.031 C 
ATOM     39  C   UNL A   1      37.865  34.259  34.512  1.00  0.00     0.029 A 
ATOM     40  C   UNL A   1      38.916  33.250  34.598  1.00  0.00     0.049 A 
ATOM     41  H   UNL A   1      39.472  31.869  33.142  1.00  0.00     0.167 HD
ATOM     42  C   UNL A   1      40.313  28.831  30.091  1.00  0.00     0.037 A 
ATOM     43  C   UNL A   1      39.714  33.046  35.661  1.00  0.00     0.037 A 
ATOM     44  C   UNL A   1      41.302  28.632  31.117  1.00  0.00     0.049 A 
ATOM     45  C   UNL A   1      40.761  31.970  35.593  1.00  0.00     0.074 A 
ATOM     46  C   UNL A   1      42.363  27.744  31.131  1.00  0.00     0.029 A 
ATOM     47  N   UNL A   1      41.343  29.322  32.321  1.00  0.00    -0.354 N 
ATOM     48  N   UNL A   1      41.019  31.129  34.620  1.00  0.00    -0.248 NA
ATOM     49  C   UNL A   1      41.633  31.818  36.765  1.00  0.00     0.031 C 
ATOM     50  C   UNL A   1      43.002  27.848  32.372  1.00  0.00     0.029 A 
ATOM     51  C   UNL A   1      42.383  28.848  33.105  1.00  0.00     0.049 A 
ATOM     52  H   UNL A   1      40.724  30.043  32.580  1.00  0.00     0.167 HD
ATOM     53  C   UNL A   1      42.088  30.357  35.054  1.00  0.00     0.074 A 
ATOM     54  C   UNL A   1      42.446  30.848  36.370  1.00  0.00     0.031 C 
ATOM     55  C   UNL A   1      42.714  29.334  34.422  1.00  0.00     0.037 A 
BRANCH  42  56
ATOM     56  C   UNL A   1      40.309  27.906  28.906  1.00  0.00     0.064 A 
ATOM     57  C   UNL A   1      39.584  26.704  28.902  1.00  0.00     0.173 A 
ATOM     58  C   UNL A   1      41.033  28.235  27.750  1.00  0.00     0.173 A 
ATOM     59  F   UNL A   1      38.882  26.334  29.985  1.00  0.00    -0.203 F 
ATOM     60  C   UNL A   1      39.620  25.846  27.805  1.00  0.00     0.198 A 
ATOM     61  C   UNL A   1      41.037  27.393  26.640  1.00  0.00     0.198 A 
ATOM     62  F   UNL A   1      41.739  29.374  27.693  1.00  0.00    -0.203 F 
ATOM     63  F   UNL A   1      38.975  24.673  27.853  1.00  0.00    -0.200 F 
ATOM     64  C   UNL A   1      40.341  26.194  26.674  1.00  0.00     0.200 A 
ATOM     65  F   UNL A   1      41.722  27.739  25.542  1.00  0.00    -0.200 F 
ATOM     66  F   UNL A   1      40.375  25.369  25.618  1.00  0.00    -0.200 F 
ENDBRANCH  42  56
BRANCH  43  67
ATOM     67  C   UNL A   1      39.551  33.894  36.871  1.00  0.00     0.064 A 
ATOM     68  C   UNL A   1      40.131  35.168  36.945  1.00  0.00     0.173 A 
ATOM     69  C   UNL A   1      38.778  33.465  37.960  1.00  0.00     0.173 A 
ATOM     70  F   UNL A   1      40.894  35.615  35.935  1.00  0.00    -0.203 F 
ATOM     71  C   UNL A   1      39.953  35.976  38.065  1.00  0.00     0.198 A 
ATOM     72  C   UNL A   1      38.576  34.286  39.067  1.00  0.00     0.198 A 
ATOM     73  F   UNL A   1      38.195  32.257  37.935  1.00  0.00    -0.203 F 
ATOM     74  F   UNL A   1      40.545  37.176  38.125  1.00  0.00    -0.200 F 
ATOM     75  C   UNL A   1      39.167  35.538  39.121  1.00  0.00     0.200 A 
ATOM     76  F   UNL A   1      37.800  33.866  40.076  1.00  0.00    -0.200 F 
ATOM     77  F   UNL A   1      38.981  36.323  40.191  1.00  0.00    -0.200 F 
ENDBRANCH  43  67
BRANCH  55  78
ATOM     78  C   UNL A   1      43.856  28.677  35.144  1.00  0.00     0.064 A 
ATOM     79  C   UNL A   1      43.658  27.559  35.969  1.00  0.00     0.173 A 
ATOM     80  C   UNL A   1      45.168  29.147  34.980  1.00  0.00     0.173 A 
ATOM     81  F   UNL A   1      42.422  27.081  36.172  1.00  0.00    -0.203 F 
ATOM     82  C   UNL A   1      44.728  26.953  36.622  1.00  0.00     0.198 A 
ATOM     83  C   UNL A   1      46.239  28.517  35.607  1.00  0.00     0.198 A 
ATOM     84  F   UNL A   1      45.414  30.209  34.197  1.00  0.00    -0.203 F 
ATOM     85  F   UNL A   1      44.508  25.920  37.447  1.00  0.00    -0.200 F 
ATOM     86  C   UNL A   1      46.018  27.427  36.434  1.00  0.00     0.200 A 
ATOM     87  F   UNL A   1      47.487  28.966  35.411  1.00  0.00    -0.200 F 
ATOM     88  F   UNL A   1      47.048  26.837  37.057  1.00  0.00    -0.200 F 
ENDBRANCH  55  78
ENDBRANCH  29  30
ENDBRANCH  21  24
ENDBRANCH  19  20
ENDBRANCH  18  19
ENDBRANCH  17  18
ENDBRANCH   3  17
TORSDOF 16
ENDMDL
MODEL 2
REMARK VINA RESULT:     -10.8      1.197      7.964
REMARK SMILES C=C(C)C(=O)OCC[C@@H](C(C)=O)C(=O)NCCCNC(=O)c1ccc(-c2c3nc(c(-c4c(F)c(F)c(F)c(F)c4F)c4ccc([nH]4)c(-c4c(F)c(F)c(F)c(F)c4F)c4nc(c(-c5c(F)c(F)c(F)c(F)c5F)c5ccc2[nH]5)C=C4)C=C3)cc1
REMARK SMILES IDX 13 1 14 2 15 3 9 5 8 6 7 7 6 8 4 9 5 10 2 11 1 12 3 13 10 14
REMARK SMILES IDX 11 15 12 16 16 17 17 18 18 19 19 20 20 21 21 23 22 24 23 25
REMARK SMILES IDX 84 26 24 27 83 28 25 29 26 30 27 31 77 32 28 33 82 34 76 35
REMARK SMILES IDX 78 36 29 37 81 38 75 39 74 40 30 42 62 43 42 44 61 45 43 46
REMARK SMILES IDX 46 47 60 48 79 49 44 50 45 51 59 53 80 54 47 55 31 56 32 57
REMARK SMILES IDX 40 58 33 59 34 60 38 61 41 62 35 63 36 64 39 65 37 66 63 67
REMARK SMILES IDX 64 68 72 69 65 70 66 71 70 72 73 73 67 74 68 75 71 76 69 77
REMARK SMILES IDX 48 78 49 79 57 80 50 81 51 82 55 83 58 84 52 85 53 86 56 87
REMARK SMILES IDX 54 88
REMARK H PARENT 15 4 19 22 78 41 46 52
REMARK Flexibility Score: inf
ROOT
ATOM      1  C   UNL A   1      32.589  29.174  24.919  1.00  0.00     0.230 C 
ATOM      2  O   UNL A   1      33.653  28.924  24.349  1.00  0.00    -0.274 OA
ATOM      3  N   UNL A   1      32.542  30.267  25.729  1.00  0.00    -0.355 N 
ATOM      4  H   UNL A   1      33.381  30.778  25.788  1.00  0.00     0.163 HD
ENDROOT
BRANCH   1   5
ATOM      5  C   UNL A   1      31.376  28.283  24.745  1.00  0.00     0.148 C 
BRANCH   5   6
ATOM      6  C   UNL A   1      31.245  27.927  23.250  1.00  0.00     0.063 C 
BRANCH   6   7
ATOM      7  C   UNL A   1      30.037  28.529  22.533  1.00  0.00     0.234 C 
BRANCH   7   8
ATOM      8  O   UNL A   1      30.029  29.958  22.641  1.00  0.00    -0.462 OA
BRANCH   8   9
ATOM      9  C   UNL A   1      29.012  30.600  22.019  1.00  0.00     0.333 C 
ATOM     10  O   UNL A   1      28.596  30.382  20.891  1.00  0.00    -0.247 OA
BRANCH   9  11
ATOM     11  C   UNL A   1      28.402  31.570  22.960  1.00  0.00     0.027 C 
ATOM     12  C   UNL A   1      27.428  31.120  23.766  1.00  0.00     0.020 C 
ATOM     13  C   UNL A   1      28.884  32.983  22.932  1.00  0.00     0.051 C 
ENDBRANCH   9  11
ENDBRANCH   8   9
ENDBRANCH   7   8
ENDBRANCH   6   7
ENDBRANCH   5   6
BRANCH   5  14
ATOM     14  C   UNL A   1      31.407  27.077  25.677  1.00  0.00     0.142 C 
ATOM     15  C   UNL A   1      30.453  25.938  25.403  1.00  0.00     0.088 C 
ATOM     16  O   UNL A   1      32.168  27.015  26.645  1.00  0.00    -0.299 OA
ENDBRANCH   5  14
ENDBRANCH   1   5
BRANCH   3  17
ATOM     17  C   UNL A   1      31.443  30.795  26.521  1.00  0.00     0.117 C 
BRANCH  17  18
ATOM     18  C   UNL A   1      31.446  32.311  26.547  1.00  0.00     0.042 C 
BRANCH  18  19
ATOM     19  C   UNL A   1      32.646  32.887  27.278  1.00  0.00     0.118 C 
BRANCH  19  20
ATOM     20  N   UNL A   1      32.461  34.291  27.627  1.00  0.00    -0.352 N 
ATOM     21  C   UNL A   1      33.043  35.029  28.626  1.00  0.00     0.251 C 
ATOM     22  H   UNL A   1      31.822  34.781  27.062  1.00  0.00     0.163 HD
ATOM     23  O   UNL A   1      32.599  36.134  28.916  1.00  0.00    -0.269 OA
BRANCH  21  24
ATOM     24  C   UNL A   1      34.194  34.473  29.361  1.00  0.00     0.039 A 
ATOM     25  C   UNL A   1      33.968  33.763  30.540  1.00  0.00     0.014 A 
ATOM     26  C   UNL A   1      35.492  34.635  28.869  1.00  0.00     0.014 A 
ATOM     27  C   UNL A   1      35.041  33.145  31.183  1.00  0.00     0.010 A 
ATOM     28  C   UNL A   1      36.539  33.934  29.449  1.00  0.00     0.010 A 
ATOM     29  C   UNL A   1      36.325  33.184  30.614  1.00  0.00    -0.014 A 
BRANCH  29  30
ATOM     30  C   UNL A   1      37.452  32.429  31.209  1.00  0.00     0.031 A 
ATOM     31  C   UNL A   1      38.004  32.824  32.548  1.00  0.00     0.074 A 
ATOM     32  C   UNL A   1      38.032  31.443  30.498  1.00  0.00     0.049 A 
ATOM     33  N   UNL A   1      39.025  32.328  33.201  1.00  0.00    -0.248 NA
ATOM     34  C   UNL A   1      37.347  33.949  33.228  1.00  0.00     0.031 C 
ATOM     35  C   UNL A   1      37.627  31.021  29.156  1.00  0.00     0.029 A 
ATOM     36  N   UNL A   1      39.094  30.629  30.797  1.00  0.00    -0.354 N 
ATOM     37  C   UNL A   1      39.140  33.090  34.355  1.00  0.00     0.074 A 
ATOM     38  C   UNL A   1      38.125  34.119  34.285  1.00  0.00     0.031 C 
ATOM     39  C   UNL A   1      38.416  30.011  28.757  1.00  0.00     0.029 A 
ATOM     40  C   UNL A   1      39.408  29.746  29.794  1.00  0.00     0.049 A 
ATOM     41  H   UNL A   1      39.584  30.672  31.651  1.00  0.00     0.167 HD
ATOM     42  C   UNL A   1      40.000  32.931  35.388  1.00  0.00     0.037 A 
ATOM     43  C   UNL A   1      40.394  28.834  29.712  1.00  0.00     0.037 A 
ATOM     44  C   UNL A   1      40.993  31.891  35.453  1.00  0.00     0.049 A 
ATOM     45  C   UNL A   1      41.334  28.669  30.873  1.00  0.00     0.074 A 
ATOM     46  C   UNL A   1      41.851  31.581  36.493  1.00  0.00     0.029 A 
ATOM     47  N   UNL A   1      41.272  30.998  34.426  1.00  0.00    -0.354 N 
ATOM     48  N   UNL A   1      41.371  29.328  32.006  1.00  0.00    -0.248 NA
ATOM     49  C   UNL A   1      42.366  27.631  30.748  1.00  0.00     0.031 C 
ATOM     50  C   UNL A   1      42.695  30.549  36.069  1.00  0.00     0.029 A 
ATOM     51  C   UNL A   1      42.320  30.168  34.791  1.00  0.00     0.049 A 
ATOM     52  H   UNL A   1      40.795  30.961  33.565  1.00  0.00     0.167 HD
ATOM     53  C   UNL A   1      42.417  28.779  32.735  1.00  0.00     0.074 A 
ATOM     54  C   UNL A   1      42.974  27.715  31.923  1.00  0.00     0.031 C 
ATOM     55  C   UNL A   1      42.876  29.126  33.963  1.00  0.00     0.037 A 
BRANCH  42  56
ATOM     56  C   UNL A   1      39.913  33.914  36.521  1.00  0.00     0.064 A 
ATOM     57  C   UNL A   1      40.637  35.117  36.521  1.00  0.00     0.173 A 
ATOM     58  C   UNL A   1      39.082  33.654  37.622  1.00  0.00     0.173 A 
ATOM     59  F   UNL A   1      41.456  35.413  35.499  1.00  0.00    -0.203 F 
ATOM     60  C   UNL A   1      40.567  35.999  37.597  1.00  0.00     0.198 A 
ATOM     61  C   UNL A   1      38.985  34.555  38.679  1.00  0.00     0.198 A 
ATOM     62  F   UNL A   1      38.362  32.523  37.675  1.00  0.00    -0.203 F 
ATOM     63  F   UNL A   1      41.320  37.108  37.602  1.00  0.00    -0.200 F 
ATOM     64  C   UNL A   1      39.736  35.721  38.671  1.00  0.00     0.200 A 
ATOM     65  F   UNL A   1      38.170  34.292  39.709  1.00  0.00    -0.200 F 
ATOM     66  F   UNL A   1      39.668  36.571  39.705  1.00  0.00    -0.200 F 
ENDBRANCH  42  56
BRANCH  43  67
ATOM     67  C   UNL A   1      40.523  28.005  28.485  1.00  0.00     0.064 A 
ATOM     68  C   UNL A   1      41.273  28.449  27.387  1.00  0.00     0.173 A 
ATOM     69  C   UNL A   1      39.932  26.736  28.402  1.00  0.00     0.173 A 
ATOM     70  F   UNL A   1      41.842  29.664  27.413  1.00  0.00    -0.203 F 
ATOM     71  C   UNL A   1      41.419  27.659  26.249  1.00  0.00     0.198 A 
ATOM     72  C   UNL A   1      40.104  25.934  27.276  1.00  0.00     0.198 A 
ATOM     73  F   UNL A   1      39.211  26.262  29.429  1.00  0.00    -0.203 F 
ATOM     74  F   UNL A   1      42.114  28.120  25.201  1.00  0.00    -0.200 F 
ATOM     75  C   UNL A   1      40.843  26.398  26.199  1.00  0.00     0.200 A 
ATOM     76  F   UNL A   1      39.562  24.709  27.239  1.00  0.00    -0.200 F 
ATOM     77  F   UNL A   1      40.999  25.631  25.111  1.00  0.00    -0.200 F 
ENDBRANCH  43  67
BRANCH  55  78
ATOM     78  C   UNL A   1      44.038  28.344  34.507  1.00  0.00     0.064 A 
ATOM     79  C   UNL A   1      43.850  27.145  35.213  1.00  0.00     0.173 A 
ATOM     80  C   UNL A   1      45.354  28.777  34.288  1.00  0.00     0.173 A 
ATOM     81  F   UNL A   1      42.612  26.696  35.463  1.00  0.00    -0.203 F 
ATOM     82  C   UNL A   1      44.937  26.425  35.701  1.00  0.00     0.198 A 
ATOM     83  C   UNL A   1      46.439  28.036  34.748  1.00  0.00     0.198 A 
ATOM     84  F   UNL A   1      45.590  29.913  33.614  1.00  0.00    -0.203 F 
ATOM     85  F   UNL A   1      44.732  25.311  36.418  1.00  0.00    -0.200 F 
ATOM     86  C   UNL A   1      46.230  26.866  35.461  1.00  0.00     0.200 A 
ATOM     87  F   UNL A   1      47.688  28.455  34.500  1.00  0.00    -0.200 F 
ATOM     88  F   UNL A   1      47.275  26.166  35.924  1.00  0.00    -0.200 F 
ENDBRANCH  55  78
ENDBRANCH  29  30
ENDBRANCH  21  24
ENDBRANCH  19  20
ENDBRANCH  18  19
ENDBRANCH  17  18
ENDBRANCH   3  17
TORSDOF 16
ENDMDL
MODEL 3
REMARK VINA RESULT:     -10.7      6.068     11.339
REMARK SMILES C=C(C)C(=O)OCC[C@@H](C(C)=O)C(=O)NCCCNC(=O)c1ccc(-c2c3nc(c(-c4c(F)c(F)c(F)c(F)c4F)c4ccc([nH]4)c(-c4c(F)c(F)c(F)c(F)c4F)c4nc(c(-c5c(F)c(F)c(F)c(F)c5F)c5ccc2[nH]5)C=C4)C=C3)cc1
REMARK SMILES IDX 13 1 14 2 15 3 9 5 8 6 7 7 6 8 4 9 5 10 2 11 1 12 3 13 10 14
REMARK SMILES IDX 11 15 12 16 16 17 17 18 18 19 19 20 20 21 21 23 22 24 23 25
REMARK SMILES IDX 84 26 24 27 83 28 25 29 26 30 27 31 77 32 28 33 82 34 76 35
REMARK SMILES IDX 78 36 29 37 81 38 75 39 74 40 30 42 62 43 42 44 61 45 43 46
REMARK SMILES IDX 46 47 60 48 79 49 44 50 45 51 59 53 80 54 47 55 31 56 32 57
REMARK SMILES IDX 40 58 33 59 34 60 38 61 41 62 35 63 36 64 39 65 37 66 63 67
REMARK SMILES IDX 64 68 72 69 65 70 66 71 70 72 73 73 67 74 68 75 71 76 69 77
REMARK SMILES IDX 48 78 49 79 57 80 50 81 51 82 55 83 58 84 52 85 53 86 56 87
REMARK SMILES IDX 54 88
REMARK H PARENT 15 4 19 22 78 41 46 52
REMARK Flexibility Score: inf
ROOT
ATOM      1  C   UNL A   1      34.465  21.562  26.323  1.00  0.00     0.230 C 
ATOM      2  O   UNL A   1      33.884  21.267  27.368  1.00  0.00    -0.274 OA
ATOM      3  N   UNL A   1      35.745  21.127  26.161  1.00  0.00    -0.355 N 
ATOM      4  H   UNL A   1      36.102  20.597  26.910  1.00  0.00     0.163 HD
ENDROOT
BRANCH   1   5
ATOM      5  C   UNL A   1      33.791  22.404  25.259  1.00  0.00     0.148 C 
BRANCH   5   6
ATOM      6  C   UNL A   1      32.417  21.779  24.943  1.00  0.00     0.063 C 
BRANCH   6   7
ATOM      7  C   UNL A   1      32.413  20.711  23.850  1.00  0.00     0.234 C 
BRANCH   7   8
ATOM      8  O   UNL A   1      32.152  19.412  24.396  1.00  0.00    -0.462 OA
BRANCH   8   9
ATOM      9  C   UNL A   1      32.390  18.359  23.578  1.00  0.00     0.333 C 
ATOM     10  O   UNL A   1      32.134  18.294  22.385  1.00  0.00    -0.247 OA
BRANCH   9  11
ATOM     11  C   UNL A   1      33.105  17.306  24.337  1.00  0.00     0.027 C 
ATOM     12  C   UNL A   1      32.793  17.159  25.634  1.00  0.00     0.020 C 
ATOM     13  C   UNL A   1      34.143  16.501  23.626  1.00  0.00     0.051 C 
ENDBRANCH   9  11
ENDBRANCH   8   9
ENDBRANCH   7   8
ENDBRANCH   6   7
ENDBRANCH   5   6
BRANCH   5  14
ATOM     14  C   UNL A   1      33.738  23.880  25.637  1.00  0.00     0.142 C 
ATOM     15  C   UNL A   1      34.762  24.811  25.028  1.00  0.00     0.088 C 
ATOM     16  O   UNL A   1      32.903  24.325  26.427  1.00  0.00    -0.299 OA
ENDBRANCH   5  14
ENDBRANCH   1   5
BRANCH   3  17
ATOM     17  C   UNL A   1      36.666  21.325  25.054  1.00  0.00     0.117 C 
BRANCH  17  18
ATOM     18  C   UNL A   1      37.728  20.244  25.005  1.00  0.00     0.042 C 
BRANCH  18  19
ATOM     19  C   UNL A   1      38.988  20.618  25.765  1.00  0.00     0.118 C 
BRANCH  19  20
ATOM     20  N   UNL A   1      39.906  19.494  25.902  1.00  0.00    -0.352 N 
ATOM     21  C   UNL A   1      41.267  19.491  26.075  1.00  0.00     0.251 C 
ATOM     22  H   UNL A   1      39.487  18.604  25.865  1.00  0.00     0.163 HD
ATOM     23  O   UNL A   1      41.905  18.453  25.942  1.00  0.00    -0.269 OA
BRANCH  21  24
ATOM     24  C   UNL A   1      41.959  20.752  26.402  1.00  0.00     0.039 A 
ATOM     25  C   UNL A   1      42.389  21.579  25.364  1.00  0.00     0.014 A 
ATOM     26  C   UNL A   1      42.159  21.124  27.734  1.00  0.00     0.014 A 
ATOM     27  C   UNL A   1      42.949  22.821  25.666  1.00  0.00     0.010 A 
ATOM     28  C   UNL A   1      42.616  22.400  28.030  1.00  0.00     0.010 A 
ATOM     29  C   UNL A   1      43.019  23.260  26.999  1.00  0.00    -0.014 A 
BRANCH  29  30
ATOM     30  C   UNL A   1      43.489  24.625  27.334  1.00  0.00     0.031 A 
ATOM     31  C   UNL A   1      42.528  25.648  27.863  1.00  0.00     0.074 A 
ATOM     32  C   UNL A   1      44.767  24.962  27.074  1.00  0.00     0.049 A 
ATOM     33  N   UNL A   1      42.735  26.908  28.152  1.00  0.00    -0.248 NA
ATOM     34  C   UNL A   1      41.138  25.210  28.062  1.00  0.00     0.031 C 
ATOM     35  C   UNL A   1      45.773  24.072  26.491  1.00  0.00     0.029 A 
ATOM     36  N   UNL A   1      45.434  26.147  27.252  1.00  0.00    -0.354 N 
ATOM     37  C   UNL A   1      41.505  27.412  28.547  1.00  0.00     0.074 A 
ATOM     38  C   UNL A   1      40.543  26.341  28.404  1.00  0.00     0.031 C 
ATOM     39  C   UNL A   1      46.934  24.735  26.380  1.00  0.00     0.029 A 
ATOM     40  C   UNL A   1      46.744  26.106  26.842  1.00  0.00     0.049 A 
ATOM     41  H   UNL A   1      45.015  26.950  27.638  1.00  0.00     0.167 HD
ATOM     42  C   UNL A   1      41.210  28.651  29.007  1.00  0.00     0.037 A 
ATOM     43  C   UNL A   1      47.682  27.070  26.825  1.00  0.00     0.037 A 
ATOM     44  C   UNL A   1      42.181  29.703  29.162  1.00  0.00     0.049 A 
ATOM     45  C   UNL A   1      47.336  28.436  27.346  1.00  0.00     0.074 A 
ATOM     46  C   UNL A   1      42.008  30.962  29.707  1.00  0.00     0.029 A 
ATOM     47  N   UNL A   1      43.506  29.622  28.754  1.00  0.00    -0.354 N 
ATOM     48  N   UNL A   1      46.192  28.876  27.815  1.00  0.00    -0.248 NA
ATOM     49  C   UNL A   1      48.409  29.439  27.345  1.00  0.00     0.031 C 
ATOM     50  C   UNL A   1      43.209  31.666  29.565  1.00  0.00     0.029 A 
ATOM     51  C   UNL A   1      44.150  30.825  28.995  1.00  0.00     0.049 A 
ATOM     52  H   UNL A   1      43.926  28.826  28.354  1.00  0.00     0.167 HD
ATOM     53  C   UNL A   1      46.409  30.199  28.175  1.00  0.00     0.074 A 
ATOM     54  C   UNL A   1      47.802  30.482  27.892  1.00  0.00     0.031 C 
ATOM     55  C   UNL A   1      45.534  31.097  28.689  1.00  0.00     0.037 A 
BRANCH  42  56
ATOM     56  C   UNL A   1      39.777  28.937  29.360  1.00  0.00     0.064 A 
ATOM     57  C   UNL A   1      39.276  28.736  30.656  1.00  0.00     0.173 A 
ATOM     58  C   UNL A   1      38.894  29.430  28.388  1.00  0.00     0.173 A 
ATOM     59  F   UNL A   1      40.073  28.256  31.622  1.00  0.00    -0.203 F 
ATOM     60  C   UNL A   1      37.936  28.977  30.954  1.00  0.00     0.198 A 
ATOM     61  C   UNL A   1      37.564  29.705  28.698  1.00  0.00     0.198 A 
ATOM     62  F   UNL A   1      39.318  29.647  27.134  1.00  0.00    -0.203 F 
ATOM     63  F   UNL A   1      37.467  28.713  32.181  1.00  0.00    -0.200 F 
ATOM     64  C   UNL A   1      37.084  29.466  29.976  1.00  0.00     0.200 A 
ATOM     65  F   UNL A   1      36.745  30.193  27.756  1.00  0.00    -0.200 F 
ATOM     66  F   UNL A   1      35.795  29.699  30.264  1.00  0.00    -0.200 F 
ENDBRANCH  42  56
BRANCH  43  67
ATOM     67  C   UNL A   1      49.039  26.759  26.304  1.00  0.00     0.064 A 
ATOM     68  C   UNL A   1      50.015  26.180  27.128  1.00  0.00     0.173 A 
ATOM     69  C   UNL A   1      49.375  26.998  24.964  1.00  0.00     0.173 A 
ATOM     70  F   UNL A   1      49.747  25.950  28.422  1.00  0.00    -0.203 F 
ATOM     71  C   UNL A   1      51.277  25.860  26.633  1.00  0.00     0.198 A 
ATOM     72  C   UNL A   1      50.627  26.650  24.462  1.00  0.00     0.198 A 
ATOM     73  F   UNL A   1      48.474  27.542  24.133  1.00  0.00    -0.203 F 
ATOM     74  F   UNL A   1      52.202  25.338  27.449  1.00  0.00    -0.200 F 
ATOM     75  C   UNL A   1      51.578  26.086  25.297  1.00  0.00     0.200 A 
ATOM     76  F   UNL A   1      50.907  26.852  23.167  1.00  0.00    -0.200 F 
ATOM     77  F   UNL A   1      52.787  25.762  24.817  1.00  0.00    -0.200 F 
ENDBRANCH  43  67
BRANCH  55  78
ATOM     78  C   UNL A   1      46.058  32.474  28.985  1.00  0.00     0.064 A 
ATOM     79  C   UNL A   1      45.975  33.511  28.043  1.00  0.00     0.173 A 
ATOM     80  C   UNL A   1      46.615  32.769  30.239  1.00  0.00     0.173 A 
ATOM     81  F   UNL A   1      45.466  33.276  26.825  1.00  0.00    -0.203 F 
ATOM     82  C   UNL A   1      46.454  34.784  28.337  1.00  0.00     0.198 A 
ATOM     83  C   UNL A   1      47.061  34.053  30.540  1.00  0.00     0.198 A 
ATOM     84  F   UNL A   1      46.713  31.817  31.179  1.00  0.00    -0.203 F 
ATOM     85  F   UNL A   1      46.412  35.745  27.403  1.00  0.00    -0.200 F 
ATOM     86  C   UNL A   1      46.988  35.057  29.587  1.00  0.00     0.200 A 
ATOM     87  F   UNL A   1      47.562  34.319  31.755  1.00  0.00    -0.200 F 
ATOM     88  F   UNL A   1      47.441  36.286  29.870  1.00  0.00    -0.200 F 
ENDBRANCH  55  78
ENDBRANCH  29  30
ENDBRANCH  21  24
ENDBRANCH  19  20
ENDBRANCH  18  19
ENDBRANCH  17  18
ENDBRANCH   3  17
TORSDOF 16
ENDMDL
