MODEL 1
REMARK VINA RESULT:     -13.0      0.000      0.000
REMARK SMILES Cc1cc2cc(-c3ccc([C@@H](C)C(=O)NCCCNC(=O)c4ccc(-c5c6nc(c(-c7c(F)c(F)c(F)c(F)c7F)c7ccc([nH]7)c(-c7c(F)c(F)c(F)c(F)c7F)c7nc(c(-c8c(F)c(F)c(F)c(F)c8F)c8ccc5[nH]8)C=C7)C=C6)cc4)cc3)ccc2[nH]1
REMARK SMILES IDX 17 1 16 2 15 3 13 4 14 5 11 7 12 8 10 9 7 10 8 11 86 12 9 13
REMARK SMILES IDX 85 14 6 15 1 16 2 17 3 18 90 19 4 20 89 21 5 23 88 24 87 25
REMARK SMILES IDX 18 26 19 27 20 28 21 30 22 31 23 32 84 33 24 34 83 35 25 36
REMARK SMILES IDX 26 37 27 38 77 39 28 40 82 41 76 42 78 43 29 44 81 45 75 46
REMARK SMILES IDX 74 47 30 49 62 50 42 51 61 52 43 53 46 54 60 55 79 56 44 57
REMARK SMILES IDX 45 58 59 60 80 61 47 62 31 63 32 64 40 65 33 66 34 67 38 68
REMARK SMILES IDX 41 69 35 70 36 71 39 72 37 73 63 74 64 75 72 76 65 77 66 78
REMARK SMILES IDX 70 79 73 80 67 81 68 82 71 83 69 84 48 85 49 86 57 87 50 88
REMARK SMILES IDX 51 89 55 90 58 91 52 92 53 93 56 94 54 95
REMARK H PARENT 15 6 90 22 19 29 78 48 46 59
REMARK Flexibility Score: inf
ROOT
ATOM      1  C   UNL A   1      32.856  27.649  25.482  1.00  0.00     0.042 C 
ENDROOT
BRANCH   1   2
ATOM      2  C   UNL A   1      31.922  27.210  24.355  1.00  0.00     0.117 C 
BRANCH   2   3
ATOM      3  N   UNL A   1      32.589  27.156  23.068  1.00  0.00    -0.356 N 
ATOM      4  C   UNL A   1      33.102  26.123  22.345  1.00  0.00     0.227 C 
ATOM      5  O   UNL A   1      33.668  26.430  21.288  1.00  0.00    -0.274 OA
ATOM      6  H   UNL A   1      32.691  28.034  22.635  1.00  0.00     0.163 HD
BRANCH   4   7
ATOM      7  C   UNL A   1      33.013  24.647  22.762  1.00  0.00     0.105 C 
ATOM      8  C   UNL A   1      31.655  24.229  23.326  1.00  0.00     0.023 C 
BRANCH   7   9
ATOM      9  C   UNL A   1      34.227  24.172  23.542  1.00  0.00    -0.036 A 
ATOM     10  C   UNL A   1      36.607  23.363  24.900  1.00  0.00    -0.018 A 
ATOM     11  C   UNL A   1      35.646  24.184  25.514  1.00  0.00     0.009 A 
ATOM     12  C   UNL A   1      36.337  22.936  23.592  1.00  0.00     0.009 A 
ATOM     13  C   UNL A   1      34.465  24.551  24.863  1.00  0.00     0.005 A 
ATOM     14  C   UNL A   1      35.177  23.347  22.918  1.00  0.00     0.005 A 
BRANCH  10  15
ATOM     15  C   UNL A   1      37.835  22.973  25.629  1.00  0.00    -0.018 A 
ATOM     16  C   UNL A   1      42.377  19.321  27.538  1.00  0.00     0.064 C 
ATOM     17  C   UNL A   1      41.281  20.240  27.143  1.00  0.00     0.013 A 
ATOM     18  C   UNL A   1      40.213  20.040  26.297  1.00  0.00     0.031 A 
ATOM     19  N   UNL A   1      41.203  21.532  27.605  1.00  0.00    -0.359 N 
ATOM     20  C   UNL A   1      39.489  21.259  26.215  1.00  0.00     0.000 A 
ATOM     21  C   UNL A   1      40.124  22.178  27.043  1.00  0.00     0.046 A 
ATOM     22  H   UNL A   1      41.829  21.939  28.246  1.00  0.00     0.166 HD
ATOM     23  C   UNL A   1      38.349  21.665  25.500  1.00  0.00     0.019 A 
ATOM     24  C   UNL A   1      39.665  23.490  27.193  1.00  0.00     0.027 A 
ATOM     25  C   UNL A   1      38.514  23.863  26.478  1.00  0.00     0.011 A 
ENDBRANCH  10  15
ENDBRANCH   7   9
ENDBRANCH   4   7
ENDBRANCH   2   3
ENDBRANCH   1   2
BRANCH   1  26
ATOM     26  C   UNL A   1      33.654  28.912  25.178  1.00  0.00     0.118 C 
BRANCH  26  27
ATOM     27  N   UNL A   1      33.045  30.105  25.750  1.00  0.00    -0.352 N 
ATOM     28  C   UNL A   1      33.393  30.863  26.841  1.00  0.00     0.251 C 
ATOM     29  H   UNL A   1      32.247  30.424  25.271  1.00  0.00     0.163 HD
ATOM     30  O   UNL A   1      32.604  31.712  27.251  1.00  0.00    -0.269 OA
BRANCH  28  31
ATOM     31  C   UNL A   1      34.685  30.676  27.545  1.00  0.00     0.039 A 
ATOM     32  C   UNL A   1      35.534  31.781  27.682  1.00  0.00     0.014 A 
ATOM     33  C   UNL A   1      35.105  29.427  28.005  1.00  0.00     0.014 A 
ATOM     34  C   UNL A   1      36.765  31.647  28.332  1.00  0.00     0.010 A 
ATOM     35  C   UNL A   1      36.301  29.306  28.716  1.00  0.00     0.010 A 
ATOM     36  C   UNL A   1      37.144  30.415  28.887  1.00  0.00    -0.014 A 
BRANCH  36  37
ATOM     37  C   UNL A   1      38.408  30.275  29.658  1.00  0.00     0.031 A 
ATOM     38  C   UNL A   1      39.565  29.492  29.099  1.00  0.00     0.074 A 
ATOM     39  C   UNL A   1      38.494  30.802  30.894  1.00  0.00     0.049 A 
ATOM     40  N   UNL A   1      40.710  29.191  29.661  1.00  0.00    -0.248 NA
ATOM     41  C   UNL A   1      39.408  28.958  27.738  1.00  0.00     0.031 C 
ATOM     42  C   UNL A   1      37.431  31.544  31.573  1.00  0.00     0.029 A 
ATOM     43  N   UNL A   1      39.520  30.781  31.806  1.00  0.00    -0.354 N 
ATOM     44  C   UNL A   1      41.398  28.422  28.733  1.00  0.00     0.074 A 
ATOM     45  C   UNL A   1      40.529  28.266  27.587  1.00  0.00     0.031 C 
ATOM     46  C   UNL A   1      37.863  31.918  32.789  1.00  0.00     0.029 A 
ATOM     47  C   UNL A   1      39.217  31.411  32.988  1.00  0.00     0.049 A 
ATOM     48  H   UNL A   1      40.390  30.354  31.631  1.00  0.00     0.167 HD
ATOM     49  C   UNL A   1      42.649  27.907  28.821  1.00  0.00     0.037 A 
ATOM     50  C   UNL A   1      39.941  31.549  34.115  1.00  0.00     0.037 A 
ATOM     51  C   UNL A   1      43.529  28.086  29.947  1.00  0.00     0.049 A 
ATOM     52  C   UNL A   1      41.320  30.960  34.190  1.00  0.00     0.074 A 
ATOM     53  C   UNL A   1      44.841  27.667  30.092  1.00  0.00     0.029 A 
ATOM     54  N   UNL A   1      43.187  28.738  31.121  1.00  0.00    -0.354 N 
ATOM     55  N   UNL A   1      41.980  30.283  33.284  1.00  0.00    -0.248 NA
ATOM     56  C   UNL A   1      42.054  31.152  35.451  1.00  0.00     0.031 C 
ATOM     57  C   UNL A   1      45.279  28.028  31.369  1.00  0.00     0.029 A 
ATOM     58  C   UNL A   1      44.256  28.710  32.005  1.00  0.00     0.049 A 
ATOM     59  H   UNL A   1      42.315  29.157  31.301  1.00  0.00     0.167 HD
ATOM     60  C   UNL A   1      43.210  29.985  33.853  1.00  0.00     0.074 A 
ATOM     61  C   UNL A   1      43.212  30.569  35.179  1.00  0.00     0.031 C 
ATOM     62  C   UNL A   1      44.245  29.291  33.323  1.00  0.00     0.037 A 
BRANCH  49  63
ATOM     63  C   UNL A   1      43.152  27.100  27.660  1.00  0.00     0.064 A 
ATOM     64  C   UNL A   1      43.922  27.682  26.642  1.00  0.00     0.173 A 
ATOM     65  C   UNL A   1      42.911  25.720  27.594  1.00  0.00     0.173 A 
ATOM     66  F   UNL A   1      44.172  29.000  26.655  1.00  0.00    -0.203 F 
ATOM     67  C   UNL A   1      44.413  26.915  25.589  1.00  0.00     0.198 A 
ATOM     68  C   UNL A   1      43.427  24.952  26.554  1.00  0.00     0.198 A 
ATOM     69  F   UNL A   1      42.188  25.113  28.548  1.00  0.00    -0.203 F 
ATOM     70  F   UNL A   1      45.114  27.500  24.607  1.00  0.00    -0.200 F 
ATOM     71  C   UNL A   1      44.172  25.551  25.550  1.00  0.00     0.200 A 
ATOM     72  F   UNL A   1      43.203  23.630  26.523  1.00  0.00    -0.200 F 
ATOM     73  F   UNL A   1      44.654  24.812  24.541  1.00  0.00    -0.200 F 
ENDBRANCH  49  63
BRANCH  50  74
ATOM     74  C   UNL A   1      39.366  32.272  35.275  1.00  0.00     0.064 A 
ATOM     75  C   UNL A   1      39.594  33.643  35.459  1.00  0.00     0.173 A 
ATOM     76  C   UNL A   1      38.595  31.602  36.234  1.00  0.00     0.173 A 
ATOM     77  F   UNL A   1      40.355  34.318  34.585  1.00  0.00    -0.203 F 
ATOM     78  C   UNL A   1      39.081  34.314  36.567  1.00  0.00     0.198 A 
ATOM     79  C   UNL A   1      38.067  32.278  37.327  1.00  0.00     0.198 A 
ATOM     80  F   UNL A   1      38.357  30.288  36.106  1.00  0.00    -0.203 F 
ATOM     81  F   UNL A   1      39.352  35.614  36.745  1.00  0.00    -0.200 F 
ATOM     82  C   UNL A   1      38.313  33.632  37.498  1.00  0.00     0.200 A 
ATOM     83  F   UNL A   1      37.336  31.612  38.230  1.00  0.00    -0.200 F 
ATOM     84  F   UNL A   1      37.822  34.274  38.567  1.00  0.00    -0.200 F 
ENDBRANCH  50  74
BRANCH  62  85
ATOM     85  C   UNL A   1      45.476  29.144  34.167  1.00  0.00     0.064 A 
ATOM     86  C   UNL A   1      45.621  28.082  35.072  1.00  0.00     0.173 A 
ATOM     87  C   UNL A   1      46.532  30.060  34.051  1.00  0.00     0.173 A 
ATOM     88  F   UNL A   1      44.631  27.191  35.232  1.00  0.00    -0.203 F 
ATOM     89  C   UNL A   1      46.771  27.956  35.847  1.00  0.00     0.198 A 
ATOM     90  C   UNL A   1      47.690  29.916  34.808  1.00  0.00     0.198 A 
ATOM     91  F   UNL A   1      46.441  31.092  33.198  1.00  0.00    -0.203 F 
ATOM     92  F   UNL A   1      46.870  26.960  36.738  1.00  0.00    -0.200 F 
ATOM     93  C   UNL A   1      47.807  28.869  35.710  1.00  0.00     0.200 A 
ATOM     94  F   UNL A   1      48.693  30.794  34.669  1.00  0.00    -0.200 F 
ATOM     95  F   UNL A   1      48.914  28.745  36.455  1.00  0.00    -0.200 F 
ENDBRANCH  62  85
ENDBRANCH  36  37
ENDBRANCH  28  31
ENDBRANCH  26  27
ENDBRANCH   1  26
TORSDOF 12
ENDMDL
MODEL 2
REMARK VINA RESULT:     -13.0      2.726      4.430
REMARK SMILES Cc1cc2cc(-c3ccc([C@@H](C)C(=O)NCCCNC(=O)c4ccc(-c5c6nc(c(-c7c(F)c(F)c(F)c(F)c7F)c7ccc([nH]7)c(-c7c(F)c(F)c(F)c(F)c7F)c7nc(c(-c8c(F)c(F)c(F)c(F)c8F)c8ccc5[nH]8)C=C7)C=C6)cc4)cc3)ccc2[nH]1
REMARK SMILES IDX 17 1 16 2 15 3 13 4 14 5 11 7 12 8 10 9 7 10 8 11 86 12 9 13
REMARK SMILES IDX 85 14 6 15 1 16 2 17 3 18 90 19 4 20 89 21 5 23 88 24 87 25
REMARK SMILES IDX 18 26 19 27 20 28 21 30 22 31 23 32 84 33 24 34 83 35 25 36
REMARK SMILES IDX 26 37 27 38 77 39 28 40 82 41 76 42 78 43 29 44 81 45 75 46
REMARK SMILES IDX 74 47 30 49 62 50 42 51 61 52 43 53 46 54 60 55 79 56 44 57
REMARK SMILES IDX 45 58 59 60 80 61 47 62 31 63 32 64 40 65 33 66 34 67 38 68
REMARK SMILES IDX 41 69 35 70 36 71 39 72 37 73 63 74 64 75 72 76 65 77 66 78
REMARK SMILES IDX 70 79 73 80 67 81 68 82 71 83 69 84 48 85 49 86 57 87 50 88
REMARK SMILES IDX 51 89 55 90 58 91 52 92 53 93 56 94 54 95
REMARK H PARENT 15 6 90 22 19 29 78 48 46 59
REMARK Flexibility Score: inf
ROOT
ATOM      1  C   UNL A   1      31.354  32.333  26.507  1.00  0.00     0.042 C 
ENDROOT
BRANCH   1   2
ATOM      2  C   UNL A   1      31.290  30.807  26.509  1.00  0.00     0.117 C 
BRANCH   2   3
ATOM      3  N   UNL A   1      31.853  30.224  25.305  1.00  0.00    -0.356 N 
ATOM      4  C   UNL A   1      32.664  29.150  25.101  1.00  0.00     0.227 C 
ATOM      5  O   UNL A   1      33.015  28.952  23.931  1.00  0.00    -0.274 OA
ATOM      6  H   UNL A   1      31.602  30.696  24.479  1.00  0.00     0.163 HD
BRANCH   4   7
ATOM      7  C   UNL A   1      33.144  28.205  26.213  1.00  0.00     0.105 C 
ATOM      8  C   UNL A   1      34.459  28.620  26.874  1.00  0.00     0.023 C 
BRANCH   7   9
ATOM      9  C   UNL A   1      33.027  26.736  25.841  1.00  0.00    -0.036 A 
ATOM     10  C   UNL A   1      32.707  24.020  25.015  1.00  0.00    -0.018 A 
ATOM     11  C   UNL A   1      33.955  24.665  24.974  1.00  0.00     0.009 A 
ATOM     12  C   UNL A   1      31.623  24.764  25.502  1.00  0.00     0.009 A 
ATOM     13  C   UNL A   1      34.119  25.983  25.412  1.00  0.00     0.005 A 
ATOM     14  C   UNL A   1      31.776  26.102  25.892  1.00  0.00     0.005 A 
BRANCH  10  15
ATOM     15  C   UNL A   1      32.575  22.616  24.567  1.00  0.00    -0.018 A 
ATOM     16  C   UNL A   1      32.653  16.499  24.988  1.00  0.00     0.064 C 
ATOM     17  C   UNL A   1      32.657  17.971  24.814  1.00  0.00     0.013 A 
ATOM     18  C   UNL A   1      32.898  18.975  25.726  1.00  0.00     0.031 A 
ATOM     19  N   UNL A   1      32.375  18.570  23.609  1.00  0.00    -0.359 N 
ATOM     20  C   UNL A   1      32.719  20.217  25.062  1.00  0.00     0.000 A 
ATOM     21  C   UNL A   1      32.395  19.941  23.739  1.00  0.00     0.046 A 
ATOM     22  H   UNL A   1      32.186  18.088  22.773  1.00  0.00     0.166 HD
ATOM     23  C   UNL A   1      32.797  21.560  25.475  1.00  0.00     0.019 A 
ATOM     24  C   UNL A   1      32.150  20.951  22.803  1.00  0.00     0.027 A 
ATOM     25  C   UNL A   1      32.250  22.282  23.241  1.00  0.00     0.011 A 
ENDBRANCH  10  15
ENDBRANCH   7   9
ENDBRANCH   4   7
ENDBRANCH   2   3
ENDBRANCH   1   2
BRANCH   1  26
ATOM     26  C   UNL A   1      32.638  32.907  27.097  1.00  0.00     0.118 C 
BRANCH  26  27
ATOM     27  N   UNL A   1      32.453  34.251  27.626  1.00  0.00    -0.352 N 
ATOM     28  C   UNL A   1      33.046  34.895  28.684  1.00  0.00     0.251 C 
ATOM     29  H   UNL A   1      31.789  34.792  27.141  1.00  0.00     0.163 HD
ATOM     30  O   UNL A   1      32.578  35.966  29.066  1.00  0.00    -0.269 OA
BRANCH  28  31
ATOM     31  C   UNL A   1      34.224  34.330  29.385  1.00  0.00     0.039 A 
ATOM     32  C   UNL A   1      34.018  33.658  30.596  1.00  0.00     0.014 A 
ATOM     33  C   UNL A   1      35.526  34.510  28.914  1.00  0.00     0.014 A 
ATOM     34  C   UNL A   1      35.101  33.116  31.295  1.00  0.00     0.010 A 
ATOM     35  C   UNL A   1      36.600  33.909  29.573  1.00  0.00     0.010 A 
ATOM     36  C   UNL A   1      36.400  33.206  30.770  1.00  0.00    -0.014 A 
BRANCH  36  37
ATOM     37  C   UNL A   1      37.552  32.560  31.454  1.00  0.00     0.031 A 
ATOM     38  C   UNL A   1      38.262  31.393  30.824  1.00  0.00     0.074 A 
ATOM     39  C   UNL A   1      37.924  32.986  32.676  1.00  0.00     0.049 A 
ATOM     40  N   UNL A   1      39.228  30.651  31.309  1.00  0.00    -0.248 NA
ATOM     41  C   UNL A   1      37.815  30.991  29.482  1.00  0.00     0.031 C 
ATOM     42  C   UNL A   1      37.291  34.076  33.420  1.00  0.00     0.029 A 
ATOM     43  N   UNL A   1      38.915  32.542  33.516  1.00  0.00    -0.354 N 
ATOM     44  C   UNL A   1      39.490  29.689  30.343  1.00  0.00     0.074 A 
ATOM     45  C   UNL A   1      38.555  29.914  29.261  1.00  0.00     0.031 C 
ATOM     46  C   UNL A   1      37.916  34.226  34.599  1.00  0.00     0.029 A 
ATOM     47  C   UNL A   1      38.967  33.218  34.710  1.00  0.00     0.049 A 
ATOM     48  H   UNL A   1      39.529  31.808  33.285  1.00  0.00     0.167 HD
ATOM     49  C   UNL A   1      40.435  28.718  30.349  1.00  0.00     0.037 A 
ATOM     50  C   UNL A   1      39.759  33.036  35.783  1.00  0.00     0.037 A 
ATOM     51  C   UNL A   1      41.387  28.512  31.410  1.00  0.00     0.049 A 
ATOM     52  C   UNL A   1      40.792  31.946  35.769  1.00  0.00     0.074 A 
ATOM     53  C   UNL A   1      42.430  27.603  31.469  1.00  0.00     0.029 A 
ATOM     54  N   UNL A   1      41.411  29.223  32.600  1.00  0.00    -0.354 N 
ATOM     55  N   UNL A   1      41.066  31.079  34.826  1.00  0.00    -0.248 NA
ATOM     56  C   UNL A   1      41.624  31.807  36.974  1.00  0.00     0.031 C 
ATOM     57  C   UNL A   1      43.060  27.736  32.710  1.00  0.00     0.029 A 
ATOM     58  C   UNL A   1      42.437  28.756  33.408  1.00  0.00     0.049 A 
ATOM     59  H   UNL A   1      40.792  29.951  32.835  1.00  0.00     0.167 HD
ATOM     60  C   UNL A   1      42.111  30.307  35.312  1.00  0.00     0.074 A 
ATOM     61  C   UNL A   1      42.433  30.816  36.628  1.00  0.00     0.031 C 
ATOM     62  C   UNL A   1      42.747  29.269  34.718  1.00  0.00     0.037 A 
BRANCH  49  63
ATOM     63  C   UNL A   1      40.497  27.800  29.164  1.00  0.00     0.064 A 
ATOM     64  C   UNL A   1      39.698  26.649  29.086  1.00  0.00     0.173 A 
ATOM     65  C   UNL A   1      41.320  28.104  28.070  1.00  0.00     0.173 A 
ATOM     66  F   UNL A   1      38.901  26.310  30.110  1.00  0.00    -0.203 F 
ATOM     67  C   UNL A   1      39.739  25.825  27.965  1.00  0.00     0.198 A 
ATOM     68  C   UNL A   1      41.338  27.292  26.939  1.00  0.00     0.198 A 
ATOM     69  F   UNL A   1      42.097  29.198  28.092  1.00  0.00    -0.203 F 
ATOM     70  F   UNL A   1      38.995  24.710  27.928  1.00  0.00    -0.200 F 
ATOM     71  C   UNL A   1      40.552  26.151  26.890  1.00  0.00     0.200 A 
ATOM     72  F   UNL A   1      42.115  27.615  25.896  1.00  0.00    -0.200 F 
ATOM     73  F   UNL A   1      40.581  25.362  25.807  1.00  0.00    -0.200 F 
ENDBRANCH  49  63
BRANCH  50  74
ATOM     74  C   UNL A   1      39.599  33.906  36.973  1.00  0.00     0.064 A 
ATOM     75  C   UNL A   1      38.798  33.512  38.055  1.00  0.00     0.173 A 
ATOM     76  C   UNL A   1      40.226  35.157  37.044  1.00  0.00     0.173 A 
ATOM     77  F   UNL A   1      38.151  32.338  38.015  1.00  0.00    -0.203 F 
ATOM     78  C   UNL A   1      38.622  34.344  39.158  1.00  0.00     0.198 A 
ATOM     79  C   UNL A   1      40.065  35.976  38.155  1.00  0.00     0.198 A 
ATOM     80  F   UNL A   1      40.994  35.582  36.030  1.00  0.00    -0.203 F 
ATOM     81  F   UNL A   1      37.815  33.965  40.158  1.00  0.00    -0.200 F 
ATOM     82  C   UNL A   1      39.260  35.574  39.210  1.00  0.00     0.200 A 
ATOM     83  F   UNL A   1      40.674  37.168  38.195  1.00  0.00    -0.200 F 
ATOM     84  F   UNL A   1      39.088  36.378  40.268  1.00  0.00    -0.200 F 
ENDBRANCH  50  74
BRANCH  62  85
ATOM     85  C   UNL A   1      43.870  28.629  35.477  1.00  0.00     0.064 A 
ATOM     86  C   UNL A   1      43.641  27.584  36.384  1.00  0.00     0.173 A 
ATOM     87  C   UNL A   1      45.194  29.047  35.275  1.00  0.00     0.173 A 
ATOM     88  F   UNL A   1      42.390  27.162  36.625  1.00  0.00    -0.203 F 
ATOM     89  C   UNL A   1      44.694  26.996  37.080  1.00  0.00     0.198 A 
ATOM     90  C   UNL A   1      46.248  28.440  35.952  1.00  0.00     0.198 A 
ATOM     91  F   UNL A   1      45.465  30.041  34.417  1.00  0.00    -0.203 F 
ATOM     92  F   UNL A   1      44.448  26.031  37.976  1.00  0.00    -0.200 F 
ATOM     93  C   UNL A   1      45.997  27.421  36.859  1.00  0.00     0.200 A 
ATOM     94  F   UNL A   1      47.506  28.845  35.732  1.00  0.00    -0.200 F 
ATOM     95  F   UNL A   1      47.010  26.853  37.526  1.00  0.00    -0.200 F 
ENDBRANCH  62  85
ENDBRANCH  36  37
ENDBRANCH  28  31
ENDBRANCH  26  27
ENDBRANCH   1  26
TORSDOF 12
ENDMDL
MODEL 3
REMARK VINA RESULT:     -13.0      2.723      4.409
REMARK SMILES Cc1cc2cc(-c3ccc([C@@H](C)C(=O)NCCCNC(=O)c4ccc(-c5c6nc(c(-c7c(F)c(F)c(F)c(F)c7F)c7ccc([nH]7)c(-c7c(F)c(F)c(F)c(F)c7F)c7nc(c(-c8c(F)c(F)c(F)c(F)c8F)c8ccc5[nH]8)C=C7)C=C6)cc4)cc3)ccc2[nH]1
REMARK SMILES IDX 17 1 16 2 15 3 13 4 14 5 11 7 12 8 10 9 7 10 8 11 86 12 9 13
REMARK SMILES IDX 85 14 6 15 1 16 2 17 3 18 90 19 4 20 89 21 5 23 88 24 87 25
REMARK SMILES IDX 18 26 19 27 20 28 21 30 22 31 23 32 84 33 24 34 83 35 25 36
REMARK SMILES IDX 26 37 27 38 77 39 28 40 82 41 76 42 78 43 29 44 81 45 75 46
REMARK SMILES IDX 74 47 30 49 62 50 42 51 61 52 43 53 46 54 60 55 79 56 44 57
REMARK SMILES IDX 45 58 59 60 80 61 47 62 31 63 32 64 40 65 33 66 34 67 38 68
REMARK SMILES IDX 41 69 35 70 36 71 39 72 37 73 63 74 64 75 72 76 65 77 66 78
REMARK SMILES IDX 70 79 73 80 67 81 68 82 71 83 69 84 48 85 49 86 57 87 50 88
REMARK SMILES IDX 51 89 55 90 58 91 52 92 53 93 56 94 54 95
REMARK H PARENT 15 6 90 22 19 29 78 48 46 59
REMARK Flexibility Score: inf
ROOT
ATOM      1  C   UNL A   1      31.331  32.347  26.467  1.00  0.00     0.042 C 
ENDROOT
BRANCH   1   2
ATOM      2  C   UNL A   1      31.245  30.823  26.390  1.00  0.00     0.117 C 
BRANCH   2   3
ATOM      3  N   UNL A   1      31.844  30.291  25.181  1.00  0.00    -0.356 N 
ATOM      4  C   UNL A   1      32.619  29.197  24.948  1.00  0.00     0.227 C 
ATOM      5  O   UNL A   1      33.020  29.055  23.785  1.00  0.00    -0.274 OA
ATOM      6  H   UNL A   1      31.654  30.824  24.375  1.00  0.00     0.163 HD
BRANCH   4   7
ATOM      7  C   UNL A   1      33.004  28.166  26.019  1.00  0.00     0.105 C 
ATOM      8  C   UNL A   1      34.287  28.494  26.783  1.00  0.00     0.023 C 
BRANCH   7   9
ATOM      9  C   UNL A   1      32.869  26.729  25.542  1.00  0.00    -0.036 A 
ATOM     10  C   UNL A   1      32.695  23.980  24.785  1.00  0.00    -0.018 A 
ATOM     11  C   UNL A   1      31.550  24.747  25.062  1.00  0.00     0.009 A 
ATOM     12  C   UNL A   1      33.933  24.631  24.875  1.00  0.00     0.009 A 
ATOM     13  C   UNL A   1      31.633  26.101  25.397  1.00  0.00     0.005 A 
ATOM     14  C   UNL A   1      34.021  25.976  25.263  1.00  0.00     0.005 A 
BRANCH  10  15
ATOM     15  C   UNL A   1      32.569  22.554  24.408  1.00  0.00    -0.018 A 
ATOM     16  C   UNL A   1      32.670  16.467  25.139  1.00  0.00     0.064 C 
ATOM     17  C   UNL A   1      32.669  17.928  24.891  1.00  0.00     0.013 A 
ATOM     18  C   UNL A   1      32.903  18.978  25.751  1.00  0.00     0.031 A 
ATOM     19  N   UNL A   1      32.388  18.464  23.656  1.00  0.00    -0.359 N 
ATOM     20  C   UNL A   1      32.721  20.185  25.025  1.00  0.00     0.000 A 
ATOM     21  C   UNL A   1      32.403  19.840  23.716  1.00  0.00     0.046 A 
ATOM     22  H   UNL A   1      32.203  17.939  22.845  1.00  0.00     0.166 HD
ATOM     23  C   UNL A   1      32.792  21.546  25.369  1.00  0.00     0.019 A 
ATOM     24  C   UNL A   1      32.156  20.800  22.729  1.00  0.00     0.027 A 
ATOM     25  C   UNL A   1      32.250  22.153  23.100  1.00  0.00     0.011 A 
ENDBRANCH  10  15
ENDBRANCH   7   9
ENDBRANCH   4   7
ENDBRANCH   2   3
ENDBRANCH   1   2
BRANCH   1  26
ATOM     26  C   UNL A   1      32.597  32.870  27.137  1.00  0.00     0.118 C 
BRANCH  26  27
ATOM     27  N   UNL A   1      32.443  34.232  27.629  1.00  0.00    -0.352 N 
ATOM     28  C   UNL A   1      33.058  34.896  28.661  1.00  0.00     0.251 C 
ATOM     29  H   UNL A   1      31.784  34.771  27.134  1.00  0.00     0.163 HD
ATOM     30  O   UNL A   1      32.613  35.986  29.016  1.00  0.00    -0.269 OA
BRANCH  28  31
ATOM     31  C   UNL A   1      34.232  34.329  29.367  1.00  0.00     0.039 A 
ATOM     32  C   UNL A   1      34.021  33.657  30.577  1.00  0.00     0.014 A 
ATOM     33  C   UNL A   1      35.536  34.507  28.901  1.00  0.00     0.014 A 
ATOM     34  C   UNL A   1      35.101  33.114  31.280  1.00  0.00     0.010 A 
ATOM     35  C   UNL A   1      36.608  33.905  29.564  1.00  0.00     0.010 A 
ATOM     36  C   UNL A   1      36.401  33.202  30.761  1.00  0.00    -0.014 A 
BRANCH  36  37
ATOM     37  C   UNL A   1      37.550  32.555  31.449  1.00  0.00     0.031 A 
ATOM     38  C   UNL A   1      38.266  31.391  30.820  1.00  0.00     0.074 A 
ATOM     39  C   UNL A   1      37.914  32.978  32.675  1.00  0.00     0.049 A 
ATOM     40  N   UNL A   1      39.229  30.649  31.308  1.00  0.00    -0.248 NA
ATOM     41  C   UNL A   1      37.827  30.994  29.474  1.00  0.00     0.031 C 
ATOM     42  C   UNL A   1      37.275  34.064  33.419  1.00  0.00     0.029 A 
ATOM     43  N   UNL A   1      38.900  32.532  33.520  1.00  0.00    -0.354 N 
ATOM     44  C   UNL A   1      39.498  29.691  30.340  1.00  0.00     0.074 A 
ATOM     45  C   UNL A   1      38.570  29.918  29.253  1.00  0.00     0.031 C 
ATOM     46  C   UNL A   1      37.893  34.210  34.603  1.00  0.00     0.029 A 
ATOM     47  C   UNL A   1      38.944  33.203  34.716  1.00  0.00     0.049 A 
ATOM     48  H   UNL A   1      39.517  31.799  33.290  1.00  0.00     0.167 HD
ATOM     49  C   UNL A   1      40.444  28.720  30.348  1.00  0.00     0.037 A 
ATOM     50  C   UNL A   1      39.730  33.018  35.793  1.00  0.00     0.037 A 
ATOM     51  C   UNL A   1      41.390  28.511  31.415  1.00  0.00     0.049 A 
ATOM     52  C   UNL A   1      40.764  31.929  35.782  1.00  0.00     0.074 A 
ATOM     53  C   UNL A   1      42.433  27.603  31.476  1.00  0.00     0.029 A 
ATOM     54  N   UNL A   1      41.406  29.219  32.607  1.00  0.00    -0.354 N 
ATOM     55  N   UNL A   1      41.045  31.066  34.838  1.00  0.00    -0.248 NA
ATOM     56  C   UNL A   1      41.588  31.787  36.992  1.00  0.00     0.031 C 
ATOM     57  C   UNL A   1      43.055  27.733  32.721  1.00  0.00     0.029 A 
ATOM     58  C   UNL A   1      42.427  28.749  33.420  1.00  0.00     0.049 A 
ATOM     59  H   UNL A   1      40.785  29.945  32.841  1.00  0.00     0.167 HD
ATOM     60  C   UNL A   1      42.088  30.293  35.327  1.00  0.00     0.074 A 
ATOM     61  C   UNL A   1      42.401  30.798  36.648  1.00  0.00     0.031 C 
ATOM     62  C   UNL A   1      42.728  29.258  34.733  1.00  0.00     0.037 A 
BRANCH  49  63
ATOM     63  C   UNL A   1      40.514  27.807  29.161  1.00  0.00     0.064 A 
ATOM     64  C   UNL A   1      39.712  26.660  29.070  1.00  0.00     0.173 A 
ATOM     65  C   UNL A   1      41.349  28.112  28.076  1.00  0.00     0.173 A 
ATOM     66  F   UNL A   1      38.903  26.320  30.085  1.00  0.00    -0.203 F 
ATOM     67  C   UNL A   1      39.760  25.840  27.946  1.00  0.00     0.198 A 
ATOM     68  C   UNL A   1      41.376  27.304  26.942  1.00  0.00     0.198 A 
ATOM     69  F   UNL A   1      42.130  29.203  28.110  1.00  0.00    -0.203 F 
ATOM     70  F   UNL A   1      39.013  24.728  27.897  1.00  0.00    -0.200 F 
ATOM     71  C   UNL A   1      40.586  26.166  26.881  1.00  0.00     0.200 A 
ATOM     72  F   UNL A   1      42.165  27.628  25.908  1.00  0.00    -0.200 F 
ATOM     73  F   UNL A   1      40.623  25.382  25.795  1.00  0.00    -0.200 F 
ENDBRANCH  49  63
BRANCH  50  74
ATOM     74  C   UNL A   1      39.561  33.884  36.986  1.00  0.00     0.064 A 
ATOM     75  C   UNL A   1      40.214  35.120  37.081  1.00  0.00     0.173 A 
ATOM     76  C   UNL A   1      38.759  33.482  38.062  1.00  0.00     0.173 A 
ATOM     77  F   UNL A   1      41.019  35.530  36.090  1.00  0.00    -0.203 F 
ATOM     78  C   UNL A   1      40.080  35.917  38.216  1.00  0.00     0.198 A 
ATOM     79  C   UNL A   1      38.611  34.288  39.185  1.00  0.00     0.198 A 
ATOM     80  F   UNL A   1      38.122  32.302  38.021  1.00  0.00    -0.203 F 
ATOM     81  F   UNL A   1      40.752  37.073  38.303  1.00  0.00    -0.200 F 
ATOM     82  C   UNL A   1      39.274  35.503  39.266  1.00  0.00     0.200 A 
ATOM     83  F   UNL A   1      37.841  33.877  40.200  1.00  0.00    -0.200 F 
ATOM     84  F   UNL A   1      39.148  36.265  40.360  1.00  0.00    -0.200 F 
ENDBRANCH  50  74
BRANCH  62  85
ATOM     85  C   UNL A   1      43.848  28.616  35.497  1.00  0.00     0.064 A 
ATOM     86  C   UNL A   1      45.175  29.045  35.350  1.00  0.00     0.173 A 
ATOM     87  C   UNL A   1      43.587  27.578  36.404  1.00  0.00     0.173 A 
ATOM     88  F   UNL A   1      45.477  30.021  34.481  1.00  0.00    -0.203 F 
ATOM     89  C   UNL A   1      46.205  28.443  36.069  1.00  0.00     0.198 A 
ATOM     90  C   UNL A   1      44.615  26.996  37.140  1.00  0.00     0.198 A 
ATOM     91  F   UNL A   1      42.334  27.134  36.580  1.00  0.00    -0.203 F 
ATOM     92  F   UNL A   1      47.472  28.837  35.880  1.00  0.00    -0.200 F 
ATOM     93  C   UNL A   1      45.923  27.423  36.967  1.00  0.00     0.200 A 
ATOM     94  F   UNL A   1      44.340  26.017  38.013  1.00  0.00    -0.200 F 
ATOM     95  F   UNL A   1      46.914  26.846  37.660  1.00  0.00    -0.200 F 
ENDBRANCH  62  85
ENDBRANCH  36  37
ENDBRANCH  28  31
ENDBRANCH  26  27
ENDBRANCH   1  26
TORSDOF 12
ENDMDL
