MODEL 1
REMARK VINA RESULT:     -12.7      0.000      0.000
REMARK SMILES O=C(NCCCNC(=O)c1cc(S[C@H]2CCO[C@@]3(CCOC3)C2)cs1)c1ccc(-c2c3nc(c(-c4c(F)c(F)c(F)c(F)c4F)c4ccc([nH]4)c(-c4c(F)c(F)c(F)c(F)c4F)c4nc(c(-c5c(F)c(F)c(F)c(F)c5F)c5ccc2[nH]5)C=C4)C=C3)cc1
REMARK SMILES IDX 5 1 4 2 3 3 1 4 2 5 26 7 27 8 88 9 28 10 87 11 29 12 30 13
REMARK SMILES IDX 31 14 81 15 32 16 86 17 80 18 82 19 33 20 85 21 79 22 78 23
REMARK SMILES IDX 34 25 66 26 46 27 65 28 47 29 50 30 64 31 83 32 48 33 49 34
REMARK SMILES IDX 63 36 84 37 51 38 35 39 36 40 44 41 37 42 38 43 42 44 45 45
REMARK SMILES IDX 39 46 40 47 43 48 41 49 67 50 68 51 76 52 69 53 70 54 74 55
REMARK SMILES IDX 77 56 71 57 72 58 75 59 73 60 52 61 53 62 61 63 54 64 55 65
REMARK SMILES IDX 59 66 62 67 56 68 57 69 60 70 58 71 6 72 7 73 8 74 9 76
REMARK SMILES IDX 10 77 11 78 25 79 12 80 24 81 13 82 14 83 15 84 23 85 16 86
REMARK SMILES IDX 18 87 17 88 19 89 22 90 20 91 21 92
REMARK H PARENT 3 6 82 24 50 35 7 75
REMARK Flexibility Score: inf
ROOT
ATOM      1  C   UNL A   1      31.392  32.699  26.745  1.00  0.00     0.042 C 
ENDROOT
BRANCH   1   2
ATOM      2  C   UNL A   1      32.666  33.271  27.342  1.00  0.00     0.118 C 
BRANCH   2   3
ATOM      3  N   UNL A   1      32.471  34.621  27.856  1.00  0.00    -0.352 N 
ATOM      4  O   UNL A   1      32.609  36.304  29.345  1.00  0.00    -0.269 OA
ATOM      5  C   UNL A   1      33.064  35.244  28.926  1.00  0.00     0.251 C 
ATOM      6  H   UNL A   1      31.818  35.168  27.362  1.00  0.00     0.163 HD
BRANCH   5   7
ATOM      7  C   UNL A   1      34.246  34.639  29.573  1.00  0.00     0.039 A 
ATOM      8  C   UNL A   1      34.117  33.953  30.782  1.00  0.00     0.014 A 
ATOM      9  C   UNL A   1      35.490  34.715  28.941  1.00  0.00     0.014 A 
ATOM     10  C   UNL A   1      35.243  33.459  31.425  1.00  0.00     0.010 A 
ATOM     11  C   UNL A   1      36.608  34.125  29.537  1.00  0.00     0.010 A 
ATOM     12  C   UNL A   1      36.492  33.500  30.788  1.00  0.00    -0.014 A 
BRANCH  12  13
ATOM     13  C   UNL A   1      37.623  32.754  31.388  1.00  0.00     0.031 A 
ATOM     14  C   UNL A   1      38.239  31.576  30.696  1.00  0.00     0.074 A 
ATOM     15  C   UNL A   1      38.084  33.170  32.584  1.00  0.00     0.049 A 
ATOM     16  N   UNL A   1      39.218  30.808  31.103  1.00  0.00    -0.248 NA
ATOM     17  C   UNL A   1      37.687  31.200  29.386  1.00  0.00     0.031 C 
ATOM     18  C   UNL A   1      37.538  34.295  33.351  1.00  0.00     0.029 A 
ATOM     19  N   UNL A   1      39.111  32.709  33.365  1.00  0.00    -0.354 N 
ATOM     20  C   UNL A   1      39.386  29.848  30.116  1.00  0.00     0.074 A 
ATOM     21  C   UNL A   1      38.400  30.120  29.090  1.00  0.00     0.031 C 
ATOM     22  C   UNL A   1      38.251  34.453  34.473  1.00  0.00     0.029 A 
ATOM     23  C   UNL A   1      39.255  33.400  34.542  1.00  0.00     0.049 A 
ATOM     24  H   UNL A   1      39.690  31.954  33.107  1.00  0.00     0.167 HD
ATOM     25  C   UNL A   1      40.286  28.837  30.078  1.00  0.00     0.037 A 
ATOM     26  C   UNL A   1      40.077  33.187  35.586  1.00  0.00     0.037 A 
ATOM     27  C   UNL A   1      41.279  28.600  31.093  1.00  0.00     0.049 A 
ATOM     28  C   UNL A   1      41.041  32.039  35.519  1.00  0.00     0.074 A 
ATOM     29  C   UNL A   1      42.294  27.658  31.101  1.00  0.00     0.029 A 
ATOM     30  N   UNL A   1      41.375  29.300  32.287  1.00  0.00    -0.354 N 
ATOM     31  N   UNL A   1      41.236  31.182  34.547  1.00  0.00    -0.248 NA
ATOM     32  C   UNL A   1      41.887  31.818  36.698  1.00  0.00     0.031 C 
ATOM     33  C   UNL A   1      42.966  27.749  32.323  1.00  0.00     0.029 A 
ATOM     34  C   UNL A   1      42.402  28.781  33.058  1.00  0.00     0.049 A 
ATOM     35  H   UNL A   1      40.798  30.055  32.547  1.00  0.00     0.167 HD
ATOM     36  C   UNL A   1      42.229  30.323  34.993  1.00  0.00     0.074 A 
ATOM     37  C   UNL A   1      42.619  30.783  36.310  1.00  0.00     0.031 C 
ATOM     38  C   UNL A   1      42.763  29.244  34.372  1.00  0.00     0.037 A 
BRANCH  25  39
ATOM     39  C   UNL A   1      40.244  27.890  28.916  1.00  0.00     0.064 A 
ATOM     40  C   UNL A   1      40.983  28.120  27.747  1.00  0.00     0.173 A 
ATOM     41  C   UNL A   1      39.540  26.680  29.021  1.00  0.00     0.173 A 
ATOM     42  F   UNL A   1      41.667  29.264  27.596  1.00  0.00    -0.203 F 
ATOM     43  C   UNL A   1      41.015  27.176  26.723  1.00  0.00     0.198 A 
ATOM     44  C   UNL A   1      39.592  25.729  28.005  1.00  0.00     0.198 A 
ATOM     45  F   UNL A   1      38.823  26.409  30.122  1.00  0.00    -0.203 F 
ATOM     46  F   UNL A   1      41.715  27.423  25.608  1.00  0.00    -0.200 F 
ATOM     47  C   UNL A   1      40.329  25.977  26.858  1.00  0.00     0.200 A 
ATOM     48  F   UNL A   1      38.939  24.567  28.143  1.00  0.00    -0.200 F 
ATOM     49  F   UNL A   1      40.380  25.060  25.881  1.00  0.00    -0.200 F 
ENDBRANCH  25  39
BRANCH  26  50
ATOM     50  C   UNL A   1      39.983  34.048  36.792  1.00  0.00     0.064 A 
ATOM     51  C   UNL A   1      39.116  33.729  37.845  1.00  0.00     0.173 A 
ATOM     52  C   UNL A   1      40.756  35.213  36.912  1.00  0.00     0.173 A 
ATOM     53  F   UNL A   1      38.343  32.636  37.769  1.00  0.00    -0.203 F 
ATOM     54  C   UNL A   1      39.009  34.557  38.961  1.00  0.00     0.198 A 
ATOM     55  C   UNL A   1      40.673  36.020  38.043  1.00  0.00     0.198 A 
ATOM     56  F   UNL A   1      41.606  35.559  35.934  1.00  0.00    -0.203 F 
ATOM     57  F   UNL A   1      38.134  34.257  39.931  1.00  0.00    -0.200 F 
ATOM     58  C   UNL A   1      39.791  35.697  39.063  1.00  0.00     0.200 A 
ATOM     59  F   UNL A   1      41.445  37.110  38.143  1.00  0.00    -0.200 F 
ATOM     60  F   UNL A   1      39.689  36.490  40.138  1.00  0.00    -0.200 F 
ENDBRANCH  26  50
BRANCH  38  61
ATOM     61  C   UNL A   1      43.821  28.489  35.118  1.00  0.00     0.064 A 
ATOM     62  C   UNL A   1      45.174  28.848  35.022  1.00  0.00     0.173 A 
ATOM     63  C   UNL A   1      43.479  27.421  35.959  1.00  0.00     0.173 A 
ATOM     64  F   UNL A   1      45.551  29.849  34.213  1.00  0.00    -0.203 F 
ATOM     65  C   UNL A   1      46.149  28.148  35.725  1.00  0.00     0.198 A 
ATOM     66  C   UNL A   1      44.454  26.742  36.684  1.00  0.00     0.198 A 
ATOM     67  F   UNL A   1      42.198  27.043  36.087  1.00  0.00    -0.203 F 
ATOM     68  F   UNL A   1      47.441  28.476  35.582  1.00  0.00    -0.200 F 
ATOM     69  C   UNL A   1      45.789  27.102  36.561  1.00  0.00     0.200 A 
ATOM     70  F   UNL A   1      44.102  25.740  37.500  1.00  0.00    -0.200 F 
ATOM     71  F   UNL A   1      46.728  26.434  37.243  1.00  0.00    -0.200 F 
ENDBRANCH  38  61
ENDBRANCH  12  13
ENDBRANCH   5   7
ENDBRANCH   2   3
ENDBRANCH   1   2
BRANCH   1  72
ATOM     72  C   UNL A   1      31.433  31.186  26.608  1.00  0.00     0.118 C 
BRANCH  72  73
ATOM     73  N   UNL A   1      32.740  30.650  26.963  1.00  0.00    -0.351 N 
ATOM     74  C   UNL A   1      33.202  29.355  26.865  1.00  0.00     0.261 C 
ATOM     75  H   UNL A   1      33.383  31.302  27.324  1.00  0.00     0.163 HD
ATOM     76  O   UNL A   1      34.223  29.067  27.495  1.00  0.00    -0.268 OA
BRANCH  74  77
ATOM     77  C   UNL A   1      32.486  28.440  26.006  1.00  0.00     0.093 A 
ATOM     78  C   UNL A   1      32.304  28.535  24.640  1.00  0.00     0.040 A 
ATOM     79  S   UNL A   1      31.773  27.020  26.624  1.00  0.00    -0.137 S 
ATOM     80  C   UNL A   1      31.466  27.523  24.114  1.00  0.00     0.019 A 
ATOM     81  C   UNL A   1      31.118  26.614  25.089  1.00  0.00     0.080 A 
BRANCH  80  82
ATOM     82  S   UNL A   1      30.937  27.399  22.437  1.00  0.00    -0.122 SA
BRANCH  82  83
ATOM     83  C   UNL A   1      29.376  28.359  22.383  1.00  0.00     0.057 C 
ATOM     84  C   UNL A   1      28.318  27.744  23.302  1.00  0.00     0.043 C 
ATOM     85  C   UNL A   1      29.624  29.812  22.826  1.00  0.00     0.053 C 
ATOM     86  C   UNL A   1      27.054  28.576  23.203  1.00  0.00     0.162 C 
ATOM     87  C   UNL A   1      28.302  30.610  22.933  1.00  0.00     0.095 C 
ATOM     88  O   UNL A   1      27.313  29.891  23.674  1.00  0.00    -0.372 OA
ATOM     89  C   UNL A   1      28.514  31.942  23.637  1.00  0.00     0.066 C 
ATOM     90  C   UNL A   1      27.785  31.099  21.576  1.00  0.00     0.195 C 
ATOM     91  C   UNL A   1      28.963  32.867  22.530  1.00  0.00     0.163 C 
ATOM     92  O   UNL A   1      28.420  32.358  21.304  1.00  0.00    -0.378 OA
ENDBRANCH  82  83
ENDBRANCH  80  82
ENDBRANCH  74  77
ENDBRANCH  72  73
ENDBRANCH   1  72
TORSDOF 12
ENDMDL
MODEL 2
REMARK VINA RESULT:     -12.6      6.114     11.241
REMARK SMILES O=C(NCCCNC(=O)c1cc(S[C@H]2CCO[C@@]3(CCOC3)C2)cs1)c1ccc(-c2c3nc(c(-c4c(F)c(F)c(F)c(F)c4F)c4ccc([nH]4)c(-c4c(F)c(F)c(F)c(F)c4F)c4nc(c(-c5c(F)c(F)c(F)c(F)c5F)c5ccc2[nH]5)C=C4)C=C3)cc1
REMARK SMILES IDX 5 1 4 2 3 3 1 4 2 5 26 7 27 8 88 9 28 10 87 11 29 12 30 13
REMARK SMILES IDX 31 14 81 15 32 16 86 17 80 18 82 19 33 20 85 21 79 22 78 23
REMARK SMILES IDX 34 25 66 26 46 27 65 28 47 29 50 30 64 31 83 32 48 33 49 34
REMARK SMILES IDX 63 36 84 37 51 38 35 39 36 40 44 41 37 42 38 43 42 44 45 45
REMARK SMILES IDX 39 46 40 47 43 48 41 49 67 50 68 51 76 52 69 53 70 54 74 55
REMARK SMILES IDX 77 56 71 57 72 58 75 59 73 60 52 61 53 62 61 63 54 64 55 65
REMARK SMILES IDX 59 66 62 67 56 68 57 69 60 70 58 71 6 72 7 73 8 74 9 76
REMARK SMILES IDX 10 77 11 78 25 79 12 80 24 81 13 82 14 83 15 84 23 85 16 86
REMARK SMILES IDX 18 87 17 88 19 89 22 90 20 91 21 92
REMARK H PARENT 3 6 82 24 50 35 7 75
REMARK Flexibility Score: inf
ROOT
ATOM      1  C   UNL A   1      37.878  19.648  24.952  1.00  0.00     0.042 C 
ENDROOT
BRANCH   1   2
ATOM      2  C   UNL A   1      39.047  20.194  25.752  1.00  0.00     0.118 C 
BRANCH   2   3
ATOM      3  N   UNL A   1      40.088  19.194  25.952  1.00  0.00    -0.352 N 
ATOM      4  O   UNL A   1      42.189  18.392  26.057  1.00  0.00    -0.269 OA
ATOM      5  C   UNL A   1      41.438  19.360  26.132  1.00  0.00     0.251 C 
ATOM      6  H   UNL A   1      39.777  18.259  25.958  1.00  0.00     0.163 HD
BRANCH   5   7
ATOM      7  C   UNL A   1      41.988  20.702  26.416  1.00  0.00     0.039 A 
ATOM      8  C   UNL A   1      42.210  21.609  25.377  1.00  0.00     0.014 A 
ATOM      9  C   UNL A   1      42.238  21.078  27.738  1.00  0.00     0.014 A 
ATOM     10  C   UNL A   1      42.802  22.835  25.640  1.00  0.00     0.010 A 
ATOM     11  C   UNL A   1      42.736  22.354  28.014  1.00  0.00     0.010 A 
ATOM     12  C   UNL A   1      43.029  23.238  26.965  1.00  0.00    -0.014 A 
BRANCH  12  13
ATOM     13  C   UNL A   1      43.433  24.640  27.224  1.00  0.00     0.031 A 
ATOM     14  C   UNL A   1      42.461  25.652  27.749  1.00  0.00     0.074 A 
ATOM     15  C   UNL A   1      44.713  24.979  26.971  1.00  0.00     0.049 A 
ATOM     16  N   UNL A   1      42.659  26.920  28.006  1.00  0.00    -0.248 NA
ATOM     17  C   UNL A   1      41.090  25.193  28.015  1.00  0.00     0.031 C 
ATOM     18  C   UNL A   1      45.734  24.071  26.437  1.00  0.00     0.029 A 
ATOM     19  N   UNL A   1      45.379  26.166  27.129  1.00  0.00    -0.354 N 
ATOM     20  C   UNL A   1      41.438  27.416  28.440  1.00  0.00     0.074 A 
ATOM     21  C   UNL A   1      40.498  26.315  28.404  1.00  0.00     0.031 C 
ATOM     22  C   UNL A   1      46.899  24.724  26.339  1.00  0.00     0.029 A 
ATOM     23  C   UNL A   1      46.693  26.112  26.732  1.00  0.00     0.049 A 
ATOM     24  H   UNL A   1      44.957  26.979  27.491  1.00  0.00     0.167 HD
ATOM     25  C   UNL A   1      41.141  28.678  28.833  1.00  0.00     0.037 A 
ATOM     26  C   UNL A   1      47.622  27.081  26.653  1.00  0.00     0.037 A 
ATOM     27  C   UNL A   1      42.097  29.753  28.890  1.00  0.00     0.049 A 
ATOM     28  C   UNL A   1      47.247  28.473  27.070  1.00  0.00     0.074 A 
ATOM     29  C   UNL A   1      41.915  31.043  29.362  1.00  0.00     0.029 A 
ATOM     30  N   UNL A   1      43.411  29.671  28.451  1.00  0.00    -0.354 N 
ATOM     31  N   UNL A   1      46.108  28.912  27.547  1.00  0.00    -0.248 NA
ATOM     32  C   UNL A   1      48.279  29.507  26.926  1.00  0.00     0.031 C 
ATOM     33  C   UNL A   1      43.099  31.755  29.154  1.00  0.00     0.029 A 
ATOM     34  C   UNL A   1      44.036  30.898  28.598  1.00  0.00     0.049 A 
ATOM     35  H   UNL A   1      43.836  28.859  28.090  1.00  0.00     0.167 HD
ATOM     36  C   UNL A   1      46.285  30.270  27.763  1.00  0.00     0.074 A 
ATOM     37  C   UNL A   1      47.653  30.576  27.397  1.00  0.00     0.031 C 
ATOM     38  C   UNL A   1      45.394  31.184  28.214  1.00  0.00     0.037 A 
BRANCH  25  39
ATOM     39  C   UNL A   1      39.726  28.988  29.220  1.00  0.00     0.064 A 
ATOM     40  C   UNL A   1      38.776  29.403  28.277  1.00  0.00     0.173 A 
ATOM     41  C   UNL A   1      39.292  28.761  30.535  1.00  0.00     0.173 A 
ATOM     42  F   UNL A   1      39.142  29.641  27.009  1.00  0.00    -0.203 F 
ATOM     43  C   UNL A   1      37.442  29.583  28.637  1.00  0.00     0.198 A 
ATOM     44  C   UNL A   1      37.954  28.920  30.887  1.00  0.00     0.198 A 
ATOM     45  F   UNL A   1      40.161  28.356  31.474  1.00  0.00    -0.203 F 
ATOM     46  F   UNL A   1      36.552  29.995  27.725  1.00  0.00    -0.200 F 
ATOM     47  C   UNL A   1      37.030  29.330  29.938  1.00  0.00     0.200 A 
ATOM     48  F   UNL A   1      37.557  28.663  32.141  1.00  0.00    -0.200 F 
ATOM     49  F   UNL A   1      35.742  29.482  30.277  1.00  0.00    -0.200 F 
ENDBRANCH  25  39
BRANCH  26  50
ATOM     50  C   UNL A   1      48.971  26.774  26.113  1.00  0.00     0.064 A 
ATOM     51  C   UNL A   1      49.980  26.254  26.933  1.00  0.00     0.173 A 
ATOM     52  C   UNL A   1      49.279  27.002  24.763  1.00  0.00     0.173 A 
ATOM     53  F   UNL A   1      49.739  26.035  28.235  1.00  0.00    -0.203 F 
ATOM     54  C   UNL A   1      51.253  25.996  26.429  1.00  0.00     0.198 A 
ATOM     55  C   UNL A   1      50.541  26.712  24.253  1.00  0.00     0.198 A 
ATOM     56  F   UNL A   1      48.346  27.494  23.935  1.00  0.00    -0.203 F 
ATOM     57  F   UNL A   1      52.215  25.547  27.246  1.00  0.00    -0.200 F 
ATOM     58  C   UNL A   1      51.531  26.219  25.089  1.00  0.00     0.200 A 
ATOM     59  F   UNL A   1      50.798  26.912  22.953  1.00  0.00    -0.200 F 
ATOM     60  F   UNL A   1      52.755  25.968  24.605  1.00  0.00    -0.200 F 
ENDBRANCH  26  50
BRANCH  38  61
ATOM     61  C   UNL A   1      45.874  32.599  28.329  1.00  0.00     0.064 A 
ATOM     62  C   UNL A   1      45.709  33.510  27.275  1.00  0.00     0.173 A 
ATOM     63  C   UNL A   1      46.475  33.057  29.510  1.00  0.00     0.173 A 
ATOM     64  F   UNL A   1      45.159  33.111  26.118  1.00  0.00    -0.203 F 
ATOM     65  C   UNL A   1      46.148  34.824  27.393  1.00  0.00     0.198 A 
ATOM     66  C   UNL A   1      46.887  34.380  29.635  1.00  0.00     0.198 A 
ATOM     67  F   UNL A   1      46.651  32.224  30.547  1.00  0.00    -0.203 F 
ATOM     68  F   UNL A   1      46.024  35.665  26.357  1.00  0.00    -0.200 F 
ATOM     69  C   UNL A   1      46.729  35.260  28.574  1.00  0.00     0.200 A 
ATOM     70  F   UNL A   1      47.437  34.803  30.781  1.00  0.00    -0.200 F 
ATOM     71  F   UNL A   1      47.146  36.529  28.689  1.00  0.00    -0.200 F 
ENDBRANCH  38  61
ENDBRANCH  12  13
ENDBRANCH   5   7
ENDBRANCH   2   3
ENDBRANCH   1   2
BRANCH   1  72
ATOM     72  C   UNL A   1      36.655  20.548  25.004  1.00  0.00     0.118 C 
BRANCH  72  73
ATOM     73  N   UNL A   1      35.419  19.776  25.000  1.00  0.00    -0.351 N 
ATOM     74  C   UNL A   1      34.130  20.202  25.235  1.00  0.00     0.261 C 
ATOM     75  H   UNL A   1      35.519  18.817  24.803  1.00  0.00     0.163 HD
ATOM     76  O   UNL A   1      33.282  19.339  25.478  1.00  0.00    -0.268 OA
BRANCH  74  77
ATOM     77  C   UNL A   1      33.853  21.617  25.143  1.00  0.00     0.093 A 
ATOM     78  C   UNL A   1      33.178  22.279  24.136  1.00  0.00     0.040 A 
ATOM     79  S   UNL A   1      34.326  22.695  26.377  1.00  0.00    -0.137 S 
ATOM     80  C   UNL A   1      33.165  23.685  24.299  1.00  0.00     0.019 A 
ATOM     81  C   UNL A   1      33.744  24.049  25.495  1.00  0.00     0.080 A 
BRANCH  80  82
ATOM     82  S   UNL A   1      32.489  24.844  23.155  1.00  0.00    -0.122 SA
BRANCH  82  83
ATOM     83  C   UNL A   1      33.250  26.443  23.627  1.00  0.00     0.057 C 
ATOM     84  C   UNL A   1      33.569  27.289  22.391  1.00  0.00     0.043 C 
ATOM     85  C   UNL A   1      32.300  27.243  24.535  1.00  0.00     0.053 C 
ATOM     86  C   UNL A   1      34.203  28.588  22.849  1.00  0.00     0.162 C 
ATOM     87  C   UNL A   1      32.850  28.660  24.832  1.00  0.00     0.095 C 
ATOM     88  O   UNL A   1      33.273  29.319  23.636  1.00  0.00    -0.372 OA
ATOM     89  C   UNL A   1      31.793  29.540  25.483  1.00  0.00     0.066 C 
ATOM     90  C   UNL A   1      33.923  28.669  25.925  1.00  0.00     0.195 C 
ATOM     91  C   UNL A   1      31.904  29.208  26.952  1.00  0.00     0.163 C 
ATOM     92  O   UNL A   1      33.247  28.765  27.189  1.00  0.00    -0.378 OA
ENDBRANCH  82  83
ENDBRANCH  80  82
ENDBRANCH  74  77
ENDBRANCH  72  73
ENDBRANCH   1  72
TORSDOF 12
ENDMDL
MODEL 3
REMARK VINA RESULT:     -12.6      2.151      4.037
REMARK SMILES O=C(NCCCNC(=O)c1cc(S[C@H]2CCO[C@@]3(CCOC3)C2)cs1)c1ccc(-c2c3nc(c(-c4c(F)c(F)c(F)c(F)c4F)c4ccc([nH]4)c(-c4c(F)c(F)c(F)c(F)c4F)c4nc(c(-c5c(F)c(F)c(F)c(F)c5F)c5ccc2[nH]5)C=C4)C=C3)cc1
REMARK SMILES IDX 5 1 4 2 3 3 1 4 2 5 26 7 27 8 88 9 28 10 87 11 29 12 30 13
REMARK SMILES IDX 31 14 81 15 32 16 86 17 80 18 82 19 33 20 85 21 79 22 78 23
REMARK SMILES IDX 34 25 66 26 46 27 65 28 47 29 50 30 64 31 83 32 48 33 49 34
REMARK SMILES IDX 63 36 84 37 51 38 35 39 36 40 44 41 37 42 38 43 42 44 45 45
REMARK SMILES IDX 39 46 40 47 43 48 41 49 67 50 68 51 76 52 69 53 70 54 74 55
REMARK SMILES IDX 77 56 71 57 72 58 75 59 73 60 52 61 53 62 61 63 54 64 55 65
REMARK SMILES IDX 59 66 62 67 56 68 57 69 60 70 58 71 6 72 7 73 8 74 9 76
REMARK SMILES IDX 10 77 11 78 25 79 12 80 24 81 13 82 14 83 15 84 23 85 16 86
REMARK SMILES IDX 18 87 17 88 19 89 22 90 20 91 21 92
REMARK H PARENT 3 6 82 24 50 35 7 75
REMARK Flexibility Score: inf
ROOT
ATOM      1  C   UNL A   1      31.405  32.250  26.517  1.00  0.00     0.042 C 
ENDROOT
BRANCH   1   2
ATOM      2  C   UNL A   1      32.629  32.818  27.213  1.00  0.00     0.118 C 
BRANCH   2   3
ATOM      3  N   UNL A   1      32.432  34.201  27.626  1.00  0.00    -0.352 N 
ATOM      4  O   UNL A   1      32.546  35.985  28.995  1.00  0.00    -0.269 OA
ATOM      5  C   UNL A   1      33.003  34.895  28.663  1.00  0.00     0.251 C 
ATOM      6  H   UNL A   1      31.795  34.716  27.079  1.00  0.00     0.163 HD
BRANCH   5   7
ATOM      7  C   UNL A   1      34.166  34.332  29.380  1.00  0.00     0.039 A 
ATOM      8  C   UNL A   1      33.979  33.519  30.500  1.00  0.00     0.014 A 
ATOM      9  C   UNL A   1      35.455  34.576  28.899  1.00  0.00     0.014 A 
ATOM     10  C   UNL A   1      35.075  33.061  31.216  1.00  0.00     0.010 A 
ATOM     11  C   UNL A   1      36.557  34.026  29.559  1.00  0.00     0.010 A 
ATOM     12  C   UNL A   1      36.374  33.272  30.728  1.00  0.00    -0.014 A 
BRANCH  12  13
ATOM     13  C   UNL A   1      37.504  32.568  31.379  1.00  0.00     0.031 A 
ATOM     14  C   UNL A   1      38.206  31.426  30.709  1.00  0.00     0.074 A 
ATOM     15  C   UNL A   1      37.882  32.989  32.601  1.00  0.00     0.049 A 
ATOM     16  N   UNL A   1      39.195  30.696  31.160  1.00  0.00    -0.248 NA
ATOM     17  C   UNL A   1      37.740  31.042  29.368  1.00  0.00     0.031 C 
ATOM     18  C   UNL A   1      37.249  34.080  33.350  1.00  0.00     0.029 A 
ATOM     19  N   UNL A   1      38.887  32.563  33.431  1.00  0.00    -0.354 N 
ATOM     20  C   UNL A   1      39.456  29.757  30.173  1.00  0.00     0.074 A 
ATOM     21  C   UNL A   1      38.515  29.998  29.100  1.00  0.00     0.031 C 
ATOM     22  C   UNL A   1      37.894  34.255  34.509  1.00  0.00     0.029 A 
ATOM     23  C   UNL A   1      38.938  33.245  34.622  1.00  0.00     0.049 A 
ATOM     24  H   UNL A   1      39.510  31.837  33.197  1.00  0.00     0.167 HD
ATOM     25  C   UNL A   1      40.400  28.786  30.173  1.00  0.00     0.037 A 
ATOM     26  C   UNL A   1      39.713  33.055  35.705  1.00  0.00     0.037 A 
ATOM     27  C   UNL A   1      41.349  28.579  31.237  1.00  0.00     0.049 A 
ATOM     28  C   UNL A   1      40.728  31.951  35.678  1.00  0.00     0.074 A 
ATOM     29  C   UNL A   1      42.403  27.682  31.289  1.00  0.00     0.029 A 
ATOM     30  N   UNL A   1      41.351  29.268  32.441  1.00  0.00    -0.354 N 
ATOM     31  N   UNL A   1      41.012  31.115  34.709  1.00  0.00    -0.248 NA
ATOM     32  C   UNL A   1      41.521  31.752  36.897  1.00  0.00     0.031 C 
ATOM     33  C   UNL A   1      43.005  27.788  32.546  1.00  0.00     0.029 A 
ATOM     34  C   UNL A   1      42.358  28.785  33.260  1.00  0.00     0.049 A 
ATOM     35  H   UNL A   1      40.729  29.995  32.678  1.00  0.00     0.167 HD
ATOM     36  C   UNL A   1      42.017  30.295  35.198  1.00  0.00     0.074 A 
ATOM     37  C   UNL A   1      42.316  30.755  36.539  1.00  0.00     0.031 C 
ATOM     38  C   UNL A   1      42.630  29.248  34.596  1.00  0.00     0.037 A 
BRANCH  25  39
ATOM     39  C   UNL A   1      40.461  27.852  29.001  1.00  0.00     0.064 A 
ATOM     40  C   UNL A   1      39.670  26.697  28.935  1.00  0.00     0.173 A 
ATOM     41  C   UNL A   1      41.242  28.179  27.882  1.00  0.00     0.173 A 
ATOM     42  F   UNL A   1      38.912  26.337  29.980  1.00  0.00    -0.203 F 
ATOM     43  C   UNL A   1      39.662  25.900  27.792  1.00  0.00     0.198 A 
ATOM     44  C   UNL A   1      41.215  27.393  26.733  1.00  0.00     0.198 A 
ATOM     45  F   UNL A   1      42.011  29.279  27.893  1.00  0.00    -0.203 F 
ATOM     46  F   UNL A   1      38.911  24.792  27.754  1.00  0.00    -0.200 F 
ATOM     47  C   UNL A   1      40.425  26.255  26.688  1.00  0.00     0.200 A 
ATOM     48  F   UNL A   1      41.943  27.745  25.664  1.00  0.00    -0.200 F 
ATOM     49  F   UNL A   1      40.398  25.500  25.581  1.00  0.00    -0.200 F 
ENDBRANCH  25  39
BRANCH  26  50
ATOM     50  C   UNL A   1      39.518  33.896  36.913  1.00  0.00     0.064 A 
ATOM     51  C   UNL A   1      38.732  33.456  37.985  1.00  0.00     0.173 A 
ATOM     52  C   UNL A   1      40.112  35.164  37.016  1.00  0.00     0.173 A 
ATOM     53  F   UNL A   1      38.129  32.259  37.926  1.00  0.00    -0.203 F 
ATOM     54  C   UNL A   1      38.527  34.262  39.103  1.00  0.00     0.198 A 
ATOM     55  C   UNL A   1      39.934  35.953  38.148  1.00  0.00     0.198 A 
ATOM     56  F   UNL A   1      40.879  35.630  36.019  1.00  0.00    -0.203 F 
ATOM     57  F   UNL A   1      37.728  33.838  40.093  1.00  0.00    -0.200 F 
ATOM     58  C   UNL A   1      39.132  35.506  39.187  1.00  0.00     0.200 A 
ATOM     59  F   UNL A   1      40.537  37.147  38.231  1.00  0.00    -0.200 F 
ATOM     60  F   UNL A   1      38.937  36.278  40.264  1.00  0.00    -0.200 F 
ENDBRANCH  26  50
BRANCH  38  61
ATOM     61  C   UNL A   1      43.679  28.530  35.389  1.00  0.00     0.064 A 
ATOM     62  C   UNL A   1      43.342  27.485  36.263  1.00  0.00     0.173 A 
ATOM     63  C   UNL A   1      45.033  28.866  35.254  1.00  0.00     0.173 A 
ATOM     64  F   UNL A   1      42.057  27.143  36.441  1.00  0.00    -0.203 F 
ATOM     65  C   UNL A   1      44.323  26.817  36.988  1.00  0.00     0.198 A 
ATOM     66  C   UNL A   1      46.015  28.176  35.959  1.00  0.00     0.198 A 
ATOM     67  F   UNL A   1      45.406  29.856  34.428  1.00  0.00    -0.203 F 
ATOM     68  F   UNL A   1      43.975  25.854  37.853  1.00  0.00    -0.200 F 
ATOM     69  C   UNL A   1      45.658  27.157  36.830  1.00  0.00     0.200 A 
ATOM     70  F   UNL A   1      47.305  28.499  35.796  1.00  0.00    -0.200 F 
ATOM     71  F   UNL A   1      46.602  26.508  37.525  1.00  0.00    -0.200 F 
ENDBRANCH  38  61
ENDBRANCH  12  13
ENDBRANCH   5   7
ENDBRANCH   2   3
ENDBRANCH   1   2
BRANCH   1  72
ATOM     72  C   UNL A   1      31.550  30.777  26.176  1.00  0.00     0.118 C 
BRANCH  72  73
ATOM     73  N   UNL A   1      30.888  30.449  24.919  1.00  0.00    -0.351 N 
ATOM     74  C   UNL A   1      31.091  29.368  24.090  1.00  0.00     0.261 C 
ATOM     75  H   UNL A   1      30.202  31.088  24.622  1.00  0.00     0.163 HD
ATOM     76  O   UNL A   1      30.645  29.441  22.942  1.00  0.00    -0.268 OA
BRANCH  74  77
ATOM     77  C   UNL A   1      31.774  28.214  24.629  1.00  0.00     0.093 A 
ATOM     78  C   UNL A   1      31.206  27.061  25.137  1.00  0.00     0.040 A 
ATOM     79  S   UNL A   1      33.476  28.126  24.660  1.00  0.00    -0.137 S 
ATOM     80  C   UNL A   1      32.154  26.161  25.680  1.00  0.00     0.019 A 
ATOM     81  C   UNL A   1      33.440  26.611  25.469  1.00  0.00     0.080 A 
BRANCH  80  82
ATOM     82  S   UNL A   1      31.778  24.648  26.502  1.00  0.00    -0.122 SA
BRANCH  82  83
ATOM     83  C   UNL A   1      32.344  23.348  25.341  1.00  0.00     0.057 C 
ATOM     84  C   UNL A   1      31.765  23.568  23.941  1.00  0.00     0.043 C 
ATOM     85  C   UNL A   1      33.880  23.350  25.240  1.00  0.00     0.053 C 
ATOM     86  C   UNL A   1      32.262  22.458  23.035  1.00  0.00     0.162 C 
ATOM     87  C   UNL A   1      34.383  22.364  24.158  1.00  0.00     0.095 C 
ATOM     88  O   UNL A   1      33.677  22.531  22.926  1.00  0.00    -0.372 OA
ATOM     89  C   UNL A   1      35.861  22.572  23.862  1.00  0.00     0.066 C 
ATOM     90  C   UNL A   1      34.404  20.909  24.635  1.00  0.00     0.195 C 
ATOM     91  C   UNL A   1      36.559  21.744  24.917  1.00  0.00     0.163 C 
ATOM     92  O   UNL A   1      35.662  20.690  25.292  1.00  0.00    -0.378 OA
ENDBRANCH  82  83
ENDBRANCH  80  82
ENDBRANCH  74  77
ENDBRANCH  72  73
ENDBRANCH   1  72
TORSDOF 12
ENDMDL
