MODEL 1
REMARK VINA RESULT:     -11.5      0.000      0.000
REMARK SMILES Cc1ccc(-c2noc(CCC(=O)NCCCNC(=O)c3ccc(-c4c5nc(c(-c6c(F)c(F)c(F)c(F)c6F)c6ccc([nH]6)c(-c6c(F)c(F)c(F)c(F)c6F)c6nc(c(-c7c(F)c(F)c(F)c(F)c7F)c7ccc4[nH]7)C=C6)C=C5)cc3)n2)cc1C
REMARK SMILES IDX 15 1 14 2 12 3 13 4 11 6 10 7 9 8 6 9 7 10 84 11 8 12 5 13
REMARK SMILES IDX 1 14 2 15 3 16 86 17 4 18 85 19 87 20 16 21 17 22 18 23
REMARK SMILES IDX 19 24 20 26 21 27 22 28 83 29 23 30 82 31 24 32 25 33 26 34
REMARK SMILES IDX 76 35 27 36 81 37 75 38 77 39 28 40 80 41 74 42 73 43 29 45
REMARK SMILES IDX 61 46 41 47 60 48 42 49 45 50 59 51 78 52 43 53 44 54 58 56
REMARK SMILES IDX 79 57 46 58 30 59 31 60 39 61 32 62 33 63 37 64 40 65 34 66
REMARK SMILES IDX 35 67 38 68 36 69 62 70 63 71 71 72 64 73 65 74 69 75 72 76
REMARK SMILES IDX 66 77 67 78 70 79 68 80 47 81 48 82 56 83 49 84 50 85 54 86
REMARK SMILES IDX 57 87 51 88 52 89 55 90 53 91
REMARK H PARENT 14 5 18 25 77 44 45 55
REMARK Flexibility Score: inf
ROOT
ATOM      1  C   UNL A   1      33.516  36.059  29.886  1.00  0.00     0.117 C 
ENDROOT
BRANCH   1   2
ATOM      2  N   UNL A   1      32.526  36.458  30.872  1.00  0.00    -0.356 N 
ATOM      3  C   UNL A   1      32.654  36.635  32.213  1.00  0.00     0.220 C 
ATOM      4  O   UNL A   1      31.635  36.827  32.878  1.00  0.00    -0.275 OA
ATOM      5  H   UNL A   1      31.624  36.627  30.514  1.00  0.00     0.163 HD
BRANCH   3   6
ATOM      6  C   UNL A   1      34.011  36.595  32.877  1.00  0.00     0.110 C 
BRANCH   6   7
ATOM      7  C   UNL A   1      34.405  35.175  33.253  1.00  0.00     0.110 C 
BRANCH   7   8
ATOM      8  C   UNL A   1      35.856  34.904  33.106  1.00  0.00     0.227 A 
ATOM      9  C   UNL A   1      37.864  34.660  32.534  1.00  0.00     0.202 A 
ATOM     10  N   UNL A   1      37.923  34.784  33.870  1.00  0.00    -0.057 NA
ATOM     11  N   UNL A   1      36.580  34.695  32.027  1.00  0.00    -0.191 NA
ATOM     12  O   UNL A   1      36.596  34.948  34.249  1.00  0.00    -0.339 OA
BRANCH   9  13
ATOM     13  C   UNL A   1      39.046  34.518  31.696  1.00  0.00     0.023 A 
ATOM     14  C   UNL A   1      42.520  34.163  29.132  1.00  0.00     0.044 C 
ATOM     15  C   UNL A   1      41.335  34.277  30.053  1.00  0.00    -0.048 A 
ATOM     16  C   UNL A   1      40.080  34.577  29.502  1.00  0.00     0.004 A 
ATOM     17  C   UNL A   1      41.446  34.088  31.445  1.00  0.00    -0.047 A 
ATOM     18  C   UNL A   1      38.953  34.706  30.314  1.00  0.00     0.012 A 
ATOM     19  C   UNL A   1      40.294  34.202  32.251  1.00  0.00     0.015 A 
ATOM     20  C   UNL A   1      42.764  33.832  32.126  1.00  0.00     0.044 C 
ENDBRANCH   9  13
ENDBRANCH   7   8
ENDBRANCH   6   7
ENDBRANCH   3   6
ENDBRANCH   1   2
BRANCH   1  21
ATOM     21  C   UNL A   1      32.905  35.121  28.850  1.00  0.00     0.042 C 
BRANCH  21  22
ATOM     22  C   UNL A   1      33.921  34.191  28.199  1.00  0.00     0.118 C 
BRANCH  22  23
ATOM     23  N   UNL A   1      33.282  33.026  27.606  1.00  0.00    -0.352 N 
ATOM     24  C   UNL A   1      33.762  31.763  27.372  1.00  0.00     0.251 C 
ATOM     25  H   UNL A   1      32.349  33.167  27.325  1.00  0.00     0.163 HD
ATOM     26  O   UNL A   1      33.127  31.022  26.614  1.00  0.00    -0.269 OA
BRANCH  24  27
ATOM     27  C   UNL A   1      35.008  31.258  27.999  1.00  0.00     0.039 A 
ATOM     28  C   UNL A   1      35.074  29.904  28.352  1.00  0.00     0.014 A 
ATOM     29  C   UNL A   1      36.064  32.103  28.345  1.00  0.00     0.014 A 
ATOM     30  C   UNL A   1      36.193  29.402  29.025  1.00  0.00     0.010 A 
ATOM     31  C   UNL A   1      37.218  31.586  28.937  1.00  0.00     0.010 A 
ATOM     32  C   UNL A   1      37.282  30.238  29.314  1.00  0.00    -0.014 A 
BRANCH  32  33
ATOM     33  C   UNL A   1      38.462  29.732  30.067  1.00  0.00     0.031 A 
ATOM     34  C   UNL A   1      38.698  30.167  31.489  1.00  0.00     0.074 A 
ATOM     35  C   UNL A   1      39.354  28.926  29.463  1.00  0.00     0.049 A 
ATOM     36  N   UNL A   1      39.698  29.889  32.289  1.00  0.00    -0.248 NA
ATOM     37  C   UNL A   1      37.692  31.063  32.082  1.00  0.00     0.031 C 
ATOM     38  C   UNL A   1      39.286  28.480  28.071  1.00  0.00     0.029 A 
ATOM     39  N   UNL A   1      40.502  28.345  29.944  1.00  0.00    -0.354 N 
ATOM     40  C   UNL A   1      39.465  30.609  33.453  1.00  0.00     0.074 A 
ATOM     41  C   UNL A   1      38.248  31.363  33.247  1.00  0.00     0.031 C 
ATOM     42  C   UNL A   1      40.336  27.682  27.816  1.00  0.00     0.029 A 
ATOM     43  C   UNL A   1      41.159  27.576  29.018  1.00  0.00     0.049 A 
ATOM     44  H   UNL A   1      40.823  28.470  30.867  1.00  0.00     0.167 HD
ATOM     45  C   UNL A   1      40.188  30.629  34.599  1.00  0.00     0.037 A 
ATOM     46  C   UNL A   1      42.297  26.864  29.124  1.00  0.00     0.037 A 
ATOM     47  C   UNL A   1      41.358  29.828  34.836  1.00  0.00     0.049 A 
ATOM     48  C   UNL A   1      43.031  26.822  30.433  1.00  0.00     0.074 A 
ATOM     49  C   UNL A   1      42.099  29.702  36.000  1.00  0.00     0.029 A 
ATOM     50  N   UNL A   1      41.953  29.005  33.893  1.00  0.00    -0.354 N 
ATOM     51  N   UNL A   1      42.761  27.454  31.550  1.00  0.00    -0.248 NA
ATOM     52  C   UNL A   1      44.219  25.960  30.503  1.00  0.00     0.031 C 
ATOM     53  C   UNL A   1      43.157  28.819  35.753  1.00  0.00     0.029 A 
ATOM     54  C   UNL A   1      43.057  28.374  34.445  1.00  0.00     0.049 A 
ATOM     55  H   UNL A   1      41.637  28.885  32.967  1.00  0.00     0.167 HD
ATOM     56  C   UNL A   1      43.735  27.057  32.457  1.00  0.00     0.074 A 
ATOM     57  C   UNL A   1      44.595  26.119  31.765  1.00  0.00     0.031 C 
ATOM     58  C   UNL A   1      43.902  27.442  33.745  1.00  0.00     0.037 A 
BRANCH  45  59
ATOM     59  C   UNL A   1      39.724  31.549  35.689  1.00  0.00     0.064 A 
ATOM     60  C   UNL A   1      38.637  31.224  36.515  1.00  0.00     0.173 A 
ATOM     61  C   UNL A   1      40.384  32.765  35.919  1.00  0.00     0.173 A 
ATOM     62  F   UNL A   1      37.966  30.078  36.327  1.00  0.00    -0.203 F 
ATOM     63  C   UNL A   1      38.206  32.101  37.507  1.00  0.00     0.198 A 
ATOM     64  C   UNL A   1      39.966  33.628  36.929  1.00  0.00     0.198 A 
ATOM     65  F   UNL A   1      41.433  33.119  35.160  1.00  0.00    -0.203 F 
ATOM     66  F   UNL A   1      37.132  31.795  38.248  1.00  0.00    -0.200 F 
ATOM     67  C   UNL A   1      38.872  33.299  37.716  1.00  0.00     0.200 A 
ATOM     68  F   UNL A   1      40.616  34.781  37.135  1.00  0.00    -0.200 F 
ATOM     69  F   UNL A   1      38.453  34.142  38.669  1.00  0.00    -0.200 F 
ENDBRANCH  45  59
BRANCH  46  70
ATOM     70  C   UNL A   1      42.782  26.095  27.952  1.00  0.00     0.064 A 
ATOM     71  C   UNL A   1      42.342  24.785  27.725  1.00  0.00     0.173 A 
ATOM     72  C   UNL A   1      43.658  26.666  27.019  1.00  0.00     0.173 A 
ATOM     73  F   UNL A   1      41.518  24.194  28.602  1.00  0.00    -0.203 F 
ATOM     74  C   UNL A   1      42.765  24.070  26.607  1.00  0.00     0.198 A 
ATOM     75  C   UNL A   1      44.066  25.957  25.892  1.00  0.00     0.198 A 
ATOM     76  F   UNL A   1      44.102  27.918  27.195  1.00  0.00    -0.203 F 
ATOM     77  F   UNL A   1      42.347  22.810  26.422  1.00  0.00    -0.200 F 
ATOM     78  C   UNL A   1      43.621  24.658  25.687  1.00  0.00     0.200 A 
ATOM     79  F   UNL A   1      44.884  26.532  25.000  1.00  0.00    -0.200 F 
ATOM     80  F   UNL A   1      44.017  23.975  24.606  1.00  0.00    -0.200 F 
ENDBRANCH  46  70
BRANCH  58  81
ATOM     81  C   UNL A   1      45.047  26.838  34.499  1.00  0.00     0.064 A 
ATOM     82  C   UNL A   1      46.301  27.466  34.542  1.00  0.00     0.173 A 
ATOM     83  C   UNL A   1      44.878  25.649  35.221  1.00  0.00     0.173 A 
ATOM     84  F   UNL A   1      46.513  28.597  33.856  1.00  0.00    -0.203 F 
ATOM     85  C   UNL A   1      47.350  26.912  35.272  1.00  0.00     0.198 A 
ATOM     86  C   UNL A   1      45.922  25.109  35.966  1.00  0.00     0.198 A 
ATOM     87  F   UNL A   1      43.695  25.015  35.212  1.00  0.00    -0.203 F 
ATOM     88  F   UNL A   1      48.549  27.511  35.277  1.00  0.00    -0.200 F 
ATOM     89  C   UNL A   1      47.158  25.740  35.987  1.00  0.00     0.200 A 
ATOM     90  F   UNL A   1      45.735  23.980  36.661  1.00  0.00    -0.200 F 
ATOM     91  F   UNL A   1      48.168  25.212  36.694  1.00  0.00    -0.200 F 
ENDBRANCH  58  81
ENDBRANCH  32  33
ENDBRANCH  24  27
ENDBRANCH  22  23
ENDBRANCH  21  22
ENDBRANCH   1  21
TORSDOF 13
ENDMDL
MODEL 2
REMARK VINA RESULT:     -11.3      2.866      4.617
REMARK SMILES Cc1ccc(-c2noc(CCC(=O)NCCCNC(=O)c3ccc(-c4c5nc(c(-c6c(F)c(F)c(F)c(F)c6F)c6ccc([nH]6)c(-c6c(F)c(F)c(F)c(F)c6F)c6nc(c(-c7c(F)c(F)c(F)c(F)c7F)c7ccc4[nH]7)C=C6)C=C5)cc3)n2)cc1C
REMARK SMILES IDX 15 1 14 2 12 3 13 4 11 6 10 7 9 8 6 9 7 10 84 11 8 12 5 13
REMARK SMILES IDX 1 14 2 15 3 16 86 17 4 18 85 19 87 20 16 21 17 22 18 23
REMARK SMILES IDX 19 24 20 26 21 27 22 28 83 29 23 30 82 31 24 32 25 33 26 34
REMARK SMILES IDX 76 35 27 36 81 37 75 38 77 39 28 40 80 41 74 42 73 43 29 45
REMARK SMILES IDX 61 46 41 47 60 48 42 49 45 50 59 51 78 52 43 53 44 54 58 56
REMARK SMILES IDX 79 57 46 58 30 59 31 60 39 61 32 62 33 63 37 64 40 65 34 66
REMARK SMILES IDX 35 67 38 68 36 69 62 70 63 71 71 72 64 73 65 74 69 75 72 76
REMARK SMILES IDX 66 77 67 78 70 79 68 80 47 81 48 82 56 83 49 84 50 85 54 86
REMARK SMILES IDX 57 87 51 88 52 89 55 90 53 91
REMARK H PARENT 14 5 18 25 77 44 45 55
REMARK Flexibility Score: inf
ROOT
ATOM      1  C   UNL A   1      33.784  35.002  29.640  1.00  0.00     0.117 C 
ENDROOT
BRANCH   1   2
ATOM      2  N   UNL A   1      32.615  35.344  30.432  1.00  0.00    -0.356 N 
ATOM      3  C   UNL A   1      32.503  36.156  31.516  1.00  0.00     0.220 C 
ATOM      4  O   UNL A   1      31.432  36.176  32.124  1.00  0.00    -0.275 OA
ATOM      5  H   UNL A   1      31.774  34.922  30.139  1.00  0.00     0.163 HD
BRANCH   3   6
ATOM      6  C   UNL A   1      33.663  37.013  31.968  1.00  0.00     0.110 C 
BRANCH   6   7
ATOM      7  C   UNL A   1      34.152  36.604  33.348  1.00  0.00     0.110 C 
BRANCH   7   8
ATOM      8  C   UNL A   1      34.788  35.265  33.379  1.00  0.00     0.227 A 
ATOM      9  C   UNL A   1      36.007  33.559  33.546  1.00  0.00     0.202 A 
ATOM     10  N   UNL A   1      34.760  33.079  33.687  1.00  0.00    -0.057 NA
ATOM     11  N   UNL A   1      36.056  34.920  33.315  1.00  0.00    -0.191 NA
ATOM     12  O   UNL A   1      33.953  34.206  33.578  1.00  0.00    -0.339 OA
BRANCH   9  13
ATOM     13  C   UNL A   1      37.195  32.725  33.644  1.00  0.00     0.023 A 
ATOM     14  C   UNL A   1      40.697  30.183  33.848  1.00  0.00     0.044 C 
ATOM     15  C   UNL A   1      39.500  31.094  33.794  1.00  0.00    -0.048 A 
ATOM     16  C   UNL A   1      38.304  30.602  33.252  1.00  0.00     0.004 A 
ATOM     17  C   UNL A   1      39.544  32.418  34.274  1.00  0.00    -0.047 A 
ATOM     18  C   UNL A   1      37.169  31.410  33.169  1.00  0.00     0.012 A 
ATOM     19  C   UNL A   1      38.382  33.216  34.201  1.00  0.00     0.015 A 
ATOM     20  C   UNL A   1      40.803  33.047  34.808  1.00  0.00     0.044 C 
ENDBRANCH   9  13
ENDBRANCH   7   8
ENDBRANCH   6   7
ENDBRANCH   3   6
ENDBRANCH   1   2
BRANCH   1  21
ATOM     21  C   UNL A   1      34.385  33.677  30.098  1.00  0.00     0.042 C 
BRANCH  21  22
ATOM     22  C   UNL A   1      35.064  32.899  28.979  1.00  0.00     0.118 C 
BRANCH  22  23
ATOM     23  N   UNL A   1      34.288  31.732  28.586  1.00  0.00    -0.352 N 
ATOM     24  C   UNL A   1      34.688  30.491  28.164  1.00  0.00     0.251 C 
ATOM     25  H   UNL A   1      33.312  31.854  28.631  1.00  0.00     0.163 HD
ATOM     26  O   UNL A   1      33.854  29.753  27.629  1.00  0.00    -0.269 OA
BRANCH  24  27
ATOM     27  C   UNL A   1      36.079  30.004  28.332  1.00  0.00     0.039 A 
ATOM     28  C   UNL A   1      36.457  29.483  29.575  1.00  0.00     0.014 A 
ATOM     29  C   UNL A   1      37.045  30.149  27.333  1.00  0.00     0.014 A 
ATOM     30  C   UNL A   1      37.781  29.094  29.807  1.00  0.00     0.010 A 
ATOM     31  C   UNL A   1      38.344  29.680  27.533  1.00  0.00     0.010 A 
ATOM     32  C   UNL A   1      38.736  29.178  28.782  1.00  0.00    -0.014 A 
BRANCH  32  33
ATOM     33  C   UNL A   1      40.157  28.809  29.022  1.00  0.00     0.031 A 
ATOM     34  C   UNL A   1      41.083  29.771  29.721  1.00  0.00     0.074 A 
ATOM     35  C   UNL A   1      40.637  27.637  28.570  1.00  0.00     0.049 A 
ATOM     36  N   UNL A   1      42.365  29.661  29.966  1.00  0.00    -0.248 NA
ATOM     37  C   UNL A   1      40.496  31.042  30.174  1.00  0.00     0.031 C 
ATOM     38  C   UNL A   1      39.871  26.641  27.820  1.00  0.00     0.029 A 
ATOM     39  N   UNL A   1      41.893  27.089  28.667  1.00  0.00    -0.354 N 
ATOM     40  C   UNL A   1      42.744  30.860  30.555  1.00  0.00     0.074 A 
ATOM     41  C   UNL A   1      41.565  31.698  30.603  1.00  0.00     0.031 C 
ATOM     42  C   UNL A   1      40.667  25.596  27.541  1.00  0.00     0.029 A 
ATOM     43  C   UNL A   1      42.002  25.857  28.073  1.00  0.00     0.049 A 
ATOM     44  H   UNL A   1      42.643  27.538  29.119  1.00  0.00     0.167 HD
ATOM     45  C   UNL A   1      43.958  31.227  31.031  1.00  0.00     0.037 A 
ATOM     46  C   UNL A   1      43.059  25.029  27.970  1.00  0.00     0.037 A 
ATOM     47  C   UNL A   1      45.115  30.374  31.052  1.00  0.00     0.049 A 
ATOM     48  C   UNL A   1      44.371  25.414  28.591  1.00  0.00     0.074 A 
ATOM     49  C   UNL A   1      46.361  30.619  31.606  1.00  0.00     0.029 A 
ATOM     50  N   UNL A   1      45.165  29.102  30.503  1.00  0.00    -0.354 N 
ATOM     51  N   UNL A   1      44.698  26.523  29.207  1.00  0.00    -0.248 NA
ATOM     52  C   UNL A   1      45.459  24.427  28.512  1.00  0.00     0.031 C 
ATOM     53  C   UNL A   1      47.172  29.502  31.372  1.00  0.00     0.029 A 
ATOM     54  C   UNL A   1      46.422  28.553  30.697  1.00  0.00     0.049 A 
ATOM     55  H   UNL A   1      44.417  28.655  30.044  1.00  0.00     0.167 HD
ATOM     56  C   UNL A   1      46.019  26.365  29.602  1.00  0.00     0.074 A 
ATOM     57  C   UNL A   1      46.431  25.047  29.167  1.00  0.00     0.031 C 
ATOM     58  C   UNL A   1      46.818  27.239  30.261  1.00  0.00     0.037 A 
BRANCH  45  59
ATOM     59  C   UNL A   1      44.092  32.619  31.576  1.00  0.00     0.064 A 
ATOM     60  C   UNL A   1      44.006  32.883  32.951  1.00  0.00     0.173 A 
ATOM     61  C   UNL A   1      44.322  33.699  30.712  1.00  0.00     0.173 A 
ATOM     62  F   UNL A   1      43.774  31.885  33.817  1.00  0.00    -0.203 F 
ATOM     63  C   UNL A   1      44.109  34.184  33.436  1.00  0.00     0.198 A 
ATOM     64  C   UNL A   1      44.451  34.995  31.203  1.00  0.00     0.198 A 
ATOM     65  F   UNL A   1      44.419  33.498  29.388  1.00  0.00    -0.203 F 
ATOM     66  F   UNL A   1      43.969  34.420  34.748  1.00  0.00    -0.200 F 
ATOM     67  C   UNL A   1      44.335  35.237  32.564  1.00  0.00     0.200 A 
ATOM     68  F   UNL A   1      44.678  36.011  30.360  1.00  0.00    -0.200 F 
ATOM     69  F   UNL A   1      44.431  36.489  33.033  1.00  0.00    -0.200 F 
ENDBRANCH  45  59
BRANCH  46  70
ATOM     70  C   UNL A   1      42.893  23.726  27.281  1.00  0.00     0.064 A 
ATOM     71  C   UNL A   1      43.307  23.561  25.953  1.00  0.00     0.173 A 
ATOM     72  C   UNL A   1      42.357  22.615  27.947  1.00  0.00     0.173 A 
ATOM     73  F   UNL A   1      43.808  24.602  25.274  1.00  0.00    -0.203 F 
ATOM     74  C   UNL A   1      43.188  22.330  25.312  1.00  0.00     0.198 A 
ATOM     75  C   UNL A   1      42.256  21.379  27.311  1.00  0.00     0.198 A 
ATOM     76  F   UNL A   1      41.952  22.726  29.219  1.00  0.00    -0.203 F 
ATOM     77  F   UNL A   1      43.571  22.201  24.035  1.00  0.00    -0.200 F 
ATOM     78  C   UNL A   1      42.669  21.238  25.994  1.00  0.00     0.200 A 
ATOM     79  F   UNL A   1      41.764  20.325  27.975  1.00  0.00    -0.200 F 
ATOM     80  F   UNL A   1      42.567  20.051  25.382  1.00  0.00    -0.200 F 
ENDBRANCH  46  70
BRANCH  58  81
ATOM     81  C   UNL A   1      48.216  26.794  30.568  1.00  0.00     0.064 A 
ATOM     82  C   UNL A   1      48.499  26.012  31.697  1.00  0.00     0.173 A 
ATOM     83  C   UNL A   1      49.271  27.113  29.702  1.00  0.00     0.173 A 
ATOM     84  F   UNL A   1      47.523  25.694  32.560  1.00  0.00    -0.203 F 
ATOM     85  C   UNL A   1      49.796  25.578  31.956  1.00  0.00     0.198 A 
ATOM     86  C   UNL A   1      50.563  26.660  29.954  1.00  0.00     0.198 A 
ATOM     87  F   UNL A   1      49.047  27.856  28.608  1.00  0.00    -0.203 F 
ATOM     88  F   UNL A   1      50.052  24.857  33.056  1.00  0.00    -0.200 F 
ATOM     89  C   UNL A   1      50.825  25.896  31.082  1.00  0.00     0.200 A 
ATOM     90  F   UNL A   1      51.555  26.964  29.106  1.00  0.00    -0.200 F 
ATOM     91  F   UNL A   1      52.072  25.473  31.330  1.00  0.00    -0.200 F 
ENDBRANCH  58  81
ENDBRANCH  32  33
ENDBRANCH  24  27
ENDBRANCH  22  23
ENDBRANCH  21  22
ENDBRANCH   1  21
TORSDOF 13
ENDMDL
MODEL 3
REMARK VINA RESULT:     -11.2      3.404      9.789
REMARK SMILES Cc1ccc(-c2noc(CCC(=O)NCCCNC(=O)c3ccc(-c4c5nc(c(-c6c(F)c(F)c(F)c(F)c6F)c6ccc([nH]6)c(-c6c(F)c(F)c(F)c(F)c6F)c6nc(c(-c7c(F)c(F)c(F)c(F)c7F)c7ccc4[nH]7)C=C6)C=C5)cc3)n2)cc1C
REMARK SMILES IDX 15 1 14 2 12 3 13 4 11 6 10 7 9 8 6 9 7 10 84 11 8 12 5 13
REMARK SMILES IDX 1 14 2 15 3 16 86 17 4 18 85 19 87 20 16 21 17 22 18 23
REMARK SMILES IDX 19 24 20 26 21 27 22 28 83 29 23 30 82 31 24 32 25 33 26 34
REMARK SMILES IDX 76 35 27 36 81 37 75 38 77 39 28 40 80 41 74 42 73 43 29 45
REMARK SMILES IDX 61 46 41 47 60 48 42 49 45 50 59 51 78 52 43 53 44 54 58 56
REMARK SMILES IDX 79 57 46 58 30 59 31 60 39 61 32 62 33 63 37 64 40 65 34 66
REMARK SMILES IDX 35 67 38 68 36 69 62 70 63 71 71 72 64 73 65 74 69 75 72 76
REMARK SMILES IDX 66 77 67 78 70 79 68 80 47 81 48 82 56 83 49 84 50 85 54 86
REMARK SMILES IDX 57 87 51 88 52 89 55 90 53 91
REMARK H PARENT 14 5 18 25 77 44 45 55
REMARK Flexibility Score: inf
ROOT
ATOM      1  C   UNL A   1      31.378  30.911  26.075  1.00  0.00     0.117 C 
ENDROOT
BRANCH   1   2
ATOM      2  N   UNL A   1      32.658  30.330  26.443  1.00  0.00    -0.356 N 
ATOM      3  C   UNL A   1      32.933  29.213  27.167  1.00  0.00     0.220 C 
ATOM      4  O   UNL A   1      34.103  28.996  27.486  1.00  0.00    -0.275 OA
ATOM      5  H   UNL A   1      33.448  30.821  26.117  1.00  0.00     0.163 HD
BRANCH   3   6
ATOM      6  C   UNL A   1      31.834  28.260  27.573  1.00  0.00     0.110 C 
BRANCH   6   7
ATOM      7  C   UNL A   1      31.306  27.478  26.381  1.00  0.00     0.110 C 
BRANCH   7   8
ATOM      8  C   UNL A   1      31.866  26.108  26.276  1.00  0.00     0.227 A 
ATOM      9  C   UNL A   1      33.004  24.350  26.093  1.00  0.00     0.202 A 
ATOM     10  N   UNL A   1      31.915  23.959  26.776  1.00  0.00    -0.057 NA
ATOM     11  N   UNL A   1      32.987  25.683  25.733  1.00  0.00    -0.191 NA
ATOM     12  O   UNL A   1      31.163  25.121  26.899  1.00  0.00    -0.339 OA
BRANCH   9  13
ATOM     13  C   UNL A   1      34.107  23.454  25.776  1.00  0.00     0.023 A 
ATOM     14  C   UNL A   1      37.337  20.709  24.886  1.00  0.00     0.044 C 
ATOM     15  C   UNL A   1      36.224  21.682  25.164  1.00  0.00    -0.048 A 
ATOM     16  C   UNL A   1      35.452  21.510  26.323  1.00  0.00     0.004 A 
ATOM     17  C   UNL A   1      35.938  22.760  24.302  1.00  0.00    -0.047 A 
ATOM     18  C   UNL A   1      34.401  22.379  26.619  1.00  0.00     0.012 A 
ATOM     19  C   UNL A   1      34.884  23.641  24.625  1.00  0.00     0.015 A 
ATOM     20  C   UNL A   1      36.670  22.978  23.005  1.00  0.00     0.044 C 
ENDBRANCH   9  13
ENDBRANCH   7   8
ENDBRANCH   6   7
ENDBRANCH   3   6
ENDBRANCH   1   2
BRANCH   1  21
ATOM     21  C   UNL A   1      31.302  32.374  26.499  1.00  0.00     0.042 C 
BRANCH  21  22
ATOM     22  C   UNL A   1      32.558  32.868  27.205  1.00  0.00     0.118 C 
BRANCH  22  23
ATOM     23  N   UNL A   1      32.444  34.267  27.591  1.00  0.00    -0.352 N 
ATOM     24  C   UNL A   1      33.010  34.957  28.631  1.00  0.00     0.251 C 
ATOM     25  H   UNL A   1      31.863  34.807  27.008  1.00  0.00     0.163 HD
ATOM     26  O   UNL A   1      32.556  36.071  28.916  1.00  0.00    -0.269 OA
BRANCH  24  27
ATOM     27  C   UNL A   1      34.146  34.420  29.418  1.00  0.00     0.039 A 
ATOM     28  C   UNL A   1      35.437  34.530  28.885  1.00  0.00     0.014 A 
ATOM     29  C   UNL A   1      33.961  33.715  30.609  1.00  0.00     0.014 A 
ATOM     30  C   UNL A   1      36.528  33.960  29.549  1.00  0.00     0.010 A 
ATOM     31  C   UNL A   1      35.059  33.223  31.317  1.00  0.00     0.010 A 
ATOM     32  C   UNL A   1      36.350  33.309  30.780  1.00  0.00    -0.014 A 
BRANCH  32  33
ATOM     33  C   UNL A   1      37.491  32.660  31.480  1.00  0.00     0.031 A 
ATOM     34  C   UNL A   1      38.233  31.523  30.827  1.00  0.00     0.074 A 
ATOM     35  C   UNL A   1      37.833  33.050  32.721  1.00  0.00     0.049 A 
ATOM     36  N   UNL A   1      39.210  30.788  31.299  1.00  0.00    -0.248 NA
ATOM     37  C   UNL A   1      37.796  31.137  29.476  1.00  0.00     0.031 C 
ATOM     38  C   UNL A   1      37.159  34.090  33.497  1.00  0.00     0.029 A 
ATOM     39  N   UNL A   1      38.830  32.605  33.554  1.00  0.00    -0.354 N 
ATOM     40  C   UNL A   1      39.469  29.830  30.328  1.00  0.00     0.074 A 
ATOM     41  C   UNL A   1      38.527  30.054  29.253  1.00  0.00     0.031 C 
ATOM     42  C   UNL A   1      37.773  34.217  34.685  1.00  0.00     0.029 A 
ATOM     43  C   UNL A   1      38.869  33.254  34.762  1.00  0.00     0.049 A 
ATOM     44  H   UNL A   1      39.458  31.887  33.307  1.00  0.00     0.167 HD
ATOM     45  C   UNL A   1      40.415  28.862  30.320  1.00  0.00     0.037 A 
ATOM     46  C   UNL A   1      39.694  33.093  35.813  1.00  0.00     0.037 A 
ATOM     47  C   UNL A   1      41.400  28.679  31.352  1.00  0.00     0.049 A 
ATOM     48  C   UNL A   1      40.800  32.079  35.745  1.00  0.00     0.074 A 
ATOM     49  C   UNL A   1      42.464  27.792  31.385  1.00  0.00     0.029 A 
ATOM     50  N   UNL A   1      41.450  29.406  32.530  1.00  0.00    -0.354 N 
ATOM     51  N   UNL A   1      41.078  31.226  34.790  1.00  0.00    -0.248 NA
ATOM     52  C   UNL A   1      41.715  32.013  36.894  1.00  0.00     0.031 C 
ATOM     53  C   UNL A   1      43.143  27.969  32.597  1.00  0.00     0.029 A 
ATOM     54  C   UNL A   1      42.519  28.984  33.303  1.00  0.00     0.049 A 
ATOM     55  H   UNL A   1      40.817  30.119  32.782  1.00  0.00     0.167 HD
ATOM     56  C   UNL A   1      42.203  30.532  35.213  1.00  0.00     0.074 A 
ATOM     57  C   UNL A   1      42.566  31.073  36.507  1.00  0.00     0.031 C 
ATOM     58  C   UNL A   1      42.870  29.533  34.587  1.00  0.00     0.037 A 
BRANCH  45  59
ATOM     59  C   UNL A   1      40.433  27.925  29.148  1.00  0.00     0.064 A 
ATOM     60  C   UNL A   1      41.235  28.167  28.023  1.00  0.00     0.173 A 
ATOM     61  C   UNL A   1      39.646  26.763  29.158  1.00  0.00     0.173 A 
ATOM     62  F   UNL A   1      41.995  29.270  27.961  1.00  0.00    -0.203 F 
ATOM     63  C   UNL A   1      41.220  27.299  26.935  1.00  0.00     0.198 A 
ATOM     64  C   UNL A   1      39.654  25.884  28.078  1.00  0.00     0.198 A 
ATOM     65  F   UNL A   1      38.867  26.483  30.214  1.00  0.00    -0.203 F 
ATOM     66  F   UNL A   1      41.953  27.578  25.847  1.00  0.00    -0.200 F 
ATOM     67  C   UNL A   1      40.434  26.157  26.965  1.00  0.00     0.200 A 
ATOM     68  F   UNL A   1      38.900  24.777  28.112  1.00  0.00    -0.200 F 
ATOM     69  F   UNL A   1      40.419  25.325  25.915  1.00  0.00    -0.200 F 
ENDBRANCH  45  59
BRANCH  46  70
ATOM     70  C   UNL A   1      39.523  33.956  37.007  1.00  0.00     0.064 A 
ATOM     71  C   UNL A   1      38.791  33.509  38.114  1.00  0.00     0.173 A 
ATOM     72  C   UNL A   1      40.120  35.223  37.080  1.00  0.00     0.173 A 
ATOM     73  F   UNL A   1      38.189  32.312  38.080  1.00  0.00    -0.203 F 
ATOM     74  C   UNL A   1      38.658  34.300  39.253  1.00  0.00     0.198 A 
ATOM     75  C   UNL A   1      40.001  36.006  38.226  1.00  0.00     0.198 A 
ATOM     76  F   UNL A   1      40.832  35.689  36.045  1.00  0.00    -0.203 F 
ATOM     77  F   UNL A   1      37.935  33.860  40.292  1.00  0.00    -0.200 F 
ATOM     78  C   UNL A   1      39.268  35.545  39.311  1.00  0.00     0.200 A 
ATOM     79  F   UNL A   1      40.600  37.202  38.283  1.00  0.00    -0.200 F 
ATOM     80  F   UNL A   1      39.151  36.300  40.411  1.00  0.00    -0.200 F 
ENDBRANCH  46  70
BRANCH  58  81
ATOM     81  C   UNL A   1      44.071  28.968  35.282  1.00  0.00     0.064 A 
ATOM     82  C   UNL A   1      43.960  27.878  36.158  1.00  0.00     0.173 A 
ATOM     83  C   UNL A   1      45.349  29.490  35.034  1.00  0.00     0.173 A 
ATOM     84  F   UNL A   1      42.757  27.356  36.435  1.00  0.00    -0.203 F 
ATOM     85  C   UNL A   1      45.087  27.341  36.774  1.00  0.00     0.198 A 
ATOM     86  C   UNL A   1      46.475  28.937  35.636  1.00  0.00     0.198 A 
ATOM     87  F   UNL A   1      45.505  30.529  34.201  1.00  0.00    -0.203 F 
ATOM     88  F   UNL A   1      44.957  26.319  37.631  1.00  0.00    -0.200 F 
ATOM     89  C   UNL A   1      46.343  27.866  36.508  1.00  0.00     0.200 A 
ATOM     90  F   UNL A   1      47.689  29.440  35.375  1.00  0.00    -0.200 F 
ATOM     91  F   UNL A   1      47.427  27.343  37.098  1.00  0.00    -0.200 F 
ENDBRANCH  58  81
ENDBRANCH  32  33
ENDBRANCH  24  27
ENDBRANCH  22  23
ENDBRANCH  21  22
ENDBRANCH   1  21
TORSDOF 13
ENDMDL
