MODEL 1
REMARK VINA RESULT:     -13.2      0.000      0.000
REMARK SMILES C[C@H](Nc1ccc2c(c1)Cc1ccccc1-2)[C@@H](C)C(=O)NCCCNC(=O)c1ccc(-c2c3nc(c(-c4c(F)c(F)c(F)c(F)c4F)c4ccc([nH]4)c(-c4c(F)c(F)c(F)c(F)c4F)c4nc(c(-c5c(F)c(F)c(F)c(F)c5F)c5ccc2[nH]5)C=C4)C=C3)cc1
REMARK SMILES IDX 22 1 21 2 19 3 20 4 17 6 18 7 2 8 1 9 3 10 4 12 5 13 9 14
REMARK SMILES IDX 6 15 8 16 7 17 10 18 16 19 11 20 15 21 12 22 14 23 13 24
REMARK SMILES IDX 23 25 24 26 25 27 26 28 27 30 28 31 29 32 90 33 30 34 89 35
REMARK SMILES IDX 31 36 32 37 33 38 83 39 34 40 88 41 82 42 84 43 35 44 87 45
REMARK SMILES IDX 81 46 80 47 36 49 68 50 48 51 67 52 49 53 52 54 66 55 85 56
REMARK SMILES IDX 50 57 51 58 65 60 86 61 53 62 37 63 38 64 46 65 39 66 40 67
REMARK SMILES IDX 44 68 47 69 41 70 42 71 45 72 43 73 69 74 70 75 78 76 71 77
REMARK SMILES IDX 72 78 76 79 79 80 73 81 74 82 77 83 75 84 54 85 55 86 63 87
REMARK SMILES IDX 56 88 57 89 61 90 64 91 58 92 59 93 62 94 60 95
REMARK H PARENT 21 5 3 11 25 29 84 48 52 59
REMARK Flexibility Score: inf
ROOT
ATOM      1  C   UNL A   1      31.399  30.739  26.425  1.00  0.00     0.117 C 
ENDROOT
BRANCH   1   2
ATOM      2  N   UNL A   1      31.531  30.251  25.064  1.00  0.00    -0.356 N 
ATOM      3  C   UNL A   1      31.683  29.000  24.553  1.00  0.00     0.224 C 
ATOM      4  O   UNL A   1      31.755  28.908  23.324  1.00  0.00    -0.275 OA
ATOM      5  H   UNL A   1      31.503  30.960  24.382  1.00  0.00     0.163 HD
BRANCH   3   6
ATOM      6  C   UNL A   1      31.762  27.748  25.425  1.00  0.00     0.097 C 
ATOM      7  C   UNL A   1      33.183  27.587  25.971  1.00  0.00     0.020 C 
BRANCH   6   8
ATOM      8  C   UNL A   1      31.160  26.500  24.733  1.00  0.00     0.088 C 
ATOM      9  C   UNL A   1      30.273  25.726  25.716  1.00  0.00     0.031 C 
BRANCH   8  10
ATOM     10  N   UNL A   1      32.216  25.705  24.078  1.00  0.00    -0.382 N 
ATOM     11  H   UNL A   1      32.832  26.205  23.496  1.00  0.00     0.160 HD
BRANCH  10  12
ATOM     12  C   UNL A   1      32.450  24.346  24.178  1.00  0.00     0.035 A 
ATOM     13  C   UNL A   1      33.220  23.782  25.213  1.00  0.00     0.026 A 
ATOM     14  C   UNL A   1      31.918  23.490  23.202  1.00  0.00     0.030 A 
ATOM     15  C   UNL A   1      33.527  22.418  25.263  1.00  0.00     0.011 A 
ATOM     16  C   UNL A   1      32.198  22.131  23.266  1.00  0.00    -0.034 A 
ATOM     17  C   UNL A   1      33.023  21.600  24.274  1.00  0.00    -0.014 A 
ATOM     18  C   UNL A   1      31.724  21.026  22.344  1.00  0.00     0.072 C 
ATOM     19  C   UNL A   1      33.178  20.179  24.057  1.00  0.00    -0.015 A 
ATOM     20  C   UNL A   1      32.413  19.809  22.932  1.00  0.00    -0.036 A 
ATOM     21  C   UNL A   1      33.931  19.241  24.742  1.00  0.00     0.009 A 
ATOM     22  C   UNL A   1      32.368  18.496  22.494  1.00  0.00     0.005 A 
ATOM     23  C   UNL A   1      33.901  17.916  24.299  1.00  0.00     0.001 A 
ATOM     24  C   UNL A   1      33.121  17.547  23.188  1.00  0.00     0.000 A 
ENDBRANCH  10  12
ENDBRANCH   8  10
ENDBRANCH   6   8
ENDBRANCH   3   6
ENDBRANCH   1   2
BRANCH   1  25
ATOM     25  C   UNL A   1      31.396  32.263  26.505  1.00  0.00     0.042 C 
BRANCH  25  26
ATOM     26  C   UNL A   1      32.644  32.861  27.146  1.00  0.00     0.118 C 
BRANCH  26  27
ATOM     27  N   UNL A   1      32.431  34.222  27.618  1.00  0.00    -0.352 N 
ATOM     28  C   UNL A   1      33.005  34.907  28.658  1.00  0.00     0.251 C 
ATOM     29  H   UNL A   1      31.766  34.736  27.105  1.00  0.00     0.163 HD
ATOM     30  O   UNL A   1      32.524  35.983  29.009  1.00  0.00    -0.269 OA
BRANCH  28  31
ATOM     31  C   UNL A   1      34.182  34.367  29.372  1.00  0.00     0.039 A 
ATOM     32  C   UNL A   1      33.986  33.702  30.588  1.00  0.00     0.014 A 
ATOM     33  C   UNL A   1      35.478  34.549  28.883  1.00  0.00     0.014 A 
ATOM     34  C   UNL A   1      35.077  33.166  31.275  1.00  0.00     0.010 A 
ATOM     35  C   UNL A   1      36.556  33.944  29.525  1.00  0.00     0.010 A 
ATOM     36  C   UNL A   1      36.369  33.251  30.730  1.00  0.00    -0.014 A 
BRANCH  36  37
ATOM     37  C   UNL A   1      37.535  32.625  31.404  1.00  0.00     0.031 A 
ATOM     38  C   UNL A   1      38.265  31.484  30.750  1.00  0.00     0.074 A 
ATOM     39  C   UNL A   1      37.892  33.036  32.636  1.00  0.00     0.049 A 
ATOM     40  N   UNL A   1      39.245  30.751  31.215  1.00  0.00    -0.248 NA
ATOM     41  C   UNL A   1      37.814  31.095  29.404  1.00  0.00     0.031 C 
ATOM     42  C   UNL A   1      37.234  34.101  33.395  1.00  0.00     0.029 A 
ATOM     43  N   UNL A   1      38.888  32.598  33.474  1.00  0.00    -0.354 N 
ATOM     44  C   UNL A   1      39.514  29.809  30.231  1.00  0.00     0.074 A 
ATOM     45  C   UNL A   1      38.561  30.028  29.165  1.00  0.00     0.031 C 
ATOM     46  C   UNL A   1      37.855  34.247  34.577  1.00  0.00     0.029 A 
ATOM     47  C   UNL A   1      38.927  33.262  34.676  1.00  0.00     0.049 A 
ATOM     48  H   UNL A   1      39.515  31.878  33.235  1.00  0.00     0.167 HD
ATOM     49  C   UNL A   1      40.482  28.862  30.209  1.00  0.00     0.037 A 
ATOM     50  C   UNL A   1      39.730  33.086  35.743  1.00  0.00     0.037 A 
ATOM     51  C   UNL A   1      41.447  28.667  31.259  1.00  0.00     0.049 A 
ATOM     52  C   UNL A   1      40.795  32.025  35.694  1.00  0.00     0.074 A 
ATOM     53  C   UNL A   1      42.506  27.777  31.303  1.00  0.00     0.029 A 
ATOM     54  N   UNL A   1      41.469  29.373  32.452  1.00  0.00    -0.354 N 
ATOM     55  N   UNL A   1      41.083  31.184  34.729  1.00  0.00    -0.248 NA
ATOM     56  C   UNL A   1      41.653  31.892  36.880  1.00  0.00     0.031 C 
ATOM     57  C   UNL A   1      43.141  27.913  32.542  1.00  0.00     0.029 A 
ATOM     58  C   UNL A   1      42.511  28.924  33.249  1.00  0.00     0.049 A 
ATOM     59  H   UNL A   1      40.838  30.088  32.697  1.00  0.00     0.167 HD
ATOM     60  C   UNL A   1      42.169  30.445  35.178  1.00  0.00     0.074 A 
ATOM     61  C   UNL A   1      42.498  30.947  36.495  1.00  0.00     0.031 C 
ATOM     62  C   UNL A   1      42.832  29.441  34.555  1.00  0.00     0.037 A 
BRANCH  49  63
ATOM     63  C   UNL A   1      40.551  27.964  29.008  1.00  0.00     0.064 A 
ATOM     64  C   UNL A   1      39.792  26.786  28.925  1.00  0.00     0.173 A 
ATOM     65  C   UNL A   1      41.353  28.304  27.908  1.00  0.00     0.173 A 
ATOM     66  F   UNL A   1      39.017  26.407  29.954  1.00  0.00    -0.203 F 
ATOM     67  C   UNL A   1      39.856  25.968  27.800  1.00  0.00     0.198 A 
ATOM     68  C   UNL A   1      41.390  27.501  26.771  1.00  0.00     0.198 A 
ATOM     69  F   UNL A   1      42.092  29.423  27.931  1.00  0.00    -0.203 F 
ATOM     70  F   UNL A   1      39.160  24.824  27.765  1.00  0.00    -0.200 F 
ATOM     71  C   UNL A   1      40.649  26.330  26.721  1.00  0.00     0.200 A 
ATOM     72  F   UNL A   1      42.146  27.859  25.724  1.00  0.00    -0.200 F 
ATOM     73  F   UNL A   1      40.703  25.547  25.635  1.00  0.00    -0.200 F 
ENDBRANCH  49  63
BRANCH  50  74
ATOM     74  C   UNL A   1      39.570  33.949  36.943  1.00  0.00     0.064 A 
ATOM     75  C   UNL A   1      38.825  33.512  38.047  1.00  0.00     0.173 A 
ATOM     76  C   UNL A   1      40.148  35.225  37.009  1.00  0.00     0.173 A 
ATOM     77  F   UNL A   1      38.236  32.308  38.024  1.00  0.00    -0.203 F 
ATOM     78  C   UNL A   1      38.645  34.328  39.163  1.00  0.00     0.198 A 
ATOM     79  C   UNL A   1      39.992  36.028  38.137  1.00  0.00     0.198 A 
ATOM     80  F   UNL A   1      40.874  35.687  35.982  1.00  0.00    -0.203 F 
ATOM     81  F   UNL A   1      37.889  33.904  40.184  1.00  0.00    -0.200 F 
ATOM     82  C   UNL A   1      39.234  35.582  39.209  1.00  0.00     0.200 A 
ATOM     83  F   UNL A   1      40.575  37.233  38.183  1.00  0.00    -0.200 F 
ATOM     84  F   UNL A   1      39.064  36.365  40.283  1.00  0.00    -0.200 F 
ENDBRANCH  50  74
BRANCH  62  85
ATOM     85  C   UNL A   1      44.006  28.842  35.273  1.00  0.00     0.064 A 
ATOM     86  C   UNL A   1      43.854  27.779  36.175  1.00  0.00     0.173 A 
ATOM     87  C   UNL A   1      45.304  29.314  35.025  1.00  0.00     0.173 A 
ATOM     88  F   UNL A   1      42.632  27.303  36.458  1.00  0.00    -0.203 F 
ATOM     89  C   UNL A   1      44.956  27.226  36.820  1.00  0.00     0.198 A 
ATOM     90  C   UNL A   1      46.407  28.738  35.648  1.00  0.00     0.198 A 
ATOM     91  F   UNL A   1      45.504  30.325  34.166  1.00  0.00    -0.203 F 
ATOM     92  F   UNL A   1      44.784  26.243  37.714  1.00  0.00    -0.200 F 
ATOM     93  C   UNL A   1      46.232  27.700  36.551  1.00  0.00     0.200 A 
ATOM     94  F   UNL A   1      47.640  29.188  35.376  1.00  0.00    -0.200 F 
ATOM     95  F   UNL A   1      47.293  27.161  37.168  1.00  0.00    -0.200 F 
ENDBRANCH  62  85
ENDBRANCH  36  37
ENDBRANCH  28  31
ENDBRANCH  26  27
ENDBRANCH  25  26
ENDBRANCH   1  25
TORSDOF 13
ENDMDL
MODEL 2
REMARK VINA RESULT:     -13.1      5.152     11.026
REMARK SMILES C[C@H](Nc1ccc2c(c1)Cc1ccccc1-2)[C@@H](C)C(=O)NCCCNC(=O)c1ccc(-c2c3nc(c(-c4c(F)c(F)c(F)c(F)c4F)c4ccc([nH]4)c(-c4c(F)c(F)c(F)c(F)c4F)c4nc(c(-c5c(F)c(F)c(F)c(F)c5F)c5ccc2[nH]5)C=C4)C=C3)cc1
REMARK SMILES IDX 22 1 21 2 19 3 20 4 17 6 18 7 2 8 1 9 3 10 4 12 5 13 9 14
REMARK SMILES IDX 6 15 8 16 7 17 10 18 16 19 11 20 15 21 12 22 14 23 13 24
REMARK SMILES IDX 23 25 24 26 25 27 26 28 27 30 28 31 29 32 90 33 30 34 89 35
REMARK SMILES IDX 31 36 32 37 33 38 83 39 34 40 88 41 82 42 84 43 35 44 87 45
REMARK SMILES IDX 81 46 80 47 36 49 68 50 48 51 67 52 49 53 52 54 66 55 85 56
REMARK SMILES IDX 50 57 51 58 65 60 86 61 53 62 37 63 38 64 46 65 39 66 40 67
REMARK SMILES IDX 44 68 47 69 41 70 42 71 45 72 43 73 69 74 70 75 78 76 71 77
REMARK SMILES IDX 72 78 76 79 79 80 73 81 74 82 77 83 75 84 54 85 55 86 63 87
REMARK SMILES IDX 56 88 57 89 61 90 64 91 58 92 59 93 62 94 60 95
REMARK H PARENT 21 5 3 11 25 29 84 48 52 59
REMARK Flexibility Score: inf
ROOT
ATOM      1  C   UNL A   1      33.280  34.400  29.039  1.00  0.00     0.117 C 
ENDROOT
BRANCH   1   2
ATOM      2  N   UNL A   1      33.155  35.787  29.451  1.00  0.00    -0.356 N 
ATOM      3  C   UNL A   1      32.923  36.364  30.660  1.00  0.00     0.224 C 
ATOM      4  O   UNL A   1      32.884  37.597  30.688  1.00  0.00    -0.275 OA
ATOM      5  H   UNL A   1      33.258  36.432  28.714  1.00  0.00     0.163 HD
BRANCH   3   6
ATOM      6  C   UNL A   1      32.721  35.558  31.942  1.00  0.00     0.097 C 
ATOM      7  C   UNL A   1      31.315  35.808  32.493  1.00  0.00     0.020 C 
BRANCH   6   8
ATOM      8  C   UNL A   1      33.883  35.740  32.950  1.00  0.00     0.088 C 
ATOM      9  C   UNL A   1      33.790  37.116  33.622  1.00  0.00     0.031 C 
BRANCH   8  10
ATOM     10  N   UNL A   1      35.179  35.436  32.315  1.00  0.00    -0.382 N 
ATOM     11  H   UNL A   1      35.576  36.161  31.782  1.00  0.00     0.160 HD
BRANCH  10  12
ATOM     12  C   UNL A   1      35.907  34.263  32.373  1.00  0.00     0.035 A 
ATOM     13  C   UNL A   1      35.366  33.014  32.013  1.00  0.00     0.026 A 
ATOM     14  C   UNL A   1      37.235  34.307  32.825  1.00  0.00     0.030 A 
ATOM     15  C   UNL A   1      36.077  31.818  32.155  1.00  0.00     0.011 A 
ATOM     16  C   UNL A   1      37.952  33.123  32.940  1.00  0.00    -0.034 A 
ATOM     17  C   UNL A   1      37.368  31.880  32.635  1.00  0.00    -0.014 A 
ATOM     18  C   UNL A   1      39.388  32.930  33.383  1.00  0.00     0.072 C 
ATOM     19  C   UNL A   1      38.327  30.831  32.897  1.00  0.00    -0.015 A 
ATOM     20  C   UNL A   1      39.534  31.421  33.328  1.00  0.00    -0.036 A 
ATOM     21  C   UNL A   1      38.205  29.455  32.805  1.00  0.00     0.009 A 
ATOM     22  C   UNL A   1      40.638  30.648  33.647  1.00  0.00     0.005 A 
ATOM     23  C   UNL A   1      39.311  28.668  33.135  1.00  0.00     0.001 A 
ATOM     24  C   UNL A   1      40.518  29.260  33.547  1.00  0.00     0.000 A 
ENDBRANCH  10  12
ENDBRANCH   8  10
ENDBRANCH   6   8
ENDBRANCH   3   6
ENDBRANCH   1   2
BRANCH   1  25
ATOM     25  C   UNL A   1      34.556  34.135  28.245  1.00  0.00     0.042 C 
BRANCH  25  26
ATOM     26  C   UNL A   1      35.240  32.814  28.577  1.00  0.00     0.118 C 
BRANCH  26  27
ATOM     27  N   UNL A   1      34.482  31.661  28.111  1.00  0.00    -0.352 N 
ATOM     28  C   UNL A   1      34.896  30.400  27.765  1.00  0.00     0.251 C 
ATOM     29  H   UNL A   1      33.512  31.810  28.032  1.00  0.00     0.163 HD
ATOM     30  O   UNL A   1      34.111  29.643  27.197  1.00  0.00    -0.269 OA
BRANCH  28  31
ATOM     31  C   UNL A   1      36.273  29.942  28.051  1.00  0.00     0.039 A 
ATOM     32  C   UNL A   1      37.253  30.094  27.063  1.00  0.00     0.014 A 
ATOM     33  C   UNL A   1      36.598  29.323  29.260  1.00  0.00     0.014 A 
ATOM     34  C   UNL A   1      38.565  29.688  27.313  1.00  0.00     0.010 A 
ATOM     35  C   UNL A   1      37.923  28.993  29.540  1.00  0.00     0.010 A 
ATOM     36  C   UNL A   1      38.919  29.167  28.568  1.00  0.00    -0.014 A 
BRANCH  36  37
ATOM     37  C   UNL A   1      40.322  28.795  28.882  1.00  0.00     0.031 A 
ATOM     38  C   UNL A   1      41.226  29.775  29.582  1.00  0.00     0.074 A 
ATOM     39  C   UNL A   1      40.805  27.605  28.476  1.00  0.00     0.049 A 
ATOM     40  N   UNL A   1      42.500  29.671  29.864  1.00  0.00    -0.248 NA
ATOM     41  C   UNL A   1      40.623  31.051  29.995  1.00  0.00     0.031 C 
ATOM     42  C   UNL A   1      40.042  26.589  27.748  1.00  0.00     0.029 A 
ATOM     43  N   UNL A   1      42.055  27.054  28.603  1.00  0.00    -0.354 N 
ATOM     44  C   UNL A   1      42.853  30.872  30.467  1.00  0.00     0.074 A 
ATOM     45  C   UNL A   1      41.673  31.709  30.465  1.00  0.00     0.031 C 
ATOM     46  C   UNL A   1      40.835  25.532  27.510  1.00  0.00     0.029 A 
ATOM     47  C   UNL A   1      42.168  25.810  28.032  1.00  0.00     0.049 A 
ATOM     48  H   UNL A   1      42.800  27.507  29.060  1.00  0.00     0.167 HD
ATOM     49  C   UNL A   1      44.046  31.234  30.995  1.00  0.00     0.037 A 
ATOM     50  C   UNL A   1      43.233  24.990  27.930  1.00  0.00     0.037 A 
ATOM     51  C   UNL A   1      45.210  30.386  31.022  1.00  0.00     0.049 A 
ATOM     52  C   UNL A   1      44.548  25.419  28.523  1.00  0.00     0.074 A 
ATOM     53  C   UNL A   1      46.447  30.637  31.589  1.00  0.00     0.029 A 
ATOM     54  N   UNL A   1      45.280  29.124  30.453  1.00  0.00    -0.354 N 
ATOM     55  N   UNL A   1      44.851  26.529  29.151  1.00  0.00    -0.248 NA
ATOM     56  C   UNL A   1      45.669  24.476  28.398  1.00  0.00     0.031 C 
ATOM     57  C   UNL A   1      47.279  29.545  31.325  1.00  0.00     0.029 A 
ATOM     58  C   UNL A   1      46.547  28.591  30.638  1.00  0.00     0.049 A 
ATOM     59  H   UNL A   1      44.539  28.672  29.987  1.00  0.00     0.167 HD
ATOM     60  C   UNL A   1      46.183  26.406  29.521  1.00  0.00     0.074 A 
ATOM     61  C   UNL A   1      46.626  25.108  29.060  1.00  0.00     0.031 C 
ATOM     62  C   UNL A   1      46.969  27.292  30.181  1.00  0.00     0.037 A 
BRANCH  49  63
ATOM     63  C   UNL A   1      44.156  32.606  31.594  1.00  0.00     0.064 A 
ATOM     64  C   UNL A   1      44.447  33.731  30.807  1.00  0.00     0.173 A 
ATOM     65  C   UNL A   1      43.926  32.807  32.963  1.00  0.00     0.173 A 
ATOM     66  F   UNL A   1      44.686  33.594  29.493  1.00  0.00    -0.203 F 
ATOM     67  C   UNL A   1      44.533  35.001  31.373  1.00  0.00     0.198 A 
ATOM     68  C   UNL A   1      43.982  34.082  33.521  1.00  0.00     0.198 A 
ATOM     69  F   UNL A   1      43.637  31.767  33.760  1.00  0.00    -0.203 F 
ATOM     70  F   UNL A   1      44.860  36.052  30.610  1.00  0.00    -0.200 F 
ATOM     71  C   UNL A   1      44.293  35.176  32.728  1.00  0.00     0.200 A 
ATOM     72  F   UNL A   1      43.736  34.251  34.828  1.00  0.00    -0.200 F 
ATOM     73  F   UNL A   1      44.368  36.399  33.270  1.00  0.00    -0.200 F 
ENDBRANCH  49  63
BRANCH  50  74
ATOM     74  C   UNL A   1      43.094  23.673  27.257  1.00  0.00     0.064 A 
ATOM     75  C   UNL A   1      42.449  22.604  27.896  1.00  0.00     0.173 A 
ATOM     76  C   UNL A   1      43.606  23.450  25.970  1.00  0.00     0.173 A 
ATOM     77  F   UNL A   1      41.961  22.761  29.135  1.00  0.00    -0.203 F 
ATOM     78  C   UNL A   1      42.341  21.358  27.283  1.00  0.00     0.198 A 
ATOM     79  C   UNL A   1      43.472  22.212  25.346  1.00  0.00     0.198 A 
ATOM     80  F   UNL A   1      44.227  24.441  25.314  1.00  0.00    -0.203 F 
ATOM     81  F   UNL A   1      41.762  20.341  27.936  1.00  0.00    -0.200 F 
ATOM     82  C   UNL A   1      42.848  21.164  26.007  1.00  0.00     0.200 A 
ATOM     83  F   UNL A   1      43.950  22.034  24.107  1.00  0.00    -0.200 F 
ATOM     84  F   UNL A   1      42.741  19.966  25.416  1.00  0.00    -0.200 F 
ENDBRANCH  50  74
BRANCH  62  85
ATOM     85  C   UNL A   1      48.378  26.871  30.481  1.00  0.00     0.064 A 
ATOM     86  C   UNL A   1      48.698  26.135  31.632  1.00  0.00     0.173 A 
ATOM     87  C   UNL A   1      49.415  27.176  29.586  1.00  0.00     0.173 A 
ATOM     88  F   UNL A   1      47.745  25.833  32.527  1.00  0.00    -0.203 F 
ATOM     89  C   UNL A   1      50.008  25.740  31.886  1.00  0.00     0.198 A 
ATOM     90  C   UNL A   1      50.718  26.752  29.828  1.00  0.00     0.198 A 
ATOM     91  F   UNL A   1      49.160  27.871  28.468  1.00  0.00    -0.203 F 
ATOM     92  F   UNL A   1      50.300  25.079  33.014  1.00  0.00    -0.200 F 
ATOM     93  C   UNL A   1      51.015  26.042  30.981  1.00  0.00     0.200 A 
ATOM     94  F   UNL A   1      51.687  27.033  28.946  1.00  0.00    -0.200 F 
ATOM     95  F   UNL A   1      52.275  25.654  31.225  1.00  0.00    -0.200 F 
ENDBRANCH  62  85
ENDBRANCH  36  37
ENDBRANCH  28  31
ENDBRANCH  26  27
ENDBRANCH  25  26
ENDBRANCH   1  25
TORSDOF 13
ENDMDL
MODEL 3
REMARK VINA RESULT:     -13.1      5.796     11.371
REMARK SMILES C[C@H](Nc1ccc2c(c1)Cc1ccccc1-2)[C@@H](C)C(=O)NCCCNC(=O)c1ccc(-c2c3nc(c(-c4c(F)c(F)c(F)c(F)c4F)c4ccc([nH]4)c(-c4c(F)c(F)c(F)c(F)c4F)c4nc(c(-c5c(F)c(F)c(F)c(F)c5F)c5ccc2[nH]5)C=C4)C=C3)cc1
REMARK SMILES IDX 22 1 21 2 19 3 20 4 17 6 18 7 2 8 1 9 3 10 4 12 5 13 9 14
REMARK SMILES IDX 6 15 8 16 7 17 10 18 16 19 11 20 15 21 12 22 14 23 13 24
REMARK SMILES IDX 23 25 24 26 25 27 26 28 27 30 28 31 29 32 90 33 30 34 89 35
REMARK SMILES IDX 31 36 32 37 33 38 83 39 34 40 88 41 82 42 84 43 35 44 87 45
REMARK SMILES IDX 81 46 80 47 36 49 68 50 48 51 67 52 49 53 52 54 66 55 85 56
REMARK SMILES IDX 50 57 51 58 65 60 86 61 53 62 37 63 38 64 46 65 39 66 40 67
REMARK SMILES IDX 44 68 47 69 41 70 42 71 45 72 43 73 69 74 70 75 78 76 71 77
REMARK SMILES IDX 72 78 76 79 79 80 73 81 74 82 77 83 75 84 54 85 55 86 63 87
REMARK SMILES IDX 56 88 57 89 61 90 64 91 58 92 59 93 62 94 60 95
REMARK H PARENT 21 5 3 11 25 29 84 48 52 59
REMARK Flexibility Score: inf
ROOT
ATOM      1  C   UNL A   1      36.784  20.560  24.719  1.00  0.00     0.117 C 
ENDROOT
BRANCH   1   2
ATOM      2  N   UNL A   1      35.469  20.065  25.087  1.00  0.00    -0.356 N 
ATOM      3  C   UNL A   1      34.252  20.668  25.151  1.00  0.00     0.224 C 
ATOM      4  O   UNL A   1      33.301  19.960  25.494  1.00  0.00    -0.275 OA
ATOM      5  H   UNL A   1      35.457  19.113  25.336  1.00  0.00     0.163 HD
BRANCH   3   6
ATOM      6  C   UNL A   1      34.034  22.142  24.818  1.00  0.00     0.097 C 
ATOM      7  C   UNL A   1      34.728  23.017  25.866  1.00  0.00     0.020 C 
BRANCH   6   8
ATOM      8  C   UNL A   1      32.548  22.477  24.537  1.00  0.00     0.088 C 
ATOM      9  C   UNL A   1      32.244  22.320  23.042  1.00  0.00     0.031 C 
BRANCH   8  10
ATOM     10  N   UNL A   1      32.188  23.784  25.118  1.00  0.00    -0.382 N 
ATOM     11  H   UNL A   1      32.317  23.873  26.089  1.00  0.00     0.160 HD
BRANCH  10  12
ATOM     12  C   UNL A   1      31.691  24.900  24.472  1.00  0.00     0.035 A 
ATOM     13  C   UNL A   1      32.512  25.791  23.755  1.00  0.00     0.026 A 
ATOM     14  C   UNL A   1      30.316  25.173  24.543  1.00  0.00     0.030 A 
ATOM     15  C   UNL A   1      32.019  26.966  23.175  1.00  0.00     0.011 A 
ATOM     16  C   UNL A   1      29.820  26.323  23.943  1.00  0.00    -0.034 A 
ATOM     17  C   UNL A   1      30.671  27.233  23.288  1.00  0.00    -0.014 A 
ATOM     18  C   UNL A   1      28.387  26.810  23.876  1.00  0.00     0.072 C 
ATOM     19  C   UNL A   1      29.889  28.351  22.813  1.00  0.00    -0.015 A 
ATOM     20  C   UNL A   1      28.535  28.125  23.135  1.00  0.00    -0.036 A 
ATOM     21  C   UNL A   1      30.278  29.512  22.165  1.00  0.00     0.009 A 
ATOM     22  C   UNL A   1      27.552  29.037  22.792  1.00  0.00     0.005 A 
ATOM     23  C   UNL A   1      29.294  30.443  21.826  1.00  0.00     0.001 A 
ATOM     24  C   UNL A   1      27.943  30.204  22.131  1.00  0.00     0.000 A 
ENDBRANCH  10  12
ENDBRANCH   8  10
ENDBRANCH   6   8
ENDBRANCH   3   6
ENDBRANCH   1   2
BRANCH   1  25
ATOM     25  C   UNL A   1      37.894  19.555  25.014  1.00  0.00     0.042 C 
BRANCH  25  26
ATOM     26  C   UNL A   1      39.093  20.141  25.750  1.00  0.00     0.118 C 
BRANCH  26  27
ATOM     27  N   UNL A   1      40.165  19.171  25.932  1.00  0.00    -0.352 N 
ATOM     28  C   UNL A   1      41.509  19.353  26.134  1.00  0.00     0.251 C 
ATOM     29  H   UNL A   1      39.877  18.230  25.907  1.00  0.00     0.163 HD
ATOM     30  O   UNL A   1      42.266  18.387  26.053  1.00  0.00    -0.269 OA
BRANCH  28  31
ATOM     31  C   UNL A   1      42.064  20.691  26.433  1.00  0.00     0.039 A 
ATOM     32  C   UNL A   1      42.316  21.568  25.371  1.00  0.00     0.014 A 
ATOM     33  C   UNL A   1      42.382  21.073  27.738  1.00  0.00     0.014 A 
ATOM     34  C   UNL A   1      42.822  22.844  25.626  1.00  0.00     0.010 A 
ATOM     35  C   UNL A   1      42.808  22.373  27.999  1.00  0.00     0.010 A 
ATOM     36  C   UNL A   1      43.038  23.271  26.946  1.00  0.00    -0.014 A 
BRANCH  36  37
ATOM     37  C   UNL A   1      43.506  24.648  27.246  1.00  0.00     0.031 A 
ATOM     38  C   UNL A   1      42.550  25.668  27.800  1.00  0.00     0.074 A 
ATOM     39  C   UNL A   1      44.773  25.001  26.953  1.00  0.00     0.049 A 
ATOM     40  N   UNL A   1      42.744  26.940  28.044  1.00  0.00    -0.248 NA
ATOM     41  C   UNL A   1      41.185  25.204  28.095  1.00  0.00     0.031 C 
ATOM     42  C   UNL A   1      45.782  24.116  26.369  1.00  0.00     0.029 A 
ATOM     43  N   UNL A   1      45.425  26.200  27.092  1.00  0.00    -0.354 N 
ATOM     44  C   UNL A   1      41.526  27.428  28.500  1.00  0.00     0.074 A 
ATOM     45  C   UNL A   1      40.585  26.330  28.451  1.00  0.00     0.031 C 
ATOM     46  C   UNL A   1      46.930  24.797  26.218  1.00  0.00     0.029 A 
ATOM     47  C   UNL A   1      46.727  26.173  26.656  1.00  0.00     0.049 A 
ATOM     48  H   UNL A   1      44.999  27.004  27.470  1.00  0.00     0.167 HD
ATOM     49  C   UNL A   1      41.226  28.674  28.940  1.00  0.00     0.037 A 
ATOM     50  C   UNL A   1      47.650  27.154  26.604  1.00  0.00     0.037 A 
ATOM     51  C   UNL A   1      42.172  29.755  29.015  1.00  0.00     0.049 A 
ATOM     52  C   UNL A   1      47.289  28.528  27.097  1.00  0.00     0.074 A 
ATOM     53  C   UNL A   1      41.982  31.036  29.505  1.00  0.00     0.029 A 
ATOM     54  N   UNL A   1      43.489  29.684  28.585  1.00  0.00    -0.354 N 
ATOM     55  N   UNL A   1      46.153  28.960  27.589  1.00  0.00    -0.248 NA
ATOM     56  C   UNL A   1      48.342  29.552  27.033  1.00  0.00     0.031 C 
ATOM     57  C   UNL A   1      43.171  31.752  29.329  1.00  0.00     0.029 A 
ATOM     58  C   UNL A   1      44.117  30.904  28.778  1.00  0.00     0.049 A 
ATOM     59  H   UNL A   1      43.914  28.884  28.199  1.00  0.00     0.167 HD
ATOM     60  C   UNL A   1      46.362  30.292  27.920  1.00  0.00     0.074 A 
ATOM     61  C   UNL A   1      47.738  30.593  27.586  1.00  0.00     0.031 C 
ATOM     62  C   UNL A   1      45.491  31.186  28.450  1.00  0.00     0.037 A 
BRANCH  49  63
ATOM     63  C   UNL A   1      39.815  28.935  29.381  1.00  0.00     0.064 A 
ATOM     64  C   UNL A   1      38.842  29.414  28.490  1.00  0.00     0.173 A 
ATOM     65  C   UNL A   1      39.419  28.665  30.700  1.00  0.00     0.173 A 
ATOM     66  F   UNL A   1      39.169  29.699  27.220  1.00  0.00    -0.203 F 
ATOM     67  C   UNL A   1      37.533  29.640  28.910  1.00  0.00     0.198 A 
ATOM     68  C   UNL A   1      38.102  28.863  31.109  1.00  0.00     0.198 A 
ATOM     69  F   UNL A   1      40.307  28.199  31.591  1.00  0.00    -0.203 F 
ATOM     70  F   UNL A   1      36.634  30.144  28.054  1.00  0.00    -0.200 F 
ATOM     71  C   UNL A   1      37.162  29.357  30.217  1.00  0.00     0.200 A 
ATOM     72  F   UNL A   1      37.743  28.576  32.368  1.00  0.00    -0.200 F 
ATOM     73  F   UNL A   1      35.902  29.568  30.617  1.00  0.00    -0.200 F 
ENDBRANCH  49  63
BRANCH  50  74
ATOM     74  C   UNL A   1      49.011  26.864  26.083  1.00  0.00     0.064 A 
ATOM     75  C   UNL A   1      49.310  27.030  24.723  1.00  0.00     0.173 A 
ATOM     76  C   UNL A   1      50.037  26.411  26.926  1.00  0.00     0.173 A 
ATOM     77  F   UNL A   1      48.358  27.441  23.874  1.00  0.00    -0.203 F 
ATOM     78  C   UNL A   1      50.576  26.732  24.223  1.00  0.00     0.198 A 
ATOM     79  C   UNL A   1      51.310  26.141  26.429  1.00  0.00     0.198 A 
ATOM     80  F   UNL A   1      49.804  26.241  28.235  1.00  0.00    -0.203 F 
ATOM     81  F   UNL A   1      50.820  26.854  22.911  1.00  0.00    -0.200 F 
ATOM     82  C   UNL A   1      51.576  26.294  25.077  1.00  0.00     0.200 A 
ATOM     83  F   UNL A   1      52.278  25.732  27.261  1.00  0.00    -0.200 F 
ATOM     84  F   UNL A   1      52.794  26.010  24.596  1.00  0.00    -0.200 F 
ENDBRANCH  50  74
BRANCH  62  85
ATOM     85  C   UNL A   1      46.010  32.563  28.741  1.00  0.00     0.064 A 
ATOM     86  C   UNL A   1      46.627  32.875  29.961  1.00  0.00     0.173 A 
ATOM     87  C   UNL A   1      45.924  33.573  27.770  1.00  0.00     0.173 A 
ATOM     88  F   UNL A   1      46.720  31.949  30.928  1.00  0.00    -0.203 F 
ATOM     89  C   UNL A   1      47.116  34.155  30.208  1.00  0.00     0.198 A 
ATOM     90  C   UNL A   1      46.442  34.842  28.009  1.00  0.00     0.198 A 
ATOM     91  F   UNL A   1      45.349  33.323  26.584  1.00  0.00    -0.203 F 
ATOM     92  F   UNL A   1      47.659  34.445  31.398  1.00  0.00    -0.200 F 
ATOM     93  C   UNL A   1      47.030  35.135  29.229  1.00  0.00     0.200 A 
ATOM     94  F   UNL A   1      46.371  35.783  27.057  1.00  0.00    -0.200 F 
ATOM     95  F   UNL A   1      47.509  36.364  29.466  1.00  0.00    -0.200 F 
ENDBRANCH  62  85
ENDBRANCH  36  37
ENDBRANCH  28  31
ENDBRANCH  26  27
ENDBRANCH  25  26
ENDBRANCH   1  25
TORSDOF 13
ENDMDL
