MODEL 1
REMARK VINA RESULT:     -12.6      0.000      0.000
REMARK SMILES Cc1cnc(NC(=O)NC[C@H]2CC[C@H](C(=O)NCCCNC(=O)c3ccc(-c4c5nc(c(-c6c(F)c(F)c(F)c(F)c6F)c6ccc([nH]6)c(-c6c(F)c(F)c(F)c(F)c6F)c6nc(c(-c7c(F)c(F)c(F)c(F)c7F)c7ccc4[nH]7)C=C6)C=C5)cc3)O2)s1
REMARK SMILES IDX 18 1 17 2 15 3 16 4 14 6 11 7 12 8 87 9 13 10 10 11 9 12
REMARK SMILES IDX 6 13 7 14 8 16 5 18 1 19 2 20 3 21 88 22 4 23 19 24 20 25
REMARK SMILES IDX 21 26 22 27 23 29 24 30 25 31 86 32 26 33 85 34 27 35 28 36
REMARK SMILES IDX 29 37 79 38 30 39 84 40 78 41 80 42 31 43 83 44 77 45 76 46
REMARK SMILES IDX 32 48 64 49 44 50 63 51 45 52 48 53 62 54 81 55 46 56 47 57
REMARK SMILES IDX 61 59 82 60 49 61 33 62 34 63 42 64 35 65 36 66 40 67 43 68
REMARK SMILES IDX 37 69 38 70 41 71 39 72 65 73 66 74 74 75 67 76 68 77 72 78
REMARK SMILES IDX 75 79 69 80 70 81 73 82 71 83 50 84 51 85 59 86 52 87 53 88
REMARK SMILES IDX 57 89 60 90 54 91 55 92 58 93 56 94
REMARK H PARENT 17 5 6 15 9 17 21 28 80 47 48 58
REMARK Flexibility Score: inf
ROOT
ATOM      1  C   UNL A   1      31.510  31.000  26.215  1.00  0.00     0.117 C 
ENDROOT
BRANCH   1   2
ATOM      2  N   UNL A   1      32.790  30.450  26.596  1.00  0.00    -0.354 N 
ATOM      3  C   UNL A   1      33.356  29.245  26.303  1.00  0.00     0.249 C 
ATOM      4  O   UNL A   1      34.496  29.050  26.738  1.00  0.00    -0.272 OA
ATOM      5  H   UNL A   1      33.341  31.039  27.158  1.00  0.00     0.163 HD
BRANCH   3   6
ATOM      6  C   UNL A   1      32.597  28.122  25.551  1.00  0.00     0.207 C 
ATOM      7  C   UNL A   1      31.630  26.145  26.362  1.00  0.00     0.138 C 
ATOM      8  C   UNL A   1      33.044  25.809  25.951  1.00  0.00     0.037 C 
ATOM      9  O   UNL A   1      31.443  27.556  26.176  1.00  0.00    -0.363 OA
ATOM     10  C   UNL A   1      33.528  26.990  25.159  1.00  0.00     0.045 C 
BRANCH   7  11
ATOM     11  C   UNL A   1      30.482  25.322  25.762  1.00  0.00     0.149 C 
BRANCH  11  12
ATOM     12  N   UNL A   1      29.879  24.291  26.588  1.00  0.00    -0.335 N 
ATOM     13  N   UNL A   1      30.845  22.111  26.348  1.00  0.00    -0.284 N 
ATOM     14  C   UNL A   1      30.030  23.006  26.904  1.00  0.00     0.321 C 
ATOM     15  H   UNL A   1      30.641  21.192  26.634  1.00  0.00     0.174 HD
ATOM     16  O   UNL A   1      29.225  22.575  27.742  1.00  0.00    -0.248 OA
ATOM     17  H   UNL A   1      29.107  24.663  27.073  1.00  0.00     0.165 HD
BRANCH  13  18
ATOM     18  C   UNL A   1      31.890  22.158  25.484  1.00  0.00     0.190 A 
ATOM     19  C   UNL A   1      35.467  22.826  24.344  1.00  0.00     0.058 C 
ATOM     20  C   UNL A   1      34.041  22.446  24.489  1.00  0.00     0.023 A 
ATOM     21  C   UNL A   1      32.970  22.701  23.656  1.00  0.00     0.128 A 
ATOM     22  S   UNL A   1      33.456  21.640  25.889  1.00  0.00    -0.102 S 
ATOM     23  N   UNL A   1      31.729  22.478  24.220  1.00  0.00    -0.228 NA
ENDBRANCH  13  18
ENDBRANCH  11  12
ENDBRANCH   7  11
ENDBRANCH   3   6
ENDBRANCH   1   2
BRANCH   1  24
ATOM     24  C   UNL A   1      31.359  32.458  26.635  1.00  0.00     0.042 C 
BRANCH  24  25
ATOM     25  C   UNL A   1      32.635  33.037  27.230  1.00  0.00     0.118 C 
BRANCH  25  26
ATOM     26  N   UNL A   1      32.441  34.403  27.698  1.00  0.00    -0.352 N 
ATOM     27  C   UNL A   1      33.017  35.073  28.747  1.00  0.00     0.251 C 
ATOM     28  H   UNL A   1      31.792  34.931  27.179  1.00  0.00     0.163 HD
ATOM     29  O   UNL A   1      32.554  36.150  29.105  1.00  0.00    -0.269 OA
BRANCH  27  30
ATOM     30  C   UNL A   1      34.181  34.500  29.455  1.00  0.00     0.039 A 
ATOM     31  C   UNL A   1      33.972  33.859  30.679  1.00  0.00     0.014 A 
ATOM     32  C   UNL A   1      35.474  34.619  28.938  1.00  0.00     0.014 A 
ATOM     33  C   UNL A   1      35.052  33.293  31.357  1.00  0.00     0.010 A 
ATOM     34  C   UNL A   1      36.533  33.976  29.567  1.00  0.00     0.010 A 
ATOM     35  C   UNL A   1      36.335  33.317  30.788  1.00  0.00    -0.014 A 
BRANCH  35  36
ATOM     36  C   UNL A   1      37.486  32.665  31.458  1.00  0.00     0.031 A 
ATOM     37  C   UNL A   1      38.184  31.508  30.800  1.00  0.00     0.074 A 
ATOM     38  C   UNL A   1      37.855  33.075  32.687  1.00  0.00     0.049 A 
ATOM     39  N   UNL A   1      39.157  30.760  31.256  1.00  0.00    -0.248 NA
ATOM     40  C   UNL A   1      37.705  31.118  29.464  1.00  0.00     0.031 C 
ATOM     41  C   UNL A   1      37.218  34.156  33.443  1.00  0.00     0.029 A 
ATOM     42  N   UNL A   1      38.846  32.626  33.521  1.00  0.00    -0.354 N 
ATOM     43  C   UNL A   1      39.393  29.808  30.273  1.00  0.00     0.074 A 
ATOM     44  C   UNL A   1      38.425  30.033  29.222  1.00  0.00     0.031 C 
ATOM     45  C   UNL A   1      37.850  34.302  34.618  1.00  0.00     0.029 A 
ATOM     46  C   UNL A   1      38.905  33.298  34.717  1.00  0.00     0.049 A 
ATOM     47  H   UNL A   1      39.457  31.890  33.286  1.00  0.00     0.167 HD
ATOM     48  C   UNL A   1      40.350  28.851  30.239  1.00  0.00     0.037 A 
ATOM     49  C   UNL A   1      39.714  33.118  35.778  1.00  0.00     0.037 A 
ATOM     50  C   UNL A   1      41.324  28.650  31.279  1.00  0.00     0.049 A 
ATOM     51  C   UNL A   1      40.762  32.040  35.718  1.00  0.00     0.074 A 
ATOM     52  C   UNL A   1      42.372  27.748  31.319  1.00  0.00     0.029 A 
ATOM     53  N   UNL A   1      41.364  29.364  32.469  1.00  0.00    -0.354 N 
ATOM     54  N   UNL A   1      41.023  31.192  34.753  1.00  0.00    -0.248 NA
ATOM     55  C   UNL A   1      41.633  31.898  36.893  1.00  0.00     0.031 C 
ATOM     56  C   UNL A   1      43.013  27.878  32.555  1.00  0.00     0.029 A 
ATOM     57  C   UNL A   1      42.404  28.903  33.261  1.00  0.00     0.049 A 
ATOM     58  H   UNL A   1      40.746  30.089  32.714  1.00  0.00     0.167 HD
ATOM     59  C   UNL A   1      42.106  30.440  35.188  1.00  0.00     0.074 A 
ATOM     60  C   UNL A   1      42.461  30.943  36.499  1.00  0.00     0.031 C 
ATOM     61  C   UNL A   1      42.749  29.424  34.560  1.00  0.00     0.037 A 
BRANCH  48  62
ATOM     62  C   UNL A   1      40.390  27.946  29.039  1.00  0.00     0.064 A 
ATOM     63  C   UNL A   1      41.179  28.244  27.917  1.00  0.00     0.173 A 
ATOM     64  C   UNL A   1      39.662  26.747  29.027  1.00  0.00     0.173 A 
ATOM     65  F   UNL A   1      41.886  29.383  27.871  1.00  0.00    -0.203 F 
ATOM     66  C   UNL A   1      41.212  27.391  26.816  1.00  0.00     0.198 A 
ATOM     67  C   UNL A   1      39.724  25.880  27.938  1.00  0.00     0.198 A 
ATOM     68  F   UNL A   1      38.895  26.409  30.074  1.00  0.00    -0.203 F 
ATOM     69  F   UNL A   1      41.930  27.724  25.735  1.00  0.00    -0.200 F 
ATOM     70  C   UNL A   1      40.491  26.207  26.830  1.00  0.00     0.200 A 
ATOM     71  F   UNL A   1      39.038  24.729  27.961  1.00  0.00    -0.200 F 
ATOM     72  F   UNL A   1      40.531  25.383  25.774  1.00  0.00    -0.200 F 
ENDBRANCH  48  62
BRANCH  49  73
ATOM     73  C   UNL A   1      39.579  33.991  36.974  1.00  0.00     0.064 A 
ATOM     74  C   UNL A   1      40.212  35.241  37.029  1.00  0.00     0.173 A 
ATOM     75  C   UNL A   1      38.820  33.596  38.085  1.00  0.00     0.173 A 
ATOM     76  F   UNL A   1      40.961  35.657  35.998  1.00  0.00    -0.203 F 
ATOM     77  C   UNL A   1      40.111  36.051  38.159  1.00  0.00     0.198 A 
ATOM     78  C   UNL A   1      38.694  34.420  39.201  1.00  0.00     0.198 A 
ATOM     79  F   UNL A   1      38.186  32.414  38.081  1.00  0.00    -0.203 F 
ATOM     80  F   UNL A   1      40.766  37.219  38.203  1.00  0.00    -0.200 F 
ATOM     81  C   UNL A   1      39.347  35.643  39.242  1.00  0.00     0.200 A 
ATOM     82  F   UNL A   1      37.938  34.031  40.237  1.00  0.00    -0.200 F 
ATOM     83  F   UNL A   1      39.246  36.423  40.325  1.00  0.00    -0.200 F 
ENDBRANCH  49  73
BRANCH  61  84
ATOM     84  C   UNL A   1      43.928  28.818  35.263  1.00  0.00     0.064 A 
ATOM     85  C   UNL A   1      43.787  27.745  36.154  1.00  0.00     0.173 A 
ATOM     86  C   UNL A   1      45.224  29.295  35.008  1.00  0.00     0.173 A 
ATOM     87  F   UNL A   1      42.570  27.262  36.442  1.00  0.00    -0.203 F 
ATOM     88  C   UNL A   1      44.897  27.188  36.785  1.00  0.00     0.198 A 
ATOM     89  C   UNL A   1      46.334  28.714  35.614  1.00  0.00     0.198 A 
ATOM     90  F   UNL A   1      45.415  30.315  34.158  1.00  0.00    -0.203 F 
ATOM     91  F   UNL A   1      44.734  26.198  37.673  1.00  0.00    -0.200 F 
ATOM     92  C   UNL A   1      46.169  27.668  36.508  1.00  0.00     0.200 A 
ATOM     93  F   UNL A   1      47.562  29.167  35.332  1.00  0.00    -0.200 F 
ATOM     94  F   UNL A   1      47.237  27.126  37.110  1.00  0.00    -0.200 F 
ENDBRANCH  61  84
ENDBRANCH  35  36
ENDBRANCH  27  30
ENDBRANCH  25  26
ENDBRANCH  24  25
ENDBRANCH   1  24
TORSDOF 13
ENDMDL
MODEL 2
REMARK VINA RESULT:     -12.6      0.115      1.605
REMARK SMILES Cc1cnc(NC(=O)NC[C@H]2CC[C@H](C(=O)NCCCNC(=O)c3ccc(-c4c5nc(c(-c6c(F)c(F)c(F)c(F)c6F)c6ccc([nH]6)c(-c6c(F)c(F)c(F)c(F)c6F)c6nc(c(-c7c(F)c(F)c(F)c(F)c7F)c7ccc4[nH]7)C=C6)C=C5)cc3)O2)s1
REMARK SMILES IDX 18 1 17 2 15 3 16 4 14 6 11 7 12 8 87 9 13 10 10 11 9 12
REMARK SMILES IDX 6 13 7 14 8 16 5 18 1 19 2 20 3 21 88 22 4 23 19 24 20 25
REMARK SMILES IDX 21 26 22 27 23 29 24 30 25 31 86 32 26 33 85 34 27 35 28 36
REMARK SMILES IDX 29 37 79 38 30 39 84 40 78 41 80 42 31 43 83 44 77 45 76 46
REMARK SMILES IDX 32 48 64 49 44 50 63 51 45 52 48 53 62 54 81 55 46 56 47 57
REMARK SMILES IDX 61 59 82 60 49 61 33 62 34 63 42 64 35 65 36 66 40 67 43 68
REMARK SMILES IDX 37 69 38 70 41 71 39 72 65 73 66 74 74 75 67 76 68 77 72 78
REMARK SMILES IDX 75 79 69 80 70 81 73 82 71 83 50 84 51 85 59 86 52 87 53 88
REMARK SMILES IDX 57 89 60 90 54 91 55 92 58 93 56 94
REMARK H PARENT 17 5 6 15 9 17 21 28 80 47 48 58
REMARK Flexibility Score: inf
ROOT
ATOM      1  C   UNL A   1      31.579  30.944  26.187  1.00  0.00     0.117 C 
ENDROOT
BRANCH   1   2
ATOM      2  N   UNL A   1      32.869  30.409  26.557  1.00  0.00    -0.354 N 
ATOM      3  C   UNL A   1      33.446  29.211  26.260  1.00  0.00     0.249 C 
ATOM      4  O   UNL A   1      34.592  29.030  26.684  1.00  0.00    -0.272 OA
ATOM      5  H   UNL A   1      33.419  31.006  27.113  1.00  0.00     0.163 HD
BRANCH   3   6
ATOM      6  C   UNL A   1      32.693  28.078  25.516  1.00  0.00     0.207 C 
ATOM      7  C   UNL A   1      31.691  26.129  26.348  1.00  0.00     0.138 C 
ATOM      8  C   UNL A   1      33.110  25.771  25.975  1.00  0.00     0.037 C 
ATOM      9  O   UNL A   1      31.521  27.536  26.128  1.00  0.00    -0.363 OA
ATOM     10  C   UNL A   1      33.623  26.930  25.169  1.00  0.00     0.045 C 
BRANCH   7  11
ATOM     11  C   UNL A   1      30.548  25.302  25.742  1.00  0.00     0.149 C 
BRANCH  11  12
ATOM     12  N   UNL A   1      29.932  24.281  26.570  1.00  0.00    -0.335 N 
ATOM     13  N   UNL A   1      30.892  22.095  26.359  1.00  0.00    -0.284 N 
ATOM     14  C   UNL A   1      30.074  22.998  26.898  1.00  0.00     0.321 C 
ATOM     15  H   UNL A   1      30.680  21.179  26.651  1.00  0.00     0.174 HD
ATOM     16  O   UNL A   1      29.258  22.578  27.731  1.00  0.00    -0.248 OA
ATOM     17  H   UNL A   1      29.156  24.660  27.043  1.00  0.00     0.165 HD
BRANCH  13  18
ATOM     18  C   UNL A   1      31.946  22.131  25.506  1.00  0.00     0.190 A 
ATOM     19  C   UNL A   1      35.419  23.103  24.266  1.00  0.00     0.058 C 
ATOM     20  C   UNL A   1      34.062  22.543  24.480  1.00  0.00     0.023 A 
ATOM     21  C   UNL A   1      32.994  22.460  23.610  1.00  0.00     0.128 A 
ATOM     22  S   UNL A   1      33.559  21.951  26.013  1.00  0.00    -0.102 S 
ATOM     23  N   UNL A   1      31.782  22.164  24.203  1.00  0.00    -0.228 NA
ENDBRANCH  13  18
ENDBRANCH  11  12
ENDBRANCH   7  11
ENDBRANCH   3   6
ENDBRANCH   1   2
BRANCH   1  24
ATOM     24  C   UNL A   1      31.403  32.391  26.636  1.00  0.00     0.042 C 
BRANCH  24  25
ATOM     25  C   UNL A   1      32.681  32.994  27.204  1.00  0.00     0.118 C 
BRANCH  25  26
ATOM     26  N   UNL A   1      32.469  34.353  27.685  1.00  0.00    -0.352 N 
ATOM     27  C   UNL A   1      33.034  35.019  28.742  1.00  0.00     0.251 C 
ATOM     28  H   UNL A   1      31.816  34.878  27.168  1.00  0.00     0.163 HD
ATOM     29  O   UNL A   1      32.556  36.088  29.108  1.00  0.00    -0.269 OA
BRANCH  27  30
ATOM     30  C   UNL A   1      34.201  34.453  29.449  1.00  0.00     0.039 A 
ATOM     31  C   UNL A   1      33.991  33.773  30.652  1.00  0.00     0.014 A 
ATOM     32  C   UNL A   1      35.497  34.614  28.953  1.00  0.00     0.014 A 
ATOM     33  C   UNL A   1      35.075  33.212  31.329  1.00  0.00     0.010 A 
ATOM     34  C   UNL A   1      36.562  33.977  29.578  1.00  0.00     0.010 A 
ATOM     35  C   UNL A   1      36.364  33.280  30.778  1.00  0.00    -0.014 A 
BRANCH  35  36
ATOM     36  C   UNL A   1      37.520  32.635  31.445  1.00  0.00     0.031 A 
ATOM     37  C   UNL A   1      38.232  31.491  30.779  1.00  0.00     0.074 A 
ATOM     38  C   UNL A   1      37.882  33.040  32.677  1.00  0.00     0.049 A 
ATOM     39  N   UNL A   1      39.212  30.751  31.230  1.00  0.00    -0.248 NA
ATOM     40  C   UNL A   1      37.760  31.107  29.438  1.00  0.00     0.031 C 
ATOM     41  C   UNL A   1      37.233  34.108  33.440  1.00  0.00     0.029 A 
ATOM     42  N   UNL A   1      38.877  32.594  33.510  1.00  0.00    -0.354 N 
ATOM     43  C   UNL A   1      39.461  29.809  30.240  1.00  0.00     0.074 A 
ATOM     44  C   UNL A   1      38.492  30.032  29.190  1.00  0.00     0.031 C 
ATOM     45  C   UNL A   1      37.861  34.251  34.618  1.00  0.00     0.029 A 
ATOM     46  C   UNL A   1      38.927  33.258  34.711  1.00  0.00     0.049 A 
ATOM     47  H   UNL A   1      39.496  31.868  33.270  1.00  0.00     0.167 HD
ATOM     48  C   UNL A   1      40.427  28.862  30.200  1.00  0.00     0.037 A 
ATOM     49  C   UNL A   1      39.736  33.078  35.772  1.00  0.00     0.037 A 
ATOM     50  C   UNL A   1      41.402  28.664  31.241  1.00  0.00     0.049 A 
ATOM     51  C   UNL A   1      40.795  32.012  35.705  1.00  0.00     0.074 A 
ATOM     52  C   UNL A   1      42.459  27.773  31.276  1.00  0.00     0.029 A 
ATOM     53  N   UNL A   1      41.432  29.368  32.437  1.00  0.00    -0.354 N 
ATOM     54  N   UNL A   1      41.067  31.174  34.735  1.00  0.00    -0.248 NA
ATOM     55  C   UNL A   1      41.666  31.870  36.881  1.00  0.00     0.031 C 
ATOM     56  C   UNL A   1      43.096  27.899  32.514  1.00  0.00     0.029 A 
ATOM     57  C   UNL A   1      42.475  28.913  33.227  1.00  0.00     0.049 A 
ATOM     58  H   UNL A   1      40.806  30.085  32.686  1.00  0.00     0.167 HD
ATOM     59  C   UNL A   1      42.158  30.431  35.165  1.00  0.00     0.074 A 
ATOM     60  C   UNL A   1      42.505  30.927  36.481  1.00  0.00     0.031 C 
ATOM     61  C   UNL A   1      42.812  29.427  34.530  1.00  0.00     0.037 A 
BRANCH  48  62
ATOM     62  C   UNL A   1      40.480  27.967  28.994  1.00  0.00     0.064 A 
ATOM     63  C   UNL A   1      39.742  26.775  28.927  1.00  0.00     0.173 A 
ATOM     64  C   UNL A   1      41.247  28.324  27.876  1.00  0.00     0.173 A 
ATOM     65  F   UNL A   1      39.000  26.380  29.974  1.00  0.00    -0.203 F 
ATOM     66  C   UNL A   1      39.795  25.960  27.799  1.00  0.00     0.198 A 
ATOM     67  C   UNL A   1      41.272  27.524  26.736  1.00  0.00     0.198 A 
ATOM     68  F   UNL A   1      41.968  29.455  27.882  1.00  0.00    -0.203 F 
ATOM     69  F   UNL A   1      39.124  24.800  27.781  1.00  0.00    -0.200 F 
ATOM     70  C   UNL A   1      40.553  26.338  26.702  1.00  0.00     0.200 A 
ATOM     71  F   UNL A   1      41.993  27.899  25.671  1.00  0.00    -0.200 F 
ATOM     72  F   UNL A   1      40.596  25.558  25.613  1.00  0.00    -0.200 F 
ENDBRANCH  48  62
BRANCH  49  73
ATOM     73  C   UNL A   1      39.590  33.940  36.974  1.00  0.00     0.064 A 
ATOM     74  C   UNL A   1      38.844  33.514  38.082  1.00  0.00     0.173 A 
ATOM     75  C   UNL A   1      40.188  35.207  37.042  1.00  0.00     0.173 A 
ATOM     76  F   UNL A   1      38.240  32.317  38.060  1.00  0.00    -0.203 F 
ATOM     77  C   UNL A   1      38.682  34.330  39.200  1.00  0.00     0.198 A 
ATOM     78  C   UNL A   1      40.052  36.009  38.173  1.00  0.00     0.198 A 
ATOM     79  F   UNL A   1      40.921  35.661  36.014  1.00  0.00    -0.203 F 
ATOM     80  F   UNL A   1      37.922  33.915  40.224  1.00  0.00    -0.200 F 
ATOM     81  C   UNL A   1      39.290  35.574  39.247  1.00  0.00     0.200 A 
ATOM     82  F   UNL A   1      40.660  37.202  38.223  1.00  0.00    -0.200 F 
ATOM     83  F   UNL A   1      39.138  36.356  40.324  1.00  0.00    -0.200 F 
ENDBRANCH  49  73
BRANCH  61  84
ATOM     84  C   UNL A   1      43.997  28.828  35.231  1.00  0.00     0.064 A 
ATOM     85  C   UNL A   1      43.870  27.727  36.090  1.00  0.00     0.173 A 
ATOM     86  C   UNL A   1      45.285  29.341  35.005  1.00  0.00     0.173 A 
ATOM     87  F   UNL A   1      42.661  27.210  36.351  1.00  0.00    -0.203 F 
ATOM     88  C   UNL A   1      44.985  27.179  36.719  1.00  0.00     0.198 A 
ATOM     89  C   UNL A   1      46.400  28.768  35.608  1.00  0.00     0.198 A 
ATOM     90  F   UNL A   1      45.462  30.388  34.185  1.00  0.00    -0.203 F 
ATOM     91  F   UNL A   1      44.834  26.161  37.578  1.00  0.00    -0.200 F 
ATOM     92  C   UNL A   1      46.249  27.694  36.471  1.00  0.00     0.200 A 
ATOM     93  F   UNL A   1      47.621  29.256  35.354  1.00  0.00    -0.200 F 
ATOM     94  F   UNL A   1      47.321  27.159  37.071  1.00  0.00    -0.200 F 
ENDBRANCH  61  84
ENDBRANCH  35  36
ENDBRANCH  27  30
ENDBRANCH  25  26
ENDBRANCH  24  25
ENDBRANCH   1  24
TORSDOF 13
ENDMDL
MODEL 3
REMARK VINA RESULT:     -12.2      5.951     11.306
REMARK SMILES Cc1cnc(NC(=O)NC[C@H]2CC[C@H](C(=O)NCCCNC(=O)c3ccc(-c4c5nc(c(-c6c(F)c(F)c(F)c(F)c6F)c6ccc([nH]6)c(-c6c(F)c(F)c(F)c(F)c6F)c6nc(c(-c7c(F)c(F)c(F)c(F)c7F)c7ccc4[nH]7)C=C6)C=C5)cc3)O2)s1
REMARK SMILES IDX 18 1 17 2 15 3 16 4 14 6 11 7 12 8 87 9 13 10 10 11 9 12
REMARK SMILES IDX 6 13 7 14 8 16 5 18 1 19 2 20 3 21 88 22 4 23 19 24 20 25
REMARK SMILES IDX 21 26 22 27 23 29 24 30 25 31 86 32 26 33 85 34 27 35 28 36
REMARK SMILES IDX 29 37 79 38 30 39 84 40 78 41 80 42 31 43 83 44 77 45 76 46
REMARK SMILES IDX 32 48 64 49 44 50 63 51 45 52 48 53 62 54 81 55 46 56 47 57
REMARK SMILES IDX 61 59 82 60 49 61 33 62 34 63 42 64 35 65 36 66 40 67 43 68
REMARK SMILES IDX 37 69 38 70 41 71 39 72 65 73 66 74 74 75 67 76 68 77 72 78
REMARK SMILES IDX 75 79 69 80 70 81 73 82 71 83 50 84 51 85 59 86 52 87 53 88
REMARK SMILES IDX 57 89 60 90 54 91 55 92 58 93 56 94
REMARK H PARENT 17 5 6 15 9 17 21 28 80 47 48 58
REMARK Flexibility Score: inf
ROOT
ATOM      1  C   UNL A   1      37.294  20.564  24.696  1.00  0.00     0.117 C 
ENDROOT
BRANCH   1   2
ATOM      2  N   UNL A   1      37.559  21.791  25.411  1.00  0.00    -0.354 N 
ATOM      3  C   UNL A   1      36.723  22.810  25.757  1.00  0.00     0.249 C 
ATOM      4  O   UNL A   1      37.219  23.734  26.409  1.00  0.00    -0.272 OA
ATOM      5  H   UNL A   1      38.494  21.910  25.694  1.00  0.00     0.163 HD
BRANCH   3   6
ATOM      6  C   UNL A   1      35.247  22.881  25.287  1.00  0.00     0.207 C 
ATOM      7  C   UNL A   1      34.231  24.272  23.697  1.00  0.00     0.138 C 
ATOM      8  C   UNL A   1      34.101  24.962  25.034  1.00  0.00     0.037 C 
ATOM      9  O   UNL A   1      34.994  23.073  23.894  1.00  0.00    -0.363 OA
ATOM     10  C   UNL A   1      34.469  23.929  26.061  1.00  0.00     0.045 C 
BRANCH   7  11
ATOM     11  C   UNL A   1      32.958  24.025  22.877  1.00  0.00     0.149 C 
BRANCH  11  12
ATOM     12  N   UNL A   1      32.917  24.523  21.514  1.00  0.00    -0.335 N 
ATOM     13  N   UNL A   1      31.879  26.666  21.252  1.00  0.00    -0.284 N 
ATOM     14  C   UNL A   1      32.552  25.601  20.822  1.00  0.00     0.321 C 
ATOM     15  H   UNL A   1      31.576  27.241  20.512  1.00  0.00     0.174 HD
ATOM     16  O   UNL A   1      32.772  25.540  19.604  1.00  0.00    -0.248 OA
ATOM     17  H   UNL A   1      33.276  23.842  20.900  1.00  0.00     0.165 HD
BRANCH  13  18
ATOM     18  C   UNL A   1      31.509  27.155  22.463  1.00  0.00     0.190 A 
ATOM     19  C   UNL A   1      31.895  28.029  26.155  1.00  0.00     0.058 C 
ATOM     20  C   UNL A   1      31.461  27.842  24.749  1.00  0.00     0.023 A 
ATOM     21  C   UNL A   1      30.261  27.379  24.250  1.00  0.00     0.128 A 
ATOM     22  S   UNL A   1      32.526  28.115  23.429  1.00  0.00    -0.102 S 
ATOM     23  N   UNL A   1      30.280  27.037  22.912  1.00  0.00    -0.228 NA
ENDBRANCH  13  18
ENDBRANCH  11  12
ENDBRANCH   7  11
ENDBRANCH   3   6
ENDBRANCH   1   2
BRANCH   1  24
ATOM     24  C   UNL A   1      38.319  19.480  25.009  1.00  0.00     0.042 C 
BRANCH  24  25
ATOM     25  C   UNL A   1      39.390  19.942  25.988  1.00  0.00     0.118 C 
BRANCH  25  26
ATOM     26  N   UNL A   1      40.504  19.005  26.052  1.00  0.00    -0.352 N 
ATOM     27  C   UNL A   1      41.854  19.235  26.128  1.00  0.00     0.251 C 
ATOM     28  H   UNL A   1      40.248  18.055  26.038  1.00  0.00     0.163 HD
ATOM     29  O   UNL A   1      42.636  18.307  25.952  1.00  0.00    -0.269 OA
BRANCH  27  30
ATOM     30  C   UNL A   1      42.370  20.591  26.407  1.00  0.00     0.039 A 
ATOM     31  C   UNL A   1      42.714  21.412  25.330  1.00  0.00     0.014 A 
ATOM     32  C   UNL A   1      42.547  21.043  27.717  1.00  0.00     0.014 A 
ATOM     33  C   UNL A   1      43.185  22.704  25.567  1.00  0.00     0.010 A 
ATOM     34  C   UNL A   1      42.928  22.360  27.950  1.00  0.00     0.010 A 
ATOM     35  C   UNL A   1      43.261  23.199  26.878  1.00  0.00    -0.014 A 
BRANCH  35  36
ATOM     36  C   UNL A   1      43.696  24.590  27.150  1.00  0.00     0.031 A 
ATOM     37  C   UNL A   1      42.708  25.603  27.656  1.00  0.00     0.074 A 
ATOM     38  C   UNL A   1      44.965  24.951  26.879  1.00  0.00     0.049 A 
ATOM     39  N   UNL A   1      42.874  26.881  27.882  1.00  0.00    -0.248 NA
ATOM     40  C   UNL A   1      41.339  25.123  27.912  1.00  0.00     0.031 C 
ATOM     41  C   UNL A   1      45.998  24.065  26.339  1.00  0.00     0.029 A 
ATOM     42  N   UNL A   1      45.599  26.160  27.007  1.00  0.00    -0.354 N 
ATOM     43  C   UNL A   1      41.635  27.357  28.290  1.00  0.00     0.074 A 
ATOM     44  C   UNL A   1      40.711  26.246  28.224  1.00  0.00     0.031 C 
ATOM     45  C   UNL A   1      47.143  24.753  26.207  1.00  0.00     0.029 A 
ATOM     46  C   UNL A   1      46.913  26.138  26.609  1.00  0.00     0.049 A 
ATOM     47  H   UNL A   1      45.155  26.969  27.352  1.00  0.00     0.167 HD
ATOM     48  C   UNL A   1      41.305  28.602  28.708  1.00  0.00     0.037 A 
ATOM     49  C   UNL A   1      47.826  27.126  26.564  1.00  0.00     0.037 A 
ATOM     50  C   UNL A   1      42.238  29.695  28.792  1.00  0.00     0.049 A 
ATOM     51  C   UNL A   1      47.431  28.502  27.025  1.00  0.00     0.074 A 
ATOM     52  C   UNL A   1      42.023  30.980  29.256  1.00  0.00     0.029 A 
ATOM     53  N   UNL A   1      43.567  29.629  28.396  1.00  0.00    -0.354 N 
ATOM     54  N   UNL A   1      46.275  28.924  27.476  1.00  0.00    -0.248 NA
ATOM     55  C   UNL A   1      48.470  29.540  26.975  1.00  0.00     0.031 C 
ATOM     56  C   UNL A   1      43.206  31.708  29.091  1.00  0.00     0.029 A 
ATOM     57  C   UNL A   1      44.177  30.860  28.582  1.00  0.00     0.049 A 
ATOM     58  H   UNL A   1      44.011  28.827  28.038  1.00  0.00     0.167 HD
ATOM     59  C   UNL A   1      46.454  30.263  27.796  1.00  0.00     0.074 A 
ATOM     60  C   UNL A   1      47.837  30.579  27.499  1.00  0.00     0.031 C 
ATOM     61  C   UNL A   1      45.557  31.152  28.290  1.00  0.00     0.037 A 
BRANCH  48  62
ATOM     62  C   UNL A   1      39.878  28.850  29.105  1.00  0.00     0.064 A 
ATOM     63  C   UNL A   1      38.916  29.276  28.175  1.00  0.00     0.173 A 
ATOM     64  C   UNL A   1      39.456  28.624  30.423  1.00  0.00     0.173 A 
ATOM     65  F   UNL A   1      39.268  29.519  26.903  1.00  0.00    -0.203 F 
ATOM     66  C   UNL A   1      37.595  29.495  28.557  1.00  0.00     0.198 A 
ATOM     67  C   UNL A   1      38.126  28.811  30.795  1.00  0.00     0.198 A 
ATOM     68  F   UNL A   1      40.330  28.211  31.353  1.00  0.00    -0.203 F 
ATOM     69  F   UNL A   1      36.708  29.953  27.663  1.00  0.00    -0.200 F 
ATOM     70  C   UNL A   1      37.199  29.255  29.864  1.00  0.00     0.200 A 
ATOM     71  F   UNL A   1      37.743  28.564  32.055  1.00  0.00    -0.200 F 
ATOM     72  F   UNL A   1      35.925  29.457  30.228  1.00  0.00    -0.200 F 
ENDBRANCH  48  62
BRANCH  49  73
ATOM     73  C   UNL A   1      49.206  26.843  26.087  1.00  0.00     0.064 A 
ATOM     74  C   UNL A   1      50.213  26.457  26.982  1.00  0.00     0.173 A 
ATOM     75  C   UNL A   1      49.547  26.956  24.731  1.00  0.00     0.173 A 
ATOM     76  F   UNL A   1      49.941  26.350  28.290  1.00  0.00    -0.203 F 
ATOM     77  C   UNL A   1      51.514  26.218  26.543  1.00  0.00     0.198 A 
ATOM     78  C   UNL A   1      50.840  26.685  24.289  1.00  0.00     0.198 A 
ATOM     79  F   UNL A   1      48.619  27.312  23.831  1.00  0.00    -0.203 F 
ATOM     80  F   UNL A   1      52.469  25.898  27.428  1.00  0.00    -0.200 F 
ATOM     81  C   UNL A   1      51.826  26.327  25.196  1.00  0.00     0.200 A 
ATOM     82  F   UNL A   1      51.132  26.771  22.984  1.00  0.00    -0.200 F 
ATOM     83  F   UNL A   1      53.075  26.092  24.774  1.00  0.00    -0.200 F 
ENDBRANCH  49  73
BRANCH  61  84
ATOM     84  C   UNL A   1      46.053  32.539  28.582  1.00  0.00     0.064 A 
ATOM     85  C   UNL A   1      46.613  32.878  29.821  1.00  0.00     0.173 A 
ATOM     86  C   UNL A   1      46.002  33.530  27.588  1.00  0.00     0.173 A 
ATOM     87  F   UNL A   1      46.671  31.972  30.807  1.00  0.00    -0.203 F 
ATOM     88  C   UNL A   1      47.079  34.168  30.066  1.00  0.00     0.198 A 
ATOM     89  C   UNL A   1      46.500  34.807  27.826  1.00  0.00     0.198 A 
ATOM     90  F   UNL A   1      45.483  33.255  26.383  1.00  0.00    -0.203 F 
ATOM     91  F   UNL A   1      47.562  34.485  31.275  1.00  0.00    -0.200 F 
ATOM     92  C   UNL A   1      47.030  35.128  29.065  1.00  0.00     0.200 A 
ATOM     93  F   UNL A   1      46.467  35.728  26.853  1.00  0.00    -0.200 F 
ATOM     94  F   UNL A   1      47.487  36.366  29.300  1.00  0.00    -0.200 F 
ENDBRANCH  61  84
ENDBRANCH  35  36
ENDBRANCH  27  30
ENDBRANCH  25  26
ENDBRANCH  24  25
ENDBRANCH   1  24
TORSDOF 13
ENDMDL
