MODEL 1
REMARK VINA RESULT:     -11.4      0.000      0.000
REMARK SMILES CCN1C[C@@H](C(=O)NCCCNC(=O)c2ccc(-c3c4nc(c(-c5c(F)c(F)c(F)c(F)c5F)c5ccc([nH]5)c(-c5c(F)c(F)c(F)c(F)c5F)c5nc(c(-c6c(F)c(F)c(F)c(F)c6F)c6ccc3[nH]6)C=C5)C=C4)cc2)CC1=O
REMARK SMILES IDX 10 1 9 2 8 3 6 4 7 5 5 7 3 8 4 9 79 10 78 11 80 12 2 13 1 14
REMARK SMILES IDX 11 15 12 16 13 17 14 19 15 20 16 21 77 22 17 23 76 24 18 25
REMARK SMILES IDX 19 26 20 27 70 28 21 29 75 30 69 31 71 32 22 33 74 34 68 35
REMARK SMILES IDX 67 36 23 38 55 39 35 40 54 41 36 42 39 43 53 44 72 45 37 46
REMARK SMILES IDX 38 47 52 49 73 50 40 51 24 52 25 53 33 54 26 55 27 56 31 57
REMARK SMILES IDX 34 58 28 59 29 60 32 61 30 62 56 63 57 64 65 65 58 66 59 67
REMARK SMILES IDX 63 68 66 69 60 70 61 71 64 72 62 73 41 74 42 75 50 76 43 77
REMARK SMILES IDX 44 78 48 79 51 80 45 81 46 82 49 83 47 84
REMARK H PARENT 8 6 12 18 71 37 39 48
REMARK Flexibility Score: inf
ROOT
ATOM      1  C   UNL A   1      46.380  21.885  35.607  1.00  0.00     0.042 C 
ENDROOT
BRANCH   1   2
ATOM      2  C   UNL A   1      47.220  20.617  35.659  1.00  0.00     0.117 C 
BRANCH   2   3
ATOM      3  N   UNL A   1      47.493  20.085  34.334  1.00  0.00    -0.356 N 
ATOM      4  C   UNL A   1      48.641  19.986  33.619  1.00  0.00     0.225 C 
ATOM      5  O   UNL A   1      48.560  19.496  32.489  1.00  0.00    -0.275 OA
ATOM      6  H   UNL A   1      46.698  19.732  33.871  1.00  0.00     0.163 HD
BRANCH   4   7
ATOM      7  C   UNL A   1      49.983  20.429  34.155  1.00  0.00     0.107 C 
ATOM      8  N   UNL A   1      52.192  20.535  33.369  1.00  0.00    -0.342 N 
ATOM      9  C   UNL A   1      50.869  21.032  33.080  1.00  0.00     0.133 C 
ATOM     10  C   UNL A   1      52.196  19.527  34.315  1.00  0.00     0.223 C 
ATOM     11  C   UNL A   1      50.796  19.331  34.829  1.00  0.00     0.115 C 
ATOM     12  O   UNL A   1      53.159  18.860  34.664  1.00  0.00    -0.275 OA
BRANCH   8  13
ATOM     13  C   UNL A   1      53.358  20.866  32.563  1.00  0.00     0.116 C 
ATOM     14  C   UNL A   1      53.935  22.239  32.858  1.00  0.00     0.027 C 
ENDBRANCH   8  13
ENDBRANCH   4   7
ENDBRANCH   2   3
ENDBRANCH   1   2
BRANCH   1  15
ATOM     15  C   UNL A   1      47.165  23.140  35.250  1.00  0.00     0.118 C 
BRANCH  15  16
ATOM     16  N   UNL A   1      47.470  23.963  36.411  1.00  0.00    -0.352 N 
ATOM     17  C   UNL A   1      47.104  25.250  36.712  1.00  0.00     0.251 C 
ATOM     18  H   UNL A   1      48.030  23.525  37.090  1.00  0.00     0.163 HD
ATOM     19  O   UNL A   1      47.639  25.819  37.660  1.00  0.00    -0.269 OA
BRANCH  17  20
ATOM     20  C   UNL A   1      46.089  25.966  35.907  1.00  0.00     0.039 A 
ATOM     21  C   UNL A   1      44.771  25.505  35.931  1.00  0.00     0.014 A 
ATOM     22  C   UNL A   1      46.429  27.049  35.091  1.00  0.00     0.014 A 
ATOM     23  C   UNL A   1      43.793  26.151  35.172  1.00  0.00     0.010 A 
ATOM     24  C   UNL A   1      45.437  27.756  34.418  1.00  0.00     0.010 A 
ATOM     25  C   UNL A   1      44.112  27.300  34.428  1.00  0.00    -0.014 A 
BRANCH  25  26
ATOM     26  C   UNL A   1      43.072  28.000  33.630  1.00  0.00     0.031 A 
ATOM     27  C   UNL A   1      42.906  27.703  32.165  1.00  0.00     0.074 A 
ATOM     28  C   UNL A   1      42.289  28.923  34.222  1.00  0.00     0.049 A 
ATOM     29  N   UNL A   1      42.048  28.200  31.309  1.00  0.00    -0.248 NA
ATOM     30  C   UNL A   1      43.847  26.739  31.572  1.00  0.00     0.031 C 
ATOM     31  C   UNL A   1      42.393  29.348  35.619  1.00  0.00     0.029 A 
ATOM     32  N   UNL A   1      41.250  29.667  33.724  1.00  0.00    -0.354 N 
ATOM     33  C   UNL A   1      42.347  27.613  30.087  1.00  0.00     0.074 A 
ATOM     34  C   UNL A   1      43.515  26.785  30.292  1.00  0.00     0.031 C 
ATOM     35  C   UNL A   1      41.435  30.252  35.875  1.00  0.00     0.029 A 
ATOM     36  C   UNL A   1      40.673  30.496  34.655  1.00  0.00     0.049 A 
ATOM     37  H   UNL A   1      40.948  29.614  32.789  1.00  0.00     0.167 HD
ATOM     38  C   UNL A   1      41.689  27.723  28.907  1.00  0.00     0.037 A 
ATOM     39  C   UNL A   1      39.642  31.355  34.537  1.00  0.00     0.037 A 
ATOM     40  C   UNL A   1      40.524  28.546  28.706  1.00  0.00     0.049 A 
ATOM     41  C   UNL A   1      38.924  31.460  33.219  1.00  0.00     0.074 A 
ATOM     42  C   UNL A   1      39.763  28.706  27.562  1.00  0.00     0.029 A 
ATOM     43  N   UNL A   1      39.954  29.355  29.680  1.00  0.00    -0.354 N 
ATOM     44  N   UNL A   1      39.172  30.845  32.087  1.00  0.00    -0.248 NA
ATOM     45  C   UNL A   1      37.766  32.362  33.170  1.00  0.00     0.031 C 
ATOM     46  C   UNL A   1      38.765  29.650  27.827  1.00  0.00     0.029 A 
ATOM     47  C   UNL A   1      38.860  30.028  29.157  1.00  0.00     0.049 A 
ATOM     48  H   UNL A   1      40.278  29.439  30.605  1.00  0.00     0.167 HD
ATOM     49  C   UNL A   1      38.187  31.261  31.202  1.00  0.00     0.074 A 
ATOM     50  C   UNL A   1      37.325  32.165  31.937  1.00  0.00     0.031 C 
ATOM     51  C   UNL A   1      38.011  30.926  29.899  1.00  0.00     0.037 A 
BRANCH  38  52
ATOM     52  C   UNL A   1      42.219  26.928  27.745  1.00  0.00     0.064 A 
ATOM     53  C   UNL A   1      41.787  25.614  27.493  1.00  0.00     0.173 A 
ATOM     54  C   UNL A   1      43.162  27.483  26.867  1.00  0.00     0.173 A 
ATOM     55  F   UNL A   1      40.896  25.028  28.306  1.00  0.00    -0.203 F 
ATOM     56  C   UNL A   1      42.311  24.876  26.434  1.00  0.00     0.198 A 
ATOM     57  C   UNL A   1      43.654  26.754  25.786  1.00  0.00     0.198 A 
ATOM     58  F   UNL A   1      43.607  28.734  27.054  1.00  0.00    -0.203 F 
ATOM     59  F   UNL A   1      41.932  23.602  26.257  1.00  0.00    -0.200 F 
ATOM     60  C   UNL A   1      43.239  25.449  25.579  1.00  0.00     0.200 A 
ATOM     61  F   UNL A   1      44.541  27.314  24.951  1.00  0.00    -0.200 F 
ATOM     62  F   UNL A   1      43.740  24.737  24.559  1.00  0.00    -0.200 F 
ENDBRANCH  38  52
BRANCH  39  63
ATOM     63  C   UNL A   1      39.210  32.155  35.713  1.00  0.00     0.064 A 
ATOM     64  C   UNL A   1      39.693  33.453  35.926  1.00  0.00     0.173 A 
ATOM     65  C   UNL A   1      38.298  31.639  36.646  1.00  0.00     0.173 A 
ATOM     66  F   UNL A   1      40.579  33.986  35.071  1.00  0.00    -0.203 F 
ATOM     67  C   UNL A   1      39.302  34.195  37.038  1.00  0.00     0.198 A 
ATOM     68  C   UNL A   1      37.882  32.394  37.740  1.00  0.00     0.198 A 
ATOM     69  F   UNL A   1      37.799  30.405  36.484  1.00  0.00    -0.203 F 
ATOM     70  F   UNL A   1      39.817  35.415  37.243  1.00  0.00    -0.200 F 
ATOM     71  C   UNL A   1      38.390  33.668  37.940  1.00  0.00     0.200 A 
ATOM     72  F   UNL A   1      36.987  31.886  38.599  1.00  0.00    -0.200 F 
ATOM     73  F   UNL A   1      38.008  34.385  39.006  1.00  0.00    -0.200 F 
ENDBRANCH  39  63
BRANCH  51  74
ATOM     74  C   UNL A   1      36.811  31.504  29.199  1.00  0.00     0.064 A 
ATOM     75  C   UNL A   1      36.742  32.858  28.839  1.00  0.00     0.173 A 
ATOM     76  C   UNL A   1      35.717  30.685  28.880  1.00  0.00     0.173 A 
ATOM     77  F   UNL A   1      37.755  33.689  29.130  1.00  0.00    -0.203 F 
ATOM     78  C   UNL A   1      35.603  33.380  28.231  1.00  0.00     0.198 A 
ATOM     79  C   UNL A   1      34.596  31.202  28.236  1.00  0.00     0.198 A 
ATOM     80  F   UNL A   1      35.735  29.380  29.190  1.00  0.00    -0.203 F 
ATOM     81  F   UNL A   1      35.530  34.691  27.964  1.00  0.00    -0.200 F 
ATOM     82  C   UNL A   1      34.534  32.551  27.926  1.00  0.00     0.200 A 
ATOM     83  F   UNL A   1      33.572  30.395  27.927  1.00  0.00    -0.200 F 
ATOM     84  F   UNL A   1      33.438  33.057  27.343  1.00  0.00    -0.200 F 
ENDBRANCH  51  74
ENDBRANCH  25  26
ENDBRANCH  17  20
ENDBRANCH  15  16
ENDBRANCH   1  15
TORSDOF 11
ENDMDL
MODEL 2
REMARK VINA RESULT:     -11.2      0.158      2.063
REMARK SMILES CCN1C[C@@H](C(=O)NCCCNC(=O)c2ccc(-c3c4nc(c(-c5c(F)c(F)c(F)c(F)c5F)c5ccc([nH]5)c(-c5c(F)c(F)c(F)c(F)c5F)c5nc(c(-c6c(F)c(F)c(F)c(F)c6F)c6ccc3[nH]6)C=C5)C=C4)cc2)CC1=O
REMARK SMILES IDX 10 1 9 2 8 3 6 4 7 5 5 7 3 8 4 9 79 10 78 11 80 12 2 13 1 14
REMARK SMILES IDX 11 15 12 16 13 17 14 19 15 20 16 21 77 22 17 23 76 24 18 25
REMARK SMILES IDX 19 26 20 27 70 28 21 29 75 30 69 31 71 32 22 33 74 34 68 35
REMARK SMILES IDX 67 36 23 38 55 39 35 40 54 41 36 42 39 43 53 44 72 45 37 46
REMARK SMILES IDX 38 47 52 49 73 50 40 51 24 52 25 53 33 54 26 55 27 56 31 57
REMARK SMILES IDX 34 58 28 59 29 60 32 61 30 62 56 63 57 64 65 65 58 66 59 67
REMARK SMILES IDX 63 68 66 69 60 70 61 71 64 72 62 73 41 74 42 75 50 76 43 77
REMARK SMILES IDX 44 78 48 79 51 80 45 81 46 82 49 83 47 84
REMARK H PARENT 8 6 12 18 71 37 39 48
REMARK Flexibility Score: inf
ROOT
ATOM      1  C   UNL A   1      46.305  22.041  35.373  1.00  0.00     0.042 C 
ENDROOT
BRANCH   1   2
ATOM      2  C   UNL A   1      46.979  20.684  35.519  1.00  0.00     0.117 C 
BRANCH   2   3
ATOM      3  N   UNL A   1      47.367  20.124  34.234  1.00  0.00    -0.356 N 
ATOM      4  C   UNL A   1      48.573  20.017  33.623  1.00  0.00     0.225 C 
ATOM      5  O   UNL A   1      48.592  19.501  32.502  1.00  0.00    -0.275 OA
ATOM      6  H   UNL A   1      46.617  19.755  33.713  1.00  0.00     0.163 HD
BRANCH   4   7
ATOM      7  C   UNL A   1      49.862  20.482  34.262  1.00  0.00     0.107 C 
ATOM      8  N   UNL A   1      52.140  20.510  33.700  1.00  0.00    -0.342 N 
ATOM      9  C   UNL A   1      50.863  21.000  33.245  1.00  0.00     0.133 C 
ATOM     10  C   UNL A   1      52.030  19.569  34.708  1.00  0.00     0.223 C 
ATOM     11  C   UNL A   1      50.583  19.424  35.088  1.00  0.00     0.115 C 
ATOM     12  O   UNL A   1      52.942  18.918  35.197  1.00  0.00    -0.275 OA
BRANCH   8  13
ATOM     13  C   UNL A   1      53.387  20.772  32.997  1.00  0.00     0.116 C 
ATOM     14  C   UNL A   1      53.937  22.169  33.226  1.00  0.00     0.027 C 
ENDBRANCH   8  13
ENDBRANCH   4   7
ENDBRANCH   2   3
ENDBRANCH   1   2
BRANCH   1  15
ATOM     15  C   UNL A   1      47.271  23.201  35.179  1.00  0.00     0.118 C 
BRANCH  15  16
ATOM     16  N   UNL A   1      47.491  23.961  36.400  1.00  0.00    -0.352 N 
ATOM     17  C   UNL A   1      47.054  25.210  36.763  1.00  0.00     0.251 C 
ATOM     18  H   UNL A   1      48.044  23.507  37.074  1.00  0.00     0.163 HD
ATOM     19  O   UNL A   1      47.523  25.741  37.766  1.00  0.00    -0.269 OA
BRANCH  17  20
ATOM     20  C   UNL A   1      46.039  25.930  35.961  1.00  0.00     0.039 A 
ATOM     21  C   UNL A   1      44.724  25.457  35.968  1.00  0.00     0.014 A 
ATOM     22  C   UNL A   1      46.376  27.027  35.164  1.00  0.00     0.014 A 
ATOM     23  C   UNL A   1      43.747  26.106  35.211  1.00  0.00     0.010 A 
ATOM     24  C   UNL A   1      45.383  27.735  34.494  1.00  0.00     0.010 A 
ATOM     25  C   UNL A   1      44.062  27.269  34.487  1.00  0.00    -0.014 A 
BRANCH  25  26
ATOM     26  C   UNL A   1      43.022  27.972  33.692  1.00  0.00     0.031 A 
ATOM     27  C   UNL A   1      42.857  27.681  32.225  1.00  0.00     0.074 A 
ATOM     28  C   UNL A   1      42.240  28.893  34.287  1.00  0.00     0.049 A 
ATOM     29  N   UNL A   1      41.999  28.182  31.371  1.00  0.00    -0.248 NA
ATOM     30  C   UNL A   1      43.798  26.719  31.629  1.00  0.00     0.031 C 
ATOM     31  C   UNL A   1      42.344  29.313  35.686  1.00  0.00     0.029 A 
ATOM     32  N   UNL A   1      41.201  29.640  33.792  1.00  0.00    -0.354 N 
ATOM     33  C   UNL A   1      42.299  27.599  30.147  1.00  0.00     0.074 A 
ATOM     34  C   UNL A   1      43.466  26.770  30.349  1.00  0.00     0.031 C 
ATOM     35  C   UNL A   1      41.386  30.217  35.944  1.00  0.00     0.029 A 
ATOM     36  C   UNL A   1      40.624  30.465  34.725  1.00  0.00     0.049 A 
ATOM     37  H   UNL A   1      40.899  29.590  32.856  1.00  0.00     0.167 HD
ATOM     38  C   UNL A   1      41.641  27.713  28.967  1.00  0.00     0.037 A 
ATOM     39  C   UNL A   1      39.593  31.325  34.611  1.00  0.00     0.037 A 
ATOM     40  C   UNL A   1      40.476  28.537  28.769  1.00  0.00     0.049 A 
ATOM     41  C   UNL A   1      38.876  31.435  33.293  1.00  0.00     0.074 A 
ATOM     42  C   UNL A   1      39.715  28.702  27.625  1.00  0.00     0.029 A 
ATOM     43  N   UNL A   1      39.906  29.343  29.746  1.00  0.00    -0.354 N 
ATOM     44  N   UNL A   1      39.124  30.824  32.159  1.00  0.00    -0.248 NA
ATOM     45  C   UNL A   1      37.718  32.338  33.247  1.00  0.00     0.031 C 
ATOM     46  C   UNL A   1      38.717  29.645  27.894  1.00  0.00     0.029 A 
ATOM     47  C   UNL A   1      38.812  30.018  29.226  1.00  0.00     0.049 A 
ATOM     48  H   UNL A   1      40.230  29.424  30.672  1.00  0.00     0.167 HD
ATOM     49  C   UNL A   1      38.139  31.244  31.275  1.00  0.00     0.074 A 
ATOM     50  C   UNL A   1      37.278  32.146  32.013  1.00  0.00     0.031 C 
ATOM     51  C   UNL A   1      37.963  30.914  29.971  1.00  0.00     0.037 A 
BRANCH  38  52
ATOM     52  C   UNL A   1      42.171  26.922  27.803  1.00  0.00     0.064 A 
ATOM     53  C   UNL A   1      43.145  27.448  26.937  1.00  0.00     0.173 A 
ATOM     54  C   UNL A   1      41.710  25.621  27.551  1.00  0.00     0.173 A 
ATOM     55  F   UNL A   1      43.613  28.691  27.122  1.00  0.00    -0.203 F 
ATOM     56  C   UNL A   1      43.603  26.719  25.842  1.00  0.00     0.198 A 
ATOM     57  C   UNL A   1      42.199  24.881  26.477  1.00  0.00     0.198 A 
ATOM     58  F   UNL A   1      40.785  25.065  28.347  1.00  0.00    -0.203 F 
ATOM     59  F   UNL A   1      44.482  27.270  24.993  1.00  0.00    -0.200 F 
ATOM     60  C   UNL A   1      43.134  25.434  25.617  1.00  0.00     0.200 A 
ATOM     61  F   UNL A   1      41.756  23.633  26.269  1.00  0.00    -0.200 F 
ATOM     62  F   UNL A   1      43.578  24.733  24.564  1.00  0.00    -0.200 F 
ENDBRANCH  38  52
BRANCH  39  63
ATOM     63  C   UNL A   1      39.162  32.121  35.790  1.00  0.00     0.064 A 
ATOM     64  C   UNL A   1      38.280  31.591  36.741  1.00  0.00     0.173 A 
ATOM     65  C   UNL A   1      39.631  33.427  35.993  1.00  0.00     0.173 A 
ATOM     66  F   UNL A   1      37.790  30.352  36.583  1.00  0.00    -0.203 F 
ATOM     67  C   UNL A   1      37.862  32.344  37.836  1.00  0.00     0.198 A 
ATOM     68  C   UNL A   1      39.239  34.168  37.105  1.00  0.00     0.198 A 
ATOM     69  F   UNL A   1      40.484  33.978  35.117  1.00  0.00    -0.203 F 
ATOM     70  F   UNL A   1      36.979  31.831  38.703  1.00  0.00    -0.200 F 
ATOM     71  C   UNL A   1      38.348  33.630  38.021  1.00  0.00     0.200 A 
ATOM     72  F   UNL A   1      39.725  35.403  37.290  1.00  0.00    -0.200 F 
ATOM     73  F   UNL A   1      37.952  34.352  39.079  1.00  0.00    -0.200 F 
ENDBRANCH  39  63
BRANCH  51  74
ATOM     74  C   UNL A   1      36.764  31.495  29.273  1.00  0.00     0.064 A 
ATOM     75  C   UNL A   1      35.644  30.717  28.945  1.00  0.00     0.173 A 
ATOM     76  C   UNL A   1      36.737  32.856  28.933  1.00  0.00     0.173 A 
ATOM     77  F   UNL A   1      35.621  29.407  29.238  1.00  0.00    -0.203 F 
ATOM     78  C   UNL A   1      34.564  31.268  28.261  1.00  0.00     0.198 A 
ATOM     79  C   UNL A   1      35.639  33.414  28.283  1.00  0.00     0.198 A 
ATOM     80  F   UNL A   1      37.776  33.651  29.232  1.00  0.00    -0.203 F 
ATOM     81  F   UNL A   1      33.538  30.489  27.893  1.00  0.00    -0.200 F 
ATOM     82  C   UNL A   1      34.561  32.616  27.934  1.00  0.00     0.200 A 
ATOM     83  F   UNL A   1      35.630  34.720  27.985  1.00  0.00    -0.200 F 
ATOM     84  F   UNL A   1      33.521  33.144  27.272  1.00  0.00    -0.200 F 
ENDBRANCH  51  74
ENDBRANCH  25  26
ENDBRANCH  17  20
ENDBRANCH  15  16
ENDBRANCH   1  15
TORSDOF 11
ENDMDL
MODEL 3
REMARK VINA RESULT:     -11.1      5.637     14.290
REMARK SMILES CCN1C[C@@H](C(=O)NCCCNC(=O)c2ccc(-c3c4nc(c(-c5c(F)c(F)c(F)c(F)c5F)c5ccc([nH]5)c(-c5c(F)c(F)c(F)c(F)c5F)c5nc(c(-c6c(F)c(F)c(F)c(F)c6F)c6ccc3[nH]6)C=C5)C=C4)cc2)CC1=O
REMARK SMILES IDX 10 1 9 2 8 3 6 4 7 5 5 7 3 8 4 9 79 10 78 11 80 12 2 13 1 14
REMARK SMILES IDX 11 15 12 16 13 17 14 19 15 20 16 21 77 22 17 23 76 24 18 25
REMARK SMILES IDX 19 26 20 27 70 28 21 29 75 30 69 31 71 32 22 33 74 34 68 35
REMARK SMILES IDX 67 36 23 38 55 39 35 40 54 41 36 42 39 43 53 44 72 45 37 46
REMARK SMILES IDX 38 47 52 49 73 50 40 51 24 52 25 53 33 54 26 55 27 56 31 57
REMARK SMILES IDX 34 58 28 59 29 60 32 61 30 62 56 63 57 64 65 65 58 66 59 67
REMARK SMILES IDX 63 68 66 69 60 70 61 71 64 72 62 73 41 74 42 75 50 76 43 77
REMARK SMILES IDX 44 78 48 79 51 80 45 81 46 82 49 83 47 84
REMARK H PARENT 8 6 12 18 71 37 39 48
REMARK Flexibility Score: inf
ROOT
ATOM      1  C   UNL A   1      31.248  32.066  26.409  1.00  0.00     0.042 C 
ENDROOT
BRANCH   1   2
ATOM      2  C   UNL A   1      31.334  30.685  25.775  1.00  0.00     0.117 C 
BRANCH   2   3
ATOM      3  N   UNL A   1      32.628  30.060  25.995  1.00  0.00    -0.356 N 
ATOM      4  C   UNL A   1      33.227  28.992  25.412  1.00  0.00     0.225 C 
ATOM      5  O   UNL A   1      34.345  28.676  25.829  1.00  0.00    -0.275 OA
ATOM      6  H   UNL A   1      33.169  30.492  26.696  1.00  0.00     0.163 HD
BRANCH   4   7
ATOM      7  C   UNL A   1      32.591  28.207  24.286  1.00  0.00     0.107 C 
ATOM      8  N   UNL A   1      32.433  25.956  23.644  1.00  0.00    -0.342 N 
ATOM      9  C   UNL A   1      32.102  26.841  24.732  1.00  0.00     0.133 C 
ATOM     10  C   UNL A   1      33.268  26.539  22.708  1.00  0.00     0.223 C 
ATOM     11  C   UNL A   1      33.492  27.979  23.079  1.00  0.00     0.115 C 
ATOM     12  O   UNL A   1      33.785  25.984  21.749  1.00  0.00    -0.275 OA
BRANCH   8  13
ATOM     13  C   UNL A   1      32.143  24.530  23.664  1.00  0.00     0.116 C 
ATOM     14  C   UNL A   1      30.721  24.189  23.256  1.00  0.00     0.027 C 
ENDBRANCH   8  13
ENDBRANCH   4   7
ENDBRANCH   2   3
ENDBRANCH   1   2
BRANCH   1  15
ATOM     15  C   UNL A   1      32.543  32.538  27.055  1.00  0.00     0.118 C 
BRANCH  15  16
ATOM     16  N   UNL A   1      32.460  33.903  27.551  1.00  0.00    -0.352 N 
ATOM     17  C   UNL A   1      33.174  34.539  28.534  1.00  0.00     0.251 C 
ATOM     18  H   UNL A   1      31.782  34.462  27.109  1.00  0.00     0.163 HD
ATOM     19  O   UNL A   1      32.804  35.643  28.925  1.00  0.00    -0.269 OA
BRANCH  17  20
ATOM     20  C   UNL A   1      34.372  33.912  29.139  1.00  0.00     0.039 A 
ATOM     21  C   UNL A   1      34.190  32.882  30.065  1.00  0.00     0.014 A 
ATOM     22  C   UNL A   1      35.662  34.360  28.845  1.00  0.00     0.014 A 
ATOM     23  C   UNL A   1      35.299  32.280  30.662  1.00  0.00     0.010 A 
ATOM     24  C   UNL A   1      36.769  33.691  29.360  1.00  0.00     0.010 A 
ATOM     25  C   UNL A   1      36.601  32.661  30.296  1.00  0.00    -0.014 A 
BRANCH  25  26
ATOM     26  C   UNL A   1      37.785  32.013  30.917  1.00  0.00     0.031 A 
ATOM     27  C   UNL A   1      38.224  32.396  32.304  1.00  0.00     0.074 A 
ATOM     28  C   UNL A   1      38.481  31.092  30.222  1.00  0.00     0.049 A 
ATOM     29  N   UNL A   1      39.221  31.932  33.017  1.00  0.00    -0.248 NA
ATOM     30  C   UNL A   1      37.461  33.463  32.971  1.00  0.00     0.031 C 
ATOM     31  C   UNL A   1      38.196  30.680  28.846  1.00  0.00     0.029 A 
ATOM     32  N   UNL A   1      39.567  30.334  30.578  1.00  0.00    -0.354 N 
ATOM     33  C   UNL A   1      39.202  32.649  34.206  1.00  0.00     0.074 A 
ATOM     34  C   UNL A   1      38.148  33.632  34.089  1.00  0.00     0.031 C 
ATOM     35  C   UNL A   1      39.064  29.722  28.487  1.00  0.00     0.029 A 
ATOM     36  C   UNL A   1      39.986  29.476  29.591  1.00  0.00     0.049 A 
ATOM     37  H   UNL A   1      40.006  30.401  31.457  1.00  0.00     0.167 HD
ATOM     38  C   UNL A   1      39.966  32.480  35.313  1.00  0.00     0.037 A 
ATOM     39  C   UNL A   1      40.998  28.587  29.580  1.00  0.00     0.037 A 
ATOM     40  C   UNL A   1      41.013  31.497  35.428  1.00  0.00     0.049 A 
ATOM     41  C   UNL A   1      41.833  28.415  30.819  1.00  0.00     0.074 A 
ATOM     42  C   UNL A   1      41.827  31.222  36.512  1.00  0.00     0.029 A 
ATOM     43  N   UNL A   1      41.393  30.628  34.414  1.00  0.00    -0.354 N 
ATOM     44  N   UNL A   1      41.760  29.049  31.965  1.00  0.00    -0.248 NA
ATOM     45  C   UNL A   1      42.879  27.384  30.770  1.00  0.00     0.031 C 
ATOM     46  C   UNL A   1      42.733  30.223  36.138  1.00  0.00     0.029 A 
ATOM     47  C   UNL A   1      42.440  29.827  34.843  1.00  0.00     0.049 A 
ATOM     48  H   UNL A   1      40.981  30.587  33.521  1.00  0.00     0.167 HD
ATOM     49  C   UNL A   1      42.726  28.476  32.782  1.00  0.00     0.074 A 
ATOM     50  C   UNL A   1      43.357  27.429  32.004  1.00  0.00     0.031 C 
ATOM     51  C   UNL A   1      43.060  28.788  34.059  1.00  0.00     0.037 A 
BRANCH  38  52
ATOM     52  C   UNL A   1      39.691  33.382  36.485  1.00  0.00     0.064 A 
ATOM     53  C   UNL A   1      40.357  34.610  36.642  1.00  0.00     0.173 A 
ATOM     54  C   UNL A   1      38.747  33.024  37.458  1.00  0.00     0.173 A 
ATOM     55  F   UNL A   1      41.279  34.998  35.749  1.00  0.00    -0.203 F 
ATOM     56  C   UNL A   1      40.119  35.420  37.750  1.00  0.00     0.198 A 
ATOM     57  C   UNL A   1      38.483  33.856  38.544  1.00  0.00     0.198 A 
ATOM     58  F   UNL A   1      38.076  31.867  37.357  1.00  0.00    -0.203 F 
ATOM     59  F   UNL A   1      40.817  36.552  37.911  1.00  0.00    -0.200 F 
ATOM     60  C   UNL A   1      39.177  35.045  38.696  1.00  0.00     0.200 A 
ATOM     61  F   UNL A   1      37.562  33.499  39.451  1.00  0.00    -0.200 F 
ATOM     62  F   UNL A   1      38.948  35.827  39.760  1.00  0.00    -0.200 F 
ENDBRANCH  38  52
BRANCH  39  63
ATOM     63  C   UNL A   1      41.250  27.772  28.363  1.00  0.00     0.064 A 
ATOM     64  C   UNL A   1      40.588  26.554  28.153  1.00  0.00     0.173 A 
ATOM     65  C   UNL A   1      42.155  28.198  27.379  1.00  0.00     0.173 A 
ATOM     66  F   UNL A   1      39.725  26.095  29.072  1.00  0.00    -0.203 F 
ATOM     67  C   UNL A   1      40.838  25.782  27.022  1.00  0.00     0.198 A 
ATOM     68  C   UNL A   1      42.380  27.442  26.232  1.00  0.00     0.198 A 
ATOM     69  F   UNL A   1      42.808  29.360  27.527  1.00  0.00    -0.203 F 
ATOM     70  F   UNL A   1      40.228  24.599  26.870  1.00  0.00    -0.200 F 
ATOM     71  C   UNL A   1      41.729  26.230  26.057  1.00  0.00     0.200 A 
ATOM     72  F   UNL A   1      43.228  27.888  25.294  1.00  0.00    -0.200 F 
ATOM     73  F   UNL A   1      41.964  25.491  24.964  1.00  0.00    -0.200 F 
ENDBRANCH  39  63
BRANCH  51  74
ATOM     74  C   UNL A   1      44.127  27.952  34.711  1.00  0.00     0.064 A 
ATOM     75  C   UNL A   1      43.828  26.766  35.396  1.00  0.00     0.173 A 
ATOM     76  C   UNL A   1      45.473  28.345  34.641  1.00  0.00     0.173 A 
ATOM     77  F   UNL A   1      42.556  26.348  35.503  1.00  0.00    -0.203 F 
ATOM     78  C   UNL A   1      44.828  26.031  36.029  1.00  0.00     0.198 A 
ATOM     79  C   UNL A   1      46.475  27.589  35.242  1.00  0.00     0.198 A 
ATOM     80  F   UNL A   1      45.818  29.466  33.989  1.00  0.00    -0.203 F 
ATOM     81  F   UNL A   1      44.508  24.942  36.741  1.00  0.00    -0.200 F 
ATOM     82  C   UNL A   1      46.150  26.441  35.947  1.00  0.00     0.200 A 
ATOM     83  F   UNL A   1      47.754  27.977  35.146  1.00  0.00    -0.200 F 
ATOM     84  F   UNL A   1      47.111  25.734  36.560  1.00  0.00    -0.200 F 
ENDBRANCH  51  74
ENDBRANCH  25  26
ENDBRANCH  17  20
ENDBRANCH  15  16
ENDBRANCH   1  15
TORSDOF 11
ENDMDL
