MODEL 1
REMARK VINA RESULT:     -12.4      0.000      0.000
REMARK SMILES CC1(C)CCC[C@@](C)(CCC(=O)NCCCNC(=O)c2ccc(-c3c4nc(c(-c5c(F)c(F)c(F)c(F)c5F)c5ccc([nH]5)c(-c5c(F)c(F)c(F)c(F)c5F)c5nc(c(-c6c(F)c(F)c(F)c(F)c6F)c6ccc3[nH]6)C=C5)C=C4)cc2)C1=O
REMARK SMILES IDX 15 1 14 2 13 3 11 4 12 5 10 7 9 8 7 9 1 10 2 11 3 12 4 13
REMARK SMILES IDX 83 14 5 15 84 16 6 17 8 18 16 19 17 20 18 21 19 23 20 24
REMARK SMILES IDX 21 25 82 26 22 27 81 28 23 29 24 30 25 31 75 32 26 33 80 34
REMARK SMILES IDX 74 35 76 36 27 37 79 38 73 39 72 40 28 42 60 43 40 44 59 45
REMARK SMILES IDX 41 46 44 47 58 48 77 49 42 50 43 51 57 53 78 54 45 55 29 56
REMARK SMILES IDX 30 57 38 58 31 59 32 60 36 61 39 62 33 63 34 64 37 65 35 66
REMARK SMILES IDX 61 67 62 68 70 69 63 70 64 71 68 72 71 73 65 74 66 75 69 76
REMARK SMILES IDX 67 77 46 78 47 79 55 80 48 81 49 82 53 83 56 84 50 85 51 86
REMARK SMILES IDX 54 87 52 88
REMARK H PARENT 13 6 17 22 76 41 44 52
REMARK Flexibility Score: inf
ROOT
ATOM      1  C   UNL A   1      31.425  32.281  26.505  1.00  0.00     0.042 C 
ENDROOT
BRANCH   1   2
ATOM      2  C   UNL A   1      31.449  30.809  26.040  1.00  0.00     0.117 C 
BRANCH   2   3
ATOM      3  N   UNL A   1      30.751  30.496  24.802  1.00  0.00    -0.356 N 
ATOM      4  C   UNL A   1      30.776  29.402  23.989  1.00  0.00     0.220 C 
ATOM      5  O   UNL A   1      29.885  29.309  23.141  1.00  0.00    -0.275 OA
ATOM      6  H   UNL A   1      30.147  31.209  24.493  1.00  0.00     0.163 HD
BRANCH   4   7
ATOM      7  C   UNL A   1      31.878  28.359  24.072  1.00  0.00     0.101 C 
BRANCH   7   8
ATOM      8  C   UNL A   1      31.362  27.012  24.640  1.00  0.00     0.024 C 
BRANCH   8   9
ATOM      9  C   UNL A   1      31.970  26.576  26.009  1.00  0.00     0.027 C 
ATOM     10  C   UNL A   1      31.890  23.286  24.697  1.00  0.00     0.019 C 
ATOM     11  C   UNL A   1      32.503  23.942  25.943  1.00  0.00     0.024 C 
ATOM     12  C   UNL A   1      32.512  22.916  27.094  1.00  0.00     0.019 C 
ATOM     13  C   UNL A   1      33.976  24.310  25.674  1.00  0.00     0.014 C 
ATOM     14  C   UNL A   1      31.578  25.121  26.349  1.00  0.00     0.144 C 
ATOM     15  C   UNL A   1      34.155  25.692  25.097  1.00  0.00     0.002 C 
ATOM     16  O   UNL A   1      30.483  24.889  26.876  1.00  0.00    -0.298 OA
ATOM     17  C   UNL A   1      33.492  26.682  26.039  1.00  0.00     0.014 C 
ATOM     18  C   UNL A   1      31.401  27.496  27.115  1.00  0.00     0.020 C 
ENDBRANCH   8   9
ENDBRANCH   7   8
ENDBRANCH   4   7
ENDBRANCH   2   3
ENDBRANCH   1   2
BRANCH   1  19
ATOM     19  C   UNL A   1      32.615  32.777  27.342  1.00  0.00     0.118 C 
BRANCH  19  20
ATOM     20  N   UNL A   1      32.512  34.201  27.615  1.00  0.00    -0.352 N 
ATOM     21  C   UNL A   1      33.013  34.984  28.616  1.00  0.00     0.251 C 
ATOM     22  H   UNL A   1      31.978  34.696  26.952  1.00  0.00     0.163 HD
ATOM     23  O   UNL A   1      32.528  36.118  28.750  1.00  0.00    -0.269 OA
BRANCH  21  24
ATOM     24  C   UNL A   1      34.112  34.584  29.534  1.00  0.00     0.039 A 
ATOM     25  C   UNL A   1      35.397  34.463  28.983  1.00  0.00     0.014 A 
ATOM     26  C   UNL A   1      33.895  34.124  30.837  1.00  0.00     0.014 A 
ATOM     27  C   UNL A   1      36.439  33.868  29.704  1.00  0.00     0.010 A 
ATOM     28  C   UNL A   1      34.952  33.551  31.573  1.00  0.00     0.010 A 
ATOM     29  C   UNL A   1      36.227  33.385  31.003  1.00  0.00    -0.014 A 
BRANCH  29  30
ATOM     30  C   UNL A   1      37.320  32.648  31.707  1.00  0.00     0.031 A 
ATOM     31  C   UNL A   1      38.045  31.510  31.031  1.00  0.00     0.074 A 
ATOM     32  C   UNL A   1      37.710  33.019  32.943  1.00  0.00     0.049 A 
ATOM     33  N   UNL A   1      39.046  30.784  31.471  1.00  0.00    -0.248 NA
ATOM     34  C   UNL A   1      37.582  31.137  29.688  1.00  0.00     0.031 C 
ATOM     35  C   UNL A   1      37.114  34.099  33.726  1.00  0.00     0.029 A 
ATOM     36  N   UNL A   1      38.710  32.531  33.752  1.00  0.00    -0.354 N 
ATOM     37  C   UNL A   1      39.325  29.865  30.466  1.00  0.00     0.074 A 
ATOM     38  C   UNL A   1      38.368  30.107  29.405  1.00  0.00     0.031 C 
ATOM     39  C   UNL A   1      37.766  34.203  34.897  1.00  0.00     0.029 A 
ATOM     40  C   UNL A   1      38.816  33.186  34.956  1.00  0.00     0.049 A 
ATOM     41  H   UNL A   1      39.296  31.784  33.494  1.00  0.00     0.167 HD
ATOM     42  C   UNL A   1      40.295  28.920  30.418  1.00  0.00     0.037 A 
ATOM     43  C   UNL A   1      39.659  32.996  35.990  1.00  0.00     0.037 A 
ATOM     44  C   UNL A   1      41.276  28.683  31.447  1.00  0.00     0.049 A 
ATOM     45  C   UNL A   1      40.723  31.934  35.916  1.00  0.00     0.074 A 
ATOM     46  C   UNL A   1      42.318  27.770  31.452  1.00  0.00     0.029 A 
ATOM     47  N   UNL A   1      41.340  29.365  32.650  1.00  0.00    -0.354 N 
ATOM     48  N   UNL A   1      40.998  31.105  34.941  1.00  0.00    -0.248 NA
ATOM     49  C   UNL A   1      41.600  31.788  37.089  1.00  0.00     0.031 C 
ATOM     50  C   UNL A   1      42.994  27.877  32.673  1.00  0.00     0.029 A 
ATOM     51  C   UNL A   1      42.393  28.881  33.413  1.00  0.00     0.049 A 
ATOM     52  H   UNL A   1      40.729  30.086  32.925  1.00  0.00     0.167 HD
ATOM     53  C   UNL A   1      42.090  30.361  35.368  1.00  0.00     0.074 A 
ATOM     54  C   UNL A   1      42.437  30.842  36.689  1.00  0.00     0.031 C 
ATOM     55  C   UNL A   1      42.745  29.368  34.720  1.00  0.00     0.037 A 
BRANCH  42  56
ATOM     56  C   UNL A   1      40.353  28.047  29.198  1.00  0.00     0.064 A 
ATOM     57  C   UNL A   1      39.624  26.852  29.118  1.00  0.00     0.173 A 
ATOM     58  C   UNL A   1      41.096  28.444  28.076  1.00  0.00     0.173 A 
ATOM     59  F   UNL A   1      38.903  26.430  30.167  1.00  0.00    -0.203 F 
ATOM     60  C   UNL A   1      39.654  26.074  27.964  1.00  0.00     0.198 A 
ATOM     61  C   UNL A   1      41.106  27.674  26.916  1.00  0.00     0.198 A 
ATOM     62  F   UNL A   1      41.801  29.585  28.100  1.00  0.00    -0.203 F 
ATOM     63  F   UNL A   1      38.976  24.918  27.919  1.00  0.00    -0.200 F 
ATOM     64  C   UNL A   1      40.389  26.487  26.862  1.00  0.00     0.200 A 
ATOM     65  F   UNL A   1      41.806  28.081  25.848  1.00  0.00    -0.200 F 
ATOM     66  F   UNL A   1      40.410  25.741  25.750  1.00  0.00    -0.200 F 
ENDBRANCH  42  56
BRANCH  43  67
ATOM     67  C   UNL A   1      39.547  33.853  37.198  1.00  0.00     0.064 A 
ATOM     68  C   UNL A   1      38.753  33.465  38.284  1.00  0.00     0.173 A 
ATOM     69  C   UNL A   1      40.217  35.081  37.278  1.00  0.00     0.173 A 
ATOM     70  F   UNL A   1      38.071  32.310  38.237  1.00  0.00    -0.203 F 
ATOM     71  C   UNL A   1      38.622  34.281  39.405  1.00  0.00     0.198 A 
ATOM     72  C   UNL A   1      40.103  35.887  38.409  1.00  0.00     0.198 A 
ATOM     73  F   UNL A   1      40.984  35.497  36.260  1.00  0.00    -0.203 F 
ATOM     74  F   UNL A   1      37.825  33.907  40.415  1.00  0.00    -0.200 F 
ATOM     75  C   UNL A   1      39.301  35.489  39.470  1.00  0.00     0.200 A 
ATOM     76  F   UNL A   1      40.766  37.050  38.470  1.00  0.00    -0.200 F 
ATOM     77  F   UNL A   1      39.176  36.274  40.548  1.00  0.00    -0.200 F 
ENDBRANCH  43  67
BRANCH  55  78
ATOM     78  C   UNL A   1      43.926  28.750  35.410  1.00  0.00     0.064 A 
ATOM     79  C   UNL A   1      45.212  29.299  35.298  1.00  0.00     0.173 A 
ATOM     80  C   UNL A   1      43.763  27.617  36.221  1.00  0.00     0.173 A 
ATOM     81  F   UNL A   1      45.420  30.374  34.523  1.00  0.00    -0.203 F 
ATOM     82  C   UNL A   1      46.296  28.725  35.958  1.00  0.00     0.198 A 
ATOM     83  C   UNL A   1      44.845  27.058  36.896  1.00  0.00     0.198 A 
ATOM     84  F   UNL A   1      42.554  27.056  36.364  1.00  0.00    -0.203 F 
ATOM     85  F   UNL A   1      47.522  29.244  35.808  1.00  0.00    -0.200 F 
ATOM     86  C   UNL A   1      46.111  27.609  36.761  1.00  0.00     0.200 A 
ATOM     87  F   UNL A   1      44.665  25.983  37.677  1.00  0.00    -0.200 F 
ATOM     88  F   UNL A   1      47.154  27.060  37.397  1.00  0.00    -0.200 F 
ENDBRANCH  55  78
ENDBRANCH  29  30
ENDBRANCH  21  24
ENDBRANCH  19  20
ENDBRANCH   1  19
TORSDOF 12
ENDMDL
MODEL 2
REMARK VINA RESULT:     -12.4      1.825      7.888
REMARK SMILES CC1(C)CCC[C@@](C)(CCC(=O)NCCCNC(=O)c2ccc(-c3c4nc(c(-c5c(F)c(F)c(F)c(F)c5F)c5ccc([nH]5)c(-c5c(F)c(F)c(F)c(F)c5F)c5nc(c(-c6c(F)c(F)c(F)c(F)c6F)c6ccc3[nH]6)C=C5)C=C4)cc2)C1=O
REMARK SMILES IDX 15 1 14 2 13 3 11 4 12 5 10 7 9 8 7 9 1 10 2 11 3 12 4 13
REMARK SMILES IDX 83 14 5 15 84 16 6 17 8 18 16 19 17 20 18 21 19 23 20 24
REMARK SMILES IDX 21 25 82 26 22 27 81 28 23 29 24 30 25 31 75 32 26 33 80 34
REMARK SMILES IDX 74 35 76 36 27 37 79 38 73 39 72 40 28 42 60 43 40 44 59 45
REMARK SMILES IDX 41 46 44 47 58 48 77 49 42 50 43 51 57 53 78 54 45 55 29 56
REMARK SMILES IDX 30 57 38 58 31 59 32 60 36 61 39 62 33 63 34 64 37 65 35 66
REMARK SMILES IDX 61 67 62 68 70 69 63 70 64 71 68 72 71 73 65 74 66 75 69 76
REMARK SMILES IDX 67 77 46 78 47 79 55 80 48 81 49 82 53 83 56 84 50 85 51 86
REMARK SMILES IDX 54 87 52 88
REMARK H PARENT 13 6 17 22 76 41 44 52
REMARK Flexibility Score: inf
ROOT
ATOM      1  C   UNL A   1      31.430  30.220  25.644  1.00  0.00     0.042 C 
ENDROOT
BRANCH   1   2
ATOM      2  C   UNL A   1      31.960  29.345  24.489  1.00  0.00     0.117 C 
BRANCH   2   3
ATOM      3  N   UNL A   1      30.978  28.838  23.540  1.00  0.00    -0.356 N 
ATOM      4  C   UNL A   1      30.077  27.818  23.615  1.00  0.00     0.220 C 
ATOM      5  O   UNL A   1      29.195  27.780  22.752  1.00  0.00    -0.275 OA
ATOM      6  H   UNL A   1      30.963  29.323  22.684  1.00  0.00     0.163 HD
BRANCH   4   7
ATOM      7  C   UNL A   1      30.170  26.733  24.674  1.00  0.00     0.101 C 
BRANCH   7   8
ATOM      8  C   UNL A   1      31.526  25.982  24.620  1.00  0.00     0.024 C 
BRANCH   8   9
ATOM      9  C   UNL A   1      32.282  25.847  25.977  1.00  0.00     0.027 C 
ATOM     10  C   UNL A   1      32.628  22.421  25.144  1.00  0.00     0.019 C 
ATOM     11  C   UNL A   1      33.212  23.337  26.230  1.00  0.00     0.024 C 
ATOM     12  C   UNL A   1      33.455  22.508  27.506  1.00  0.00     0.019 C 
ATOM     13  C   UNL A   1      34.589  23.869  25.785  1.00  0.00     0.014 C 
ATOM     14  C   UNL A   1      32.143  24.419  26.548  1.00  0.00     0.144 C 
ATOM     15  C   UNL A   1      34.514  25.161  25.009  1.00  0.00     0.002 C 
ATOM     16  O   UNL A   1      31.135  24.113  27.195  1.00  0.00    -0.298 OA
ATOM     17  C   UNL A   1      33.768  26.175  25.859  1.00  0.00     0.014 C 
ATOM     18  C   UNL A   1      31.651  26.832  26.991  1.00  0.00     0.020 C 
ENDBRANCH   8   9
ENDBRANCH   7   8
ENDBRANCH   4   7
ENDBRANCH   2   3
ENDBRANCH   1   2
BRANCH   1  19
ATOM     19  C   UNL A   1      32.388  30.508  26.810  1.00  0.00     0.118 C 
BRANCH  19  20
ATOM     20  N   UNL A   1      32.574  31.936  27.002  1.00  0.00    -0.352 N 
ATOM     21  C   UNL A   1      33.549  32.662  27.626  1.00  0.00     0.251 C 
ATOM     22  H   UNL A   1      31.860  32.487  26.606  1.00  0.00     0.163 HD
ATOM     23  O   UNL A   1      33.301  33.850  27.880  1.00  0.00    -0.269 OA
BRANCH  21  24
ATOM     24  C   UNL A   1      34.889  32.136  27.996  1.00  0.00     0.039 A 
ATOM     25  C   UNL A   1      34.963  30.794  28.402  1.00  0.00     0.014 A 
ATOM     26  C   UNL A   1      36.014  32.950  28.164  1.00  0.00     0.014 A 
ATOM     27  C   UNL A   1      36.124  30.280  28.991  1.00  0.00     0.010 A 
ATOM     28  C   UNL A   1      37.193  32.424  28.731  1.00  0.00     0.010 A 
ATOM     29  C   UNL A   1      37.250  31.093  29.183  1.00  0.00    -0.014 A 
BRANCH  29  30
ATOM     30  C   UNL A   1      38.434  30.557  29.920  1.00  0.00     0.031 A 
ATOM     31  C   UNL A   1      38.683  30.934  31.360  1.00  0.00     0.074 A 
ATOM     32  C   UNL A   1      39.275  29.688  29.325  1.00  0.00     0.049 A 
ATOM     33  N   UNL A   1      39.634  30.534  32.172  1.00  0.00    -0.248 NA
ATOM     34  C   UNL A   1      37.745  31.888  31.966  1.00  0.00     0.031 C 
ATOM     35  C   UNL A   1      39.168  29.223  27.944  1.00  0.00     0.029 A 
ATOM     36  N   UNL A   1      40.383  29.033  29.814  1.00  0.00    -0.354 N 
ATOM     37  C   UNL A   1      39.414  31.192  33.376  1.00  0.00     0.074 A 
ATOM     38  C   UNL A   1      38.256  32.041  33.180  1.00  0.00     0.031 C 
ATOM     39  C   UNL A   1      40.159  28.348  27.698  1.00  0.00     0.029 A 
ATOM     40  C   UNL A   1      40.982  28.203  28.898  1.00  0.00     0.049 A 
ATOM     41  H   UNL A   1      40.714  29.149  30.733  1.00  0.00     0.167 HD
ATOM     42  C   UNL A   1      40.097  31.091  34.542  1.00  0.00     0.037 A 
ATOM     43  C   UNL A   1      42.069  27.413  29.006  1.00  0.00     0.037 A 
ATOM     44  C   UNL A   1      41.231  30.230  34.769  1.00  0.00     0.049 A 
ATOM     45  C   UNL A   1      42.816  27.324  30.310  1.00  0.00     0.074 A 
ATOM     46  C   UNL A   1      41.951  30.041  35.938  1.00  0.00     0.029 A 
ATOM     47  N   UNL A   1      41.808  29.414  33.811  1.00  0.00    -0.354 N 
ATOM     48  N   UNL A   1      42.567  27.920  31.448  1.00  0.00    -0.248 NA
ATOM     49  C   UNL A   1      43.993  26.441  30.343  1.00  0.00     0.031 C 
ATOM     50  C   UNL A   1      42.984  29.134  35.679  1.00  0.00     0.029 A 
ATOM     51  C   UNL A   1      42.886  28.731  34.358  1.00  0.00     0.049 A 
ATOM     52  H   UNL A   1      41.500  29.329  32.880  1.00  0.00     0.167 HD
ATOM     53  C   UNL A   1      43.535  27.468  32.336  1.00  0.00     0.074 A 
ATOM     54  C   UNL A   1      44.372  26.538  31.609  1.00  0.00     0.031 C 
ATOM     55  C   UNL A   1      43.710  27.798  33.638  1.00  0.00     0.037 A 
BRANCH  42  56
ATOM     56  C   UNL A   1      39.639  31.943  35.690  1.00  0.00     0.064 A 
ATOM     57  C   UNL A   1      40.173  33.220  35.912  1.00  0.00     0.173 A 
ATOM     58  C   UNL A   1      38.612  31.501  36.537  1.00  0.00     0.173 A 
ATOM     59  F   UNL A   1      41.160  33.684  35.132  1.00  0.00    -0.203 F 
ATOM     60  C   UNL A   1      39.710  34.016  36.956  1.00  0.00     0.198 A 
ATOM     61  C   UNL A   1      38.136  32.309  37.566  1.00  0.00     0.198 A 
ATOM     62  F   UNL A   1      38.061  30.291  36.358  1.00  0.00    -0.203 F 
ATOM     63  F   UNL A   1      40.256  35.221  37.171  1.00  0.00    -0.200 F 
ATOM     64  C   UNL A   1      38.687  33.564  37.777  1.00  0.00     0.200 A 
ATOM     65  F   UNL A   1      37.139  31.876  38.351  1.00  0.00    -0.200 F 
ATOM     66  F   UNL A   1      38.237  34.334  38.776  1.00  0.00    -0.200 F 
ENDBRANCH  42  56
BRANCH  43  67
ATOM     67  C   UNL A   1      42.517  26.614  27.837  1.00  0.00     0.064 A 
ATOM     68  C   UNL A   1      43.450  27.128  26.928  1.00  0.00     0.173 A 
ATOM     69  C   UNL A   1      42.006  25.330  27.599  1.00  0.00     0.173 A 
ATOM     70  F   UNL A   1      43.943  28.364  27.101  1.00  0.00    -0.203 F 
ATOM     71  C   UNL A   1      43.848  26.392  25.814  1.00  0.00     0.198 A 
ATOM     72  C   UNL A   1      42.421  24.587  26.497  1.00  0.00     0.198 A 
ATOM     73  F   UNL A   1      41.106  24.799  28.439  1.00  0.00    -0.203 F 
ATOM     74  F   UNL A   1      44.712  26.921  24.938  1.00  0.00    -0.200 F 
ATOM     75  C   UNL A   1      43.338  25.120  25.602  1.00  0.00     0.200 A 
ATOM     76  F   UNL A   1      41.930  23.355  26.299  1.00  0.00    -0.200 F 
ATOM     77  F   UNL A   1      43.721  24.412  24.532  1.00  0.00    -0.200 F 
ENDBRANCH  43  67
BRANCH  55  78
ATOM     78  C   UNL A   1      44.830  27.128  34.378  1.00  0.00     0.064 A 
ATOM     79  C   UNL A   1      46.095  27.724  34.492  1.00  0.00     0.173 A 
ATOM     80  C   UNL A   1      44.626  25.892  35.012  1.00  0.00     0.173 A 
ATOM     81  F   UNL A   1      46.343  28.897  33.891  1.00  0.00    -0.203 F 
ATOM     82  C   UNL A   1      47.121  27.098  35.196  1.00  0.00     0.198 A 
ATOM     83  C   UNL A   1      45.648  25.280  35.733  1.00  0.00     0.198 A 
ATOM     84  F   UNL A   1      43.434  25.283  34.937  1.00  0.00    -0.203 F 
ATOM     85  F   UNL A   1      48.332  27.668  35.261  1.00  0.00    -0.200 F 
ATOM     86  C   UNL A   1      46.896  25.881  35.821  1.00  0.00     0.200 A 
ATOM     87  F   UNL A   1      45.427  24.106  36.342  1.00  0.00    -0.200 F 
ATOM     88  F   UNL A   1      47.882  25.282  36.501  1.00  0.00    -0.200 F 
ENDBRANCH  55  78
ENDBRANCH  29  30
ENDBRANCH  21  24
ENDBRANCH  19  20
ENDBRANCH   1  19
TORSDOF 12
ENDMDL
MODEL 3
REMARK VINA RESULT:     -12.4      1.897      7.921
REMARK SMILES CC1(C)CCC[C@@](C)(CCC(=O)NCCCNC(=O)c2ccc(-c3c4nc(c(-c5c(F)c(F)c(F)c(F)c5F)c5ccc([nH]5)c(-c5c(F)c(F)c(F)c(F)c5F)c5nc(c(-c6c(F)c(F)c(F)c(F)c6F)c6ccc3[nH]6)C=C5)C=C4)cc2)C1=O
REMARK SMILES IDX 15 1 14 2 13 3 11 4 12 5 10 7 9 8 7 9 1 10 2 11 3 12 4 13
REMARK SMILES IDX 83 14 5 15 84 16 6 17 8 18 16 19 17 20 18 21 19 23 20 24
REMARK SMILES IDX 21 25 82 26 22 27 81 28 23 29 24 30 25 31 75 32 26 33 80 34
REMARK SMILES IDX 74 35 76 36 27 37 79 38 73 39 72 40 28 42 60 43 40 44 59 45
REMARK SMILES IDX 41 46 44 47 58 48 77 49 42 50 43 51 57 53 78 54 45 55 29 56
REMARK SMILES IDX 30 57 38 58 31 59 32 60 36 61 39 62 33 63 34 64 37 65 35 66
REMARK SMILES IDX 61 67 62 68 70 69 63 70 64 71 68 72 71 73 65 74 66 75 69 76
REMARK SMILES IDX 67 77 46 78 47 79 55 80 48 81 49 82 53 83 56 84 50 85 51 86
REMARK SMILES IDX 54 87 52 88
REMARK H PARENT 13 6 17 22 76 41 44 52
REMARK Flexibility Score: inf
ROOT
ATOM      1  C   UNL A   1      31.403  30.710  25.544  1.00  0.00     0.042 C 
ENDROOT
BRANCH   1   2
ATOM      2  C   UNL A   1      31.629  29.356  24.838  1.00  0.00     0.117 C 
BRANCH   2   3
ATOM      3  N   UNL A   1      32.610  29.328  23.762  1.00  0.00    -0.356 N 
ATOM      4  C   UNL A   1      33.505  28.380  23.366  1.00  0.00     0.220 C 
ATOM      5  O   UNL A   1      34.033  28.529  22.261  1.00  0.00    -0.275 OA
ATOM      6  H   UNL A   1      32.630  30.148  23.219  1.00  0.00     0.163 HD
BRANCH   4   7
ATOM      7  C   UNL A   1      33.892  27.211  24.257  1.00  0.00     0.101 C 
BRANCH   7   8
ATOM      8  C   UNL A   1      33.093  25.928  23.913  1.00  0.00     0.024 C 
BRANCH   8   9
ATOM      9  C   UNL A   1      33.040  24.842  25.030  1.00  0.00     0.027 C 
ATOM     10  C   UNL A   1      32.903  22.496  22.379  1.00  0.00     0.019 C 
ATOM     11  C   UNL A   1      33.091  22.403  23.900  1.00  0.00     0.024 C 
ATOM     12  C   UNL A   1      32.477  21.080  24.400  1.00  0.00     0.019 C 
ATOM     13  C   UNL A   1      34.593  22.344  24.243  1.00  0.00     0.014 C 
ATOM     14  C   UNL A   1      32.301  23.578  24.539  1.00  0.00     0.144 C 
ATOM     15  C   UNL A   1      35.218  23.702  24.444  1.00  0.00     0.002 C 
ATOM     16  O   UNL A   1      31.065  23.535  24.579  1.00  0.00    -0.298 OA
ATOM     17  C   UNL A   1      34.426  24.428  25.517  1.00  0.00     0.014 C 
ATOM     18  C   UNL A   1      32.257  25.415  26.236  1.00  0.00     0.020 C 
ENDBRANCH   8   9
ENDBRANCH   7   8
ENDBRANCH   4   7
ENDBRANCH   2   3
ENDBRANCH   1   2
BRANCH   1  19
ATOM     19  C   UNL A   1      32.139  30.946  26.872  1.00  0.00     0.118 C 
BRANCH  19  20
ATOM     20  N   UNL A   1      32.394  32.360  27.091  1.00  0.00    -0.352 N 
ATOM     21  C   UNL A   1      33.405  33.025  27.724  1.00  0.00     0.251 C 
ATOM     22  H   UNL A   1      31.706  32.953  26.710  1.00  0.00     0.163 HD
ATOM     23  O   UNL A   1      33.216  34.219  28.003  1.00  0.00    -0.269 OA
BRANCH  21  24
ATOM     24  C   UNL A   1      34.720  32.428  28.077  1.00  0.00     0.039 A 
ATOM     25  C   UNL A   1      34.718  31.108  28.553  1.00  0.00     0.014 A 
ATOM     26  C   UNL A   1      35.903  33.170  28.163  1.00  0.00     0.014 A 
ATOM     27  C   UNL A   1      35.864  30.546  29.130  1.00  0.00     0.010 A 
ATOM     28  C   UNL A   1      37.064  32.594  28.718  1.00  0.00     0.010 A 
ATOM     29  C   UNL A   1      37.048  31.288  29.239  1.00  0.00    -0.014 A 
BRANCH  29  30
ATOM     30  C   UNL A   1      38.220  30.711  29.964  1.00  0.00     0.031 A 
ATOM     31  C   UNL A   1      38.484  31.061  31.409  1.00  0.00     0.074 A 
ATOM     32  C   UNL A   1      39.036  29.828  29.354  1.00  0.00     0.049 A 
ATOM     33  N   UNL A   1      39.427  30.624  32.211  1.00  0.00    -0.248 NA
ATOM     34  C   UNL A   1      37.573  32.031  32.031  1.00  0.00     0.031 C 
ATOM     35  C   UNL A   1      38.912  29.386  27.967  1.00  0.00     0.029 A 
ATOM     36  N   UNL A   1      40.128  29.138  29.829  1.00  0.00    -0.354 N 
ATOM     37  C   UNL A   1      39.228  31.271  33.425  1.00  0.00     0.074 A 
ATOM     38  C   UNL A   1      38.093  32.153  33.245  1.00  0.00     0.031 C 
ATOM     39  C   UNL A   1      39.879  28.489  27.705  1.00  0.00     0.029 A 
ATOM     40  C   UNL A   1      40.702  28.305  28.899  1.00  0.00     0.049 A 
ATOM     41  H   UNL A   1      40.465  29.232  30.749  1.00  0.00     0.167 HD
ATOM     42  C   UNL A   1      39.913  31.136  34.587  1.00  0.00     0.037 A 
ATOM     43  C   UNL A   1      41.768  27.486  28.992  1.00  0.00     0.037 A 
ATOM     44  C   UNL A   1      41.024  30.243  34.797  1.00  0.00     0.049 A 
ATOM     45  C   UNL A   1      42.517  27.358  30.293  1.00  0.00     0.074 A 
ATOM     46  C   UNL A   1      41.743  30.018  35.961  1.00  0.00     0.029 A 
ATOM     47  N   UNL A   1      41.576  29.425  33.826  1.00  0.00    -0.354 N 
ATOM     48  N   UNL A   1      42.288  27.945  31.440  1.00  0.00    -0.248 NA
ATOM     49  C   UNL A   1      43.670  26.444  30.309  1.00  0.00     0.031 C 
ATOM     50  C   UNL A   1      42.751  29.088  35.686  1.00  0.00     0.029 A 
ATOM     51  C   UNL A   1      42.637  28.707  34.359  1.00  0.00     0.049 A 
ATOM     52  H   UNL A   1      41.263  29.362  32.895  1.00  0.00     0.167 HD
ATOM     53  C   UNL A   1      43.246  27.455  32.318  1.00  0.00     0.074 A 
ATOM     54  C   UNL A   1      44.056  26.514  31.574  1.00  0.00     0.031 C 
ATOM     55  C   UNL A   1      43.434  27.762  33.624  1.00  0.00     0.037 A 
BRANCH  42  56
ATOM     56  C   UNL A   1      39.481  31.983  35.749  1.00  0.00     0.064 A 
ATOM     57  C   UNL A   1      40.016  33.262  35.960  1.00  0.00     0.173 A 
ATOM     58  C   UNL A   1      38.478  31.536  36.620  1.00  0.00     0.173 A 
ATOM     59  F   UNL A   1      40.981  33.731  35.156  1.00  0.00    -0.203 F 
ATOM     60  C   UNL A   1      39.577  34.054  37.017  1.00  0.00     0.198 A 
ATOM     61  C   UNL A   1      38.025  32.339  37.663  1.00  0.00     0.198 A 
ATOM     62  F   UNL A   1      37.926  30.324  36.452  1.00  0.00    -0.203 F 
ATOM     63  F   UNL A   1      40.124  35.260  37.221  1.00  0.00    -0.200 F 
ATOM     64  C   UNL A   1      38.577  33.596  37.863  1.00  0.00     0.200 A 
ATOM     65  F   UNL A   1      37.050  31.901  38.472  1.00  0.00    -0.200 F 
ATOM     66  F   UNL A   1      38.150  34.363  38.875  1.00  0.00    -0.200 F 
ENDBRANCH  42  56
BRANCH  43  67
ATOM     67  C   UNL A   1      42.191  26.691  27.811  1.00  0.00     0.064 A 
ATOM     68  C   UNL A   1      41.628  25.436  27.549  1.00  0.00     0.173 A 
ATOM     69  C   UNL A   1      43.178  27.165  26.936  1.00  0.00     0.173 A 
ATOM     70  F   UNL A   1      40.701  24.931  28.377  1.00  0.00    -0.203 F 
ATOM     71  C   UNL A   1      42.045  24.675  26.459  1.00  0.00     0.198 A 
ATOM     72  C   UNL A   1      43.579  26.414  25.834  1.00  0.00     0.198 A 
ATOM     73  F   UNL A   1      43.749  28.359  27.150  1.00  0.00    -0.203 F 
ATOM     74  F   UNL A   1      41.520  23.461  26.251  1.00  0.00    -0.200 F 
ATOM     75  C   UNL A   1      43.016  25.167  25.599  1.00  0.00     0.200 A 
ATOM     76  F   UNL A   1      44.513  26.894  25.002  1.00  0.00    -0.200 F 
ATOM     77  F   UNL A   1      43.417  24.436  24.550  1.00  0.00    -0.200 F 
ENDBRANCH  43  67
BRANCH  55  78
ATOM     78  C   UNL A   1      44.539  27.052  34.350  1.00  0.00     0.064 A 
ATOM     79  C   UNL A   1      44.331  25.812  34.971  1.00  0.00     0.173 A 
ATOM     80  C   UNL A   1      45.829  27.602  34.396  1.00  0.00     0.173 A 
ATOM     81  F   UNL A   1      43.111  25.252  34.967  1.00  0.00    -0.203 F 
ATOM     82  C   UNL A   1      45.369  25.156  35.627  1.00  0.00     0.198 A 
ATOM     83  C   UNL A   1      46.870  26.934  35.035  1.00  0.00     0.198 A 
ATOM     84  F   UNL A   1      46.081  28.784  33.815  1.00  0.00    -0.203 F 
ATOM     85  F   UNL A   1      45.140  23.989  36.245  1.00  0.00    -0.200 F 
ATOM     86  C   UNL A   1      46.639  25.714  35.654  1.00  0.00     0.200 A 
ATOM     87  F   UNL A   1      48.099  27.471  35.055  1.00  0.00    -0.200 F 
ATOM     88  F   UNL A   1      47.638  25.081  36.283  1.00  0.00    -0.200 F 
ENDBRANCH  55  78
ENDBRANCH  29  30
ENDBRANCH  21  24
ENDBRANCH  19  20
ENDBRANCH   1  19
TORSDOF 12
ENDMDL
