MODEL 1
REMARK VINA RESULT:     -12.1      0.000      0.000
REMARK SMILES Cc1cc(Br)c(C)c([C@@H]2[NH2+][C@H](C(=O)NCCCNC(=O)c3ccc(-c4c5nc(c(-c6c(F)c(F)c(F)c(F)c6F)c6ccc([nH]6)c(-c6c(F)c(F)c(F)c(F)c6F)c6nc(c(-c7c(F)c(F)c(F)c(F)c7F)c7ccc4[nH]7)C=C6)C=C5)cc3)CS2)c1O
REMARK SMILES IDX 16 1 15 2 14 3 12 4 13 5 11 7 9 8 10 9 85 10 84 13 8 14 1 15
REMARK SMILES IDX 2 16 3 17 86 18 4 19 5 20 6 21 7 22 87 23 17 25 18 26 19 27
REMARK SMILES IDX 20 29 21 30 22 31 83 32 23 33 82 34 24 35 25 36 26 37 76 38
REMARK SMILES IDX 27 39 81 40 75 41 77 42 28 43 80 44 74 45 73 46 29 48 61 49
REMARK SMILES IDX 41 50 60 51 42 52 45 53 59 54 78 55 43 56 44 57 58 59 79 60
REMARK SMILES IDX 46 61 30 62 31 63 39 64 32 65 33 66 37 67 40 68 34 69 35 70
REMARK SMILES IDX 38 71 36 72 62 73 63 74 71 75 64 76 65 77 69 78 72 79 66 80
REMARK SMILES IDX 67 81 70 82 68 83 47 84 48 85 56 86 49 87 50 88 54 89 57 90
REMARK SMILES IDX 51 91 52 92 55 93 53 94
REMARK H PARENT 14 6 10 11 10 12 87 24 18 28 77 47 45 58
REMARK Flexibility Score: inf
ROOT
ATOM      1  C   UNL A   1      37.679  19.965  25.029  1.00  0.00     0.042 C 
ENDROOT
BRANCH   1   2
ATOM      2  C   UNL A   1      36.525  20.943  25.202  1.00  0.00     0.118 C 
BRANCH   2   3
ATOM      3  N   UNL A   1      36.371  21.842  24.078  1.00  0.00    -0.351 N 
ATOM      4  C   UNL A   1      35.482  22.869  23.923  1.00  0.00     0.279 C 
ATOM      5  O   UNL A   1      35.594  23.555  22.901  1.00  0.00    -0.268 OA
ATOM      6  H   UNL A   1      36.988  21.693  23.326  1.00  0.00     0.163 HD
BRANCH   4   7
ATOM      7  C   UNL A   1      34.425  23.229  24.989  1.00  0.00     0.283 C 
ATOM      8  C   UNL A   1      33.241  25.164  25.854  1.00  0.00     0.278 C 
ATOM      9  N   UNL A   1      34.553  24.631  25.448  1.00  0.00    -0.320 N 
ATOM     10  S   UNL A   1      31.974  23.902  25.595  1.00  0.00    -0.087 SA
ATOM     11  H   UNL A   1      35.190  24.666  26.244  1.00  0.00     0.348 HD
ATOM     12  H   UNL A   1      34.915  25.197  24.681  1.00  0.00     0.348 HD
ATOM     13  C   UNL A   1      33.020  22.940  24.483  1.00  0.00     0.151 C 
BRANCH   8  14
ATOM     14  C   UNL A   1      33.050  26.558  25.232  1.00  0.00     0.066 A 
ATOM     15  C   UNL A   1      34.094  28.459  22.035  1.00  0.00     0.048 C 
ATOM     16  C   UNL A   1      33.500  28.153  23.383  1.00  0.00    -0.008 A 
ATOM     17  C   UNL A   1      33.120  29.210  24.207  1.00  0.00     0.023 A 
ATOM     18  C   UNL A   1      33.406  26.843  23.884  1.00  0.00     0.128 A 
ATOM     19  C   UNL A   1      32.694  28.973  25.515  1.00  0.00     0.021 A 
ATOM     20  Br  UNL A   1      32.188  30.517  26.515  1.00  0.00    -0.051 Br
ATOM     21  C   UNL A   1      32.685  27.668  26.063  1.00  0.00    -0.023 A 
ATOM     22  C   UNL A   1      32.277  27.502  27.510  1.00  0.00     0.046 C 
BRANCH  18  23
ATOM     23  O   UNL A   1      33.761  25.814  23.051  1.00  0.00    -0.507 OA
ATOM     24  H   UNL A   1      34.534  25.315  23.226  1.00  0.00     0.293 HD
ENDBRANCH  18  23
ENDBRANCH   8  14
ENDBRANCH   4   7
ENDBRANCH   2   3
ENDBRANCH   1   2
BRANCH   1  25
ATOM     25  C   UNL A   1      38.957  20.432  25.709  1.00  0.00     0.118 C 
BRANCH  25  26
ATOM     26  N   UNL A   1      39.965  19.375  25.813  1.00  0.00    -0.352 N 
ATOM     27  C   UNL A   1      41.319  19.428  26.060  1.00  0.00     0.251 C 
ATOM     28  H   UNL A   1      39.612  18.465  25.684  1.00  0.00     0.163 HD
ATOM     29  O   UNL A   1      42.001  18.427  25.901  1.00  0.00    -0.269 OA
BRANCH  27  30
ATOM     30  C   UNL A   1      41.956  20.696  26.485  1.00  0.00     0.039 A 
ATOM     31  C   UNL A   1      42.154  20.976  27.832  1.00  0.00     0.014 A 
ATOM     32  C   UNL A   1      42.364  21.622  25.517  1.00  0.00     0.014 A 
ATOM     33  C   UNL A   1      42.524  22.254  28.222  1.00  0.00     0.010 A 
ATOM     34  C   UNL A   1      42.868  22.866  25.912  1.00  0.00     0.010 A 
ATOM     35  C   UNL A   1      42.894  23.217  27.271  1.00  0.00    -0.014 A 
BRANCH  35  36
ATOM     36  C   UNL A   1      43.295  24.569  27.741  1.00  0.00     0.031 A 
ATOM     37  C   UNL A   1      44.740  24.993  27.735  1.00  0.00     0.074 A 
ATOM     38  C   UNL A   1      42.333  25.453  28.076  1.00  0.00     0.049 A 
ATOM     39  N   UNL A   1      45.260  26.149  28.064  1.00  0.00    -0.248 NA
ATOM     40  C   UNL A   1      45.732  23.994  27.310  1.00  0.00     0.031 C 
ATOM     41  C   UNL A   1      40.898  25.160  28.101  1.00  0.00     0.029 A 
ATOM     42  N   UNL A   1      42.404  26.780  28.411  1.00  0.00    -0.354 N 
ATOM     43  C   UNL A   1      46.633  26.008  27.907  1.00  0.00     0.074 A 
ATOM     44  C   UNL A   1      46.872  24.647  27.482  1.00  0.00     0.031 C 
ATOM     45  C   UNL A   1      40.221  26.290  28.343  1.00  0.00     0.029 A 
ATOM     46  C   UNL A   1      41.174  27.368  28.582  1.00  0.00     0.049 A 
ATOM     47  H   UNL A   1      43.254  27.266  28.518  1.00  0.00     0.167 HD
ATOM     48  C   UNL A   1      47.602  26.937  28.090  1.00  0.00     0.037 A 
ATOM     49  C   UNL A   1      40.845  28.631  28.910  1.00  0.00     0.037 A 
ATOM     50  C   UNL A   1      47.353  28.301  28.481  1.00  0.00     0.049 A 
ATOM     51  C   UNL A   1      41.942  29.627  29.146  1.00  0.00     0.074 A 
ATOM     52  C   UNL A   1      48.266  29.320  28.684  1.00  0.00     0.029 A 
ATOM     53  N   UNL A   1      46.096  28.837  28.722  1.00  0.00    -0.354 N 
ATOM     54  N   UNL A   1      43.237  29.475  29.012  1.00  0.00    -0.248 NA
ATOM     55  C   UNL A   1      41.536  30.965  29.598  1.00  0.00     0.031 C 
ATOM     56  C   UNL A   1      47.567  30.460  29.090  1.00  0.00     0.029 A 
ATOM     57  C   UNL A   1      46.213  30.168  29.092  1.00  0.00     0.049 A 
ATOM     58  H   UNL A   1      45.247  28.346  28.643  1.00  0.00     0.167 HD
ATOM     59  C   UNL A   1      43.800  30.694  29.357  1.00  0.00     0.074 A 
ATOM     60  C   UNL A   1      42.705  31.585  29.678  1.00  0.00     0.031 C 
ATOM     61  C   UNL A   1      45.110  31.039  29.411  1.00  0.00     0.037 A 
BRANCH  48  62
ATOM     62  C   UNL A   1      49.029  26.517  27.878  1.00  0.00     0.064 A 
ATOM     63  C   UNL A   1      49.584  26.409  26.594  1.00  0.00     0.173 A 
ATOM     64  C   UNL A   1      49.871  26.288  28.978  1.00  0.00     0.173 A 
ATOM     65  F   UNL A   1      48.820  26.607  25.510  1.00  0.00    -0.203 F 
ATOM     66  C   UNL A   1      50.925  26.074  26.419  1.00  0.00     0.198 A 
ATOM     67  C   UNL A   1      51.218  25.982  28.799  1.00  0.00     0.198 A 
ATOM     68  F   UNL A   1      49.392  26.385  30.228  1.00  0.00    -0.203 F 
ATOM     69  F   UNL A   1      51.425  25.947  25.183  1.00  0.00    -0.200 F 
ATOM     70  C   UNL A   1      51.743  25.871  27.521  1.00  0.00     0.200 A 
ATOM     71  F   UNL A   1      52.010  25.800  29.866  1.00  0.00    -0.200 F 
ATOM     72  F   UNL A   1      53.037  25.568  27.350  1.00  0.00    -0.200 F 
ENDBRANCH  48  62
BRANCH  49  73
ATOM     73  C   UNL A   1      39.413  29.009  29.038  1.00  0.00     0.064 A 
ATOM     74  C   UNL A   1      38.667  29.406  27.920  1.00  0.00     0.173 A 
ATOM     75  C   UNL A   1      38.749  28.942  30.274  1.00  0.00     0.173 A 
ATOM     76  F   UNL A   1      39.258  29.505  26.721  1.00  0.00    -0.203 F 
ATOM     77  C   UNL A   1      37.314  29.723  28.034  1.00  0.00     0.198 A 
ATOM     78  C   UNL A   1      37.391  29.227  30.380  1.00  0.00     0.198 A 
ATOM     79  F   UNL A   1      39.417  28.565  31.375  1.00  0.00    -0.203 F 
ATOM     80  F   UNL A   1      36.631  30.128  26.955  1.00  0.00    -0.200 F 
ATOM     81  C   UNL A   1      36.675  29.622  29.260  1.00  0.00     0.200 A 
ATOM     82  F   UNL A   1      36.774  29.107  31.563  1.00  0.00    -0.200 F 
ATOM     83  F   UNL A   1      35.370  29.907  29.364  1.00  0.00    -0.200 F 
ENDBRANCH  49  73
BRANCH  61  84
ATOM     84  C   UNL A   1      45.433  32.443  29.827  1.00  0.00     0.064 A 
ATOM     85  C   UNL A   1      45.492  33.486  28.891  1.00  0.00     0.173 A 
ATOM     86  C   UNL A   1      45.628  32.759  31.180  1.00  0.00     0.173 A 
ATOM     87  F   UNL A   1      45.329  33.232  27.584  1.00  0.00    -0.203 F 
ATOM     88  C   UNL A   1      45.751  34.793  29.294  1.00  0.00     0.198 A 
ATOM     89  C   UNL A   1      45.857  34.071  31.582  1.00  0.00     0.198 A 
ATOM     90  F   UNL A   1      45.574  31.797  32.113  1.00  0.00    -0.203 F 
ATOM     91  F   UNL A   1      45.843  35.769  28.379  1.00  0.00    -0.200 F 
ATOM     92  C   UNL A   1      45.924  35.086  30.639  1.00  0.00     0.200 A 
ATOM     93  F   UNL A   1      46.010  34.355  32.883  1.00  0.00    -0.200 F 
ATOM     94  F   UNL A   1      46.160  36.347  31.026  1.00  0.00    -0.200 F 
ENDBRANCH  61  84
ENDBRANCH  35  36
ENDBRANCH  27  30
ENDBRANCH  25  26
ENDBRANCH   1  25
TORSDOF 12
ENDMDL
MODEL 2
REMARK VINA RESULT:     -12.1      5.541     10.728
REMARK SMILES Cc1cc(Br)c(C)c([C@@H]2[NH2+][C@H](C(=O)NCCCNC(=O)c3ccc(-c4c5nc(c(-c6c(F)c(F)c(F)c(F)c6F)c6ccc([nH]6)c(-c6c(F)c(F)c(F)c(F)c6F)c6nc(c(-c7c(F)c(F)c(F)c(F)c7F)c7ccc4[nH]7)C=C6)C=C5)cc3)CS2)c1O
REMARK SMILES IDX 16 1 15 2 14 3 12 4 13 5 11 7 9 8 10 9 85 10 84 13 8 14 1 15
REMARK SMILES IDX 2 16 3 17 86 18 4 19 5 20 6 21 7 22 87 23 17 25 18 26 19 27
REMARK SMILES IDX 20 29 21 30 22 31 83 32 23 33 82 34 24 35 25 36 26 37 76 38
REMARK SMILES IDX 27 39 81 40 75 41 77 42 28 43 80 44 74 45 73 46 29 48 61 49
REMARK SMILES IDX 41 50 60 51 42 52 45 53 59 54 78 55 43 56 44 57 58 59 79 60
REMARK SMILES IDX 46 61 30 62 31 63 39 64 32 65 33 66 37 67 40 68 34 69 35 70
REMARK SMILES IDX 38 71 36 72 62 73 63 74 71 75 64 76 65 77 69 78 72 79 66 80
REMARK SMILES IDX 67 81 70 82 68 83 47 84 48 85 56 86 49 87 50 88 54 89 57 90
REMARK SMILES IDX 51 91 52 92 55 93 53 94
REMARK H PARENT 14 6 10 11 10 12 87 24 18 28 77 47 45 58
REMARK Flexibility Score: inf
ROOT
ATOM      1  C   UNL A   1      31.531  32.169  26.781  1.00  0.00     0.042 C 
ENDROOT
BRANCH   1   2
ATOM      2  C   UNL A   1      31.840  30.814  26.158  1.00  0.00     0.118 C 
BRANCH   2   3
ATOM      3  N   UNL A   1      31.545  29.705  27.039  1.00  0.00    -0.351 N 
ATOM      4  C   UNL A   1      31.669  28.365  26.795  1.00  0.00     0.279 C 
ATOM      5  O   UNL A   1      31.430  27.601  27.736  1.00  0.00    -0.268 OA
ATOM      6  H   UNL A   1      31.209  29.948  27.932  1.00  0.00     0.163 HD
BRANCH   4   7
ATOM      7  C   UNL A   1      32.154  27.803  25.441  1.00  0.00     0.283 C 
ATOM      8  C   UNL A   1      32.508  25.672  24.333  1.00  0.00     0.278 C 
ATOM      9  N   UNL A   1      32.712  26.438  25.574  1.00  0.00    -0.320 N 
ATOM     10  S   UNL A   1      31.616  26.693  23.139  1.00  0.00    -0.087 SA
ATOM     11  H   UNL A   1      33.712  26.502  25.768  1.00  0.00     0.348 HD
ATOM     12  H   UNL A   1      32.235  25.959  26.339  1.00  0.00     0.348 HD
ATOM     13  C   UNL A   1      31.044  27.847  24.402  1.00  0.00     0.151 C 
BRANCH   8  14
ATOM     14  C   UNL A   1      31.960  24.278  24.686  1.00  0.00     0.066 A 
ATOM     15  C   UNL A   1      29.563  22.688  27.265  1.00  0.00     0.048 C 
ATOM     16  C   UNL A   1      30.549  22.841  26.138  1.00  0.00    -0.008 A 
ATOM     17  C   UNL A   1      31.232  21.716  25.684  1.00  0.00     0.023 A 
ATOM     18  C   UNL A   1      30.881  24.095  25.595  1.00  0.00     0.128 A 
ATOM     19  C   UNL A   1      32.251  21.839  24.737  1.00  0.00     0.021 A 
ATOM     20  Br  UNL A   1      33.082  20.209  24.197  1.00  0.00    -0.051 Br
ATOM     21  C   UNL A   1      32.660  23.105  24.252  1.00  0.00    -0.023 A 
ATOM     22  C   UNL A   1      33.819  23.159  23.281  1.00  0.00     0.046 C 
BRANCH  18  23
ATOM     23  O   UNL A   1      30.181  25.187  26.037  1.00  0.00    -0.507 OA
ATOM     24  H   UNL A   1      29.274  25.281  25.823  1.00  0.00     0.293 HD
ENDBRANCH  18  23
ENDBRANCH   8  14
ENDBRANCH   4   7
ENDBRANCH   2   3
ENDBRANCH   1   2
BRANCH   1  25
ATOM     25  C   UNL A   1      32.774  32.887  27.283  1.00  0.00     0.118 C 
BRANCH  25  26
ATOM     26  N   UNL A   1      32.505  34.263  27.703  1.00  0.00    -0.352 N 
ATOM     27  C   UNL A   1      33.044  35.030  28.713  1.00  0.00     0.251 C 
ATOM     28  H   UNL A   1      31.818  34.723  27.168  1.00  0.00     0.163 HD
ATOM     29  O   UNL A   1      32.520  36.094  29.008  1.00  0.00    -0.269 OA
BRANCH  27  30
ATOM     30  C   UNL A   1      34.231  34.558  29.462  1.00  0.00     0.039 A 
ATOM     31  C   UNL A   1      35.514  34.762  28.963  1.00  0.00     0.014 A 
ATOM     32  C   UNL A   1      34.060  33.902  30.686  1.00  0.00     0.014 A 
ATOM     33  C   UNL A   1      36.589  34.110  29.547  1.00  0.00     0.010 A 
ATOM     34  C   UNL A   1      35.168  33.360  31.348  1.00  0.00     0.010 A 
ATOM     35  C   UNL A   1      36.436  33.405  30.750  1.00  0.00    -0.014 A 
BRANCH  35  36
ATOM     36  C   UNL A   1      37.623  32.734  31.342  1.00  0.00     0.031 A 
ATOM     37  C   UNL A   1      38.074  33.053  32.742  1.00  0.00     0.074 A 
ATOM     38  C   UNL A   1      38.233  31.754  30.643  1.00  0.00     0.049 A 
ATOM     39  N   UNL A   1      39.058  32.527  33.431  1.00  0.00    -0.248 NA
ATOM     40  C   UNL A   1      37.334  34.097  33.466  1.00  0.00     0.031 C 
ATOM     41  C   UNL A   1      37.870  31.346  29.283  1.00  0.00     0.029 A 
ATOM     42  N   UNL A   1      39.244  30.895  30.986  1.00  0.00    -0.354 N 
ATOM     43  C   UNL A   1      39.066  33.190  34.652  1.00  0.00     0.074 A 
ATOM     44  C   UNL A   1      38.010  34.177  34.604  1.00  0.00     0.031 C 
ATOM     45  C   UNL A   1      38.581  30.263  28.944  1.00  0.00     0.029 A 
ATOM     46  C   UNL A   1      39.514  29.955  30.021  1.00  0.00     0.049 A 
ATOM     47  H   UNL A   1      39.729  30.946  31.841  1.00  0.00     0.167 HD
ATOM     48  C   UNL A   1      39.873  32.981  35.719  1.00  0.00     0.037 A 
ATOM     49  C   UNL A   1      40.422  28.962  29.996  1.00  0.00     0.037 A 
ATOM     50  C   UNL A   1      40.901  31.973  35.771  1.00  0.00     0.049 A 
ATOM     51  C   UNL A   1      41.331  28.782  31.177  1.00  0.00     0.074 A 
ATOM     52  C   UNL A   1      41.766  31.677  36.809  1.00  0.00     0.029 A 
ATOM     53  N   UNL A   1      41.197  31.091  34.742  1.00  0.00    -0.354 N 
ATOM     54  N   UNL A   1      41.339  29.427  32.317  1.00  0.00    -0.248 NA
ATOM     55  C   UNL A   1      42.370  27.750  31.061  1.00  0.00     0.031 C 
ATOM     56  C   UNL A   1      42.614  30.647  36.393  1.00  0.00     0.029 A 
ATOM     57  C   UNL A   1      42.246  30.265  35.114  1.00  0.00     0.049 A 
ATOM     58  H   UNL A   1      40.731  31.057  33.875  1.00  0.00     0.167 HD
ATOM     59  C   UNL A   1      42.375  28.879  33.057  1.00  0.00     0.074 A 
ATOM     60  C   UNL A   1      42.956  27.828  32.248  1.00  0.00     0.031 C 
ATOM     61  C   UNL A   1      42.812  29.224  34.293  1.00  0.00     0.037 A 
BRANCH  48  62
ATOM     62  C   UNL A   1      39.692  33.861  36.922  1.00  0.00     0.064 A 
ATOM     63  C   UNL A   1      40.267  35.139  36.996  1.00  0.00     0.173 A 
ATOM     64  C   UNL A   1      38.874  33.449  37.986  1.00  0.00     0.173 A 
ATOM     65  F   UNL A   1      41.066  35.576  36.012  1.00  0.00    -0.203 F 
ATOM     66  C   UNL A   1      40.041  35.964  38.096  1.00  0.00     0.198 A 
ATOM     67  C   UNL A   1      38.626  34.288  39.069  1.00  0.00     0.198 A 
ATOM     68  F   UNL A   1      38.292  32.239  37.962  1.00  0.00    -0.203 F 
ATOM     69  F   UNL A   1      40.626  37.168  38.158  1.00  0.00    -0.200 F 
ATOM     70  C   UNL A   1      39.213  35.543  39.126  1.00  0.00     0.200 A 
ATOM     71  F   UNL A   1      37.813  33.885  40.057  1.00  0.00    -0.200 F 
ATOM     72  F   UNL A   1      38.981  36.347  40.172  1.00  0.00    -0.200 F 
ENDBRANCH  48  62
BRANCH  49  73
ATOM     73  C   UNL A   1      40.512  28.076  28.806  1.00  0.00     0.064 A 
ATOM     74  C   UNL A   1      39.803  26.868  28.749  1.00  0.00     0.173 A 
ATOM     75  C   UNL A   1      41.275  28.437  27.684  1.00  0.00     0.173 A 
ATOM     76  F   UNL A   1      39.074  26.469  29.801  1.00  0.00    -0.203 F 
ATOM     77  C   UNL A   1      39.856  26.056  27.617  1.00  0.00     0.198 A 
ATOM     78  C   UNL A   1      41.301  27.641  26.542  1.00  0.00     0.198 A 
ATOM     79  F   UNL A   1      41.970  29.584  27.686  1.00  0.00    -0.203 F 
ATOM     80  F   UNL A   1      39.192  24.893  27.599  1.00  0.00    -0.200 F 
ATOM     81  C   UNL A   1      40.594  26.449  26.511  1.00  0.00     0.200 A 
ATOM     82  F   UNL A   1      41.999  28.036  25.469  1.00  0.00    -0.200 F 
ATOM     83  F   UNL A   1      40.627  25.677  25.417  1.00  0.00    -0.200 F 
ENDBRANCH  49  73
BRANCH  61  84
ATOM     84  C   UNL A   1      43.971  28.454  34.851  1.00  0.00     0.064 A 
ATOM     85  C   UNL A   1      45.290  28.907  34.698  1.00  0.00     0.173 A 
ATOM     86  C   UNL A   1      43.758  27.285  35.596  1.00  0.00     0.173 A 
ATOM     87  F   UNL A   1      45.547  30.011  33.980  1.00  0.00    -0.203 F 
ATOM     88  C   UNL A   1      46.356  28.206  35.257  1.00  0.00     0.198 A 
ATOM     89  C   UNL A   1      44.823  26.604  36.178  1.00  0.00     0.198 A 
ATOM     90  F   UNL A   1      42.515  26.816  35.776  1.00  0.00    -0.203 F 
ATOM     91  F   UNL A   1      47.611  28.634  35.064  1.00  0.00    -0.200 F 
ATOM     92  C   UNL A   1      46.120  27.062  36.003  1.00  0.00     0.200 A 
ATOM     93  F   UNL A   1      44.593  25.506  36.911  1.00  0.00    -0.200 F 
ATOM     94  F   UNL A   1      47.146  26.396  36.552  1.00  0.00    -0.200 F 
ENDBRANCH  61  84
ENDBRANCH  35  36
ENDBRANCH  27  30
ENDBRANCH  25  26
ENDBRANCH   1  25
TORSDOF 12
ENDMDL
MODEL 3
REMARK VINA RESULT:     -12.1      4.878     10.029
REMARK SMILES Cc1cc(Br)c(C)c([C@@H]2[NH2+][C@H](C(=O)NCCCNC(=O)c3ccc(-c4c5nc(c(-c6c(F)c(F)c(F)c(F)c6F)c6ccc([nH]6)c(-c6c(F)c(F)c(F)c(F)c6F)c6nc(c(-c7c(F)c(F)c(F)c(F)c7F)c7ccc4[nH]7)C=C6)C=C5)cc3)CS2)c1O
REMARK SMILES IDX 16 1 15 2 14 3 12 4 13 5 11 7 9 8 10 9 85 10 84 13 8 14 1 15
REMARK SMILES IDX 2 16 3 17 86 18 4 19 5 20 6 21 7 22 87 23 17 25 18 26 19 27
REMARK SMILES IDX 20 29 21 30 22 31 83 32 23 33 82 34 24 35 25 36 26 37 76 38
REMARK SMILES IDX 27 39 81 40 75 41 77 42 28 43 80 44 74 45 73 46 29 48 61 49
REMARK SMILES IDX 41 50 60 51 42 52 45 53 59 54 78 55 43 56 44 57 58 59 79 60
REMARK SMILES IDX 46 61 30 62 31 63 39 64 32 65 33 66 37 67 40 68 34 69 35 70
REMARK SMILES IDX 38 71 36 72 62 73 63 74 71 75 64 76 65 77 69 78 72 79 66 80
REMARK SMILES IDX 67 81 70 82 68 83 47 84 48 85 56 86 49 87 50 88 54 89 57 90
REMARK SMILES IDX 51 91 52 92 55 93 53 94
REMARK H PARENT 14 6 10 11 10 12 87 24 18 28 77 47 45 58
REMARK Flexibility Score: inf
ROOT
ATOM      1  C   UNL A   1      32.857  29.953  25.379  1.00  0.00     0.042 C 
ENDROOT
BRANCH   1   2
ATOM      2  C   UNL A   1      31.896  29.326  24.378  1.00  0.00     0.118 C 
BRANCH   2   3
ATOM      3  N   UNL A   1      31.125  28.237  24.937  1.00  0.00    -0.351 N 
ATOM      4  C   UNL A   1      31.211  26.901  24.660  1.00  0.00     0.279 C 
ATOM      5  O   UNL A   1      30.498  26.145  25.329  1.00  0.00    -0.268 OA
ATOM      6  H   UNL A   1      30.450  28.493  25.605  1.00  0.00     0.163 HD
BRANCH   4   7
ATOM      7  C   UNL A   1      32.195  26.323  23.620  1.00  0.00     0.283 C 
ATOM      8  C   UNL A   1      33.963  24.668  23.452  1.00  0.00     0.278 C 
ATOM      9  N   UNL A   1      33.416  25.775  24.254  1.00  0.00    -0.320 N 
ATOM     10  S   UNL A   1      32.900  24.384  22.018  1.00  0.00    -0.087 SA
ATOM     11  H   UNL A   1      34.116  26.514  24.326  1.00  0.00     0.348 HD
ATOM     12  H   UNL A   1      33.177  25.424  25.181  1.00  0.00     0.348 HD
ATOM     13  C   UNL A   1      31.514  25.284  22.743  1.00  0.00     0.151 C 
BRANCH   8  14
ATOM     14  C   UNL A   1      34.297  23.489  24.383  1.00  0.00     0.066 A 
ATOM     15  C   UNL A   1      33.289  22.201  27.883  1.00  0.00     0.048 C 
ATOM     16  C   UNL A   1      33.980  22.323  26.551  1.00  0.00    -0.008 A 
ATOM     17  C   UNL A   1      35.157  21.610  26.337  1.00  0.00     0.023 A 
ATOM     18  C   UNL A   1      33.537  23.207  25.552  1.00  0.00     0.128 A 
ATOM     19  C   UNL A   1      35.899  21.801  25.170  1.00  0.00     0.021 A 
ATOM     20  Br  UNL A   1      37.477  20.740  25.008  1.00  0.00    -0.051 Br
ATOM     21  C   UNL A   1      35.515  22.757  24.199  1.00  0.00    -0.023 A 
ATOM     22  C   UNL A   1      36.411  22.955  22.996  1.00  0.00     0.046 C 
BRANCH  18  23
ATOM     23  O   UNL A   1      32.364  23.881  25.771  1.00  0.00    -0.507 OA
ATOM     24  H   UNL A   1      31.580  23.610  25.337  1.00  0.00     0.293 HD
ENDBRANCH  18  23
ENDBRANCH   8  14
ENDBRANCH   4   7
ENDBRANCH   2   3
ENDBRANCH   1   2
BRANCH   1  25
ATOM     25  C   UNL A   1      32.174  30.375  26.670  1.00  0.00     0.118 C 
BRANCH  25  26
ATOM     26  N   UNL A   1      32.165  31.826  26.861  1.00  0.00    -0.352 N 
ATOM     27  C   UNL A   1      33.033  32.664  27.526  1.00  0.00     0.251 C 
ATOM     28  H   UNL A   1      31.403  32.285  26.439  1.00  0.00     0.163 HD
ATOM     29  O   UNL A   1      32.716  33.827  27.726  1.00  0.00    -0.269 OA
BRANCH  27  30
ATOM     30  C   UNL A   1      34.332  32.156  28.025  1.00  0.00     0.039 A 
ATOM     31  C   UNL A   1      34.474  30.829  28.416  1.00  0.00     0.014 A 
ATOM     32  C   UNL A   1      35.428  33.022  28.103  1.00  0.00     0.014 A 
ATOM     33  C   UNL A   1      35.613  30.432  29.101  1.00  0.00     0.010 A 
ATOM     34  C   UNL A   1      36.628  32.580  28.672  1.00  0.00     0.010 A 
ATOM     35  C   UNL A   1      36.710  31.297  29.234  1.00  0.00    -0.014 A 
BRANCH  35  36
ATOM     36  C   UNL A   1      37.911  30.819  29.967  1.00  0.00     0.031 A 
ATOM     37  C   UNL A   1      38.128  31.176  31.413  1.00  0.00     0.074 A 
ATOM     38  C   UNL A   1      38.758  29.971  29.347  1.00  0.00     0.049 A 
ATOM     39  N   UNL A   1      39.094  30.807  32.217  1.00  0.00    -0.248 NA
ATOM     40  C   UNL A   1      37.139  32.066  32.042  1.00  0.00     0.031 C 
ATOM     41  C   UNL A   1      38.638  29.540  27.952  1.00  0.00     0.029 A 
ATOM     42  N   UNL A   1      39.849  29.285  29.812  1.00  0.00    -0.354 N 
ATOM     43  C   UNL A   1      38.841  31.433  33.431  1.00  0.00     0.074 A 
ATOM     44  C   UNL A   1      37.648  32.231  33.255  1.00  0.00     0.031 C 
ATOM     45  C   UNL A   1      39.557  28.598  27.701  1.00  0.00     0.029 A 
ATOM     46  C   UNL A   1      40.390  28.425  28.886  1.00  0.00     0.049 A 
ATOM     47  H   UNL A   1      40.211  29.396  30.720  1.00  0.00     0.167 HD
ATOM     48  C   UNL A   1      39.536  31.337  34.590  1.00  0.00     0.037 A 
ATOM     49  C   UNL A   1      41.448  27.599  28.971  1.00  0.00     0.037 A 
ATOM     50  C   UNL A   1      40.704  30.513  34.768  1.00  0.00     0.049 A 
ATOM     51  C   UNL A   1      42.223  27.545  30.255  1.00  0.00     0.074 A 
ATOM     52  C   UNL A   1      41.473  30.342  35.905  1.00  0.00     0.029 A 
ATOM     53  N   UNL A   1      41.268  29.717  33.781  1.00  0.00    -0.354 N 
ATOM     54  N   UNL A   1      41.983  28.157  31.390  1.00  0.00    -0.248 NA
ATOM     55  C   UNL A   1      43.427  26.704  30.268  1.00  0.00     0.031 C 
ATOM     56  C   UNL A   1      42.527  29.478  35.595  1.00  0.00     0.029 A 
ATOM     57  C   UNL A   1      42.387  29.069  34.279  1.00  0.00     0.049 A 
ATOM     58  H   UNL A   1      40.924  29.626  32.863  1.00  0.00     0.167 HD
ATOM     59  C   UNL A   1      42.999  27.773  32.251  1.00  0.00     0.074 A 
ATOM     60  C   UNL A   1      43.843  26.852  31.518  1.00  0.00     0.031 C 
ATOM     61  C   UNL A   1      43.217  28.157  33.532  1.00  0.00     0.037 A 
BRANCH  48  62
ATOM     62  C   UNL A   1      39.063  32.147  35.764  1.00  0.00     0.064 A 
ATOM     63  C   UNL A   1      38.234  31.598  36.754  1.00  0.00     0.173 A 
ATOM     64  C   UNL A   1      39.502  33.469  35.935  1.00  0.00     0.173 A 
ATOM     65  F   UNL A   1      37.778  30.343  36.632  1.00  0.00    -0.203 F 
ATOM     66  C   UNL A   1      37.852  32.347  37.865  1.00  0.00     0.198 A 
ATOM     67  C   UNL A   1      39.142  34.205  37.062  1.00  0.00     0.198 A 
ATOM     68  F   UNL A   1      40.302  34.041  35.022  1.00  0.00    -0.203 F 
ATOM     69  F   UNL A   1      37.036  31.811  38.782  1.00  0.00    -0.200 F 
ATOM     70  C   UNL A   1      38.315  33.646  38.023  1.00  0.00     0.200 A 
ATOM     71  F   UNL A   1      39.602  35.455  37.220  1.00  0.00    -0.200 F 
ATOM     72  F   UNL A   1      37.962  34.357  39.102  1.00  0.00    -0.200 F 
ENDBRANCH  48  62
BRANCH  49  73
ATOM     73  C   UNL A   1      41.830  26.767  27.800  1.00  0.00     0.064 A 
ATOM     74  C   UNL A   1      42.827  27.188  26.909  1.00  0.00     0.173 A 
ATOM     75  C   UNL A   1      41.235  25.517  27.569  1.00  0.00     0.173 A 
ATOM     76  F   UNL A   1      43.413  28.383  27.074  1.00  0.00    -0.203 F 
ATOM     77  C   UNL A   1      43.212  26.390  25.832  1.00  0.00     0.198 A 
ATOM     78  C   UNL A   1      41.644  24.707  26.513  1.00  0.00     0.198 A 
ATOM     79  F   UNL A   1      40.278  25.066  28.394  1.00  0.00    -0.203 F 
ATOM     80  F   UNL A   1      44.147  26.828  24.979  1.00  0.00    -0.200 F 
ATOM     81  C   UNL A   1      42.629  25.146  25.642  1.00  0.00     0.200 A 
ATOM     82  F   UNL A   1      41.093  23.497  26.347  1.00  0.00    -0.200 F 
ATOM     83  F   UNL A   1      43.015  24.372  24.620  1.00  0.00    -0.200 F 
ENDBRANCH  49  73
BRANCH  61  84
ATOM     84  C   UNL A   1      44.412  27.578  34.229  1.00  0.00     0.064 A 
ATOM     85  C   UNL A   1      45.644  28.249  34.243  1.00  0.00     0.173 A 
ATOM     86  C   UNL A   1      44.310  26.372  34.937  1.00  0.00     0.173 A 
ATOM     87  F   UNL A   1      45.796  29.398  33.567  1.00  0.00    -0.203 F 
ATOM     88  C   UNL A   1      46.736  27.723  34.929  1.00  0.00     0.198 A 
ATOM     89  C   UNL A   1      45.395  25.864  35.646  1.00  0.00     0.198 A 
ATOM     90  F   UNL A   1      43.151  25.697  34.959  1.00  0.00    -0.203 F 
ATOM     91  F   UNL A   1      47.915  28.359  34.896  1.00  0.00    -0.200 F 
ATOM     92  C   UNL A   1      46.608  26.537  35.636  1.00  0.00     0.200 A 
ATOM     93  F   UNL A   1      45.266  24.726  36.341  1.00  0.00    -0.200 F 
ATOM     94  F   UNL A   1      47.655  26.039  36.307  1.00  0.00    -0.200 F 
ENDBRANCH  61  84
ENDBRANCH  35  36
ENDBRANCH  27  30
ENDBRANCH  25  26
ENDBRANCH   1  25
TORSDOF 12
ENDMDL
