MODEL 1
REMARK VINA RESULT:     -12.1      0.000      0.000
REMARK SMILES COc1ncnc(N2CCCC[C@H]2CC(=O)NCCCNC(=O)c2ccc(-c3c4nc(c(-c5c(F)c(F)c(F)c(F)c5F)c5ccc([nH]5)c(-c5c(F)c(F)c(F)c(F)c5F)c5nc(c(-c6c(F)c(F)c(F)c(F)c6F)c6ccc3[nH]6)C=C5)C=C4)cc2)c1[N+](=O)[O-]
REMARK SMILES IDX 18 1 17 2 15 3 16 4 14 6 13 7 8 8 9 9 10 10 12 11 11 12 7 13
REMARK SMILES IDX 3 14 4 15 87 16 5 17 6 18 2 19 1 20 88 21 89 22 90 23 19 24
REMARK SMILES IDX 20 25 21 26 22 27 23 29 24 30 25 31 86 32 26 33 85 34 27 35
REMARK SMILES IDX 28 36 29 37 79 38 30 39 84 40 78 41 80 42 31 43 83 44 77 45
REMARK SMILES IDX 76 46 32 48 64 49 44 50 63 51 45 52 48 53 62 54 81 55 46 56
REMARK SMILES IDX 47 57 61 59 82 60 49 61 33 62 34 63 42 64 35 65 36 66 40 67
REMARK SMILES IDX 43 68 37 69 38 70 41 71 39 72 65 73 66 74 74 75 67 76 68 77
REMARK SMILES IDX 72 78 75 79 69 80 70 81 73 82 71 83 50 84 51 85 59 86 52 87
REMARK SMILES IDX 53 88 57 89 60 90 54 91 55 92 58 93 56 94
REMARK H PARENT 17 5 21 28 80 47 48 58
REMARK Flexibility Score: inf
ROOT
ATOM      1  C   UNL A   1      31.382  30.824  26.163  1.00  0.00     0.117 C 
ENDROOT
BRANCH   1   2
ATOM      2  N   UNL A   1      32.563  30.130  26.647  1.00  0.00    -0.356 N 
ATOM      3  C   UNL A   1      32.844  28.817  26.861  1.00  0.00     0.222 C 
ATOM      4  O   UNL A   1      33.990  28.553  27.226  1.00  0.00    -0.275 OA
ATOM      5  H   UNL A   1      33.312  30.732  26.863  1.00  0.00     0.163 HD
BRANCH   3   6
ATOM      6  C   UNL A   1      31.814  27.732  26.630  1.00  0.00     0.125 C 
BRANCH   6   7
ATOM      7  C   UNL A   1      31.836  26.956  25.300  1.00  0.00     0.093 C 
ATOM      8  N   UNL A   1      30.782  25.925  25.185  1.00  0.00    -0.347 N 
ATOM      9  C   UNL A   1      29.447  26.361  24.746  1.00  0.00     0.118 C 
ATOM     10  C   UNL A   1      29.503  27.215  23.479  1.00  0.00     0.022 C 
ATOM     11  C   UNL A   1      31.885  27.789  24.017  1.00  0.00     0.026 C 
ATOM     12  C   UNL A   1      30.528  28.336  23.590  1.00  0.00     0.004 C 
BRANCH   8  13
ATOM     13  C   UNL A   1      31.200  24.683  24.693  1.00  0.00     0.215 A 
ATOM     14  C   UNL A   1      31.778  22.396  24.911  1.00  0.00     0.299 A 
ATOM     15  N   UNL A   1      32.096  22.297  23.608  1.00  0.00    -0.196 NA
ATOM     16  C   UNL A   1      31.352  23.567  25.491  1.00  0.00     0.372 A 
ATOM     17  C   UNL A   1      31.930  23.418  22.898  1.00  0.00     0.228 A 
ATOM     18  N   UNL A   1      31.487  24.594  23.374  1.00  0.00    -0.212 NA
BRANCH  14  19
ATOM     19  O   UNL A   1      31.988  21.258  25.645  1.00  0.00    -0.476 OA
ATOM     20  C   UNL A   1      32.511  20.223  24.814  1.00  0.00     0.280 C 
ENDBRANCH  14  19
BRANCH  16  21
ATOM     21  N   UNL A   1      30.996  23.577  26.868  1.00  0.00     0.072 N 
ATOM     22  O   UNL A   1      31.883  23.876  27.680  1.00  0.00    -0.258 OA
ATOM     23  O   UNL A   1      29.816  23.321  27.151  1.00  0.00    -0.258 OA
ENDBRANCH  16  21
ENDBRANCH   8  13
ENDBRANCH   6   7
ENDBRANCH   3   6
ENDBRANCH   1   2
BRANCH   1  24
ATOM     24  C   UNL A   1      31.355  32.314  26.508  1.00  0.00     0.042 C 
BRANCH  24  25
ATOM     25  C   UNL A   1      32.579  32.849  27.245  1.00  0.00     0.118 C 
BRANCH  25  26
ATOM     26  N   UNL A   1      32.430  34.241  27.624  1.00  0.00    -0.352 N 
ATOM     27  C   UNL A   1      33.032  34.927  28.651  1.00  0.00     0.251 C 
ATOM     28  H   UNL A   1      31.811  34.767  27.068  1.00  0.00     0.163 HD
ATOM     29  O   UNL A   1      32.634  36.049  28.946  1.00  0.00    -0.269 OA
BRANCH  27  30
ATOM     30  C   UNL A   1      34.149  34.325  29.419  1.00  0.00     0.039 A 
ATOM     31  C   UNL A   1      35.449  34.459  28.920  1.00  0.00     0.014 A 
ATOM     32  C   UNL A   1      33.924  33.572  30.577  1.00  0.00     0.014 A 
ATOM     33  C   UNL A   1      36.522  33.866  29.591  1.00  0.00     0.010 A 
ATOM     34  C   UNL A   1      35.003  33.016  31.272  1.00  0.00     0.010 A 
ATOM     35  C   UNL A   1      36.310  33.146  30.777  1.00  0.00    -0.014 A 
BRANCH  35  36
ATOM     36  C   UNL A   1      37.448  32.500  31.482  1.00  0.00     0.031 A 
ATOM     37  C   UNL A   1      38.180  31.349  30.848  1.00  0.00     0.074 A 
ATOM     38  C   UNL A   1      37.815  32.931  32.704  1.00  0.00     0.049 A 
ATOM     39  N   UNL A   1      39.189  30.653  31.311  1.00  0.00    -0.248 NA
ATOM     40  C   UNL A   1      37.707  30.913  29.525  1.00  0.00     0.031 C 
ATOM     41  C   UNL A   1      37.171  34.016  33.443  1.00  0.00     0.029 A 
ATOM     42  N   UNL A   1      38.816  32.504  33.540  1.00  0.00    -0.354 N 
ATOM     43  C   UNL A   1      39.465  29.696  30.344  1.00  0.00     0.074 A 
ATOM     44  C   UNL A   1      38.494  29.873  29.285  1.00  0.00     0.031 C 
ATOM     45  C   UNL A   1      37.799  34.178  34.619  1.00  0.00     0.029 A 
ATOM     46  C   UNL A   1      38.875  33.195  34.725  1.00  0.00     0.049 A 
ATOM     47  H   UNL A   1      39.432  31.771  33.313  1.00  0.00     0.167 HD
ATOM     48  C   UNL A   1      40.451  28.766  30.329  1.00  0.00     0.037 A 
ATOM     49  C   UNL A   1      39.701  33.051  35.779  1.00  0.00     0.037 A 
ATOM     50  C   UNL A   1      41.436  28.602  31.366  1.00  0.00     0.049 A 
ATOM     51  C   UNL A   1      40.783  32.007  35.741  1.00  0.00     0.074 A 
ATOM     52  C   UNL A   1      42.512  27.732  31.404  1.00  0.00     0.029 A 
ATOM     53  N   UNL A   1      41.464  29.322  32.549  1.00  0.00    -0.354 N 
ATOM     54  N   UNL A   1      41.075  31.154  34.792  1.00  0.00    -0.248 NA
ATOM     55  C   UNL A   1      41.655  31.912  36.922  1.00  0.00     0.031 C 
ATOM     56  C   UNL A   1      43.169  27.899  32.629  1.00  0.00     0.029 A 
ATOM     57  C   UNL A   1      42.524  28.900  33.336  1.00  0.00     0.049 A 
ATOM     58  H   UNL A   1      40.824  30.029  32.796  1.00  0.00     0.167 HD
ATOM     59  C   UNL A   1      42.173  30.437  35.247  1.00  0.00     0.074 A 
ATOM     60  C   UNL A   1      42.505  30.963  36.554  1.00  0.00     0.031 C 
ATOM     61  C   UNL A   1      42.844  29.431  34.634  1.00  0.00     0.037 A 
BRANCH  48  62
ATOM     62  C   UNL A   1      40.518  27.849  29.145  1.00  0.00     0.064 A 
ATOM     63  C   UNL A   1      39.710  26.706  29.057  1.00  0.00     0.173 A 
ATOM     64  C   UNL A   1      41.366  28.141  28.067  1.00  0.00     0.173 A 
ATOM     65  F   UNL A   1      38.891  26.380  30.068  1.00  0.00    -0.203 F 
ATOM     66  C   UNL A   1      39.763  25.876  27.940  1.00  0.00     0.198 A 
ATOM     67  C   UNL A   1      41.400  27.321  26.941  1.00  0.00     0.198 A 
ATOM     68  F   UNL A   1      42.154  29.226  28.099  1.00  0.00    -0.203 F 
ATOM     69  F   UNL A   1      39.009  24.769  27.894  1.00  0.00    -0.200 F 
ATOM     70  C   UNL A   1      40.604  26.188  26.882  1.00  0.00     0.200 A 
ATOM     71  F   UNL A   1      42.203  27.629  25.913  1.00  0.00    -0.200 F 
ATOM     72  F   UNL A   1      40.648  25.391  25.804  1.00  0.00    -0.200 F 
ENDBRANCH  48  62
BRANCH  49  73
ATOM     73  C   UNL A   1      39.550  33.939  36.960  1.00  0.00     0.064 A 
ATOM     74  C   UNL A   1      40.162  35.199  36.994  1.00  0.00     0.173 A 
ATOM     75  C   UNL A   1      38.793  33.546  38.072  1.00  0.00     0.173 A 
ATOM     76  F   UNL A   1      40.915  35.606  35.962  1.00  0.00    -0.203 F 
ATOM     77  C   UNL A   1      40.033  36.029  38.106  1.00  0.00     0.198 A 
ATOM     78  C   UNL A   1      38.647  34.387  39.174  1.00  0.00     0.198 A 
ATOM     79  F   UNL A   1      38.187  32.350  38.085  1.00  0.00    -0.203 F 
ATOM     80  F   UNL A   1      40.659  37.214  38.129  1.00  0.00    -0.200 F 
ATOM     81  C   UNL A   1      39.271  35.624  39.192  1.00  0.00     0.200 A 
ATOM     82  F   UNL A   1      37.901  33.997  40.217  1.00  0.00    -0.200 F 
ATOM     83  F   UNL A   1      39.144  36.425  40.259  1.00  0.00    -0.200 F 
ENDBRANCH  49  73
BRANCH  61  84
ATOM     84  C   UNL A   1      44.017  28.845  35.363  1.00  0.00     0.064 A 
ATOM     85  C   UNL A   1      45.314  29.347  35.182  1.00  0.00     0.173 A 
ATOM     86  C   UNL A   1      43.837  27.798  36.278  1.00  0.00     0.173 A 
ATOM     87  F   UNL A   1      45.539  30.338  34.307  1.00  0.00    -0.203 F 
ATOM     88  C   UNL A   1      46.392  28.807  35.879  1.00  0.00     0.198 A 
ATOM     89  C   UNL A   1      44.914  27.275  36.989  1.00  0.00     0.198 A 
ATOM     90  F   UNL A   1      42.616  27.286  36.488  1.00  0.00    -0.203 F 
ATOM     91  F   UNL A   1      47.629  29.276  35.663  1.00  0.00    -0.200 F 
ATOM     92  C   UNL A   1      46.191  27.777  36.785  1.00  0.00     0.200 A 
ATOM     93  F   UNL A   1      44.717  26.286  37.871  1.00  0.00    -0.200 F 
ATOM     94  F   UNL A   1      47.230  27.261  37.458  1.00  0.00    -0.200 F 
ENDBRANCH  61  84
ENDBRANCH  35  36
ENDBRANCH  27  30
ENDBRANCH  25  26
ENDBRANCH  24  25
ENDBRANCH   1  24
TORSDOF 14
ENDMDL
MODEL 2
REMARK VINA RESULT:     -12.0      1.279      1.837
REMARK SMILES COc1ncnc(N2CCCC[C@H]2CC(=O)NCCCNC(=O)c2ccc(-c3c4nc(c(-c5c(F)c(F)c(F)c(F)c5F)c5ccc([nH]5)c(-c5c(F)c(F)c(F)c(F)c5F)c5nc(c(-c6c(F)c(F)c(F)c(F)c6F)c6ccc3[nH]6)C=C5)C=C4)cc2)c1[N+](=O)[O-]
REMARK SMILES IDX 18 1 17 2 15 3 16 4 14 6 13 7 8 8 9 9 10 10 12 11 11 12 7 13
REMARK SMILES IDX 3 14 4 15 87 16 5 17 6 18 2 19 1 20 88 21 89 22 90 23 19 24
REMARK SMILES IDX 20 25 21 26 22 27 23 29 24 30 25 31 86 32 26 33 85 34 27 35
REMARK SMILES IDX 28 36 29 37 79 38 30 39 84 40 78 41 80 42 31 43 83 44 77 45
REMARK SMILES IDX 76 46 32 48 64 49 44 50 63 51 45 52 48 53 62 54 81 55 46 56
REMARK SMILES IDX 47 57 61 59 82 60 49 61 33 62 34 63 42 64 35 65 36 66 40 67
REMARK SMILES IDX 43 68 37 69 38 70 41 71 39 72 65 73 66 74 74 75 67 76 68 77
REMARK SMILES IDX 72 78 75 79 69 80 70 81 73 82 71 83 50 84 51 85 59 86 52 87
REMARK SMILES IDX 53 88 57 89 60 90 54 91 55 92 58 93 56 94
REMARK H PARENT 17 5 21 28 80 47 48 58
REMARK Flexibility Score: inf
ROOT
ATOM      1  C   UNL A   1      31.420  30.846  26.128  1.00  0.00     0.117 C 
ENDROOT
BRANCH   1   2
ATOM      2  N   UNL A   1      30.971  30.575  24.772  1.00  0.00    -0.356 N 
ATOM      3  C   UNL A   1      30.740  29.424  24.086  1.00  0.00     0.222 C 
ATOM      4  O   UNL A   1      30.294  29.547  22.944  1.00  0.00    -0.275 OA
ATOM      5  H   UNL A   1      30.798  31.388  24.245  1.00  0.00     0.163 HD
BRANCH   3   6
ATOM      6  C   UNL A   1      30.984  28.063  24.702  1.00  0.00     0.125 C 
BRANCH   6   7
ATOM      7  C   UNL A   1      32.397  27.458  24.632  1.00  0.00     0.093 C 
ATOM      8  N   UNL A   1      32.441  26.091  24.068  1.00  0.00    -0.347 N 
ATOM      9  C   UNL A   1      32.465  25.958  22.603  1.00  0.00     0.118 C 
ATOM     10  C   UNL A   1      33.535  26.839  21.958  1.00  0.00     0.022 C 
ATOM     11  C   UNL A   1      33.485  28.318  23.984  1.00  0.00     0.026 C 
ATOM     12  C   UNL A   1      33.472  28.276  22.461  1.00  0.00     0.004 C 
BRANCH   8  13
ATOM     13  C   UNL A   1      33.232  25.171  24.767  1.00  0.00     0.215 A 
ATOM     14  C   UNL A   1      33.597  23.474  26.378  1.00  0.00     0.299 A 
ATOM     15  N   UNL A   1      34.917  23.440  26.123  1.00  0.00    -0.196 NA
ATOM     16  C   UNL A   1      32.733  24.333  25.744  1.00  0.00     0.372 A 
ATOM     17  C   UNL A   1      35.330  24.282  25.170  1.00  0.00     0.228 A 
ATOM     18  N   UNL A   1      34.553  25.130  24.476  1.00  0.00    -0.212 NA
BRANCH  14  19
ATOM     19  O   UNL A   1      33.181  22.640  27.383  1.00  0.00    -0.476 OA
ATOM     20  C   UNL A   1      34.110  21.571  27.554  1.00  0.00     0.280 C 
ENDBRANCH  14  19
BRANCH  16  21
ATOM     21  N   UNL A   1      31.343  24.277  26.042  1.00  0.00     0.072 N 
ATOM     22  O   UNL A   1      30.918  25.059  26.904  1.00  0.00    -0.258 OA
ATOM     23  O   UNL A   1      30.655  23.476  25.393  1.00  0.00    -0.258 OA
ENDBRANCH  16  21
ENDBRANCH   8  13
ENDBRANCH   6   7
ENDBRANCH   3   6
ENDBRANCH   1   2
BRANCH   1  24
ATOM     24  C   UNL A   1      31.365  32.325  26.513  1.00  0.00     0.042 C 
BRANCH  24  25
ATOM     25  C   UNL A   1      32.592  32.872  27.236  1.00  0.00     0.118 C 
BRANCH  25  26
ATOM     26  N   UNL A   1      32.428  34.258  27.631  1.00  0.00    -0.352 N 
ATOM     27  C   UNL A   1      33.022  34.938  28.666  1.00  0.00     0.251 C 
ATOM     28  H   UNL A   1      31.805  34.783  27.080  1.00  0.00     0.163 HD
ATOM     29  O   UNL A   1      32.613  36.052  28.974  1.00  0.00    -0.269 OA
BRANCH  27  30
ATOM     30  C   UNL A   1      34.144  34.338  29.428  1.00  0.00     0.039 A 
ATOM     31  C   UNL A   1      35.442  34.482  28.928  1.00  0.00     0.014 A 
ATOM     32  C   UNL A   1      33.926  33.578  30.583  1.00  0.00     0.014 A 
ATOM     33  C   UNL A   1      36.520  33.891  29.593  1.00  0.00     0.010 A 
ATOM     34  C   UNL A   1      35.010  33.024  31.273  1.00  0.00     0.010 A 
ATOM     35  C   UNL A   1      36.315  33.164  30.776  1.00  0.00    -0.014 A 
BRANCH  35  36
ATOM     36  C   UNL A   1      37.457  32.521  31.475  1.00  0.00     0.031 A 
ATOM     37  C   UNL A   1      38.198  31.381  30.831  1.00  0.00     0.074 A 
ATOM     38  C   UNL A   1      37.821  32.944  32.701  1.00  0.00     0.049 A 
ATOM     39  N   UNL A   1      39.213  30.689  31.288  1.00  0.00    -0.248 NA
ATOM     40  C   UNL A   1      37.729  30.953  29.505  1.00  0.00     0.031 C 
ATOM     41  C   UNL A   1      37.169  34.018  33.449  1.00  0.00     0.029 A 
ATOM     42  N   UNL A   1      38.826  32.517  33.533  1.00  0.00    -0.354 N 
ATOM     43  C   UNL A   1      39.496  29.743  30.312  1.00  0.00     0.074 A 
ATOM     44  C   UNL A   1      38.524  29.921  29.256  1.00  0.00     0.031 C 
ATOM     45  C   UNL A   1      37.796  34.174  34.626  1.00  0.00     0.029 A 
ATOM     46  C   UNL A   1      38.880  33.199  34.724  1.00  0.00     0.049 A 
ATOM     47  H   UNL A   1      39.447  31.791  33.299  1.00  0.00     0.167 HD
ATOM     48  C   UNL A   1      40.489  28.821  30.290  1.00  0.00     0.037 A 
ATOM     49  C   UNL A   1      39.707  33.052  35.777  1.00  0.00     0.037 A 
ATOM     50  C   UNL A   1      41.476  28.655  31.325  1.00  0.00     0.049 A 
ATOM     51  C   UNL A   1      40.797  32.017  35.729  1.00  0.00     0.074 A 
ATOM     52  C   UNL A   1      42.558  27.793  31.356  1.00  0.00     0.029 A 
ATOM     53  N   UNL A   1      41.498  29.365  32.515  1.00  0.00    -0.354 N 
ATOM     54  N   UNL A   1      41.096  31.174  34.773  1.00  0.00    -0.248 NA
ATOM     55  C   UNL A   1      41.670  31.919  36.909  1.00  0.00     0.031 C 
ATOM     56  C   UNL A   1      43.214  27.955  32.581  1.00  0.00     0.029 A 
ATOM     57  C   UNL A   1      42.561  28.944  33.298  1.00  0.00     0.049 A 
ATOM     58  H   UNL A   1      40.853  30.065  32.768  1.00  0.00     0.167 HD
ATOM     59  C   UNL A   1      42.199  30.462  35.221  1.00  0.00     0.074 A 
ATOM     60  C   UNL A   1      42.527  30.979  36.534  1.00  0.00     0.031 C 
ATOM     61  C   UNL A   1      42.878  29.466  34.600  1.00  0.00     0.037 A 
BRANCH  48  62
ATOM     62  C   UNL A   1      40.564  27.914  29.098  1.00  0.00     0.064 A 
ATOM     63  C   UNL A   1      39.766  26.764  29.001  1.00  0.00     0.173 A 
ATOM     64  C   UNL A   1      41.407  28.223  28.021  1.00  0.00     0.173 A 
ATOM     65  F   UNL A   1      38.951  26.422  30.011  1.00  0.00    -0.203 F 
ATOM     66  C   UNL A   1      39.825  25.944  27.877  1.00  0.00     0.198 A 
ATOM     67  C   UNL A   1      41.447  27.413  26.888  1.00  0.00     0.198 A 
ATOM     68  F   UNL A   1      42.185  29.315  28.062  1.00  0.00    -0.203 F 
ATOM     69  F   UNL A   1      39.081  24.831  27.822  1.00  0.00    -0.200 F 
ATOM     70  C   UNL A   1      40.661  26.273  26.820  1.00  0.00     0.200 A 
ATOM     71  F   UNL A   1      42.246  27.737  25.862  1.00  0.00    -0.200 F 
ATOM     72  F   UNL A   1      40.712  25.487  25.735  1.00  0.00    -0.200 F 
ENDBRANCH  48  62
BRANCH  49  73
ATOM     73  C   UNL A   1      39.549  33.928  36.965  1.00  0.00     0.064 A 
ATOM     74  C   UNL A   1      40.155  35.191  37.012  1.00  0.00     0.173 A 
ATOM     75  C   UNL A   1      38.793  33.522  38.072  1.00  0.00     0.173 A 
ATOM     76  F   UNL A   1      40.907  35.612  35.985  1.00  0.00    -0.203 F 
ATOM     77  C   UNL A   1      40.020  36.010  38.131  1.00  0.00     0.198 A 
ATOM     78  C   UNL A   1      38.640  34.352  39.182  1.00  0.00     0.198 A 
ATOM     79  F   UNL A   1      38.193  32.322  38.073  1.00  0.00    -0.203 F 
ATOM     80  F   UNL A   1      40.639  37.199  38.166  1.00  0.00    -0.200 F 
ATOM     81  C   UNL A   1      39.258  35.592  39.211  1.00  0.00     0.200 A 
ATOM     82  F   UNL A   1      37.895  33.949  40.219  1.00  0.00    -0.200 F 
ATOM     83  F   UNL A   1      39.125  36.383  40.286  1.00  0.00    -0.200 F 
ENDBRANCH  49  73
BRANCH  61  84
ATOM     84  C   UNL A   1      44.056  28.884  35.324  1.00  0.00     0.064 A 
ATOM     85  C   UNL A   1      43.908  27.811  36.216  1.00  0.00     0.173 A 
ATOM     86  C   UNL A   1      45.348  29.377  35.094  1.00  0.00     0.173 A 
ATOM     87  F   UNL A   1      42.690  27.316  36.479  1.00  0.00    -0.203 F 
ATOM     88  C   UNL A   1      45.012  27.267  36.866  1.00  0.00     0.198 A 
ATOM     89  C   UNL A   1      46.452  28.815  35.729  1.00  0.00     0.198 A 
ATOM     90  F   UNL A   1      45.541  30.399  34.247  1.00  0.00    -0.203 F 
ATOM     91  F   UNL A   1      44.844  26.267  37.744  1.00  0.00    -0.200 F 
ATOM     92  C   UNL A   1      46.282  27.764  36.619  1.00  0.00     0.200 A 
ATOM     93  F   UNL A   1      47.681  29.290  35.483  1.00  0.00    -0.200 F 
ATOM     94  F   UNL A   1      47.344  27.236  37.243  1.00  0.00    -0.200 F 
ENDBRANCH  61  84
ENDBRANCH  35  36
ENDBRANCH  27  30
ENDBRANCH  25  26
ENDBRANCH  24  25
ENDBRANCH   1  24
TORSDOF 14
ENDMDL
MODEL 3
REMARK VINA RESULT:     -12.0      0.329      1.617
REMARK SMILES COc1ncnc(N2CCCC[C@H]2CC(=O)NCCCNC(=O)c2ccc(-c3c4nc(c(-c5c(F)c(F)c(F)c(F)c5F)c5ccc([nH]5)c(-c5c(F)c(F)c(F)c(F)c5F)c5nc(c(-c6c(F)c(F)c(F)c(F)c6F)c6ccc3[nH]6)C=C5)C=C4)cc2)c1[N+](=O)[O-]
REMARK SMILES IDX 18 1 17 2 15 3 16 4 14 6 13 7 8 8 9 9 10 10 12 11 11 12 7 13
REMARK SMILES IDX 3 14 4 15 87 16 5 17 6 18 2 19 1 20 88 21 89 22 90 23 19 24
REMARK SMILES IDX 20 25 21 26 22 27 23 29 24 30 25 31 86 32 26 33 85 34 27 35
REMARK SMILES IDX 28 36 29 37 79 38 30 39 84 40 78 41 80 42 31 43 83 44 77 45
REMARK SMILES IDX 76 46 32 48 64 49 44 50 63 51 45 52 48 53 62 54 81 55 46 56
REMARK SMILES IDX 47 57 61 59 82 60 49 61 33 62 34 63 42 64 35 65 36 66 40 67
REMARK SMILES IDX 43 68 37 69 38 70 41 71 39 72 65 73 66 74 74 75 67 76 68 77
REMARK SMILES IDX 72 78 75 79 69 80 70 81 73 82 71 83 50 84 51 85 59 86 52 87
REMARK SMILES IDX 53 88 57 89 60 90 54 91 55 92 58 93 56 94
REMARK H PARENT 17 5 21 28 80 47 48 58
REMARK Flexibility Score: inf
ROOT
ATOM      1  C   UNL A   1      31.404  30.993  26.164  1.00  0.00     0.117 C 
ENDROOT
BRANCH   1   2
ATOM      2  N   UNL A   1      32.479  30.260  26.812  1.00  0.00    -0.356 N 
ATOM      3  C   UNL A   1      32.681  28.937  27.057  1.00  0.00     0.222 C 
ATOM      4  O   UNL A   1      33.753  28.636  27.585  1.00  0.00    -0.275 OA
ATOM      5  H   UNL A   1      33.207  30.836  27.139  1.00  0.00     0.163 HD
BRANCH   3   6
ATOM      6  C   UNL A   1      31.662  27.887  26.672  1.00  0.00     0.125 C 
BRANCH   6   7
ATOM      7  C   UNL A   1      31.817  27.158  25.325  1.00  0.00     0.093 C 
ATOM      8  N   UNL A   1      31.051  25.897  25.229  1.00  0.00    -0.347 N 
ATOM      9  C   UNL A   1      29.631  25.988  24.855  1.00  0.00     0.118 C 
ATOM     10  C   UNL A   1      29.414  26.844  23.606  1.00  0.00     0.022 C 
ATOM     11  C   UNL A   1      31.598  27.992  24.060  1.00  0.00     0.026 C 
ATOM     12  C   UNL A   1      30.130  28.185  23.701  1.00  0.00     0.004 C 
BRANCH   8  13
ATOM     13  C   UNL A   1      31.744  24.805  24.693  1.00  0.00     0.215 A 
ATOM     14  C   UNL A   1      32.570  22.586  24.730  1.00  0.00     0.299 A 
ATOM     15  N   UNL A   1      33.199  22.743  23.553  1.00  0.00    -0.196 NA
ATOM     16  C   UNL A   1      31.858  23.591  25.339  1.00  0.00     0.372 A 
ATOM     17  C   UNL A   1      33.051  23.946  22.988  1.00  0.00     0.228 A 
ATOM     18  N   UNL A   1      32.347  24.972  23.493  1.00  0.00    -0.212 NA
BRANCH  14  19
ATOM     19  O   UNL A   1      32.757  21.366  25.328  1.00  0.00    -0.476 OA
ATOM     20  C   UNL A   1      32.304  20.321  24.468  1.00  0.00     0.280 C 
ENDBRANCH  14  19
BRANCH  16  21
ATOM     21  N   UNL A   1      31.186  23.330  26.566  1.00  0.00     0.072 N 
ATOM     22  O   UNL A   1      31.745  23.704  27.607  1.00  0.00    -0.258 OA
ATOM     23  O   UNL A   1      30.077  22.781  26.500  1.00  0.00    -0.258 OA
ENDBRANCH  16  21
ENDBRANCH   8  13
ENDBRANCH   6   7
ENDBRANCH   3   6
ENDBRANCH   1   2
BRANCH   1  24
ATOM     24  C   UNL A   1      31.371  32.481  26.516  1.00  0.00     0.042 C 
BRANCH  24  25
ATOM     25  C   UNL A   1      32.598  33.021  27.245  1.00  0.00     0.118 C 
BRANCH  25  26
ATOM     26  N   UNL A   1      32.423  34.394  27.677  1.00  0.00    -0.352 N 
ATOM     27  C   UNL A   1      33.010  35.050  28.732  1.00  0.00     0.251 C 
ATOM     28  H   UNL A   1      31.798  34.930  27.139  1.00  0.00     0.163 HD
ATOM     29  O   UNL A   1      32.592  36.153  29.069  1.00  0.00    -0.269 OA
BRANCH  27  30
ATOM     30  C   UNL A   1      34.135  34.438  29.480  1.00  0.00     0.039 A 
ATOM     31  C   UNL A   1      35.421  34.524  28.938  1.00  0.00     0.014 A 
ATOM     32  C   UNL A   1      33.927  33.721  30.664  1.00  0.00     0.014 A 
ATOM     33  C   UNL A   1      36.499  33.919  29.590  1.00  0.00     0.010 A 
ATOM     34  C   UNL A   1      35.013  33.155  31.340  1.00  0.00     0.010 A 
ATOM     35  C   UNL A   1      36.306  33.236  30.801  1.00  0.00    -0.014 A 
BRANCH  35  36
ATOM     36  C   UNL A   1      37.449  32.578  31.487  1.00  0.00     0.031 A 
ATOM     37  C   UNL A   1      38.176  31.438  30.829  1.00  0.00     0.074 A 
ATOM     38  C   UNL A   1      37.824  32.988  32.714  1.00  0.00     0.049 A 
ATOM     39  N   UNL A   1      39.188  30.734  31.274  1.00  0.00    -0.248 NA
ATOM     40  C   UNL A   1      37.695  31.025  29.502  1.00  0.00     0.031 C 
ATOM     41  C   UNL A   1      37.185  34.060  33.476  1.00  0.00     0.029 A 
ATOM     42  N   UNL A   1      38.830  32.546  33.537  1.00  0.00    -0.354 N 
ATOM     43  C   UNL A   1      39.457  29.794  30.288  1.00  0.00     0.074 A 
ATOM     44  C   UNL A   1      38.480  29.989  29.239  1.00  0.00     0.031 C 
ATOM     45  C   UNL A   1      37.821  34.202  34.650  1.00  0.00     0.029 A 
ATOM     46  C   UNL A   1      38.898  33.217  34.733  1.00  0.00     0.049 A 
ATOM     47  H   UNL A   1      39.445  31.817  33.292  1.00  0.00     0.167 HD
ATOM     48  C   UNL A   1      40.442  28.864  30.251  1.00  0.00     0.037 A 
ATOM     49  C   UNL A   1      39.731  33.055  35.779  1.00  0.00     0.037 A 
ATOM     50  C   UNL A   1      41.435  28.682  31.278  1.00  0.00     0.049 A 
ATOM     51  C   UNL A   1      40.812  32.012  35.715  1.00  0.00     0.074 A 
ATOM     52  C   UNL A   1      42.510  27.810  31.294  1.00  0.00     0.029 A 
ATOM     53  N   UNL A   1      41.470  29.381  32.473  1.00  0.00    -0.354 N 
ATOM     54  N   UNL A   1      41.098  31.175  34.750  1.00  0.00    -0.248 NA
ATOM     55  C   UNL A   1      41.692  31.896  36.888  1.00  0.00     0.031 C 
ATOM     56  C   UNL A   1      43.176  27.957  32.517  1.00  0.00     0.029 A 
ATOM     57  C   UNL A   1      42.536  28.945  33.246  1.00  0.00     0.049 A 
ATOM     58  H   UNL A   1      40.833  30.084  32.737  1.00  0.00     0.167 HD
ATOM     59  C   UNL A   1      42.198  30.449  35.185  1.00  0.00     0.074 A 
ATOM     60  C   UNL A   1      42.538  30.953  36.499  1.00  0.00     0.031 C 
ATOM     61  C   UNL A   1      42.865  29.454  34.551  1.00  0.00     0.037 A 
BRANCH  48  62
ATOM     62  C   UNL A   1      40.502  27.967  29.051  1.00  0.00     0.064 A 
ATOM     63  C   UNL A   1      39.752  26.784  28.983  1.00  0.00     0.173 A 
ATOM     64  C   UNL A   1      41.281  28.317  27.938  1.00  0.00     0.173 A 
ATOM     65  F   UNL A   1      39.000  26.401  30.027  1.00  0.00    -0.203 F 
ATOM     66  C   UNL A   1      39.795  25.972  27.853  1.00  0.00     0.198 A 
ATOM     67  C   UNL A   1      41.304  27.515  26.800  1.00  0.00     0.198 A 
ATOM     68  F   UNL A   1      42.011  29.443  27.951  1.00  0.00    -0.203 F 
ATOM     69  F   UNL A   1      39.100  24.827  27.824  1.00  0.00    -0.200 F 
ATOM     70  C   UNL A   1      40.567  26.342  26.760  1.00  0.00     0.200 A 
ATOM     71  F   UNL A   1      42.040  27.879  25.740  1.00  0.00    -0.200 F 
ATOM     72  F   UNL A   1      40.602  25.564  25.669  1.00  0.00    -0.200 F 
ENDBRANCH  48  62
BRANCH  49  73
ATOM     73  C   UNL A   1      39.587  33.922  36.975  1.00  0.00     0.064 A 
ATOM     74  C   UNL A   1      38.841  33.499  38.083  1.00  0.00     0.173 A 
ATOM     75  C   UNL A   1      40.191  35.186  37.034  1.00  0.00     0.173 A 
ATOM     76  F   UNL A   1      38.227  32.308  38.062  1.00  0.00    -0.203 F 
ATOM     77  C   UNL A   1      38.693  34.316  39.202  1.00  0.00     0.198 A 
ATOM     78  C   UNL A   1      40.060  35.992  38.163  1.00  0.00     0.198 A 
ATOM     79  F   UNL A   1      40.916  35.633  35.998  1.00  0.00    -0.203 F 
ATOM     80  F   UNL A   1      37.944  33.903  40.235  1.00  0.00    -0.200 F 
ATOM     81  C   UNL A   1      39.307  35.558  39.243  1.00  0.00     0.200 A 
ATOM     82  F   UNL A   1      40.664  37.187  38.203  1.00  0.00    -0.200 F 
ATOM     83  F   UNL A   1      39.168  36.342  40.322  1.00  0.00    -0.200 F 
ENDBRANCH  49  73
BRANCH  61  84
ATOM     84  C   UNL A   1      44.042  28.856  35.261  1.00  0.00     0.064 A 
ATOM     85  C   UNL A   1      43.892  27.776  36.144  1.00  0.00     0.173 A 
ATOM     86  C   UNL A   1      45.337  29.341  35.028  1.00  0.00     0.173 A 
ATOM     87  F   UNL A   1      42.672  27.287  36.411  1.00  0.00    -0.203 F 
ATOM     88  C   UNL A   1      44.996  27.217  36.783  1.00  0.00     0.198 A 
ATOM     89  C   UNL A   1      46.441  28.766  35.652  1.00  0.00     0.198 A 
ATOM     90  F   UNL A   1      45.533  30.370  34.190  1.00  0.00    -0.203 F 
ATOM     91  F   UNL A   1      44.826  26.211  37.652  1.00  0.00    -0.200 F 
ATOM     92  C   UNL A   1      46.269  27.708  36.532  1.00  0.00     0.200 A 
ATOM     93  F   UNL A   1      47.671  29.234  35.402  1.00  0.00    -0.200 F 
ATOM     94  F   UNL A   1      47.330  27.165  37.145  1.00  0.00    -0.200 F 
ENDBRANCH  61  84
ENDBRANCH  35  36
ENDBRANCH  27  30
ENDBRANCH  25  26
ENDBRANCH  24  25
ENDBRANCH   1  24
TORSDOF 14
ENDMDL
