MODEL 1
REMARK VINA RESULT:     -12.8      0.000      0.000
REMARK SMILES C[C@]12CCC(=O)N1[C@@H](C(=O)N1C[C@H](O)C[C@@H]1C(=O)NCCCNC(=O)c1ccc(-c3c4nc(c(-c5c(F)c(F)c(F)c(F)c5F)c5ccc([nH]5)c(-c5c(F)c(F)c(F)c(F)c5F)c5nc(c(-c6c(F)c(F)c(F)c(F)c6F)c6ccc3[nH]6)C=C5)C=C4)cc1)CS2
REMARK SMILES IDX 21 1 20 2 19 3 17 4 18 5 16 7 11 8 12 9 13 10 15 11 9 12
REMARK SMILES IDX 10 13 8 14 1 15 2 16 3 17 7 18 90 19 4 20 5 21 89 22 6 23
REMARK SMILES IDX 14 24 22 26 23 27 24 28 25 30 26 31 27 32 88 33 28 34 87 35
REMARK SMILES IDX 29 36 30 37 31 38 81 39 32 40 86 41 80 42 82 43 33 44 85 45
REMARK SMILES IDX 79 46 78 47 34 49 66 50 46 51 65 52 47 53 50 54 64 55 83 56
REMARK SMILES IDX 48 57 49 58 63 60 84 61 51 62 35 63 36 64 44 65 37 66 38 67
REMARK SMILES IDX 42 68 45 69 39 70 40 71 43 72 41 73 67 74 68 75 76 76 69 77
REMARK SMILES IDX 70 78 74 79 77 80 71 81 72 82 75 83 73 84 52 85 53 86 61 87
REMARK SMILES IDX 54 88 55 89 59 90 62 91 56 92 57 93 60 94 58 95
REMARK H PARENT 19 6 14 25 23 29 82 48 50 59
REMARK Flexibility Score: inf
ROOT
ATOM      1  C   UNL A   1      31.518  32.015  26.776  1.00  0.00     0.042 C 
ENDROOT
BRANCH   1   2
ATOM      2  C   UNL A   1      31.740  30.511  26.882  1.00  0.00     0.117 C 
BRANCH   2   3
ATOM      3  N   UNL A   1      32.387  29.917  25.725  1.00  0.00    -0.354 N 
ATOM      4  C   UNL A   1      31.847  29.508  24.536  1.00  0.00     0.242 C 
ATOM      5  O   UNL A   1      32.631  29.162  23.647  1.00  0.00    -0.273 OA
ATOM      6  H   UNL A   1      33.360  29.788  25.809  1.00  0.00     0.163 HD
BRANCH   4   7
ATOM      7  C   UNL A   1      30.316  29.368  24.374  1.00  0.00     0.177 C 
ATOM      8  N   UNL A   1      29.959  28.138  23.631  1.00  0.00    -0.326 N 
ATOM      9  C   UNL A   1      29.409  28.468  22.321  1.00  0.00     0.152 C 
ATOM     10  C   UNL A   1      29.748  29.933  22.109  1.00  0.00     0.136 C 
ATOM     11  C   UNL A   1      29.721  30.498  23.520  1.00  0.00     0.069 C 
BRANCH   8  12
ATOM     12  C   UNL A   1      29.871  26.825  24.036  1.00  0.00     0.247 C 
ATOM     13  O   UNL A   1      28.805  26.209  23.869  1.00  0.00    -0.272 OA
BRANCH  12  14
ATOM     14  C   UNL A   1      30.976  26.116  24.844  1.00  0.00     0.186 C 
ATOM     15  C   UNL A   1      33.985  26.500  25.867  1.00  0.00     0.047 C 
ATOM     16  C   UNL A   1      33.298  25.423  25.026  1.00  0.00     0.087 C 
ATOM     17  C   UNL A   1      34.289  24.736  24.092  1.00  0.00     0.049 C 
ATOM     18  N   UNL A   1      32.266  25.944  24.166  1.00  0.00    -0.315 N 
ATOM     19  S   UNL A   1      32.389  24.262  26.133  1.00  0.00    -0.131 SA
ATOM     20  C   UNL A   1      33.513  24.467  22.819  1.00  0.00     0.103 C 
ATOM     21  C   UNL A   1      32.361  25.428  22.880  1.00  0.00     0.224 C 
ATOM     22  C   UNL A   1      30.716  24.825  25.601  1.00  0.00     0.107 C 
ATOM     23  O   UNL A   1      31.578  25.597  21.958  1.00  0.00    -0.275 OA
ENDBRANCH  12  14
ENDBRANCH   8  12
BRANCH  10  24
ATOM     24  O   UNL A   1      31.054  30.101  21.560  1.00  0.00    -0.391 OA
ATOM     25  H   UNL A   1      31.451  29.231  21.401  1.00  0.00     0.211 HD
ENDBRANCH  10  24
ENDBRANCH   4   7
ENDBRANCH   2   3
ENDBRANCH   1   2
BRANCH   1  26
ATOM     26  C   UNL A   1      32.742  32.891  27.015  1.00  0.00     0.118 C 
BRANCH  26  27
ATOM     27  N   UNL A   1      32.437  34.191  27.592  1.00  0.00    -0.352 N 
ATOM     28  C   UNL A   1      33.009  34.901  28.622  1.00  0.00     0.251 C 
ATOM     29  H   UNL A   1      31.678  34.649  27.166  1.00  0.00     0.163 HD
ATOM     30  O   UNL A   1      32.483  35.953  28.977  1.00  0.00    -0.269 OA
BRANCH  28  31
ATOM     31  C   UNL A   1      34.211  34.418  29.342  1.00  0.00     0.039 A 
ATOM     32  C   UNL A   1      34.033  33.784  30.579  1.00  0.00     0.014 A 
ATOM     33  C   UNL A   1      35.504  34.613  28.857  1.00  0.00     0.014 A 
ATOM     34  C   UNL A   1      35.133  33.274  31.276  1.00  0.00     0.010 A 
ATOM     35  C   UNL A   1      36.590  34.024  29.503  1.00  0.00     0.010 A 
ATOM     36  C   UNL A   1      36.419  33.345  30.719  1.00  0.00    -0.014 A 
BRANCH  36  37
ATOM     37  C   UNL A   1      37.593  32.718  31.382  1.00  0.00     0.031 A 
ATOM     38  C   UNL A   1      38.315  31.572  30.727  1.00  0.00     0.074 A 
ATOM     39  C   UNL A   1      37.949  33.107  32.622  1.00  0.00     0.049 A 
ATOM     40  N   UNL A   1      39.260  30.804  31.206  1.00  0.00    -0.248 NA
ATOM     41  C   UNL A   1      37.886  31.215  29.366  1.00  0.00     0.031 C 
ATOM     42  C   UNL A   1      37.292  34.159  33.400  1.00  0.00     0.029 A 
ATOM     43  N   UNL A   1      38.938  32.647  33.456  1.00  0.00    -0.354 N 
ATOM     44  C   UNL A   1      39.501  29.846  30.230  1.00  0.00     0.074 A 
ATOM     45  C   UNL A   1      38.583  30.111  29.143  1.00  0.00     0.031 C 
ATOM     46  C   UNL A   1      37.902  34.272  34.591  1.00  0.00     0.029 A 
ATOM     47  C   UNL A   1      38.969  33.280  34.675  1.00  0.00     0.049 A 
ATOM     48  H   UNL A   1      39.563  31.930  33.206  1.00  0.00     0.167 HD
ATOM     49  C   UNL A   1      40.414  28.845  30.234  1.00  0.00     0.037 A 
ATOM     50  C   UNL A   1      39.763  33.079  35.744  1.00  0.00     0.037 A 
ATOM     51  C   UNL A   1      41.376  28.625  31.281  1.00  0.00     0.049 A 
ATOM     52  C   UNL A   1      40.825  32.020  35.689  1.00  0.00     0.074 A 
ATOM     53  C   UNL A   1      42.414  27.710  31.322  1.00  0.00     0.029 A 
ATOM     54  N   UNL A   1      41.425  29.339  32.468  1.00  0.00    -0.354 N 
ATOM     55  N   UNL A   1      41.087  31.164  34.733  1.00  0.00    -0.248 NA
ATOM     56  C   UNL A   1      41.707  31.903  36.860  1.00  0.00     0.031 C 
ATOM     57  C   UNL A   1      43.074  27.852  32.548  1.00  0.00     0.029 A 
ATOM     58  C   UNL A   1      42.466  28.876  33.256  1.00  0.00     0.049 A 
ATOM     59  H   UNL A   1      40.809  30.066  32.716  1.00  0.00     0.167 HD
ATOM     60  C   UNL A   1      42.169  30.417  35.175  1.00  0.00     0.074 A 
ATOM     61  C   UNL A   1      42.525  30.930  36.482  1.00  0.00     0.031 C 
ATOM     62  C   UNL A   1      42.808  29.396  34.554  1.00  0.00     0.037 A 
BRANCH  49  63
ATOM     63  C   UNL A   1      40.416  27.909  29.061  1.00  0.00     0.064 A 
ATOM     64  C   UNL A   1      41.194  28.154  27.920  1.00  0.00     0.173 A 
ATOM     65  C   UNL A   1      39.639  26.740  29.087  1.00  0.00     0.173 A 
ATOM     66  F   UNL A   1      41.945  29.262  27.842  1.00  0.00    -0.203 F 
ATOM     67  C   UNL A   1      41.166  27.283  26.834  1.00  0.00     0.198 A 
ATOM     68  C   UNL A   1      39.634  25.858  28.010  1.00  0.00     0.198 A 
ATOM     69  F   UNL A   1      38.880  26.455  30.157  1.00  0.00    -0.203 F 
ATOM     70  F   UNL A   1      41.877  27.566  25.733  1.00  0.00    -0.200 F 
ATOM     71  C   UNL A   1      40.391  26.134  26.881  1.00  0.00     0.200 A 
ATOM     72  F   UNL A   1      38.892  24.743  28.061  1.00  0.00    -0.200 F 
ATOM     73  F   UNL A   1      40.365  25.298  25.835  1.00  0.00    -0.200 F 
ENDBRANCH  49  63
BRANCH  50  74
ATOM     74  C   UNL A   1      39.592  33.930  36.948  1.00  0.00     0.064 A 
ATOM     75  C   UNL A   1      40.189  35.195  37.022  1.00  0.00     0.173 A 
ATOM     76  C   UNL A   1      38.807  33.511  38.031  1.00  0.00     0.173 A 
ATOM     77  F   UNL A   1      40.964  35.627  36.015  1.00  0.00    -0.203 F 
ATOM     78  C   UNL A   1      40.014  36.009  38.138  1.00  0.00     0.198 A 
ATOM     79  C   UNL A   1      38.614  34.334  39.138  1.00  0.00     0.198 A 
ATOM     80  F   UNL A   1      38.208  32.311  38.002  1.00  0.00    -0.203 F 
ATOM     81  F   UNL A   1      40.617  37.204  38.194  1.00  0.00    -0.200 F 
ATOM     82  C   UNL A   1      39.221  35.581  39.193  1.00  0.00     0.200 A 
ATOM     83  F   UNL A   1      37.837  33.923  40.149  1.00  0.00    -0.200 F 
ATOM     84  F   UNL A   1      39.043  36.368  40.261  1.00  0.00    -0.200 F 
ENDBRANCH  50  74
BRANCH  62  85
ATOM     85  C   UNL A   1      43.967  28.776  35.272  1.00  0.00     0.064 A 
ATOM     86  C   UNL A   1      45.280  29.222  35.062  1.00  0.00     0.173 A 
ATOM     87  C   UNL A   1      43.760  27.755  36.211  1.00  0.00     0.173 A 
ATOM     88  F   UNL A   1      45.529  30.186  34.162  1.00  0.00    -0.203 F 
ATOM     89  C   UNL A   1      46.346  28.657  35.756  1.00  0.00     0.198 A 
ATOM     90  C   UNL A   1      44.825  27.206  36.918  1.00  0.00     0.198 A 
ATOM     91  F   UNL A   1      42.521  27.295  36.447  1.00  0.00    -0.203 F 
ATOM     92  F   UNL A   1      47.596  29.075  35.515  1.00  0.00    -0.200 F 
ATOM     93  C   UNL A   1      46.117  27.654  36.687  1.00  0.00     0.200 A 
ATOM     94  F   UNL A   1      44.603  26.242  37.822  1.00  0.00    -0.200 F 
ATOM     95  F   UNL A   1      47.144  27.115  37.358  1.00  0.00    -0.200 F 
ENDBRANCH  62  85
ENDBRANCH  36  37
ENDBRANCH  28  31
ENDBRANCH  26  27
ENDBRANCH   1  26
TORSDOF 13
ENDMDL
MODEL 2
REMARK VINA RESULT:     -12.8      0.070      1.586
REMARK SMILES C[C@]12CCC(=O)N1[C@@H](C(=O)N1C[C@H](O)C[C@@H]1C(=O)NCCCNC(=O)c1ccc(-c3c4nc(c(-c5c(F)c(F)c(F)c(F)c5F)c5ccc([nH]5)c(-c5c(F)c(F)c(F)c(F)c5F)c5nc(c(-c6c(F)c(F)c(F)c(F)c6F)c6ccc3[nH]6)C=C5)C=C4)cc1)CS2
REMARK SMILES IDX 21 1 20 2 19 3 17 4 18 5 16 7 11 8 12 9 13 10 15 11 9 12
REMARK SMILES IDX 10 13 8 14 1 15 2 16 3 17 7 18 90 19 4 20 5 21 89 22 6 23
REMARK SMILES IDX 14 24 22 26 23 27 24 28 25 30 26 31 27 32 88 33 28 34 87 35
REMARK SMILES IDX 29 36 30 37 31 38 81 39 32 40 86 41 80 42 82 43 33 44 85 45
REMARK SMILES IDX 79 46 78 47 34 49 66 50 46 51 65 52 47 53 50 54 64 55 83 56
REMARK SMILES IDX 48 57 49 58 63 60 84 61 51 62 35 63 36 64 44 65 37 66 38 67
REMARK SMILES IDX 42 68 45 69 39 70 40 71 43 72 41 73 67 74 68 75 76 76 69 77
REMARK SMILES IDX 70 78 74 79 77 80 71 81 72 82 75 83 73 84 52 85 53 86 61 87
REMARK SMILES IDX 54 88 55 89 59 90 62 91 56 92 57 93 60 94 58 95
REMARK H PARENT 19 6 14 25 23 29 82 48 50 59
REMARK Flexibility Score: inf
ROOT
ATOM      1  C   UNL A   1      31.520  32.012  26.774  1.00  0.00     0.042 C 
ENDROOT
BRANCH   1   2
ATOM      2  C   UNL A   1      31.745  30.508  26.880  1.00  0.00     0.117 C 
BRANCH   2   3
ATOM      3  N   UNL A   1      32.389  29.914  25.721  1.00  0.00    -0.354 N 
ATOM      4  C   UNL A   1      31.845  29.506  24.534  1.00  0.00     0.242 C 
ATOM      5  O   UNL A   1      32.627  29.161  23.642  1.00  0.00    -0.273 OA
ATOM      6  H   UNL A   1      33.361  29.784  25.803  1.00  0.00     0.163 HD
BRANCH   4   7
ATOM      7  C   UNL A   1      30.314  29.369  24.374  1.00  0.00     0.177 C 
ATOM      8  N   UNL A   1      29.954  28.138  23.634  1.00  0.00    -0.326 N 
ATOM      9  C   UNL A   1      29.401  28.468  22.325  1.00  0.00     0.152 C 
ATOM     10  C   UNL A   1      29.742  29.932  22.110  1.00  0.00     0.136 C 
ATOM     11  C   UNL A   1      29.719  30.498  23.521  1.00  0.00     0.069 C 
BRANCH   8  12
ATOM     12  C   UNL A   1      29.865  26.825  24.040  1.00  0.00     0.247 C 
ATOM     13  O   UNL A   1      28.799  26.210  23.873  1.00  0.00    -0.272 OA
BRANCH  12  14
ATOM     14  C   UNL A   1      30.969  26.117  24.850  1.00  0.00     0.186 C 
ATOM     15  C   UNL A   1      33.976  26.502  25.878  1.00  0.00     0.047 C 
ATOM     16  C   UNL A   1      33.291  25.425  25.036  1.00  0.00     0.087 C 
ATOM     17  C   UNL A   1      34.284  24.739  24.103  1.00  0.00     0.049 C 
ATOM     18  N   UNL A   1      32.260  25.946  24.174  1.00  0.00    -0.315 N 
ATOM     19  S   UNL A   1      32.381  24.264  26.141  1.00  0.00    -0.131 SA
ATOM     20  C   UNL A   1      33.510  24.470  22.829  1.00  0.00     0.103 C 
ATOM     21  C   UNL A   1      32.357  25.430  22.888  1.00  0.00     0.224 C 
ATOM     22  C   UNL A   1      30.708  24.826  25.606  1.00  0.00     0.107 C 
ATOM     23  O   UNL A   1      31.576  25.599  21.964  1.00  0.00    -0.275 OA
ENDBRANCH  12  14
ENDBRANCH   8  12
BRANCH  10  24
ATOM     24  O   UNL A   1      31.047  30.098  21.558  1.00  0.00    -0.391 OA
ATOM     25  H   UNL A   1      31.558  29.285  21.690  1.00  0.00     0.211 HD
ENDBRANCH  10  24
ENDBRANCH   4   7
ENDBRANCH   2   3
ENDBRANCH   1   2
BRANCH   1  26
ATOM     26  C   UNL A   1      32.742  32.890  27.013  1.00  0.00     0.118 C 
BRANCH  26  27
ATOM     27  N   UNL A   1      32.436  34.188  27.594  1.00  0.00    -0.352 N 
ATOM     28  C   UNL A   1      33.009  34.897  28.623  1.00  0.00     0.251 C 
ATOM     29  H   UNL A   1      31.675  34.645  27.170  1.00  0.00     0.163 HD
ATOM     30  O   UNL A   1      32.481  35.947  28.981  1.00  0.00    -0.269 OA
BRANCH  28  31
ATOM     31  C   UNL A   1      34.213  34.416  29.340  1.00  0.00     0.039 A 
ATOM     32  C   UNL A   1      34.041  33.785  30.579  1.00  0.00     0.014 A 
ATOM     33  C   UNL A   1      35.504  34.609  28.848  1.00  0.00     0.014 A 
ATOM     34  C   UNL A   1      35.144  33.277  31.273  1.00  0.00     0.010 A 
ATOM     35  C   UNL A   1      36.593  34.021  29.491  1.00  0.00     0.010 A 
ATOM     36  C   UNL A   1      36.427  33.347  30.710  1.00  0.00    -0.014 A 
BRANCH  36  37
ATOM     37  C   UNL A   1      37.604  32.721  31.369  1.00  0.00     0.031 A 
ATOM     38  C   UNL A   1      38.328  31.578  30.710  1.00  0.00     0.074 A 
ATOM     39  C   UNL A   1      37.960  33.107  32.610  1.00  0.00     0.049 A 
ATOM     40  N   UNL A   1      39.276  30.811  31.186  1.00  0.00    -0.248 NA
ATOM     41  C   UNL A   1      37.898  31.224  29.349  1.00  0.00     0.031 C 
ATOM     42  C   UNL A   1      37.301  34.155  33.392  1.00  0.00     0.029 A 
ATOM     43  N   UNL A   1      38.952  32.647  33.441  1.00  0.00    -0.354 N 
ATOM     44  C   UNL A   1      39.518  29.857  30.207  1.00  0.00     0.074 A 
ATOM     45  C   UNL A   1      38.598  30.123  29.122  1.00  0.00     0.031 C 
ATOM     46  C   UNL A   1      37.913  34.266  34.582  1.00  0.00     0.029 A 
ATOM     47  C   UNL A   1      38.984  33.278  34.661  1.00  0.00     0.049 A 
ATOM     48  H   UNL A   1      39.579  31.933  33.188  1.00  0.00     0.167 HD
ATOM     49  C   UNL A   1      40.434  28.859  30.206  1.00  0.00     0.037 A 
ATOM     50  C   UNL A   1      39.779  33.076  35.729  1.00  0.00     0.037 A 
ATOM     51  C   UNL A   1      41.399  28.639  31.251  1.00  0.00     0.049 A 
ATOM     52  C   UNL A   1      40.844  32.020  35.670  1.00  0.00     0.074 A 
ATOM     53  C   UNL A   1      42.439  27.726  31.289  1.00  0.00     0.029 A 
ATOM     54  N   UNL A   1      41.447  29.349  32.441  1.00  0.00    -0.354 N 
ATOM     55  N   UNL A   1      41.107  31.167  34.711  1.00  0.00    -0.248 NA
ATOM     56  C   UNL A   1      41.728  31.902  36.839  1.00  0.00     0.031 C 
ATOM     57  C   UNL A   1      43.100  27.867  32.514  1.00  0.00     0.029 A 
ATOM     58  C   UNL A   1      42.491  28.887  33.226  1.00  0.00     0.049 A 
ATOM     59  H   UNL A   1      40.829  30.074  32.691  1.00  0.00     0.167 HD
ATOM     60  C   UNL A   1      42.192  30.422  35.149  1.00  0.00     0.074 A 
ATOM     61  C   UNL A   1      42.549  30.933  36.457  1.00  0.00     0.031 C 
ATOM     62  C   UNL A   1      42.833  29.404  34.525  1.00  0.00     0.037 A 
BRANCH  49  63
ATOM     63  C   UNL A   1      40.437  27.925  29.031  1.00  0.00     0.064 A 
ATOM     64  C   UNL A   1      39.656  26.760  29.011  1.00  0.00     0.173 A 
ATOM     65  C   UNL A   1      41.220  28.210  27.902  1.00  0.00     0.173 A 
ATOM     66  F   UNL A   1      38.899  26.437  30.070  1.00  0.00    -0.203 F 
ATOM     67  C   UNL A   1      39.687  25.896  27.920  1.00  0.00     0.198 A 
ATOM     68  C   UNL A   1      41.228  27.358  26.801  1.00  0.00     0.198 A 
ATOM     69  F   UNL A   1      41.981  29.315  27.868  1.00  0.00    -0.203 F 
ATOM     70  F   UNL A   1      38.974  24.762  27.946  1.00  0.00    -0.200 F 
ATOM     71  C   UNL A   1      40.469  26.198  26.814  1.00  0.00     0.200 A 
ATOM     72  F   UNL A   1      41.976  27.655  25.729  1.00  0.00    -0.200 F 
ATOM     73  F   UNL A   1      40.498  25.365  25.765  1.00  0.00    -0.200 F 
ENDBRANCH  49  63
BRANCH  50  74
ATOM     74  C   UNL A   1      39.608  33.922  36.936  1.00  0.00     0.064 A 
ATOM     75  C   UNL A   1      40.200  35.190  37.011  1.00  0.00     0.173 A 
ATOM     76  C   UNL A   1      38.826  33.498  38.019  1.00  0.00     0.173 A 
ATOM     77  F   UNL A   1      40.971  35.628  36.004  1.00  0.00    -0.203 F 
ATOM     78  C   UNL A   1      40.024  36.000  38.130  1.00  0.00     0.198 A 
ATOM     79  C   UNL A   1      38.633  34.318  39.129  1.00  0.00     0.198 A 
ATOM     80  F   UNL A   1      38.232  32.296  37.988  1.00  0.00    -0.203 F 
ATOM     81  F   UNL A   1      40.623  37.198  38.188  1.00  0.00    -0.200 F 
ATOM     82  C   UNL A   1      39.235  35.567  39.185  1.00  0.00     0.200 A 
ATOM     83  F   UNL A   1      37.860  33.901  40.141  1.00  0.00    -0.200 F 
ATOM     84  F   UNL A   1      39.057  36.350  40.257  1.00  0.00    -0.200 F 
ENDBRANCH  50  74
BRANCH  62  85
ATOM     85  C   UNL A   1      43.994  28.786  35.239  1.00  0.00     0.064 A 
ATOM     86  C   UNL A   1      43.817  27.724  36.138  1.00  0.00     0.173 A 
ATOM     87  C   UNL A   1      45.301  29.229  34.992  1.00  0.00     0.173 A 
ATOM     88  F   UNL A   1      42.584  27.276  36.419  1.00  0.00    -0.203 F 
ATOM     89  C   UNL A   1      44.908  27.137  36.775  1.00  0.00     0.198 A 
ATOM     90  C   UNL A   1      46.391  28.628  35.614  1.00  0.00     0.198 A 
ATOM     91  F   UNL A   1      45.521  30.241  34.138  1.00  0.00    -0.203 F 
ATOM     92  F   UNL A   1      44.713  26.147  37.656  1.00  0.00    -0.200 F 
ATOM     93  C   UNL A   1      46.193  27.586  36.508  1.00  0.00     0.200 A 
ATOM     94  F   UNL A   1      47.634  29.056  35.351  1.00  0.00    -0.200 F 
ATOM     95  F   UNL A   1      47.242  27.017  37.118  1.00  0.00    -0.200 F 
ENDBRANCH  62  85
ENDBRANCH  36  37
ENDBRANCH  28  31
ENDBRANCH  26  27
ENDBRANCH   1  26
TORSDOF 13
ENDMDL
MODEL 3
REMARK VINA RESULT:     -12.8      6.060     11.359
REMARK SMILES C[C@]12CCC(=O)N1[C@@H](C(=O)N1C[C@H](O)C[C@@H]1C(=O)NCCCNC(=O)c1ccc(-c3c4nc(c(-c5c(F)c(F)c(F)c(F)c5F)c5ccc([nH]5)c(-c5c(F)c(F)c(F)c(F)c5F)c5nc(c(-c6c(F)c(F)c(F)c(F)c6F)c6ccc3[nH]6)C=C5)C=C4)cc1)CS2
REMARK SMILES IDX 21 1 20 2 19 3 17 4 18 5 16 7 11 8 12 9 13 10 15 11 9 12
REMARK SMILES IDX 10 13 8 14 1 15 2 16 3 17 7 18 90 19 4 20 5 21 89 22 6 23
REMARK SMILES IDX 14 24 22 26 23 27 24 28 25 30 26 31 27 32 88 33 28 34 87 35
REMARK SMILES IDX 29 36 30 37 31 38 81 39 32 40 86 41 80 42 82 43 33 44 85 45
REMARK SMILES IDX 79 46 78 47 34 49 66 50 46 51 65 52 47 53 50 54 64 55 83 56
REMARK SMILES IDX 48 57 49 58 63 60 84 61 51 62 35 63 36 64 44 65 37 66 38 67
REMARK SMILES IDX 42 68 45 69 39 70 40 71 43 72 41 73 67 74 68 75 76 76 69 77
REMARK SMILES IDX 70 78 74 79 77 80 71 81 72 82 75 83 73 84 52 85 53 86 61 87
REMARK SMILES IDX 54 88 55 89 59 90 62 91 56 92 57 93 60 94 58 95
REMARK H PARENT 19 6 14 25 23 29 82 48 50 59
REMARK Flexibility Score: inf
ROOT
ATOM      1  C   UNL A   1      38.151  19.921  24.999  1.00  0.00     0.042 C 
ENDROOT
BRANCH   1   2
ATOM      2  C   UNL A   1      37.364  21.184  24.668  1.00  0.00     0.117 C 
BRANCH   2   3
ATOM      3  N   UNL A   1      36.252  21.450  25.565  1.00  0.00    -0.354 N 
ATOM      4  C   UNL A   1      34.985  20.933  25.563  1.00  0.00     0.242 C 
ATOM      5  O   UNL A   1      34.259  21.211  26.521  1.00  0.00    -0.273 OA
ATOM      6  H   UNL A   1      36.437  22.101  26.281  1.00  0.00     0.163 HD
BRANCH   4   7
ATOM      7  C   UNL A   1      34.459  20.142  24.342  1.00  0.00     0.177 C 
ATOM      8  N   UNL A   1      33.068  20.523  24.008  1.00  0.00    -0.326 N 
ATOM      9  C   UNL A   1      32.152  19.422  24.289  1.00  0.00     0.152 C 
ATOM     10  C   UNL A   1      32.952  18.450  25.138  1.00  0.00     0.136 C 
ATOM     11  C   UNL A   1      34.371  18.636  24.626  1.00  0.00     0.069 C 
BRANCH   8  12
ATOM     12  C   UNL A   1      32.560  21.602  23.321  1.00  0.00     0.247 C 
ATOM     13  O   UNL A   1      31.778  21.406  22.376  1.00  0.00    -0.272 OA
BRANCH  12  14
ATOM     14  C   UNL A   1      33.038  23.049  23.552  1.00  0.00     0.186 C 
ATOM     15  C   UNL A   1      34.819  24.825  25.532  1.00  0.00     0.047 C 
ATOM     16  C   UNL A   1      33.362  24.913  25.077  1.00  0.00     0.087 C 
ATOM     17  C   UNL A   1      32.497  25.603  26.126  1.00  0.00     0.049 C 
ATOM     18  N   UNL A   1      32.751  23.624  24.871  1.00  0.00    -0.315 N 
ATOM     19  S   UNL A   1      33.281  25.698  23.411  1.00  0.00    -0.131 SA
ATOM     20  C   UNL A   1      31.168  24.878  26.083  1.00  0.00     0.103 C 
ATOM     21  C   UNL A   1      31.489  23.557  25.446  1.00  0.00     0.224 C 
ATOM     22  C   UNL A   1      32.781  24.152  22.540  1.00  0.00     0.107 C 
ATOM     23  O   UNL A   1      30.685  22.641  25.357  1.00  0.00    -0.275 OA
ENDBRANCH  12  14
ENDBRANCH   8  12
BRANCH  10  24
ATOM     24  O   UNL A   1      32.903  18.792  26.523  1.00  0.00    -0.391 OA
ATOM     25  H   UNL A   1      33.045  19.746  26.624  1.00  0.00     0.211 HD
ENDBRANCH  10  24
ENDBRANCH   4   7
ENDBRANCH   2   3
ENDBRANCH   1   2
BRANCH   1  26
ATOM     26  C   UNL A   1      39.168  20.043  26.126  1.00  0.00     0.118 C 
BRANCH  26  27
ATOM     27  N   UNL A   1      40.288  19.121  26.018  1.00  0.00    -0.352 N 
ATOM     28  C   UNL A   1      41.648  19.306  26.101  1.00  0.00     0.251 C 
ATOM     29  H   UNL A   1      40.022  18.188  25.853  1.00  0.00     0.163 HD
ATOM     30  O   UNL A   1      42.388  18.353  25.869  1.00  0.00    -0.269 OA
BRANCH  28  31
ATOM     31  C   UNL A   1      42.248  20.623  26.420  1.00  0.00     0.039 A 
ATOM     32  C   UNL A   1      42.568  21.481  25.360  1.00  0.00     0.014 A 
ATOM     33  C   UNL A   1      42.545  21.014  27.726  1.00  0.00     0.014 A 
ATOM     34  C   UNL A   1      43.096  22.751  25.614  1.00  0.00     0.010 A 
ATOM     35  C   UNL A   1      42.983  22.312  27.985  1.00  0.00     0.010 A 
ATOM     36  C   UNL A   1      43.263  23.197  26.933  1.00  0.00    -0.014 A 
BRANCH  36  37
ATOM     37  C   UNL A   1      43.720  24.579  27.238  1.00  0.00     0.031 A 
ATOM     38  C   UNL A   1      42.748  25.606  27.753  1.00  0.00     0.074 A 
ATOM     39  C   UNL A   1      44.985  24.944  26.952  1.00  0.00     0.049 A 
ATOM     40  N   UNL A   1      42.919  26.891  27.939  1.00  0.00    -0.248 NA
ATOM     41  C   UNL A   1      41.391  25.132  28.062  1.00  0.00     0.031 C 
ATOM     42  C   UNL A   1      46.011  24.068  26.384  1.00  0.00     0.029 A 
ATOM     43  N   UNL A   1      45.617  26.156  27.079  1.00  0.00    -0.354 N 
ATOM     44  C   UNL A   1      41.682  27.384  28.333  1.00  0.00     0.074 A 
ATOM     45  C   UNL A   1      40.763  26.266  28.334  1.00  0.00     0.031 C 
ATOM     46  C   UNL A   1      47.147  24.767  26.224  1.00  0.00     0.029 A 
ATOM     47  C   UNL A   1      46.921  26.146  26.644  1.00  0.00     0.049 A 
ATOM     48  H   UNL A   1      45.179  26.958  27.445  1.00  0.00     0.167 HD
ATOM     49  C   UNL A   1      41.347  28.650  28.678  1.00  0.00     0.037 A 
ATOM     50  C   UNL A   1      47.830  27.137  26.581  1.00  0.00     0.037 A 
ATOM     51  C   UNL A   1      42.275  29.747  28.749  1.00  0.00     0.049 A 
ATOM     52  C   UNL A   1      47.458  28.513  27.052  1.00  0.00     0.074 A 
ATOM     53  C   UNL A   1      42.055  31.039  29.196  1.00  0.00     0.029 A 
ATOM     54  N   UNL A   1      43.608  29.677  28.372  1.00  0.00    -0.354 N 
ATOM     55  N   UNL A   1      46.303  28.952  27.486  1.00  0.00    -0.248 NA
ATOM     56  C   UNL A   1      48.518  29.532  27.029  1.00  0.00     0.031 C 
ATOM     57  C   UNL A   1      43.248  31.757  29.064  1.00  0.00     0.029 A 
ATOM     58  C   UNL A   1      44.219  30.906  28.563  1.00  0.00     0.049 A 
ATOM     59  H   UNL A   1      44.053  28.873  28.019  1.00  0.00     0.167 HD
ATOM     60  C   UNL A   1      46.497  30.288  27.803  1.00  0.00     0.074 A 
ATOM     61  C   UNL A   1      47.886  30.588  27.523  1.00  0.00     0.031 C 
ATOM     62  C   UNL A   1      45.602  31.188  28.280  1.00  0.00     0.037 A 
BRANCH  49  63
ATOM     63  C   UNL A   1      39.907  28.917  29.008  1.00  0.00     0.064 A 
ATOM     64  C   UNL A   1      39.413  28.789  30.315  1.00  0.00     0.173 A 
ATOM     65  C   UNL A   1      39.015  29.324  28.005  1.00  0.00     0.173 A 
ATOM     66  F   UNL A   1      40.223  28.391  31.306  1.00  0.00    -0.203 F 
ATOM     67  C   UNL A   1      38.069  29.021  30.597  1.00  0.00     0.198 A 
ATOM     68  C   UNL A   1      37.678  29.582  28.297  1.00  0.00     0.198 A 
ATOM     69  F   UNL A   1      39.438  29.468  26.740  1.00  0.00    -0.203 F 
ATOM     70  F   UNL A   1      37.608  28.839  31.842  1.00  0.00    -0.200 F 
ATOM     71  C   UNL A   1      37.204  29.422  29.590  1.00  0.00     0.200 A 
ATOM     72  F   UNL A   1      36.845  29.979  27.324  1.00  0.00    -0.200 F 
ATOM     73  F   UNL A   1      35.912  29.645  29.864  1.00  0.00    -0.200 F 
ENDBRANCH  49  63
BRANCH  50  74
ATOM     74  C   UNL A   1      49.194  26.844  26.076  1.00  0.00     0.064 A 
ATOM     75  C   UNL A   1      50.184  26.347  26.934  1.00  0.00     0.173 A 
ATOM     76  C   UNL A   1      49.525  27.024  24.726  1.00  0.00     0.173 A 
ATOM     77  F   UNL A   1      49.914  26.176  28.238  1.00  0.00    -0.203 F 
ATOM     78  C   UNL A   1      51.459  26.046  26.462  1.00  0.00     0.198 A 
ATOM     79  C   UNL A   1      50.795  26.703  24.251  1.00  0.00     0.198 A 
ATOM     80  F   UNL A   1      48.608  27.490  23.866  1.00  0.00    -0.203 F 
ATOM     81  F   UNL A   1      52.396  25.596  27.308  1.00  0.00    -0.200 F 
ATOM     82  C   UNL A   1      51.762  26.218  25.119  1.00  0.00     0.200 A 
ATOM     83  F   UNL A   1      51.081  26.858  22.951  1.00  0.00    -0.200 F 
ATOM     84  F   UNL A   1      52.985  25.919  24.663  1.00  0.00    -0.200 F 
ENDBRANCH  50  74
BRANCH  62  85
ATOM     85  C   UNL A   1      46.100  32.575  28.545  1.00  0.00     0.064 A 
ATOM     86  C   UNL A   1      46.005  33.583  27.574  1.00  0.00     0.173 A 
ATOM     87  C   UNL A   1      46.638  32.912  29.795  1.00  0.00     0.173 A 
ATOM     88  F   UNL A   1      45.512  33.304  26.358  1.00  0.00    -0.203 F 
ATOM     89  C   UNL A   1      46.446  34.876  27.842  1.00  0.00     0.198 A 
ATOM     90  C   UNL A   1      47.059  34.210  30.067  1.00  0.00     0.198 A 
ATOM     91  F   UNL A   1      46.748  31.982  30.757  1.00  0.00    -0.203 F 
ATOM     92  F   UNL A   1      46.378  35.815  26.889  1.00  0.00    -0.200 F 
ATOM     93  C   UNL A   1      46.966  35.189  29.090  1.00  0.00     0.200 A 
ATOM     94  F   UNL A   1      47.555  34.515  31.275  1.00  0.00    -0.200 F 
ATOM     95  F   UNL A   1      47.385  36.436  29.347  1.00  0.00    -0.200 F 
ENDBRANCH  62  85
ENDBRANCH  36  37
ENDBRANCH  28  31
ENDBRANCH  26  27
ENDBRANCH   1  26
TORSDOF 13
ENDMDL
