MODEL 1
REMARK VINA RESULT:     -10.8      0.000      0.000
REMARK SMILES CCCC(=O)/C(=C/NC(N)=O)C(=O)NCCCNC(=O)c1ccc(-c2c3nc(c(-c4c(F)c(F)c(F)c(F)c4F)c4ccc([nH]4)c(-c4c(F)c(F)c(F)c(F)c4F)c4nc(c(-c5c(F)c(F)c(F)c(F)c5F)c5ccc2[nH]5)C=C4)C=C3)cc1
REMARK SMILES IDX 15 1 14 2 12 3 13 4 6 6 7 7 4 8 5 9 3 10 2 11 1 12 8 13 9 14
REMARK SMILES IDX 10 16 11 17 16 20 17 21 18 22 19 23 20 25 21 26 22 27 83 28
REMARK SMILES IDX 23 29 82 30 24 31 25 32 26 33 76 34 27 35 81 36 75 37 77 38
REMARK SMILES IDX 28 39 80 40 74 41 73 42 29 44 61 45 41 46 60 47 42 48 45 49
REMARK SMILES IDX 59 50 78 51 43 52 44 53 58 55 79 56 46 57 30 58 31 59 39 60
REMARK SMILES IDX 32 61 33 62 37 63 40 64 34 65 35 66 38 67 36 68 62 69 63 70
REMARK SMILES IDX 71 71 64 72 65 73 69 74 72 75 66 76 67 77 70 78 68 79 47 80
REMARK SMILES IDX 48 81 56 82 49 83 50 84 54 85 57 86 51 87 52 88 55 89 53 90
REMARK H PARENT 14 5 8 15 10 18 10 19 18 24 77 43 45 54
REMARK Flexibility Score: inf
ROOT
ATOM      1  C   UNL A   1      35.423  32.880  30.530  1.00  0.00     0.118 C 
ENDROOT
BRANCH   1   2
ATOM      2  N   UNL A   1      34.412  32.612  31.535  1.00  0.00    -0.352 N 
ATOM      3  C   UNL A   1      34.103  33.291  32.685  1.00  0.00     0.256 C 
ATOM      4  O   UNL A   1      33.060  32.992  33.263  1.00  0.00    -0.269 OA
ATOM      5  H   UNL A   1      33.859  31.815  31.364  1.00  0.00     0.163 HD
BRANCH   3   6
ATOM      6  C   UNL A   1      35.009  34.344  33.242  1.00  0.00     0.098 C 
ATOM      7  C   UNL A   1      34.951  35.644  32.901  1.00  0.00     0.105 C 
BRANCH   6   8
ATOM      8  C   UNL A   1      36.085  33.883  34.199  1.00  0.00     0.169 C 
ATOM      9  O   UNL A   1      35.848  33.814  35.408  1.00  0.00    -0.294 OA
BRANCH   8  10
ATOM     10  C   UNL A   1      37.446  33.411  33.696  1.00  0.00     0.081 C 
BRANCH  10  11
ATOM     11  C   UNL A   1      38.537  33.564  34.757  1.00  0.00     0.005 C 
ATOM     12  C   UNL A   1      39.206  34.931  34.784  1.00  0.00     0.004 C 
ENDBRANCH  10  11
ENDBRANCH   8  10
ENDBRANCH   6   8
BRANCH   7  13
ATOM     13  N   UNL A   1      34.103  36.229  31.989  1.00  0.00    -0.314 N 
ATOM     14  C   UNL A   1      33.728  37.548  32.123  1.00  0.00     0.316 C 
ATOM     15  H   UNL A   1      33.761  35.700  31.234  1.00  0.00     0.171 HD
ATOM     16  N   UNL A   1      33.277  38.094  30.965  1.00  0.00    -0.351 N 
ATOM     17  O   UNL A   1      33.894  38.233  33.114  1.00  0.00    -0.249 OA
ATOM     18  H   UNL A   1      33.148  37.528  30.169  1.00  0.00     0.161 HD
ATOM     19  H   UNL A   1      33.079  39.058  30.919  1.00  0.00     0.161 HD
ENDBRANCH   7  13
ENDBRANCH   3   6
ENDBRANCH   1   2
BRANCH   1  20
ATOM     20  C   UNL A   1      35.026  33.838  29.425  1.00  0.00     0.042 C 
BRANCH  20  21
ATOM     21  C   UNL A   1      35.203  33.303  28.009  1.00  0.00     0.118 C 
BRANCH  21  22
ATOM     22  N   UNL A   1      34.335  32.177  27.671  1.00  0.00    -0.352 N 
ATOM     23  C   UNL A   1      34.533  30.815  27.639  1.00  0.00     0.251 C 
ATOM     24  H   UNL A   1      33.424  32.448  27.413  1.00  0.00     0.163 HD
ATOM     25  O   UNL A   1      33.636  30.103  27.189  1.00  0.00    -0.269 OA
BRANCH  23  26
ATOM     26  C   UNL A   1      35.800  30.190  28.088  1.00  0.00     0.039 A 
ATOM     27  C   UNL A   1      36.922  30.238  27.249  1.00  0.00     0.014 A 
ATOM     28  C   UNL A   1      35.901  29.527  29.307  1.00  0.00     0.014 A 
ATOM     29  C   UNL A   1      38.147  29.710  27.677  1.00  0.00     0.010 A 
ATOM     30  C   UNL A   1      37.143  29.132  29.791  1.00  0.00     0.010 A 
ATOM     31  C   UNL A   1      38.282  29.199  28.977  1.00  0.00    -0.014 A 
BRANCH  31  32
ATOM     32  C   UNL A   1      39.573  28.678  29.504  1.00  0.00     0.031 A 
ATOM     33  C   UNL A   1      40.320  29.461  30.556  1.00  0.00     0.074 A 
ATOM     34  C   UNL A   1      40.126  27.569  28.973  1.00  0.00     0.049 A 
ATOM     35  N   UNL A   1      41.529  29.283  31.024  1.00  0.00    -0.248 NA
ATOM     36  C   UNL A   1      39.633  30.636  31.120  1.00  0.00     0.031 C 
ATOM     37  C   UNL A   1      39.542  26.754  27.906  1.00  0.00     0.029 A 
ATOM     38  N   UNL A   1      41.318  26.946  29.247  1.00  0.00    -0.354 N 
ATOM     39  C   UNL A   1      41.761  30.345  31.890  1.00  0.00     0.074 A 
ATOM     40  C   UNL A   1      40.592  31.195  31.841  1.00  0.00     0.031 C 
ATOM     41  C   UNL A   1      40.363  25.726  27.635  1.00  0.00     0.029 A 
ATOM     42  C   UNL A   1      41.549  25.830  28.479  1.00  0.00     0.049 A 
ATOM     43  H   UNL A   1      41.949  27.267  29.932  1.00  0.00     0.167 HD
ATOM     44  C   UNL A   1      42.835  30.576  32.681  1.00  0.00     0.037 A 
ATOM     45  C   UNL A   1      42.604  24.991  28.453  1.00  0.00     0.037 A 
ATOM     46  C   UNL A   1      43.960  29.688  32.790  1.00  0.00     0.049 A 
ATOM     47  C   UNL A   1      43.754  25.234  29.393  1.00  0.00     0.074 A 
ATOM     48  C   UNL A   1      45.061  29.785  33.622  1.00  0.00     0.029 A 
ATOM     49  N   UNL A   1      44.115  28.524  32.051  1.00  0.00    -0.354 N 
ATOM     50  N   UNL A   1      43.931  26.208  30.252  1.00  0.00    -0.248 NA
ATOM     51  C   UNL A   1      44.848  24.253  29.369  1.00  0.00     0.031 C 
ATOM     52  C   UNL A   1      45.898  28.693  33.368  1.00  0.00     0.029 A 
ATOM     53  C   UNL A   1      45.295  27.895  32.410  1.00  0.00     0.049 A 
ATOM     54  H   UNL A   1      43.481  28.194  31.375  1.00  0.00     0.167 HD
ATOM     55  C   UNL A   1      45.130  25.936  30.895  1.00  0.00     0.074 A 
ATOM     56  C   UNL A   1      45.635  24.700  30.337  1.00  0.00     0.031 C 
ATOM     57  C   UNL A   1      45.760  26.647  31.863  1.00  0.00     0.037 A 
BRANCH  44  58
ATOM     58  C   UNL A   1      42.835  31.825  33.516  1.00  0.00     0.064 A 
ATOM     59  C   UNL A   1      43.383  33.027  33.044  1.00  0.00     0.173 A 
ATOM     60  C   UNL A   1      42.241  31.832  34.787  1.00  0.00     0.173 A 
ATOM     61  F   UNL A   1      43.975  33.072  31.840  1.00  0.00    -0.203 F 
ATOM     62  C   UNL A   1      43.362  34.181  33.822  1.00  0.00     0.198 A 
ATOM     63  C   UNL A   1      42.193  32.996  35.550  1.00  0.00     0.198 A 
ATOM     64  F   UNL A   1      41.697  30.712  35.286  1.00  0.00    -0.203 F 
ATOM     65  F   UNL A   1      43.938  35.303  33.369  1.00  0.00    -0.200 F 
ATOM     66  C   UNL A   1      42.760  34.167  35.070  1.00  0.00     0.200 A 
ATOM     67  F   UNL A   1      41.598  32.984  36.752  1.00  0.00    -0.200 F 
ATOM     68  F   UNL A   1      42.731  35.281  35.815  1.00  0.00    -0.200 F 
ENDBRANCH  44  58
BRANCH  45  69
ATOM     69  C   UNL A   1      42.609  23.820  27.537  1.00  0.00     0.064 A 
ATOM     70  C   UNL A   1      42.180  22.560  27.982  1.00  0.00     0.173 A 
ATOM     71  C   UNL A   1      43.059  23.924  26.214  1.00  0.00     0.173 A 
ATOM     72  F   UNL A   1      41.757  22.406  29.246  1.00  0.00    -0.203 F 
ATOM     73  C   UNL A   1      42.232  21.444  27.149  1.00  0.00     0.198 A 
ATOM     74  C   UNL A   1      43.084  22.813  25.372  1.00  0.00     0.198 A 
ATOM     75  F   UNL A   1      43.472  25.106  25.735  1.00  0.00    -0.203 F 
ATOM     76  F   UNL A   1      41.870  20.243  27.620  1.00  0.00    -0.200 F 
ATOM     77  C   UNL A   1      42.680  21.572  25.844  1.00  0.00     0.200 A 
ATOM     78  F   UNL A   1      43.504  22.942  24.106  1.00  0.00    -0.200 F 
ATOM     79  F   UNL A   1      42.734  20.499  25.044  1.00  0.00    -0.200 F 
ENDBRANCH  45  69
BRANCH  57  80
ATOM     80  C   UNL A   1      47.027  26.073  32.426  1.00  0.00     0.064 A 
ATOM     81  C   UNL A   1      47.019  25.200  33.523  1.00  0.00     0.173 A 
ATOM     82  C   UNL A   1      48.261  26.367  31.826  1.00  0.00     0.173 A 
ATOM     83  F   UNL A   1      45.865  24.900  34.138  1.00  0.00    -0.203 F 
ATOM     84  C   UNL A   1      48.205  24.664  34.016  1.00  0.00     0.198 A 
ATOM     85  C   UNL A   1      49.441  25.806  32.303  1.00  0.00     0.198 A 
ATOM     86  F   UNL A   1      48.318  27.190  30.767  1.00  0.00    -0.203 F 
ATOM     87  F   UNL A   1      48.181  23.870  35.096  1.00  0.00    -0.200 F 
ATOM     88  C   UNL A   1      49.413  24.961  33.402  1.00  0.00     0.200 A 
ATOM     89  F   UNL A   1      50.605  26.083  31.700  1.00  0.00    -0.200 F 
ATOM     90  F   UNL A   1      50.552  24.438  33.875  1.00  0.00    -0.200 F 
ENDBRANCH  57  80
ENDBRANCH  31  32
ENDBRANCH  23  26
ENDBRANCH  21  22
ENDBRANCH  20  21
ENDBRANCH   1  20
TORSDOF 14
ENDMDL
MODEL 2
REMARK VINA RESULT:     -10.6      3.855     10.104
REMARK SMILES CCCC(=O)/C(=C/NC(N)=O)C(=O)NCCCNC(=O)c1ccc(-c2c3nc(c(-c4c(F)c(F)c(F)c(F)c4F)c4ccc([nH]4)c(-c4c(F)c(F)c(F)c(F)c4F)c4nc(c(-c5c(F)c(F)c(F)c(F)c5F)c5ccc2[nH]5)C=C4)C=C3)cc1
REMARK SMILES IDX 15 1 14 2 12 3 13 4 6 6 7 7 4 8 5 9 3 10 2 11 1 12 8 13 9 14
REMARK SMILES IDX 10 16 11 17 16 20 17 21 18 22 19 23 20 25 21 26 22 27 83 28
REMARK SMILES IDX 23 29 82 30 24 31 25 32 26 33 76 34 27 35 81 36 75 37 77 38
REMARK SMILES IDX 28 39 80 40 74 41 73 42 29 44 61 45 41 46 60 47 42 48 45 49
REMARK SMILES IDX 59 50 78 51 43 52 44 53 58 55 79 56 46 57 30 58 31 59 39 60
REMARK SMILES IDX 32 61 33 62 37 63 40 64 34 65 35 66 38 67 36 68 62 69 63 70
REMARK SMILES IDX 71 71 64 72 65 73 69 74 72 75 66 76 67 77 70 78 68 79 47 80
REMARK SMILES IDX 48 81 56 82 49 83 50 84 54 85 57 86 51 87 52 88 55 89 53 90
REMARK H PARENT 14 5 8 15 10 18 10 19 18 24 77 43 45 54
REMARK Flexibility Score: inf
ROOT
ATOM      1  C   UNL A   1      33.079  26.536  24.957  1.00  0.00     0.118 C 
ENDROOT
BRANCH   1   2
ATOM      2  N   UNL A   1      32.213  25.375  25.041  1.00  0.00    -0.352 N 
ATOM      3  C   UNL A   1      32.447  24.068  24.701  1.00  0.00     0.256 C 
ATOM      4  O   UNL A   1      31.630  23.226  25.068  1.00  0.00    -0.269 OA
ATOM      5  H   UNL A   1      31.314  25.554  25.401  1.00  0.00     0.163 HD
BRANCH   3   6
ATOM      6  C   UNL A   1      33.639  23.670  23.888  1.00  0.00     0.098 C 
ATOM      7  C   UNL A   1      33.706  23.778  22.548  1.00  0.00     0.105 C 
BRANCH   6   8
ATOM      8  C   UNL A   1      34.802  23.056  24.634  1.00  0.00     0.169 C 
ATOM      9  O   UNL A   1      35.220  21.940  24.315  1.00  0.00    -0.294 OA
BRANCH   8  10
ATOM     10  C   UNL A   1      35.541  23.824  25.725  1.00  0.00     0.081 C 
BRANCH  10  11
ATOM     11  C   UNL A   1      36.852  23.144  26.122  1.00  0.00     0.005 C 
ATOM     12  C   UNL A   1      38.062  24.067  26.146  1.00  0.00     0.004 C 
ENDBRANCH  10  11
ENDBRANCH   8  10
ENDBRANCH   6   8
BRANCH   7  13
ATOM     13  N   UNL A   1      32.722  24.228  21.698  1.00  0.00    -0.314 N 
ATOM     14  C   UNL A   1      32.828  25.461  21.091  1.00  0.00     0.316 C 
ATOM     15  H   UNL A   1      31.936  23.664  21.523  1.00  0.00     0.171 HD
ATOM     16  N   UNL A   1      32.051  25.578  19.985  1.00  0.00    -0.351 N 
ATOM     17  O   UNL A   1      33.620  26.333  21.395  1.00  0.00    -0.249 OA
ATOM     18  H   UNL A   1      31.414  24.864  19.751  1.00  0.00     0.161 HD
ATOM     19  H   UNL A   1      32.124  26.378  19.414  1.00  0.00     0.161 HD
ENDBRANCH   7  13
ENDBRANCH   3   6
ENDBRANCH   1   2
BRANCH   1  20
ATOM     20  C   UNL A   1      32.409  27.840  24.575  1.00  0.00     0.042 C 
BRANCH  20  21
ATOM     21  C   UNL A   1      33.269  29.086  24.748  1.00  0.00     0.118 C 
BRANCH  21  22
ATOM     22  N   UNL A   1      32.635  30.164  25.503  1.00  0.00    -0.352 N 
ATOM     23  C   UNL A   1      32.987  30.840  26.649  1.00  0.00     0.251 C 
ATOM     24  H   UNL A   1      31.783  30.467  25.113  1.00  0.00     0.163 HD
ATOM     25  O   UNL A   1      32.180  31.635  27.130  1.00  0.00    -0.269 OA
BRANCH  23  26
ATOM     26  C   UNL A   1      34.279  30.610  27.337  1.00  0.00     0.039 A 
ATOM     27  C   UNL A   1      35.103  31.705  27.630  1.00  0.00     0.014 A 
ATOM     28  C   UNL A   1      34.715  29.332  27.674  1.00  0.00     0.014 A 
ATOM     29  C   UNL A   1      36.299  31.520  28.337  1.00  0.00     0.010 A 
ATOM     30  C   UNL A   1      35.824  29.163  28.495  1.00  0.00     0.010 A 
ATOM     31  C   UNL A   1      36.644  30.251  28.824  1.00  0.00    -0.014 A 
BRANCH  31  32
ATOM     32  C   UNL A   1      37.872  30.007  29.627  1.00  0.00     0.031 A 
ATOM     33  C   UNL A   1      38.935  29.072  29.103  1.00  0.00     0.074 A 
ATOM     34  C   UNL A   1      37.992  30.533  30.863  1.00  0.00     0.049 A 
ATOM     35  N   UNL A   1      39.990  28.588  29.707  1.00  0.00    -0.248 NA
ATOM     36  C   UNL A   1      38.758  28.573  27.728  1.00  0.00     0.031 C 
ATOM     37  C   UNL A   1      37.009  31.398  31.519  1.00  0.00     0.029 A 
ATOM     38  N   UNL A   1      38.986  30.397  31.800  1.00  0.00    -0.354 N 
ATOM     39  C   UNL A   1      40.566  27.697  28.810  1.00  0.00     0.074 A 
ATOM     40  C   UNL A   1      39.713  27.661  27.642  1.00  0.00     0.031 C 
ATOM     41  C   UNL A   1      37.461  31.737  32.737  1.00  0.00     0.029 A 
ATOM     42  C   UNL A   1      38.744  31.082  32.967  1.00  0.00     0.049 A 
ATOM     43  H   UNL A   1      39.798  29.860  31.650  1.00  0.00     0.167 HD
ATOM     44  C   UNL A   1      41.717  26.995  28.930  1.00  0.00     0.037 A 
ATOM     45  C   UNL A   1      39.474  31.164  34.098  1.00  0.00     0.037 A 
ATOM     46  C   UNL A   1      42.604  27.093  30.057  1.00  0.00     0.049 A 
ATOM     47  C   UNL A   1      40.783  30.428  34.178  1.00  0.00     0.074 A 
ATOM     48  C   UNL A   1      43.835  26.491  30.243  1.00  0.00     0.029 A 
ATOM     49  N   UNL A   1      42.360  27.864  31.185  1.00  0.00    -0.354 N 
ATOM     50  N   UNL A   1      41.345  29.638  33.296  1.00  0.00    -0.248 NA
ATOM     51  C   UNL A   1      41.568  30.604  35.408  1.00  0.00     0.031 C 
ATOM     52  C   UNL A   1      44.325  26.874  31.496  1.00  0.00     0.029 A 
ATOM     53  C   UNL A   1      43.418  27.751  32.069  1.00  0.00     0.049 A 
ATOM     54  H   UNL A   1      41.554  28.411  31.332  1.00  0.00     0.167 HD
ATOM     55  C   UNL A   1      42.562  29.257  33.846  1.00  0.00     0.074 A 
ATOM     56  C   UNL A   1      42.663  29.910  35.133  1.00  0.00     0.031 C 
ATOM     57  C   UNL A   1      43.512  28.437  33.331  1.00  0.00     0.037 A 
BRANCH  44  58
ATOM     58  C   UNL A   1      42.101  26.078  27.804  1.00  0.00     0.064 A 
ATOM     59  C   UNL A   1      41.509  24.816  27.646  1.00  0.00     0.173 A 
ATOM     60  C   UNL A   1      43.042  26.484  26.845  1.00  0.00     0.173 A 
ATOM     61  F   UNL A   1      40.613  24.374  28.542  1.00  0.00    -0.203 F 
ATOM     62  C   UNL A   1      41.863  23.984  26.588  1.00  0.00     0.198 A 
ATOM     63  C   UNL A   1      43.371  25.661  25.771  1.00  0.00     0.198 A 
ATOM     64  F   UNL A   1      43.636  27.682  26.945  1.00  0.00    -0.203 F 
ATOM     65  F   UNL A   1      41.321  22.762  26.489  1.00  0.00    -0.200 F 
ATOM     66  C   UNL A   1      42.787  24.410  25.647  1.00  0.00     0.200 A 
ATOM     67  F   UNL A   1      44.255  26.081  24.854  1.00  0.00    -0.200 F 
ATOM     68  F   UNL A   1      43.120  23.611  24.623  1.00  0.00    -0.200 F 
ENDBRANCH  44  58
BRANCH  45  69
ATOM     69  C   UNL A   1      39.006  32.005  35.232  1.00  0.00     0.064 A 
ATOM     70  C   UNL A   1      39.295  33.377  35.273  1.00  0.00     0.173 A 
ATOM     71  C   UNL A   1      38.287  31.459  36.304  1.00  0.00     0.173 A 
ATOM     72  F   UNL A   1      39.997  33.943  34.279  1.00  0.00    -0.203 F 
ATOM     73  C   UNL A   1      38.910  34.164  36.357  1.00  0.00     0.198 A 
ATOM     74  C   UNL A   1      37.877  32.252  37.375  1.00  0.00     0.198 A 
ATOM     75  F   UNL A   1      37.977  30.154  36.311  1.00  0.00    -0.203 F 
ATOM     76  F   UNL A   1      39.250  35.459  36.396  1.00  0.00    -0.200 F 
ATOM     77  C   UNL A   1      38.198  33.601  37.405  1.00  0.00     0.200 A 
ATOM     78  F   UNL A   1      37.177  31.709  38.380  1.00  0.00    -0.200 F 
ATOM     79  F   UNL A   1      37.832  34.356  38.450  1.00  0.00    -0.200 F 
ENDBRANCH  45  69
BRANCH  57  80
ATOM     80  C   UNL A   1      44.769  28.254  34.128  1.00  0.00     0.064 A 
ATOM     81  C   UNL A   1      45.872  29.107  33.975  1.00  0.00     0.173 A 
ATOM     82  C   UNL A   1      44.852  27.237  35.091  1.00  0.00     0.173 A 
ATOM     83  F   UNL A   1      45.845  30.087  33.057  1.00  0.00    -0.203 F 
ATOM     84  C   UNL A   1      47.022  28.931  34.739  1.00  0.00     0.198 A 
ATOM     85  C   UNL A   1      45.991  27.083  35.874  1.00  0.00     0.198 A 
ATOM     86  F   UNL A   1      43.819  26.401  35.280  1.00  0.00    -0.203 F 
ATOM     87  F   UNL A   1      48.082  29.728  34.544  1.00  0.00    -0.200 F 
ATOM     88  C   UNL A   1      47.078  27.924  35.692  1.00  0.00     0.200 A 
ATOM     89  F   UNL A   1      46.038  26.119  36.803  1.00  0.00    -0.200 F 
ATOM     90  F   UNL A   1      48.184  27.762  36.431  1.00  0.00    -0.200 F 
ENDBRANCH  57  80
ENDBRANCH  31  32
ENDBRANCH  23  26
ENDBRANCH  21  22
ENDBRANCH  20  21
ENDBRANCH   1  20
TORSDOF 14
ENDMDL
MODEL 3
REMARK VINA RESULT:     -10.6      5.891     10.481
REMARK SMILES CCCC(=O)/C(=C/NC(N)=O)C(=O)NCCCNC(=O)c1ccc(-c2c3nc(c(-c4c(F)c(F)c(F)c(F)c4F)c4ccc([nH]4)c(-c4c(F)c(F)c(F)c(F)c4F)c4nc(c(-c5c(F)c(F)c(F)c(F)c5F)c5ccc2[nH]5)C=C4)C=C3)cc1
REMARK SMILES IDX 15 1 14 2 12 3 13 4 6 6 7 7 4 8 5 9 3 10 2 11 1 12 8 13 9 14
REMARK SMILES IDX 10 16 11 17 16 20 17 21 18 22 19 23 20 25 21 26 22 27 83 28
REMARK SMILES IDX 23 29 82 30 24 31 25 32 26 33 76 34 27 35 81 36 75 37 77 38
REMARK SMILES IDX 28 39 80 40 74 41 73 42 29 44 61 45 41 46 60 47 42 48 45 49
REMARK SMILES IDX 59 50 78 51 43 52 44 53 58 55 79 56 46 57 30 58 31 59 39 60
REMARK SMILES IDX 32 61 33 62 37 63 40 64 34 65 35 66 38 67 36 68 62 69 63 70
REMARK SMILES IDX 71 71 64 72 65 73 69 74 72 75 66 76 67 77 70 78 68 79 47 80
REMARK SMILES IDX 48 81 56 82 49 83 50 84 54 85 57 86 51 87 52 88 55 89 53 90
REMARK H PARENT 14 5 8 15 10 18 10 19 18 24 77 43 45 54
REMARK Flexibility Score: inf
ROOT
ATOM      1  C   UNL A   1      36.449  20.697  24.827  1.00  0.00     0.118 C 
ENDROOT
BRANCH   1   2
ATOM      2  N   UNL A   1      35.937  21.286  26.050  1.00  0.00    -0.352 N 
ATOM      3  C   UNL A   1      34.647  21.444  26.486  1.00  0.00     0.256 C 
ATOM      4  O   UNL A   1      34.476  21.777  27.657  1.00  0.00    -0.269 OA
ATOM      5  H   UNL A   1      36.627  21.627  26.665  1.00  0.00     0.163 HD
BRANCH   3   6
ATOM      6  C   UNL A   1      33.480  21.247  25.571  1.00  0.00     0.098 C 
ATOM      7  C   UNL A   1      32.788  20.097  25.471  1.00  0.00     0.105 C 
BRANCH   6   8
ATOM      8  C   UNL A   1      33.113  22.404  24.670  1.00  0.00     0.169 C 
ATOM      9  O   UNL A   1      33.997  23.044  24.096  1.00  0.00    -0.294 OA
BRANCH   8  10
ATOM     10  C   UNL A   1      31.657  22.752  24.377  1.00  0.00     0.081 C 
BRANCH  10  11
ATOM     11  C   UNL A   1      31.047  23.644  25.459  1.00  0.00     0.005 C 
ATOM     12  C   UNL A   1      30.466  22.891  26.647  1.00  0.00     0.004 C 
ENDBRANCH  10  11
ENDBRANCH   8  10
ENDBRANCH   6   8
BRANCH   7  13
ATOM     13  N   UNL A   1      33.027  18.919  26.141  1.00  0.00    -0.314 N 
ATOM     14  C   UNL A   1      32.624  17.713  25.611  1.00  0.00     0.316 C 
ATOM     15  H   UNL A   1      33.491  18.939  27.009  1.00  0.00     0.171 HD
ATOM     16  N   UNL A   1      33.292  16.652  26.131  1.00  0.00    -0.351 N 
ATOM     17  O   UNL A   1      31.856  17.573  24.678  1.00  0.00    -0.249 OA
ATOM     18  H   UNL A   1      33.911  16.780  26.886  1.00  0.00     0.161 HD
ATOM     19  H   UNL A   1      33.158  15.753  25.752  1.00  0.00     0.161 HD
ENDBRANCH   7  13
ENDBRANCH   3   6
ENDBRANCH   1   2
BRANCH   1  20
ATOM     20  C   UNL A   1      37.571  19.691  24.990  1.00  0.00     0.042 C 
BRANCH  20  21
ATOM     21  C   UNL A   1      38.841  20.236  25.632  1.00  0.00     0.118 C 
BRANCH  21  22
ATOM     22  N   UNL A   1      39.911  19.254  25.790  1.00  0.00    -0.352 N 
ATOM     23  C   UNL A   1      41.253  19.367  26.075  1.00  0.00     0.251 C 
ATOM     24  H   UNL A   1      39.612  18.324  25.666  1.00  0.00     0.163 HD
ATOM     25  O   UNL A   1      41.950  18.353  26.025  1.00  0.00    -0.269 OA
BRANCH  23  26
ATOM     26  C   UNL A   1      41.887  20.667  26.398  1.00  0.00     0.039 A 
ATOM     27  C   UNL A   1      42.139  21.581  25.365  1.00  0.00     0.014 A 
ATOM     28  C   UNL A   1      42.270  20.997  27.694  1.00  0.00     0.014 A 
ATOM     29  C   UNL A   1      42.678  22.842  25.653  1.00  0.00     0.010 A 
ATOM     30  C   UNL A   1      42.670  22.293  28.000  1.00  0.00     0.010 A 
ATOM     31  C   UNL A   1      42.899  23.230  26.983  1.00  0.00    -0.014 A 
BRANCH  31  32
ATOM     32  C   UNL A   1      43.416  24.576  27.350  1.00  0.00     0.031 A 
ATOM     33  C   UNL A   1      42.479  25.600  27.942  1.00  0.00     0.074 A 
ATOM     34  C   UNL A   1      44.688  24.918  27.061  1.00  0.00     0.049 A 
ATOM     35  N   UNL A   1      42.675  26.874  28.172  1.00  0.00    -0.248 NA
ATOM     36  C   UNL A   1      41.118  25.140  28.272  1.00  0.00     0.031 C 
ATOM     37  C   UNL A   1      45.681  24.047  26.429  1.00  0.00     0.029 A 
ATOM     38  N   UNL A   1      45.359  26.102  27.244  1.00  0.00    -0.354 N 
ATOM     39  C   UNL A   1      41.456  27.370  28.620  1.00  0.00     0.074 A 
ATOM     40  C   UNL A   1      40.511  26.276  28.576  1.00  0.00     0.031 C 
ATOM     41  C   UNL A   1      46.838  24.716  26.301  1.00  0.00     0.029 A 
ATOM     42  C   UNL A   1      46.661  26.074  26.803  1.00  0.00     0.049 A 
ATOM     43  H   UNL A   1      44.946  26.897  27.653  1.00  0.00     0.167 HD
ATOM     44  C   UNL A   1      41.157  28.614  29.060  1.00  0.00     0.037 A 
ATOM     45  C   UNL A   1      47.601  27.040  26.799  1.00  0.00     0.037 A 
ATOM     46  C   UNL A   1      42.117  29.678  29.180  1.00  0.00     0.049 A 
ATOM     47  C   UNL A   1      47.260  28.395  27.358  1.00  0.00     0.074 A 
ATOM     48  C   UNL A   1      41.938  30.950  29.692  1.00  0.00     0.029 A 
ATOM     49  N   UNL A   1      43.447  29.581  28.798  1.00  0.00    -0.354 N 
ATOM     50  N   UNL A   1      46.121  28.831  27.836  1.00  0.00    -0.248 NA
ATOM     51  C   UNL A   1      48.341  29.390  27.388  1.00  0.00     0.031 C 
ATOM     52  C   UNL A   1      43.154  31.635  29.595  1.00  0.00     0.029 A 
ATOM     53  C   UNL A   1      44.099  30.773  29.063  1.00  0.00     0.049 A 
ATOM     54  H   UNL A   1      43.865  28.784  28.399  1.00  0.00     0.167 HD
ATOM     55  C   UNL A   1      46.357  30.132  28.259  1.00  0.00     0.074 A 
ATOM     56  C   UNL A   1      47.752  30.412  27.991  1.00  0.00     0.031 C 
ATOM     57  C   UNL A   1      45.496  31.018  28.819  1.00  0.00     0.037 A 
BRANCH  44  58
ATOM     58  C   UNL A   1      39.739  28.890  29.474  1.00  0.00     0.064 A 
ATOM     59  C   UNL A   1      38.791  29.388  28.567  1.00  0.00     0.173 A 
ATOM     60  C   UNL A   1      39.312  28.612  30.781  1.00  0.00     0.173 A 
ATOM     61  F   UNL A   1      39.150  29.683  27.309  1.00  0.00    -0.203 F 
ATOM     62  C   UNL A   1      37.476  29.624  28.961  1.00  0.00     0.198 A 
ATOM     63  C   UNL A   1      37.988  28.819  31.162  1.00  0.00     0.198 A 
ATOM     64  F   UNL A   1      40.176  28.130  31.687  1.00  0.00    -0.203 F 
ATOM     65  F   UNL A   1      36.603  30.148  28.090  1.00  0.00    -0.200 F 
ATOM     66  C   UNL A   1      37.075  29.331  30.254  1.00  0.00     0.200 A 
ATOM     67  F   UNL A   1      37.598  28.523  32.410  1.00  0.00    -0.200 F 
ATOM     68  F   UNL A   1      35.806  29.549  30.629  1.00  0.00    -0.200 F 
ENDBRANCH  44  58
BRANCH  45  69
ATOM     69  C   UNL A   1      48.967  26.754  26.286  1.00  0.00     0.064 A 
ATOM     70  C   UNL A   1      49.309  27.044  24.956  1.00  0.00     0.173 A 
ATOM     71  C   UNL A   1      49.949  26.169  27.097  1.00  0.00     0.173 A 
ATOM     72  F   UNL A   1      48.397  27.588  24.136  1.00  0.00    -0.203 F 
ATOM     73  C   UNL A   1      50.568  26.729  24.449  1.00  0.00     0.198 A 
ATOM     74  C   UNL A   1      51.218  25.881  26.598  1.00  0.00     0.198 A 
ATOM     75  F   UNL A   1      49.678  25.879  28.378  1.00  0.00    -0.203 F 
ATOM     76  F   UNL A   1      50.846  26.965  23.160  1.00  0.00    -0.200 F 
ATOM     77  C   UNL A   1      51.523  26.152  25.272  1.00  0.00     0.200 A 
ATOM     78  F   UNL A   1      52.144  25.336  27.398  1.00  0.00    -0.200 F 
ATOM     79  F   UNL A   1      52.733  25.846  24.784  1.00  0.00    -0.200 F 
ENDBRANCH  45  69
BRANCH  57  80
ATOM     80  C   UNL A   1      46.052  32.346  29.240  1.00  0.00     0.064 A 
ATOM     81  C   UNL A   1      46.614  32.543  30.509  1.00  0.00     0.173 A 
ATOM     82  C   UNL A   1      46.060  33.423  28.340  1.00  0.00     0.173 A 
ATOM     83  F   UNL A   1      46.617  31.546  31.408  1.00  0.00    -0.203 F 
ATOM     84  C   UNL A   1      47.141  33.779  30.871  1.00  0.00     0.198 A 
ATOM     85  C   UNL A   1      46.615  34.648  28.695  1.00  0.00     0.198 A 
ATOM     86  F   UNL A   1      45.541  33.280  27.111  1.00  0.00    -0.203 F 
ATOM     87  F   UNL A   1      47.632  33.960  32.106  1.00  0.00    -0.200 F 
ATOM     88  C   UNL A   1      47.148  34.828  29.963  1.00  0.00     0.200 A 
ATOM     89  F   UNL A   1      46.633  35.655  27.813  1.00  0.00    -0.200 F 
ATOM     90  F   UNL A   1      47.663  36.014  30.313  1.00  0.00    -0.200 F 
ENDBRANCH  57  80
ENDBRANCH  31  32
ENDBRANCH  23  26
ENDBRANCH  21  22
ENDBRANCH  20  21
ENDBRANCH   1  20
TORSDOF 14
ENDMDL
