MODEL 1
REMARK VINA RESULT:     -14.2      0.000      0.000
REMARK SMILES Cc1nc(-c2ccccc2)sc1C(=O)N[C@@H](CC1=c2ccccc2=NC1)C(=O)NCCCNC(=O)c1ccc(-c2c3nc(c(-c4c(F)c(F)c(F)c(F)c4F)c4ccc([nH]4)c(-c4c(F)c(F)c(F)c(F)c4F)c4nc(c(-c5c(F)c(F)c(F)c(F)c5F)c5ccc2[nH]5)C=C4)C=C3)cc1
REMARK SMILES IDX 30 1 29 2 27 3 28 4 16 6 15 7 13 8 14 9 12 11 1 12 2 13 3 14
REMARK SMILES IDX 4 15 11 16 5 17 6 18 10 19 7 20 9 21 8 22 17 23 18 24 19 25
REMARK SMILES IDX 26 26 20 27 24 28 25 29 21 30 23 31 22 32 31 33 32 34 33 35
REMARK SMILES IDX 34 36 35 38 36 39 37 40 98 41 38 42 97 43 39 44 40 45 41 46
REMARK SMILES IDX 91 47 42 48 96 49 90 50 92 51 43 52 95 53 89 54 88 55 44 57
REMARK SMILES IDX 76 58 56 59 75 60 57 61 60 62 74 63 93 64 58 65 59 66 73 68
REMARK SMILES IDX 94 69 61 70 45 71 46 72 54 73 47 74 48 75 52 76 55 77 49 78
REMARK SMILES IDX 50 79 53 80 51 81 77 82 78 83 86 84 79 85 80 86 84 87 87 88
REMARK SMILES IDX 81 89 82 90 85 91 83 92 62 93 63 94 71 95 64 96 65 97 69 98
REMARK SMILES IDX 72 99 66 100 67 101 70 102 68 103
REMARK H PARENT 29 5 15 10 33 37 92 56 60 67
REMARK Flexibility Score: inf
ROOT
ATOM      1  C   UNL A   1      32.000  27.484  26.258  1.00  0.00     0.117 C 
ENDROOT
BRANCH   1   2
ATOM      2  N   UNL A   1      31.035  26.551  26.772  1.00  0.00    -0.354 N 
ATOM      3  C   UNL A   1      30.295  25.648  26.080  1.00  0.00     0.242 C 
ATOM      4  O   UNL A   1      29.758  24.747  26.734  1.00  0.00    -0.273 OA
ATOM      5  H   UNL A   1      30.894  26.569  27.746  1.00  0.00     0.163 HD
BRANCH   3   6
ATOM      6  C   UNL A   1      30.133  25.696  24.546  1.00  0.00     0.175 C 
BRANCH   6   7
ATOM      7  N   UNL A   1      30.291  24.418  23.879  1.00  0.00    -0.339 N 
ATOM      8  C   UNL A   1      31.386  23.677  23.521  1.00  0.00     0.263 C 
ATOM      9  O   UNL A   1      31.065  22.672  22.871  1.00  0.00    -0.268 OA
ATOM     10  H   UNL A   1      29.436  23.997  23.632  1.00  0.00     0.164 HD
BRANCH   8  11
ATOM     11  C   UNL A   1      32.777  23.981  23.860  1.00  0.00     0.115 A 
ATOM     12  C   UNL A   1      33.597  26.458  23.325  1.00  0.00     0.068 C 
ATOM     13  C   UNL A   1      33.669  25.059  23.824  1.00  0.00     0.062 A 
ATOM     14  N   UNL A   1      34.911  24.807  24.373  1.00  0.00    -0.241 NA
ATOM     15  C   UNL A   1      35.039  23.562  24.740  1.00  0.00     0.124 A 
ATOM     16  S   UNL A   1      33.670  22.597  24.501  1.00  0.00    -0.108 S 
BRANCH  15  17
ATOM     17  C   UNL A   1      36.277  23.075  25.327  1.00  0.00     0.010 A 
ATOM     18  C   UNL A   1      37.098  23.991  26.002  1.00  0.00     0.011 A 
ATOM     19  C   UNL A   1      36.757  21.790  25.053  1.00  0.00     0.011 A 
ATOM     20  C   UNL A   1      38.390  23.637  26.378  1.00  0.00     0.001 A 
ATOM     21  C   UNL A   1      38.056  21.440  25.424  1.00  0.00     0.001 A 
ATOM     22  C   UNL A   1      38.873  22.366  26.077  1.00  0.00     0.000 A 
ENDBRANCH  15  17
ENDBRANCH   8  11
ENDBRANCH   6   7
BRANCH   6  23
ATOM     23  C   UNL A   1      28.977  26.557  23.966  1.00  0.00     0.068 C 
BRANCH  23  24
ATOM     24  C   UNL A   1      29.309  27.763  23.138  1.00  0.00    -0.037 C 
ATOM     25  C   UNL A   1      28.651  28.917  23.017  1.00  0.00     0.001 A 
ATOM     26  C   UNL A   1      30.602  27.820  22.374  1.00  0.00     0.174 C 
ATOM     27  C   UNL A   1      27.419  29.444  23.512  1.00  0.00     0.010 A 
ATOM     28  C   UNL A   1      29.669  29.793  22.406  1.00  0.00     0.065 A 
ATOM     29  N   UNL A   1      30.774  29.243  22.004  1.00  0.00    -0.280 NA
ATOM     30  C   UNL A   1      27.235  30.774  23.511  1.00  0.00     0.001 A 
ATOM     31  C   UNL A   1      29.393  31.247  22.437  1.00  0.00     0.028 A 
ATOM     32  C   UNL A   1      28.252  31.679  23.000  1.00  0.00     0.002 A 
ENDBRANCH  23  24
ENDBRANCH   6  23
ENDBRANCH   3   6
ENDBRANCH   1   2
BRANCH   1  33
ATOM     33  C   UNL A   1      31.767  28.917  26.650  1.00  0.00     0.042 C 
BRANCH  33  34
ATOM     34  C   UNL A   1      32.782  29.866  26.055  1.00  0.00     0.118 C 
BRANCH  34  35
ATOM     35  N   UNL A   1      32.605  31.252  26.479  1.00  0.00    -0.352 N 
ATOM     36  C   UNL A   1      33.370  32.049  27.301  1.00  0.00     0.251 C 
ATOM     37  H   UNL A   1      31.803  31.692  26.116  1.00  0.00     0.163 HD
ATOM     38  O   UNL A   1      32.971  33.148  27.642  1.00  0.00    -0.269 OA
BRANCH  36  39
ATOM     39  C   UNL A   1      34.665  31.543  27.803  1.00  0.00     0.039 A 
ATOM     40  C   UNL A   1      35.723  32.435  27.974  1.00  0.00     0.014 A 
ATOM     41  C   UNL A   1      34.816  30.202  28.146  1.00  0.00     0.014 A 
ATOM     42  C   UNL A   1      36.898  31.992  28.582  1.00  0.00     0.010 A 
ATOM     43  C   UNL A   1      35.910  29.806  28.897  1.00  0.00     0.010 A 
ATOM     44  C   UNL A   1      36.976  30.689  29.101  1.00  0.00    -0.014 A 
BRANCH  44  45
ATOM     45  C   UNL A   1      38.173  30.223  29.840  1.00  0.00     0.031 A 
ATOM     46  C   UNL A   1      38.402  30.666  31.260  1.00  0.00     0.074 A 
ATOM     47  C   UNL A   1      39.080  29.451  29.209  1.00  0.00     0.049 A 
ATOM     48  N   UNL A   1      39.395  30.383  32.065  1.00  0.00    -0.248 NA
ATOM     49  C   UNL A   1      37.410  31.584  31.843  1.00  0.00     0.031 C 
ATOM     50  C   UNL A   1      39.011  29.037  27.805  1.00  0.00     0.029 A 
ATOM     51  N   UNL A   1      40.236  28.873  29.666  1.00  0.00    -0.354 N 
ATOM     52  C   UNL A   1      39.152  31.100  33.229  1.00  0.00     0.074 A 
ATOM     53  C   UNL A   1      37.970  31.897  33.000  1.00  0.00     0.031 C 
ATOM     54  C   UNL A   1      40.046  28.226  27.533  1.00  0.00     0.029 A 
ATOM     55  C   UNL A   1      40.870  28.094  28.729  1.00  0.00     0.049 A 
ATOM     56  H   UNL A   1      40.580  29.004  30.579  1.00  0.00     0.167 HD
ATOM     57  C   UNL A   1      39.828  31.065  34.401  1.00  0.00     0.037 A 
ATOM     58  C   UNL A   1      41.985  27.349  28.832  1.00  0.00     0.037 A 
ATOM     59  C   UNL A   1      40.980  30.236  34.631  1.00  0.00     0.049 A 
ATOM     60  C   UNL A   1      42.699  27.298  30.155  1.00  0.00     0.074 A 
ATOM     61  C   UNL A   1      41.699  30.061  35.799  1.00  0.00     0.029 A 
ATOM     62  N   UNL A   1      41.579  29.438  33.667  1.00  0.00    -0.354 N 
ATOM     63  N   UNL A   1      42.407  27.908  31.278  1.00  0.00    -0.248 NA
ATOM     64  C   UNL A   1      43.892  26.445  30.226  1.00  0.00     0.031 C 
ATOM     65  C   UNL A   1      42.764  29.195  35.527  1.00  0.00     0.029 A 
ATOM     66  C   UNL A   1      42.676  28.787  34.206  1.00  0.00     0.049 A 
ATOM     67  H   UNL A   1      41.270  29.348  32.736  1.00  0.00     0.167 HD
ATOM     68  C   UNL A   1      43.366  27.500  32.194  1.00  0.00     0.074 A 
ATOM     69  C   UNL A   1      44.229  26.565  31.502  1.00  0.00     0.031 C 
ATOM     70  C   UNL A   1      43.524  27.868  33.491  1.00  0.00     0.037 A 
BRANCH  57  71
ATOM     71  C   UNL A   1      39.326  31.934  35.519  1.00  0.00     0.064 A 
ATOM     72  C   UNL A   1      38.469  31.435  36.513  1.00  0.00     0.173 A 
ATOM     73  C   UNL A   1      39.713  33.279  35.605  1.00  0.00     0.173 A 
ATOM     74  F   UNL A   1      38.051  30.161  36.469  1.00  0.00    -0.203 F 
ATOM     75  C   UNL A   1      37.993  32.258  37.531  1.00  0.00     0.198 A 
ATOM     76  C   UNL A   1      39.264  34.090  36.646  1.00  0.00     0.198 A 
ATOM     77  F   UNL A   1      40.531  33.809  34.683  1.00  0.00    -0.203 F 
ATOM     78  F   UNL A   1      37.127  31.774  38.432  1.00  0.00    -0.200 F 
ATOM     79  C   UNL A   1      38.397  33.582  37.600  1.00  0.00     0.200 A 
ATOM     80  F   UNL A   1      39.665  35.367  36.717  1.00  0.00    -0.200 F 
ATOM     81  F   UNL A   1      37.943  34.372  38.583  1.00  0.00    -0.200 F 
ENDBRANCH  57  71
BRANCH  58  82
ATOM     82  C   UNL A   1      42.461  26.555  27.668  1.00  0.00     0.064 A 
ATOM     83  C   UNL A   1      41.952  25.273  27.414  1.00  0.00     0.173 A 
ATOM     84  C   UNL A   1      43.427  27.059  26.785  1.00  0.00     0.173 A 
ATOM     85  F   UNL A   1      41.037  24.741  28.238  1.00  0.00    -0.203 F 
ATOM     86  C   UNL A   1      42.408  24.516  26.336  1.00  0.00     0.198 A 
ATOM     87  C   UNL A   1      43.860  26.314  25.690  1.00  0.00     0.198 A 
ATOM     88  F   UNL A   1      43.939  28.283  26.977  1.00  0.00    -0.203 F 
ATOM     89  F   UNL A   1      41.937  23.277  26.144  1.00  0.00    -0.200 F 
ATOM     90  C   UNL A   1      43.357  25.040  25.471  1.00  0.00     0.200 A 
ATOM     91  F   UNL A   1      44.764  26.830  24.846  1.00  0.00    -0.200 F 
ATOM     92  F   UNL A   1      43.790  24.316  24.431  1.00  0.00    -0.200 F 
ENDBRANCH  58  82
BRANCH  70  93
ATOM     93  C   UNL A   1      44.666  27.243  34.237  1.00  0.00     0.064 A 
ATOM     94  C   UNL A   1      45.927  27.856  34.298  1.00  0.00     0.173 A 
ATOM     95  C   UNL A   1      44.493  26.026  34.913  1.00  0.00     0.173 A 
ATOM     96  F   UNL A   1      46.145  29.015  33.658  1.00  0.00    -0.203 F 
ATOM     97  C   UNL A   1      46.984  27.252  34.973  1.00  0.00     0.198 A 
ATOM     98  C   UNL A   1      45.543  25.443  35.616  1.00  0.00     0.198 A 
ATOM     99  F   UNL A   1      43.305  25.403  34.894  1.00  0.00    -0.203 F 
ATOM    100  F   UNL A   1      48.196  27.824  34.962  1.00  0.00    -0.200 F 
ATOM    101  C   UNL A   1      46.789  26.050  35.636  1.00  0.00     0.200 A 
ATOM    102  F   UNL A   1      45.350  24.289  36.270  1.00  0.00    -0.200 F 
ATOM    103  F   UNL A   1      47.808  25.470  36.285  1.00  0.00    -0.200 F 
ENDBRANCH  70  93
ENDBRANCH  44  45
ENDBRANCH  36  39
ENDBRANCH  34  35
ENDBRANCH  33  34
ENDBRANCH   1  33
TORSDOF 15
ENDMDL
MODEL 2
REMARK VINA RESULT:     -13.8      1.055      4.857
REMARK SMILES Cc1nc(-c2ccccc2)sc1C(=O)N[C@@H](CC1=c2ccccc2=NC1)C(=O)NCCCNC(=O)c1ccc(-c2c3nc(c(-c4c(F)c(F)c(F)c(F)c4F)c4ccc([nH]4)c(-c4c(F)c(F)c(F)c(F)c4F)c4nc(c(-c5c(F)c(F)c(F)c(F)c5F)c5ccc2[nH]5)C=C4)C=C3)cc1
REMARK SMILES IDX 30 1 29 2 27 3 28 4 16 6 15 7 13 8 14 9 12 11 1 12 2 13 3 14
REMARK SMILES IDX 4 15 11 16 5 17 6 18 10 19 7 20 9 21 8 22 17 23 18 24 19 25
REMARK SMILES IDX 26 26 20 27 24 28 25 29 21 30 23 31 22 32 31 33 32 34 33 35
REMARK SMILES IDX 34 36 35 38 36 39 37 40 98 41 38 42 97 43 39 44 40 45 41 46
REMARK SMILES IDX 91 47 42 48 96 49 90 50 92 51 43 52 95 53 89 54 88 55 44 57
REMARK SMILES IDX 76 58 56 59 75 60 57 61 60 62 74 63 93 64 58 65 59 66 73 68
REMARK SMILES IDX 94 69 61 70 45 71 46 72 54 73 47 74 48 75 52 76 55 77 49 78
REMARK SMILES IDX 50 79 53 80 51 81 77 82 78 83 86 84 79 85 80 86 84 87 87 88
REMARK SMILES IDX 81 89 82 90 85 91 83 92 62 93 63 94 71 95 64 96 65 97 69 98
REMARK SMILES IDX 72 99 66 100 67 101 70 102 68 103
REMARK H PARENT 29 5 15 10 33 37 92 56 60 67
REMARK Flexibility Score: inf
ROOT
ATOM      1  C   UNL A   1      32.817  26.678  26.306  1.00  0.00     0.117 C 
ENDROOT
BRANCH   1   2
ATOM      2  N   UNL A   1      31.959  25.670  26.865  1.00  0.00    -0.354 N 
ATOM      3  C   UNL A   1      32.094  24.322  26.790  1.00  0.00     0.242 C 
ATOM      4  O   UNL A   1      31.428  23.649  27.585  1.00  0.00    -0.273 OA
ATOM      5  H   UNL A   1      31.178  25.999  27.365  1.00  0.00     0.163 HD
BRANCH   3   6
ATOM      6  C   UNL A   1      33.044  23.629  25.792  1.00  0.00     0.175 C 
BRANCH   6   7
ATOM      7  N   UNL A   1      32.398  23.103  24.605  1.00  0.00    -0.339 N 
ATOM      8  C   UNL A   1      31.712  23.688  23.574  1.00  0.00     0.263 C 
ATOM      9  O   UNL A   1      31.236  22.842  22.804  1.00  0.00    -0.268 OA
ATOM     10  H   UNL A   1      32.467  22.124  24.524  1.00  0.00     0.164 HD
BRANCH   8  11
ATOM     11  C   UNL A   1      31.551  25.126  23.356  1.00  0.00     0.115 A 
ATOM     12  C   UNL A   1      33.652  26.397  22.326  1.00  0.00     0.068 C 
ATOM     13  C   UNL A   1      32.272  26.212  22.849  1.00  0.00     0.062 A 
ATOM     14  N   UNL A   1      31.576  27.404  22.800  1.00  0.00    -0.241 NA
ATOM     15  C   UNL A   1      30.391  27.299  23.333  1.00  0.00     0.124 A 
ATOM     16  S   UNL A   1      29.990  25.755  23.898  1.00  0.00    -0.108 S 
BRANCH  15  17
ATOM     17  C   UNL A   1      29.494  28.441  23.405  1.00  0.00     0.010 A 
ATOM     18  C   UNL A   1      28.135  28.237  23.126  1.00  0.00     0.011 A 
ATOM     19  C   UNL A   1      29.983  29.744  23.535  1.00  0.00     0.011 A 
ATOM     20  C   UNL A   1      27.279  29.320  22.953  1.00  0.00     0.001 A 
ATOM     21  C   UNL A   1      29.125  30.830  23.354  1.00  0.00     0.001 A 
ATOM     22  C   UNL A   1      27.778  30.616  23.054  1.00  0.00     0.000 A 
ENDBRANCH  15  17
ENDBRANCH   8  11
ENDBRANCH   6   7
BRANCH   6  23
ATOM     23  C   UNL A   1      34.413  24.305  25.504  1.00  0.00     0.068 C 
BRANCH  23  24
ATOM     24  C   UNL A   1      35.589  23.450  25.137  1.00  0.00    -0.037 C 
ATOM     25  C   UNL A   1      36.859  23.538  25.534  1.00  0.00     0.001 A 
ATOM     26  C   UNL A   1      35.395  22.229  24.283  1.00  0.00     0.174 C 
ATOM     27  C   UNL A   1      37.612  24.440  26.346  1.00  0.00     0.010 A 
ATOM     28  C   UNL A   1      37.395  22.216  25.156  1.00  0.00     0.065 A 
ATOM     29  N   UNL A   1      36.640  21.443  24.438  1.00  0.00    -0.280 NA
ATOM     30  C   UNL A   1      38.786  24.030  26.854  1.00  0.00     0.001 A 
ATOM     31  C   UNL A   1      38.696  21.837  25.752  1.00  0.00     0.028 A 
ATOM     32  C   UNL A   1      39.307  22.701  26.579  1.00  0.00     0.002 A 
ENDBRANCH  23  24
ENDBRANCH   6  23
ENDBRANCH   3   6
ENDBRANCH   1   2
BRANCH   1  33
ATOM     33  C   UNL A   1      32.262  28.076  26.343  1.00  0.00     0.042 C 
BRANCH  33  34
ATOM     34  C   UNL A   1      33.252  29.118  25.876  1.00  0.00     0.118 C 
BRANCH  34  35
ATOM     35  N   UNL A   1      32.955  30.464  26.358  1.00  0.00    -0.352 N 
ATOM     36  C   UNL A   1      33.624  31.272  27.250  1.00  0.00     0.251 C 
ATOM     37  H   UNL A   1      32.136  30.861  25.983  1.00  0.00     0.163 HD
ATOM     38  O   UNL A   1      33.130  32.320  27.626  1.00  0.00    -0.269 OA
BRANCH  36  39
ATOM     39  C   UNL A   1      34.933  30.838  27.781  1.00  0.00     0.039 A 
ATOM     40  C   UNL A   1      35.934  31.788  27.982  1.00  0.00     0.014 A 
ATOM     41  C   UNL A   1      35.153  29.505  28.120  1.00  0.00     0.014 A 
ATOM     42  C   UNL A   1      37.117  31.409  28.617  1.00  0.00     0.010 A 
ATOM     43  C   UNL A   1      36.250  29.168  28.896  1.00  0.00     0.010 A 
ATOM     44  C   UNL A   1      37.258  30.109  29.131  1.00  0.00    -0.014 A 
BRANCH  44  45
ATOM     45  C   UNL A   1      38.461  29.706  29.898  1.00  0.00     0.031 A 
ATOM     46  C   UNL A   1      38.682  30.238  31.288  1.00  0.00     0.074 A 
ATOM     47  C   UNL A   1      39.381  28.913  29.314  1.00  0.00     0.049 A 
ATOM     48  N   UNL A   1      39.678  30.020  32.109  1.00  0.00    -0.248 NA
ATOM     49  C   UNL A   1      37.674  31.174  31.814  1.00  0.00     0.031 C 
ATOM     50  C   UNL A   1      39.320  28.413  27.937  1.00  0.00     0.029 A 
ATOM     51  N   UNL A   1      40.545  28.382  29.806  1.00  0.00    -0.354 N 
ATOM     52  C   UNL A   1      39.422  30.802  33.227  1.00  0.00     0.074 A 
ATOM     53  C   UNL A   1      38.228  31.565  32.950  1.00  0.00     0.031 C 
ATOM     54  C   UNL A   1      40.367  27.605  27.715  1.00  0.00     0.029 A 
ATOM     55  C   UNL A   1      41.192  27.558  28.917  1.00  0.00     0.049 A 
ATOM     56  H   UNL A   1      40.886  28.573  30.709  1.00  0.00     0.167 HD
ATOM     57  C   UNL A   1      40.097  30.848  34.399  1.00  0.00     0.037 A 
ATOM     58  C   UNL A   1      42.319  26.838  29.065  1.00  0.00     0.037 A 
ATOM     59  C   UNL A   1      41.262  30.053  34.679  1.00  0.00     0.049 A 
ATOM     60  C   UNL A   1      43.032  26.878  30.388  1.00  0.00     0.074 A 
ATOM     61  C   UNL A   1      41.983  29.960  35.856  1.00  0.00     0.029 A 
ATOM     62  N   UNL A   1      41.875  29.208  33.765  1.00  0.00    -0.354 N 
ATOM     63  N   UNL A   1      42.729  27.550  31.473  1.00  0.00    -0.248 NA
ATOM     64  C   UNL A   1      44.238  26.050  30.511  1.00  0.00     0.031 C 
ATOM     65  C   UNL A   1      43.061  29.097  35.637  1.00  0.00     0.029 A 
ATOM     66  C   UNL A   1      42.981  28.608  34.343  1.00  0.00     0.049 A 
ATOM     67  H   UNL A   1      41.568  29.057  32.841  1.00  0.00     0.167 HD
ATOM     68  C   UNL A   1      43.693  27.213  32.412  1.00  0.00     0.074 A 
ATOM     69  C   UNL A   1      44.572  26.252  31.777  1.00  0.00     0.031 C 
ATOM     70  C   UNL A   1      43.845  27.661  33.684  1.00  0.00     0.037 A 
BRANCH  57  71
ATOM     71  C   UNL A   1      39.580  31.775  35.462  1.00  0.00     0.064 A 
ATOM     72  C   UNL A   1      40.028  33.102  35.565  1.00  0.00     0.173 A 
ATOM     73  C   UNL A   1      38.617  31.338  36.383  1.00  0.00     0.173 A 
ATOM     74  F   UNL A   1      40.961  33.568  34.722  1.00  0.00    -0.203 F 
ATOM     75  C   UNL A   1      39.556  33.944  36.570  1.00  0.00     0.198 A 
ATOM     76  C   UNL A   1      38.121  32.193  37.365  1.00  0.00     0.198 A 
ATOM     77  F   UNL A   1      38.153  30.079  36.332  1.00  0.00    -0.203 F 
ATOM     78  F   UNL A   1      40.045  35.187  36.685  1.00  0.00    -0.200 F 
ATOM     79  C   UNL A   1      38.598  33.491  37.463  1.00  0.00     0.200 A 
ATOM     80  F   UNL A   1      37.187  31.757  38.220  1.00  0.00    -0.200 F 
ATOM     81  F   UNL A   1      38.141  34.303  38.426  1.00  0.00    -0.200 F 
ENDBRANCH  57  71
BRANCH  58  82
ATOM     82  C   UNL A   1      42.809  25.983  27.951  1.00  0.00     0.064 A 
ATOM     83  C   UNL A   1      42.399  24.647  27.835  1.00  0.00     0.173 A 
ATOM     84  C   UNL A   1      43.689  26.481  26.979  1.00  0.00     0.173 A 
ATOM     85  F   UNL A   1      41.569  24.119  28.747  1.00  0.00    -0.203 F 
ATOM     86  C   UNL A   1      42.870  23.835  26.804  1.00  0.00     0.198 A 
ATOM     87  C   UNL A   1      44.135  25.677  25.932  1.00  0.00     0.198 A 
ATOM     88  F   UNL A   1      44.104  27.755  27.038  1.00  0.00    -0.203 F 
ATOM     89  F   UNL A   1      42.497  22.549  26.744  1.00  0.00    -0.200 F 
ATOM     90  C   UNL A   1      43.732  24.353  25.850  1.00  0.00     0.200 A 
ATOM     91  F   UNL A   1      44.954  26.186  25.001  1.00  0.00    -0.200 F 
ATOM     92  F   UNL A   1      44.179  23.575  24.856  1.00  0.00    -0.200 F 
ENDBRANCH  58  82
BRANCH  70  93
ATOM     93  C   UNL A   1      44.995  27.100  34.467  1.00  0.00     0.064 A 
ATOM     94  C   UNL A   1      46.250  27.729  34.481  1.00  0.00     0.173 A 
ATOM     95  C   UNL A   1      44.837  25.930  35.225  1.00  0.00     0.173 A 
ATOM     96  F   UNL A   1      46.454  28.844  33.762  1.00  0.00    -0.203 F 
ATOM     97  C   UNL A   1      47.315  27.184  35.191  1.00  0.00     0.198 A 
ATOM     98  C   UNL A   1      45.896  25.408  35.962  1.00  0.00     0.198 A 
ATOM     99  F   UNL A   1      43.656  25.296  35.253  1.00  0.00    -0.203 F 
ATOM    100  F   UNL A   1      48.521  27.766  35.137  1.00  0.00    -0.200 F 
ATOM    101  C   UNL A   1      47.135  26.028  35.936  1.00  0.00     0.200 A 
ATOM    102  F   UNL A   1      45.716  24.299  36.694  1.00  0.00    -0.200 F 
ATOM    103  F   UNL A   1      48.162  25.503  36.619  1.00  0.00    -0.200 F 
ENDBRANCH  70  93
ENDBRANCH  44  45
ENDBRANCH  36  39
ENDBRANCH  34  35
ENDBRANCH  33  34
ENDBRANCH   1  33
TORSDOF 15
ENDMDL
MODEL 3
REMARK VINA RESULT:     -13.7      4.127      9.226
REMARK SMILES Cc1nc(-c2ccccc2)sc1C(=O)N[C@@H](CC1=c2ccccc2=NC1)C(=O)NCCCNC(=O)c1ccc(-c2c3nc(c(-c4c(F)c(F)c(F)c(F)c4F)c4ccc([nH]4)c(-c4c(F)c(F)c(F)c(F)c4F)c4nc(c(-c5c(F)c(F)c(F)c(F)c5F)c5ccc2[nH]5)C=C4)C=C3)cc1
REMARK SMILES IDX 30 1 29 2 27 3 28 4 16 6 15 7 13 8 14 9 12 11 1 12 2 13 3 14
REMARK SMILES IDX 4 15 11 16 5 17 6 18 10 19 7 20 9 21 8 22 17 23 18 24 19 25
REMARK SMILES IDX 26 26 20 27 24 28 25 29 21 30 23 31 22 32 31 33 32 34 33 35
REMARK SMILES IDX 34 36 35 38 36 39 37 40 98 41 38 42 97 43 39 44 40 45 41 46
REMARK SMILES IDX 91 47 42 48 96 49 90 50 92 51 43 52 95 53 89 54 88 55 44 57
REMARK SMILES IDX 76 58 56 59 75 60 57 61 60 62 74 63 93 64 58 65 59 66 73 68
REMARK SMILES IDX 94 69 61 70 45 71 46 72 54 73 47 74 48 75 52 76 55 77 49 78
REMARK SMILES IDX 50 79 53 80 51 81 77 82 78 83 86 84 79 85 80 86 84 87 87 88
REMARK SMILES IDX 81 89 82 90 85 91 83 92 62 93 63 94 71 95 64 96 65 97 69 98
REMARK SMILES IDX 72 99 66 100 67 101 70 102 68 103
REMARK H PARENT 29 5 15 10 33 37 92 56 60 67
REMARK Flexibility Score: inf
ROOT
ATOM      1  C   UNL A   1      35.251  23.483  23.757  1.00  0.00     0.117 C 
ENDROOT
BRANCH   1   2
ATOM      2  N   UNL A   1      34.781  24.113  24.960  1.00  0.00    -0.354 N 
ATOM      3  C   UNL A   1      33.806  25.048  25.088  1.00  0.00     0.242 C 
ATOM      4  O   UNL A   1      33.354  25.231  26.224  1.00  0.00    -0.273 OA
ATOM      5  H   UNL A   1      35.221  23.830  25.794  1.00  0.00     0.163 HD
BRANCH   3   6
ATOM      6  C   UNL A   1      33.245  25.843  23.891  1.00  0.00     0.175 C 
BRANCH   6   7
ATOM      7  N   UNL A   1      31.848  25.586  23.594  1.00  0.00    -0.339 N 
ATOM      8  C   UNL A   1      31.071  24.459  23.643  1.00  0.00     0.263 C 
ATOM      9  O   UNL A   1      29.933  24.670  23.202  1.00  0.00    -0.268 OA
ATOM     10  H   UNL A   1      31.359  26.386  23.294  1.00  0.00     0.164 HD
BRANCH   8  11
ATOM     11  C   UNL A   1      31.484  23.154  24.161  1.00  0.00     0.115 A 
ATOM     12  C   UNL A   1      30.965  22.697  26.732  1.00  0.00     0.068 C 
ATOM     13  C   UNL A   1      31.437  22.419  25.350  1.00  0.00     0.062 A 
ATOM     14  N   UNL A   1      31.929  21.131  25.260  1.00  0.00    -0.241 NA
ATOM     15  C   UNL A   1      32.433  20.883  24.084  1.00  0.00     0.124 A 
ATOM     16  S   UNL A   1      32.323  22.152  22.971  1.00  0.00    -0.108 S 
BRANCH  15  17
ATOM     17  C   UNL A   1      33.025  19.590  23.776  1.00  0.00     0.010 A 
ATOM     18  C   UNL A   1      32.373  18.765  22.848  1.00  0.00     0.011 A 
ATOM     19  C   UNL A   1      34.088  19.078  24.527  1.00  0.00     0.011 A 
ATOM     20  C   UNL A   1      32.760  17.438  22.689  1.00  0.00     0.001 A 
ATOM     21  C   UNL A   1      34.469  17.745  24.372  1.00  0.00     0.001 A 
ATOM     22  C   UNL A   1      33.799  16.925  23.461  1.00  0.00     0.000 A 
ENDBRANCH  15  17
ENDBRANCH   8  11
ENDBRANCH   6   7
BRANCH   6  23
ATOM     23  C   UNL A   1      33.638  27.341  23.767  1.00  0.00     0.068 C 
BRANCH  23  24
ATOM     24  C   UNL A   1      33.036  28.336  24.713  1.00  0.00    -0.037 C 
ATOM     25  C   UNL A   1      33.515  28.815  25.862  1.00  0.00     0.001 A 
ATOM     26  C   UNL A   1      31.752  29.031  24.358  1.00  0.00     0.174 C 
ATOM     27  C   UNL A   1      34.669  28.564  26.667  1.00  0.00     0.010 A 
ATOM     28  C   UNL A   1      32.673  30.007  26.079  1.00  0.00     0.065 A 
ATOM     29  N   UNL A   1      31.658  30.178  25.289  1.00  0.00    -0.280 NA
ATOM     30  C   UNL A   1      35.044  29.487  27.568  1.00  0.00     0.001 A 
ATOM     31  C   UNL A   1      33.149  30.975  27.092  1.00  0.00     0.028 A 
ATOM     32  C   UNL A   1      34.292  30.717  27.749  1.00  0.00     0.002 A 
ENDBRANCH  23  24
ENDBRANCH   6  23
ENDBRANCH   3   6
ENDBRANCH   1   2
BRANCH   1  33
ATOM     33  C   UNL A   1      36.450  22.593  23.934  1.00  0.00     0.042 C 
BRANCH  33  34
ATOM     34  C   UNL A   1      36.791  22.341  25.385  1.00  0.00     0.118 C 
BRANCH  34  35
ATOM     35  N   UNL A   1      37.820  21.323  25.576  1.00  0.00    -0.352 N 
ATOM     36  C   UNL A   1      39.100  21.416  26.074  1.00  0.00     0.251 C 
ATOM     37  H   UNL A   1      37.555  20.416  25.300  1.00  0.00     0.163 HD
ATOM     38  O   UNL A   1      39.855  20.461  26.022  1.00  0.00    -0.269 OA
BRANCH  36  39
ATOM     39  C   UNL A   1      39.568  22.699  26.640  1.00  0.00     0.039 A 
ATOM     40  C   UNL A   1      40.580  22.690  27.599  1.00  0.00     0.014 A 
ATOM     41  C   UNL A   1      39.038  23.906  26.190  1.00  0.00     0.014 A 
ATOM     42  C   UNL A   1      41.124  23.901  28.028  1.00  0.00     0.010 A 
ATOM     43  C   UNL A   1      39.688  25.092  26.487  1.00  0.00     0.010 A 
ATOM     44  C   UNL A   1      40.722  25.107  27.430  1.00  0.00    -0.014 A 
BRANCH  44  45
ATOM     45  C   UNL A   1      41.353  26.399  27.794  1.00  0.00     0.031 A 
ATOM     46  C   UNL A   1      42.764  26.696  27.362  1.00  0.00     0.074 A 
ATOM     47  C   UNL A   1      40.674  27.272  28.563  1.00  0.00     0.049 A 
ATOM     48  N   UNL A   1      43.494  27.756  27.598  1.00  0.00    -0.248 NA
ATOM     49  C   UNL A   1      43.466  25.647  26.605  1.00  0.00     0.031 C 
ATOM     50  C   UNL A   1      39.335  27.051  29.119  1.00  0.00     0.029 A 
ATOM     51  N   UNL A   1      41.012  28.524  29.007  1.00  0.00    -0.354 N 
ATOM     52  C   UNL A   1      44.736  27.489  27.035  1.00  0.00     0.074 A 
ATOM     53  C   UNL A   1      44.692  26.140  26.525  1.00  0.00     0.031 C 
ATOM     54  C   UNL A   1      38.946  28.152  29.780  1.00  0.00     0.029 A 
ATOM     55  C   UNL A   1      40.017  29.139  29.728  1.00  0.00     0.049 A 
ATOM     56  H   UNL A   1      41.885  28.942  28.828  1.00  0.00     0.167 HD
ATOM     57  C   UNL A   1      45.804  28.312  26.915  1.00  0.00     0.037 A 
ATOM     58  C   UNL A   1      39.975  30.369  30.273  1.00  0.00     0.037 A 
ATOM     59  C   UNL A   1      45.822  29.669  27.391  1.00  0.00     0.049 A 
ATOM     60  C   UNL A   1      41.161  31.277  30.096  1.00  0.00     0.074 A 
ATOM     61  C   UNL A   1      46.819  30.617  27.259  1.00  0.00     0.029 A 
ATOM     62  N   UNL A   1      44.786  30.268  28.093  1.00  0.00    -0.354 N 
ATOM     63  N   UNL A   1      42.296  31.048  29.480  1.00  0.00    -0.248 NA
ATOM     64  C   UNL A   1      41.055  32.619  30.680  1.00  0.00     0.031 C 
ATOM     65  C   UNL A   1      46.406  31.776  27.924  1.00  0.00     0.029 A 
ATOM     66  C   UNL A   1      45.129  31.569  28.423  1.00  0.00     0.049 A 
ATOM     67  H   UNL A   1      43.933  29.834  28.323  1.00  0.00     0.167 HD
ATOM     68  C   UNL A   1      43.031  32.219  29.586  1.00  0.00     0.074 A 
ATOM     69  C   UNL A   1      42.199  33.168  30.298  1.00  0.00     0.031 C 
ATOM     70  C   UNL A   1      44.284  32.489  29.141  1.00  0.00     0.037 A 
BRANCH  57  71
ATOM     71  C   UNL A   1      47.026  27.768  26.231  1.00  0.00     0.064 A 
ATOM     72  C   UNL A   1      47.140  27.747  24.831  1.00  0.00     0.173 A 
ATOM     73  C   UNL A   1      48.102  27.271  26.981  1.00  0.00     0.173 A 
ATOM     74  F   UNL A   1      46.133  28.193  24.065  1.00  0.00    -0.203 F 
ATOM     75  C   UNL A   1      48.269  27.219  24.210  1.00  0.00     0.198 A 
ATOM     76  C   UNL A   1      49.245  26.777  26.356  1.00  0.00     0.198 A 
ATOM     77  F   UNL A   1      48.048  27.266  28.322  1.00  0.00    -0.203 F 
ATOM     78  F   UNL A   1      48.327  27.154  22.872  1.00  0.00    -0.200 F 
ATOM     79  C   UNL A   1      49.323  26.742  24.973  1.00  0.00     0.200 A 
ATOM     80  F   UNL A   1      50.267  26.326  27.096  1.00  0.00    -0.200 F 
ATOM     81  F   UNL A   1      50.411  26.239  24.374  1.00  0.00    -0.200 F 
ENDBRANCH  57  71
BRANCH  58  82
ATOM     82  C   UNL A   1      38.754  30.826  30.988  1.00  0.00     0.064 A 
ATOM     83  C   UNL A   1      38.675  30.769  32.387  1.00  0.00     0.173 A 
ATOM     84  C   UNL A   1      37.646  31.333  30.294  1.00  0.00     0.173 A 
ATOM     85  F   UNL A   1      39.703  30.278  33.095  1.00  0.00    -0.203 F 
ATOM     86  C   UNL A   1      37.527  31.178  33.062  1.00  0.00     0.198 A 
ATOM     87  C   UNL A   1      36.511  31.771  30.972  1.00  0.00     0.198 A 
ATOM     88  F   UNL A   1      37.674  31.420  28.955  1.00  0.00    -0.203 F 
ATOM     89  F   UNL A   1      37.462  31.069  34.396  1.00  0.00    -0.200 F 
ATOM     90  C   UNL A   1      36.448  31.684  32.354  1.00  0.00     0.200 A 
ATOM     91  F   UNL A   1      35.477  32.277  30.285  1.00  0.00    -0.200 F 
ATOM     92  F   UNL A   1      35.347  32.084  33.003  1.00  0.00    -0.200 F 
ENDBRANCH  58  82
BRANCH  70  93
ATOM     93  C   UNL A   1      44.815  33.868  29.403  1.00  0.00     0.064 A 
ATOM     94  C   UNL A   1      44.592  34.924  28.506  1.00  0.00     0.173 A 
ATOM     95  C   UNL A   1      45.540  34.140  30.573  1.00  0.00     0.173 A 
ATOM     96  F   UNL A   1      43.915  34.711  27.368  1.00  0.00    -0.203 F 
ATOM     97  C   UNL A   1      45.112  36.191  28.751  1.00  0.00     0.198 A 
ATOM     98  C   UNL A   1      46.028  35.418  30.831  1.00  0.00     0.198 A 
ATOM     99  F   UNL A   1      45.771  33.168  31.468  1.00  0.00    -0.203 F 
ATOM    100  F   UNL A   1      44.943  37.167  27.848  1.00  0.00    -0.200 F 
ATOM    101  C   UNL A   1      45.824  36.438  29.915  1.00  0.00     0.200 A 
ATOM    102  F   UNL A   1      46.701  35.659  31.964  1.00  0.00    -0.200 F 
ATOM    103  F   UNL A   1      46.324  37.659  30.149  1.00  0.00    -0.200 F 
ENDBRANCH  70  93
ENDBRANCH  44  45
ENDBRANCH  36  39
ENDBRANCH  34  35
ENDBRANCH  33  34
ENDBRANCH   1  33
TORSDOF 15
ENDMDL
