MODEL 1
REMARK VINA RESULT:     -12.0      0.000      0.000
REMARK SMILES NC(=O)C[C@@H](NC(=O)c1ccc(CO)cc1)C(=O)NCCCNC(=O)c1ccc(-c2c3nc(c(-c4c(F)c(F)c(F)c(F)c4F)c4ccc([nH]4)c(-c4c(F)c(F)c(F)c(F)c4F)c4nc(c(-c5c(F)c(F)c(F)c(F)c5F)c5ccc2[nH]5)C=C4)C=C3)cc1
REMARK SMILES IDX 20 1 19 2 17 3 18 4 5 6 4 7 2 8 1 9 3 12 6 13 7 14 8 16 9 17
REMARK SMILES IDX 10 18 16 19 11 20 15 21 12 22 13 23 14 24 21 26 22 27 23 28
REMARK SMILES IDX 24 29 25 31 26 32 27 33 88 34 28 35 87 36 29 37 30 38 31 39
REMARK SMILES IDX 81 40 32 41 86 42 80 43 82 44 33 45 85 46 79 47 78 48 34 50
REMARK SMILES IDX 66 51 46 52 65 53 47 54 50 55 64 56 83 57 48 58 49 59 63 61
REMARK SMILES IDX 84 62 51 63 35 64 36 65 44 66 37 67 38 68 42 69 45 70 39 71
REMARK SMILES IDX 40 72 43 73 41 74 67 75 68 76 76 77 69 78 70 79 74 80 77 81
REMARK SMILES IDX 71 82 72 83 75 84 73 85 52 86 53 87 61 88 54 89 55 90 59 91
REMARK SMILES IDX 62 92 56 93 57 94 60 95 58 96
REMARK H PARENT 19 5 1 10 1 11 6 15 14 25 23 30 82 49 50 60
REMARK Flexibility Score: inf
ROOT
ATOM      1  C   UNL A   1      37.073  21.656  24.971  1.00  0.00     0.117 C 
ENDROOT
BRANCH   1   2
ATOM      2  N   UNL A   1      36.282  21.757  26.184  1.00  0.00    -0.354 N 
ATOM      3  C   UNL A   1      34.941  21.615  26.368  1.00  0.00     0.243 C 
ATOM      4  O   UNL A   1      34.490  21.862  27.491  1.00  0.00    -0.273 OA
ATOM      5  H   UNL A   1      36.794  21.960  27.000  1.00  0.00     0.163 HD
BRANCH   3   6
ATOM      6  C   UNL A   1      33.999  21.327  25.188  1.00  0.00     0.180 C 
BRANCH   6   7
ATOM      7  C   UNL A   1      34.155  19.817  24.939  1.00  0.00     0.134 C 
BRANCH   7   8
ATOM      8  C   UNL A   1      32.916  19.036  25.262  1.00  0.00     0.220 C 
ATOM      9  N   UNL A   1      32.903  18.462  26.501  1.00  0.00    -0.370 N 
ATOM     10  H   UNL A   1      32.126  17.932  26.790  1.00  0.00     0.159 HD
ATOM     11  H   UNL A   1      33.672  18.577  27.105  1.00  0.00     0.159 HD
ATOM     12  O   UNL A   1      31.971  18.920  24.494  1.00  0.00    -0.275 OA
ENDBRANCH   7   8
ENDBRANCH   6   7
BRANCH   6  13
ATOM     13  N   UNL A   1      32.590  21.737  25.365  1.00  0.00    -0.340 N 
ATOM     14  C   UNL A   1      31.940  22.906  25.031  1.00  0.00     0.251 C 
ATOM     15  H   UNL A   1      32.018  21.060  25.794  1.00  0.00     0.164 HD
ATOM     16  O   UNL A   1      30.713  22.921  25.002  1.00  0.00    -0.269 OA
BRANCH  14  17
ATOM     17  C   UNL A   1      32.682  24.179  24.903  1.00  0.00     0.039 A 
ATOM     18  C   UNL A   1      33.097  24.553  23.618  1.00  0.00     0.014 A 
ATOM     19  C   UNL A   1      32.885  25.039  25.980  1.00  0.00     0.014 A 
ATOM     20  C   UNL A   1      33.566  25.846  23.384  1.00  0.00     0.007 A 
ATOM     21  C   UNL A   1      33.360  26.334  25.743  1.00  0.00     0.007 A 
ATOM     22  C   UNL A   1      33.657  26.762  24.440  1.00  0.00    -0.023 A 
BRANCH  22  23
ATOM     23  C   UNL A   1      34.027  28.197  24.161  1.00  0.00     0.191 C 
BRANCH  23  24
ATOM     24  O   UNL A   1      34.110  28.945  25.363  1.00  0.00    -0.392 OA
ATOM     25  H   UNL A   1      33.222  29.056  25.736  1.00  0.00     0.211 HD
ENDBRANCH  23  24
ENDBRANCH  22  23
ENDBRANCH  14  17
ENDBRANCH   6  13
ENDBRANCH   3   6
ENDBRANCH   1   2
BRANCH   1  26
ATOM     26  C   UNL A   1      37.975  20.438  25.001  1.00  0.00     0.042 C 
BRANCH  26  27
ATOM     27  C   UNL A   1      39.180  20.607  25.915  1.00  0.00     0.118 C 
BRANCH  27  28
ATOM     28  N   UNL A   1      40.032  19.426  25.966  1.00  0.00    -0.352 N 
ATOM     29  C   UNL A   1      41.395  19.362  26.126  1.00  0.00     0.251 C 
ATOM     30  H   UNL A   1      39.571  18.560  25.872  1.00  0.00     0.163 HD
ATOM     31  O   UNL A   1      41.995  18.300  26.007  1.00  0.00    -0.269 OA
BRANCH  29  32
ATOM     32  C   UNL A   1      42.132  20.609  26.410  1.00  0.00     0.039 A 
ATOM     33  C   UNL A   1      42.630  21.364  25.347  1.00  0.00     0.014 A 
ATOM     34  C   UNL A   1      42.243  21.069  27.726  1.00  0.00     0.014 A 
ATOM     35  C   UNL A   1      43.163  22.629  25.597  1.00  0.00     0.010 A 
ATOM     36  C   UNL A   1      42.691  22.360  27.961  1.00  0.00     0.010 A 
ATOM     37  C   UNL A   1      43.153  23.155  26.900  1.00  0.00    -0.014 A 
BRANCH  37  38
ATOM     38  C   UNL A   1      43.619  24.534  27.185  1.00  0.00     0.031 A 
ATOM     39  C   UNL A   1      42.649  25.555  27.704  1.00  0.00     0.074 A 
ATOM     40  C   UNL A   1      44.885  24.888  26.889  1.00  0.00     0.049 A 
ATOM     41  N   UNL A   1      42.822  26.837  27.905  1.00  0.00    -0.248 NA
ATOM     42  C   UNL A   1      41.288  25.080  28.003  1.00  0.00     0.031 C 
ATOM     43  C   UNL A   1      45.904  24.001  26.324  1.00  0.00     0.029 A 
ATOM     44  N   UNL A   1      45.526  26.095  27.008  1.00  0.00    -0.354 N 
ATOM     45  C   UNL A   1      41.591  27.321  28.323  1.00  0.00     0.074 A 
ATOM     46  C   UNL A   1      40.665  26.210  28.300  1.00  0.00     0.031 C 
ATOM     47  C   UNL A   1      47.048  24.688  26.167  1.00  0.00     0.029 A 
ATOM     48  C   UNL A   1      46.833  26.070  26.585  1.00  0.00     0.049 A 
ATOM     49  H   UNL A   1      45.091  26.904  27.363  1.00  0.00     0.167 HD
ATOM     50  C   UNL A   1      41.267  28.575  28.717  1.00  0.00     0.037 A 
ATOM     51  C   UNL A   1      47.750  27.055  26.535  1.00  0.00     0.037 A 
ATOM     52  C   UNL A   1      42.201  29.666  28.784  1.00  0.00     0.049 A 
ATOM     53  C   UNL A   1      47.373  28.433  27.004  1.00  0.00     0.074 A 
ATOM     54  C   UNL A   1      41.992  30.954  29.242  1.00  0.00     0.029 A 
ATOM     55  N   UNL A   1      43.527  29.591  28.386  1.00  0.00    -0.354 N 
ATOM     56  N   UNL A   1      46.223  28.863  27.461  1.00  0.00    -0.248 NA
ATOM     57  C   UNL A   1      48.422  29.461  26.954  1.00  0.00     0.031 C 
ATOM     58  C   UNL A   1      43.185  31.670  29.091  1.00  0.00     0.029 A 
ATOM     59  C   UNL A   1      44.146  30.815  28.574  1.00  0.00     0.049 A 
ATOM     60  H   UNL A   1      43.964  28.787  28.023  1.00  0.00     0.167 HD
ATOM     61  C   UNL A   1      46.414  30.201  27.776  1.00  0.00     0.074 A 
ATOM     62  C   UNL A   1      47.796  30.509  27.469  1.00  0.00     0.031 C 
ATOM     63  C   UNL A   1      45.526  31.096  28.273  1.00  0.00     0.037 A 
BRANCH  50  64
ATOM     64  C   UNL A   1      39.843  28.826  29.119  1.00  0.00     0.064 A 
ATOM     65  C   UNL A   1      39.413  28.655  30.443  1.00  0.00     0.173 A 
ATOM     66  C   UNL A   1      38.905  29.267  28.173  1.00  0.00     0.173 A 
ATOM     67  F   UNL A   1      40.270  28.221  31.380  1.00  0.00    -0.203 F 
ATOM     68  C   UNL A   1      38.088  28.886  30.801  1.00  0.00     0.198 A 
ATOM     69  C   UNL A   1      37.587  29.525  28.541  1.00  0.00     0.198 A 
ATOM     70  F   UNL A   1      39.266  29.449  26.895  1.00  0.00    -0.203 F 
ATOM     71  F   UNL A   1      37.689  28.666  32.061  1.00  0.00    -0.200 F 
ATOM     72  C   UNL A   1      37.178  29.327  29.852  1.00  0.00     0.200 A 
ATOM     73  F   UNL A   1      36.710  29.959  27.626  1.00  0.00    -0.200 F 
ATOM     74  F   UNL A   1      35.903  29.553  30.199  1.00  0.00    -0.200 F 
ENDBRANCH  50  64
BRANCH  51  75
ATOM     75  C   UNL A   1      49.125  26.764  26.053  1.00  0.00     0.064 A 
ATOM     76  C   UNL A   1      49.475  26.986  24.714  1.00  0.00     0.173 A 
ATOM     77  C   UNL A   1      50.112  26.263  26.912  1.00  0.00     0.173 A 
ATOM     78  F   UNL A   1      48.559  27.447  23.851  1.00  0.00    -0.203 F 
ATOM     79  C   UNL A   1      50.757  26.703  24.248  1.00  0.00     0.198 A 
ATOM     80  C   UNL A   1      51.401  26.002  26.451  1.00  0.00     0.198 A 
ATOM     81  F   UNL A   1      49.829  26.040  28.204  1.00  0.00    -0.203 F 
ATOM     82  F   UNL A   1      51.054  26.888  22.955  1.00  0.00    -0.200 F 
ATOM     83  C   UNL A   1      51.721  26.215  25.118  1.00  0.00     0.200 A 
ATOM     84  F   UNL A   1      52.334  25.544  27.297  1.00  0.00    -0.200 F 
ATOM     85  F   UNL A   1      52.955  25.946  24.671  1.00  0.00    -0.200 F 
ENDBRANCH  51  75
BRANCH  63  86
ATOM     86  C   UNL A   1      46.027  32.482  28.545  1.00  0.00     0.064 A 
ATOM     87  C   UNL A   1      45.950  33.492  27.577  1.00  0.00     0.173 A 
ATOM     88  C   UNL A   1      46.545  32.814  29.807  1.00  0.00     0.173 A 
ATOM     89  F   UNL A   1      45.476  33.218  26.351  1.00  0.00    -0.203 F 
ATOM     90  C   UNL A   1      46.390  34.784  27.855  1.00  0.00     0.198 A 
ATOM     91  C   UNL A   1      46.961  34.111  30.089  1.00  0.00     0.198 A 
ATOM     92  F   UNL A   1      46.634  31.882  30.767  1.00  0.00    -0.203 F 
ATOM     93  F   UNL A   1      46.343  35.725  26.904  1.00  0.00    -0.200 F 
ATOM     94  C   UNL A   1      46.888  35.093  29.113  1.00  0.00     0.200 A 
ATOM     95  F   UNL A   1      47.432  34.411  31.308  1.00  0.00    -0.200 F 
ATOM     96  F   UNL A   1      47.304  36.338  29.382  1.00  0.00    -0.200 F 
ENDBRANCH  63  86
ENDBRANCH  37  38
ENDBRANCH  29  32
ENDBRANCH  27  28
ENDBRANCH  26  27
ENDBRANCH   1  26
TORSDOF 16
ENDMDL
MODEL 2
REMARK VINA RESULT:     -12.0      0.517      2.031
REMARK SMILES NC(=O)C[C@@H](NC(=O)c1ccc(CO)cc1)C(=O)NCCCNC(=O)c1ccc(-c2c3nc(c(-c4c(F)c(F)c(F)c(F)c4F)c4ccc([nH]4)c(-c4c(F)c(F)c(F)c(F)c4F)c4nc(c(-c5c(F)c(F)c(F)c(F)c5F)c5ccc2[nH]5)C=C4)C=C3)cc1
REMARK SMILES IDX 20 1 19 2 17 3 18 4 5 6 4 7 2 8 1 9 3 12 6 13 7 14 8 16 9 17
REMARK SMILES IDX 10 18 16 19 11 20 15 21 12 22 13 23 14 24 21 26 22 27 23 28
REMARK SMILES IDX 24 29 25 31 26 32 27 33 88 34 28 35 87 36 29 37 30 38 31 39
REMARK SMILES IDX 81 40 32 41 86 42 80 43 82 44 33 45 85 46 79 47 78 48 34 50
REMARK SMILES IDX 66 51 46 52 65 53 47 54 50 55 64 56 83 57 48 58 49 59 63 61
REMARK SMILES IDX 84 62 51 63 35 64 36 65 44 66 37 67 38 68 42 69 45 70 39 71
REMARK SMILES IDX 40 72 43 73 41 74 67 75 68 76 76 77 69 78 70 79 74 80 77 81
REMARK SMILES IDX 71 82 72 83 75 84 73 85 52 86 53 87 61 88 54 89 55 90 59 91
REMARK SMILES IDX 62 92 56 93 57 94 60 95 58 96
REMARK H PARENT 19 5 1 10 1 11 6 15 14 25 23 30 82 49 50 60
REMARK Flexibility Score: inf
ROOT
ATOM      1  C   UNL A   1      37.208  21.652  24.907  1.00  0.00     0.117 C 
ENDROOT
BRANCH   1   2
ATOM      2  N   UNL A   1      36.422  21.854  26.112  1.00  0.00    -0.354 N 
ATOM      3  C   UNL A   1      35.077  21.771  26.302  1.00  0.00     0.243 C 
ATOM      4  O   UNL A   1      34.637  22.100  27.408  1.00  0.00    -0.273 OA
ATOM      5  H   UNL A   1      36.942  22.086  26.914  1.00  0.00     0.163 HD
BRANCH   3   6
ATOM      6  C   UNL A   1      34.124  21.448  25.140  1.00  0.00     0.180 C 
BRANCH   6   7
ATOM      7  C   UNL A   1      34.247  19.924  24.963  1.00  0.00     0.134 C 
BRANCH   7   8
ATOM      8  C   UNL A   1      32.971  19.193  25.256  1.00  0.00     0.220 C 
ATOM      9  N   UNL A   1      32.918  18.594  26.482  1.00  0.00    -0.370 N 
ATOM     10  H   UNL A   1      32.115  18.094  26.752  1.00  0.00     0.159 HD
ATOM     11  H   UNL A   1      33.684  18.664  27.097  1.00  0.00     0.159 HD
ATOM     12  O   UNL A   1      32.031  19.134  24.475  1.00  0.00    -0.275 OA
ENDBRANCH   7   8
ENDBRANCH   6   7
BRANCH   6  13
ATOM     13  N   UNL A   1      32.725  21.895  25.303  1.00  0.00    -0.340 N 
ATOM     14  C   UNL A   1      32.056  22.980  24.776  1.00  0.00     0.251 C 
ATOM     15  H   UNL A   1      32.177  21.321  25.886  1.00  0.00     0.164 HD
ATOM     16  O   UNL A   1      30.829  22.998  24.807  1.00  0.00    -0.269 OA
BRANCH  14  17
ATOM     17  C   UNL A   1      32.788  24.197  24.362  1.00  0.00     0.039 A 
ATOM     18  C   UNL A   1      32.979  24.393  22.988  1.00  0.00     0.014 A 
ATOM     19  C   UNL A   1      33.191  25.174  25.270  1.00  0.00     0.014 A 
ATOM     20  C   UNL A   1      33.424  25.628  22.515  1.00  0.00     0.007 A 
ATOM     21  C   UNL A   1      33.642  26.410  24.792  1.00  0.00     0.007 A 
ATOM     22  C   UNL A   1      33.715  26.663  23.414  1.00  0.00    -0.023 A 
BRANCH  22  23
ATOM     23  C   UNL A   1      34.057  28.036  22.895  1.00  0.00     0.191 C 
BRANCH  23  24
ATOM     24  O   UNL A   1      33.913  28.100  21.486  1.00  0.00    -0.392 OA
ATOM     25  H   UNL A   1      34.769  28.317  21.084  1.00  0.00     0.211 HD
ENDBRANCH  23  24
ENDBRANCH  22  23
ENDBRANCH  14  17
ENDBRANCH   6  13
ENDBRANCH   3   6
ENDBRANCH   1   2
BRANCH   1  26
ATOM     26  C   UNL A   1      38.047  20.393  25.000  1.00  0.00     0.042 C 
BRANCH  26  27
ATOM     27  C   UNL A   1      39.261  20.548  25.905  1.00  0.00     0.118 C 
BRANCH  27  28
ATOM     28  N   UNL A   1      40.120  19.371  25.919  1.00  0.00    -0.352 N 
ATOM     29  C   UNL A   1      41.484  19.311  26.075  1.00  0.00     0.251 C 
ATOM     30  H   UNL A   1      39.664  18.506  25.801  1.00  0.00     0.163 HD
ATOM     31  O   UNL A   1      42.090  18.257  25.922  1.00  0.00    -0.269 OA
BRANCH  29  32
ATOM     32  C   UNL A   1      42.214  20.554  26.393  1.00  0.00     0.039 A 
ATOM     33  C   UNL A   1      42.757  21.311  25.355  1.00  0.00     0.014 A 
ATOM     34  C   UNL A   1      42.274  21.007  27.715  1.00  0.00     0.014 A 
ATOM     35  C   UNL A   1      43.285  22.573  25.631  1.00  0.00     0.010 A 
ATOM     36  C   UNL A   1      42.717  22.296  27.974  1.00  0.00     0.010 A 
ATOM     37  C   UNL A   1      43.224  23.093  26.935  1.00  0.00    -0.014 A 
BRANCH  37  38
ATOM     38  C   UNL A   1      43.685  24.469  27.246  1.00  0.00     0.031 A 
ATOM     39  C   UNL A   1      42.707  25.481  27.769  1.00  0.00     0.074 A 
ATOM     40  C   UNL A   1      44.953  24.829  26.968  1.00  0.00     0.049 A 
ATOM     41  N   UNL A   1      42.875  26.759  27.991  1.00  0.00    -0.248 NA
ATOM     42  C   UNL A   1      41.344  24.997  28.048  1.00  0.00     0.031 C 
ATOM     43  C   UNL A   1      45.979  23.953  26.401  1.00  0.00     0.029 A 
ATOM     44  N   UNL A   1      45.590  26.036  27.111  1.00  0.00    -0.354 N 
ATOM     45  C   UNL A   1      41.638  27.235  28.403  1.00  0.00     0.074 A 
ATOM     46  C   UNL A   1      40.715  26.122  28.354  1.00  0.00     0.031 C 
ATOM     47  C   UNL A   1      47.123  24.645  26.266  1.00  0.00     0.029 A 
ATOM     48  C   UNL A   1      46.901  26.020  26.701  1.00  0.00     0.049 A 
ATOM     49  H   UNL A   1      45.149  26.839  27.473  1.00  0.00     0.167 HD
ATOM     50  C   UNL A   1      41.307  28.482  28.811  1.00  0.00     0.037 A 
ATOM     51  C   UNL A   1      47.816  27.008  26.675  1.00  0.00     0.037 A 
ATOM     52  C   UNL A   1      42.239  29.574  28.905  1.00  0.00     0.049 A 
ATOM     53  C   UNL A   1      47.431  28.378  27.160  1.00  0.00     0.074 A 
ATOM     54  C   UNL A   1      42.022  30.855  29.379  1.00  0.00     0.029 A 
ATOM     55  N   UNL A   1      43.569  29.508  28.518  1.00  0.00    -0.354 N 
ATOM     56  N   UNL A   1      46.275  28.799  27.611  1.00  0.00    -0.248 NA
ATOM     57  C   UNL A   1      48.478  29.409  27.136  1.00  0.00     0.031 C 
ATOM     58  C   UNL A   1      43.214  31.575  29.251  1.00  0.00     0.029 A 
ATOM     59  C   UNL A   1      44.183  30.730  28.731  1.00  0.00     0.049 A 
ATOM     60  H   UNL A   1      44.011  28.710  28.149  1.00  0.00     0.167 HD
ATOM     61  C   UNL A   1      46.460  30.133  27.947  1.00  0.00     0.074 A 
ATOM     62  C   UNL A   1      47.844  30.448  27.660  1.00  0.00     0.031 C 
ATOM     63  C   UNL A   1      45.565  31.019  28.448  1.00  0.00     0.037 A 
BRANCH  50  64
ATOM     64  C   UNL A   1      39.879  28.724  29.202  1.00  0.00     0.064 A 
ATOM     65  C   UNL A   1      38.934  29.193  28.276  1.00  0.00     0.173 A 
ATOM     66  C   UNL A   1      39.445  28.463  30.510  1.00  0.00     0.173 A 
ATOM     67  F   UNL A   1      39.304  29.472  27.018  1.00  0.00    -0.203 F 
ATOM     68  C   UNL A   1      37.614  29.419  28.654  1.00  0.00     0.198 A 
ATOM     69  C   UNL A   1      38.117  28.664  30.876  1.00  0.00     0.198 A 
ATOM     70  F   UNL A   1      40.309  28.012  31.432  1.00  0.00    -0.203 F 
ATOM     71  F   UNL A   1      36.741  29.916  27.766  1.00  0.00    -0.200 F 
ATOM     72  C   UNL A   1      37.205  29.148  29.952  1.00  0.00     0.200 A 
ATOM     73  F   UNL A   1      37.721  28.393  32.127  1.00  0.00    -0.200 F 
ATOM     74  F   UNL A   1      35.933  29.364  30.312  1.00  0.00    -0.200 F 
ENDBRANCH  50  64
BRANCH  51  75
ATOM     75  C   UNL A   1      49.197  26.727  26.203  1.00  0.00     0.064 A 
ATOM     76  C   UNL A   1      50.159  26.205  27.078  1.00  0.00     0.173 A 
ATOM     77  C   UNL A   1      49.582  26.974  24.879  1.00  0.00     0.173 A 
ATOM     78  F   UNL A   1      49.842  25.970  28.359  1.00  0.00    -0.203 F 
ATOM     79  C   UNL A   1      51.461  25.953  26.649  1.00  0.00     0.198 A 
ATOM     80  C   UNL A   1      50.878  26.700  24.444  1.00  0.00     0.198 A 
ATOM     81  F   UNL A   1      48.696  27.468  24.001  1.00  0.00    -0.203 F 
ATOM     82  F   UNL A   1      52.372  25.490  27.515  1.00  0.00    -0.200 F 
ATOM     83  C   UNL A   1      51.819  26.197  25.331  1.00  0.00     0.200 A 
ATOM     84  F   UNL A   1      51.216  26.924  23.167  1.00  0.00    -0.200 F 
ATOM     85  F   UNL A   1      53.069  25.952  24.918  1.00  0.00    -0.200 F 
ENDBRANCH  51  75
BRANCH  63  86
ATOM     86  C   UNL A   1      46.060  32.402  28.745  1.00  0.00     0.064 A 
ATOM     87  C   UNL A   1      46.642  32.722  29.979  1.00  0.00     0.173 A 
ATOM     88  C   UNL A   1      45.997  33.403  27.764  1.00  0.00     0.173 A 
ATOM     89  F   UNL A   1      46.710  31.801  30.953  1.00  0.00    -0.203 F 
ATOM     90  C   UNL A   1      47.127  34.003  30.229  1.00  0.00     0.198 A 
ATOM     91  C   UNL A   1      46.505  34.675  28.009  1.00  0.00     0.198 A 
ATOM     92  F   UNL A   1      45.455  33.143  26.566  1.00  0.00    -0.203 F 
ATOM     93  F   UNL A   1      47.644  34.300  31.428  1.00  0.00    -0.200 F 
ATOM     94  C   UNL A   1      47.065  34.976  29.241  1.00  0.00     0.200 A 
ATOM     95  F   UNL A   1      46.455  35.610  27.050  1.00  0.00    -0.200 F 
ATOM     96  F   UNL A   1      47.540  36.205  29.480  1.00  0.00    -0.200 F 
ENDBRANCH  63  86
ENDBRANCH  37  38
ENDBRANCH  29  32
ENDBRANCH  27  28
ENDBRANCH  26  27
ENDBRANCH   1  26
TORSDOF 16
ENDMDL
MODEL 3
REMARK VINA RESULT:     -11.9      5.863     10.046
REMARK SMILES NC(=O)C[C@@H](NC(=O)c1ccc(CO)cc1)C(=O)NCCCNC(=O)c1ccc(-c2c3nc(c(-c4c(F)c(F)c(F)c(F)c4F)c4ccc([nH]4)c(-c4c(F)c(F)c(F)c(F)c4F)c4nc(c(-c5c(F)c(F)c(F)c(F)c5F)c5ccc2[nH]5)C=C4)C=C3)cc1
REMARK SMILES IDX 20 1 19 2 17 3 18 4 5 6 4 7 2 8 1 9 3 12 6 13 7 14 8 16 9 17
REMARK SMILES IDX 10 18 16 19 11 20 15 21 12 22 13 23 14 24 21 26 22 27 23 28
REMARK SMILES IDX 24 29 25 31 26 32 27 33 88 34 28 35 87 36 29 37 30 38 31 39
REMARK SMILES IDX 81 40 32 41 86 42 80 43 82 44 33 45 85 46 79 47 78 48 34 50
REMARK SMILES IDX 66 51 46 52 65 53 47 54 50 55 64 56 83 57 48 58 49 59 63 61
REMARK SMILES IDX 84 62 51 63 35 64 36 65 44 66 37 67 38 68 42 69 45 70 39 71
REMARK SMILES IDX 40 72 43 73 41 74 67 75 68 76 76 77 69 78 70 79 74 80 77 81
REMARK SMILES IDX 71 82 72 83 75 84 73 85 52 86 53 87 61 88 54 89 55 90 59 91
REMARK SMILES IDX 62 92 56 93 57 94 60 95 58 96
REMARK H PARENT 19 5 1 10 1 11 6 15 14 25 23 30 82 49 50 60
REMARK Flexibility Score: inf
ROOT
ATOM      1  C   UNL A   1      31.919  30.783  26.218  1.00  0.00     0.117 C 
ENDROOT
BRANCH   1   2
ATOM      2  N   UNL A   1      31.681  29.670  27.120  1.00  0.00    -0.354 N 
ATOM      3  C   UNL A   1      31.644  28.333  26.868  1.00  0.00     0.243 C 
ATOM      4  O   UNL A   1      31.308  27.589  27.794  1.00  0.00    -0.273 OA
ATOM      5  H   UNL A   1      31.523  29.921  28.058  1.00  0.00     0.163 HD
BRANCH   3   6
ATOM      6  C   UNL A   1      31.842  27.782  25.447  1.00  0.00     0.180 C 
BRANCH   6   7
ATOM      7  C   UNL A   1      33.331  27.394  25.396  1.00  0.00     0.134 C 
BRANCH   7   8
ATOM      8  C   UNL A   1      33.552  25.911  25.385  1.00  0.00     0.220 C 
ATOM      9  N   UNL A   1      34.267  25.443  24.320  1.00  0.00    -0.370 N 
ATOM     10  H   UNL A   1      34.456  24.480  24.239  1.00  0.00     0.159 HD
ATOM     11  H   UNL A   1      34.594  26.068  23.634  1.00  0.00     0.159 HD
ATOM     12  O   UNL A   1      33.142  25.160  26.260  1.00  0.00    -0.275 OA
ENDBRANCH   7   8
ENDBRANCH   6   7
BRANCH   6  13
ATOM     13  N   UNL A   1      30.947  26.675  25.048  1.00  0.00    -0.340 N 
ATOM     14  C   UNL A   1      30.146  26.517  23.937  1.00  0.00     0.251 C 
ATOM     15  H   UNL A   1      30.918  25.924  25.684  1.00  0.00     0.164 HD
ATOM     16  O   UNL A   1      29.715  25.400  23.666  1.00  0.00    -0.269 OA
BRANCH  14  17
ATOM     17  C   UNL A   1      29.641  27.689  23.190  1.00  0.00     0.039 A 
ATOM     18  C   UNL A   1      28.275  27.981  23.305  1.00  0.00     0.014 A 
ATOM     19  C   UNL A   1      30.480  28.544  22.480  1.00  0.00     0.014 A 
ATOM     20  C   UNL A   1      27.782  29.203  22.848  1.00  0.00     0.007 A 
ATOM     21  C   UNL A   1      29.982  29.767  22.018  1.00  0.00     0.007 A 
ATOM     22  C   UNL A   1      28.643  30.127  22.241  1.00  0.00    -0.023 A 
BRANCH  22  23
ATOM     23  C   UNL A   1      28.139  31.500  21.879  1.00  0.00     0.191 C 
BRANCH  23  24
ATOM     24  O   UNL A   1      27.637  32.177  23.018  1.00  0.00    -0.392 OA
ATOM     25  H   UNL A   1      28.362  32.643  23.463  1.00  0.00     0.211 HD
ENDBRANCH  23  24
ENDBRANCH  22  23
ENDBRANCH  14  17
ENDBRANCH   6  13
ENDBRANCH   3   6
ENDBRANCH   1   2
BRANCH   1  26
ATOM     26  C   UNL A   1      31.549  32.105  26.862  1.00  0.00     0.042 C 
BRANCH  26  27
ATOM     27  C   UNL A   1      32.754  32.882  27.370  1.00  0.00     0.118 C 
BRANCH  27  28
ATOM     28  N   UNL A   1      32.446  34.267  27.700  1.00  0.00    -0.352 N 
ATOM     29  C   UNL A   1      33.000  35.056  28.680  1.00  0.00     0.251 C 
ATOM     30  H   UNL A   1      31.750  34.694  27.150  1.00  0.00     0.163 HD
ATOM     31  O   UNL A   1      32.539  36.163  28.934  1.00  0.00    -0.269 OA
BRANCH  29  32
ATOM     32  C   UNL A   1      34.143  34.527  29.449  1.00  0.00     0.039 A 
ATOM     33  C   UNL A   1      33.905  33.854  30.649  1.00  0.00     0.014 A 
ATOM     34  C   UNL A   1      35.437  34.621  28.928  1.00  0.00     0.014 A 
ATOM     35  C   UNL A   1      34.958  33.196  31.285  1.00  0.00     0.010 A 
ATOM     36  C   UNL A   1      36.462  33.893  29.514  1.00  0.00     0.010 A 
ATOM     37  C   UNL A   1      36.234  33.170  30.696  1.00  0.00    -0.014 A 
BRANCH  37  38
ATOM     38  C   UNL A   1      37.350  32.397  31.292  1.00  0.00     0.031 A 
ATOM     39  C   UNL A   1      37.854  32.753  32.661  1.00  0.00     0.074 A 
ATOM     40  C   UNL A   1      37.968  31.444  30.568  1.00  0.00     0.049 A 
ATOM     41  N   UNL A   1      38.888  32.286  33.313  1.00  0.00    -0.248 NA
ATOM     42  C   UNL A   1      37.116  33.805  33.382  1.00  0.00     0.031 C 
ATOM     43  C   UNL A   1      37.610  31.049  29.204  1.00  0.00     0.029 A 
ATOM     44  N   UNL A   1      39.040  30.645  30.873  1.00  0.00    -0.354 N 
ATOM     45  C   UNL A   1      38.940  33.004  34.499  1.00  0.00     0.074 A 
ATOM     46  C   UNL A   1      37.867  33.972  34.460  1.00  0.00     0.031 C 
ATOM     47  C   UNL A   1      38.433  30.067  28.800  1.00  0.00     0.029 A 
ATOM     48  C   UNL A   1      39.398  29.790  29.860  1.00  0.00     0.049 A 
ATOM     49  H   UNL A   1      39.510  30.680  31.738  1.00  0.00     0.167 HD
ATOM     50  C   UNL A   1      39.791  32.851  35.540  1.00  0.00     0.037 A 
ATOM     51  C   UNL A   1      40.395  28.888  29.793  1.00  0.00     0.037 A 
ATOM     52  C   UNL A   1      40.827  31.854  35.597  1.00  0.00     0.049 A 
ATOM     53  C   UNL A   1      41.310  28.718  30.975  1.00  0.00     0.074 A 
ATOM     54  C   UNL A   1      41.692  31.567  36.636  1.00  0.00     0.029 A 
ATOM     55  N   UNL A   1      41.132  30.979  34.566  1.00  0.00    -0.354 N 
ATOM     56  N   UNL A   1      41.309  29.357  32.119  1.00  0.00    -0.248 NA
ATOM     57  C   UNL A   1      42.364  27.700  30.857  1.00  0.00     0.031 C 
ATOM     58  C   UNL A   1      42.543  30.536  36.223  1.00  0.00     0.029 A 
ATOM     59  C   UNL A   1      42.182  30.157  34.940  1.00  0.00     0.049 A 
ATOM     60  H   UNL A   1      40.670  30.945  33.697  1.00  0.00     0.167 HD
ATOM     61  C   UNL A   1      42.339  28.803  32.866  1.00  0.00     0.074 A 
ATOM     62  C   UNL A   1      42.938  27.768  32.049  1.00  0.00     0.031 C 
ATOM     63  C   UNL A   1      42.755  29.125  34.115  1.00  0.00     0.037 A 
BRANCH  50  64
ATOM     64  C   UNL A   1      39.625  33.776  36.710  1.00  0.00     0.064 A 
ATOM     65  C   UNL A   1      38.838  33.425  37.818  1.00  0.00     0.173 A 
ATOM     66  C   UNL A   1      40.278  35.017  36.734  1.00  0.00     0.173 A 
ATOM     67  F   UNL A   1      38.181  32.256  37.835  1.00  0.00    -0.203 F 
ATOM     68  C   UNL A   1      38.688  34.295  38.893  1.00  0.00     0.198 A 
ATOM     69  C   UNL A   1      40.148  35.873  37.824  1.00  0.00     0.198 A 
ATOM     70  F   UNL A   1      41.044  35.399  35.701  1.00  0.00    -0.203 F 
ATOM     71  F   UNL A   1      37.890  33.961  39.917  1.00  0.00    -0.200 F 
ATOM     72  C   UNL A   1      39.348  35.515  38.899  1.00  0.00     0.200 A 
ATOM     73  F   UNL A   1      40.793  37.047  37.833  1.00  0.00    -0.200 F 
ATOM     74  F   UNL A   1      39.204  36.351  39.937  1.00  0.00    -0.200 F 
ENDBRANCH  50  64
BRANCH  51  75
ATOM     75  C   UNL A   1      40.561  28.052  28.576  1.00  0.00     0.064 A 
ATOM     76  C   UNL A   1      39.934  26.802  28.476  1.00  0.00     0.173 A 
ATOM     77  C   UNL A   1      41.343  28.480  27.495  1.00  0.00     0.173 A 
ATOM     78  F   UNL A   1      39.191  26.343  29.493  1.00  0.00    -0.203 F 
ATOM     79  C   UNL A   1      40.096  26.004  27.345  1.00  0.00     0.198 A 
ATOM     80  C   UNL A   1      41.485  27.691  26.354  1.00  0.00     0.198 A 
ATOM     81  F   UNL A   1      41.958  29.670  27.539  1.00  0.00    -0.203 F 
ATOM     82  F   UNL A   1      39.516  24.797  27.291  1.00  0.00    -0.200 F 
ATOM     83  C   UNL A   1      40.867  26.451  26.283  1.00  0.00     0.200 A 
ATOM     84  F   UNL A   1      42.220  28.132  25.325  1.00  0.00    -0.200 F 
ATOM     85  F   UNL A   1      41.020  25.685  25.194  1.00  0.00    -0.200 F 
ENDBRANCH  51  75
BRANCH  63  86
ATOM     86  C   UNL A   1      43.889  28.329  34.687  1.00  0.00     0.064 A 
ATOM     87  C   UNL A   1      45.218  28.757  34.566  1.00  0.00     0.173 A 
ATOM     88  C   UNL A   1      43.635  27.152  35.408  1.00  0.00     0.173 A 
ATOM     89  F   UNL A   1      45.509  29.868  33.873  1.00  0.00    -0.203 F 
ATOM     90  C   UNL A   1      46.258  28.023  35.131  1.00  0.00     0.198 A 
ATOM     91  C   UNL A   1      44.675  26.435  35.992  1.00  0.00     0.198 A 
ATOM     92  F   UNL A   1      42.379  26.707  35.556  1.00  0.00    -0.203 F 
ATOM     93  F   UNL A   1      47.524  28.428  34.971  1.00  0.00    -0.200 F 
ATOM     94  C   UNL A   1      45.985  26.868  35.850  1.00  0.00     0.200 A 
ATOM     95  F   UNL A   1      44.409  25.326  36.695  1.00  0.00    -0.200 F 
ATOM     96  F   UNL A   1      46.986  26.168  36.399  1.00  0.00    -0.200 F 
ENDBRANCH  63  86
ENDBRANCH  37  38
ENDBRANCH  29  32
ENDBRANCH  27  28
ENDBRANCH  26  27
ENDBRANCH   1  26
TORSDOF 16
ENDMDL
