MODEL 1
REMARK VINA RESULT:     -12.4      0.000      0.000
REMARK SMILES CC1(C)[C@H](C(=O)Nc2ccccc2C(N)=O)[C@@H]1C(=O)NCCCNC(=O)c1ccc(-c2c3nc(c(-c4c(F)c(F)c(F)c(F)c4F)c4ccc([nH]4)c(-c4c(F)c(F)c(F)c(F)c4F)c4nc(c(-c5c(F)c(F)c(F)c(F)c5F)c5ccc2[nH]5)C=C4)C=C3)cc1
REMARK SMILES IDX 21 1 20 2 18 3 19 4 17 6 1 7 2 8 3 9 4 10 5 11 6 12 7 13
REMARK SMILES IDX 8 15 9 16 13 17 10 18 12 19 11 20 14 21 15 22 16 23 22 26
REMARK SMILES IDX 23 27 24 28 25 29 26 31 27 32 28 33 89 34 29 35 88 36 30 37
REMARK SMILES IDX 31 38 32 39 82 40 33 41 87 42 81 43 83 44 34 45 86 46 80 47
REMARK SMILES IDX 79 48 35 50 67 51 47 52 66 53 48 54 51 55 65 56 84 57 49 58
REMARK SMILES IDX 50 59 64 61 85 62 52 63 36 64 37 65 45 66 38 67 39 68 43 69
REMARK SMILES IDX 46 70 40 71 41 72 44 73 42 74 68 75 69 76 77 77 70 78 71 79
REMARK SMILES IDX 75 80 78 81 72 82 73 83 76 84 74 85 53 86 54 87 62 88 55 89
REMARK SMILES IDX 56 90 60 91 63 92 57 93 58 94 61 95 59 96
REMARK H PARENT 20 5 7 14 15 24 15 25 24 30 83 49 51 60
REMARK Flexibility Score: inf
ROOT
ATOM      1  C   UNL A   1      32.381  28.487  23.215  1.00  0.00     0.117 C 
ENDROOT
BRANCH   1   2
ATOM      2  N   UNL A   1      32.911  27.392  22.439  1.00  0.00    -0.356 N 
ATOM      3  C   UNL A   1      32.927  26.067  22.744  1.00  0.00     0.224 C 
ATOM      4  O   UNL A   1      33.657  25.326  22.094  1.00  0.00    -0.275 OA
ATOM      5  H   UNL A   1      33.313  27.636  21.574  1.00  0.00     0.163 HD
BRANCH   3   6
ATOM      6  C   UNL A   1      32.109  25.539  23.873  1.00  0.00     0.098 C 
ATOM      7  C   UNL A   1      32.154  25.520  26.501  1.00  0.00     0.013 C 
ATOM      8  C   UNL A   1      32.841  25.192  25.182  1.00  0.00    -0.011 C 
ATOM      9  C   UNL A   1      34.301  25.549  25.232  1.00  0.00     0.013 C 
ATOM     10  C   UNL A   1      32.121  24.111  24.402  1.00  0.00     0.098 C 
BRANCH  10  11
ATOM     11  C   UNL A   1      32.344  22.959  23.490  1.00  0.00     0.228 C 
ATOM     12  O   UNL A   1      31.399  22.678  22.743  1.00  0.00    -0.274 OA
ATOM     13  N   UNL A   1      33.506  22.290  23.242  1.00  0.00    -0.325 N 
ATOM     14  H   UNL A   1      33.484  21.740  22.426  1.00  0.00     0.169 HD
BRANCH  13  15
ATOM     15  C   UNL A   1      34.712  22.235  23.924  1.00  0.00     0.053 A 
ATOM     16  C   UNL A   1      35.762  22.953  23.335  1.00  0.00     0.027 A 
ATOM     17  C   UNL A   1      34.924  21.504  25.101  1.00  0.00     0.063 A 
ATOM     18  C   UNL A   1      36.976  23.088  23.998  1.00  0.00     0.002 A 
ATOM     19  C   UNL A   1      36.161  21.633  25.754  1.00  0.00     0.016 A 
ATOM     20  C   UNL A   1      37.165  22.453  25.221  1.00  0.00     0.001 A 
BRANCH  17  21
ATOM     21  C   UNL A   1      33.899  20.537  25.593  1.00  0.00     0.250 C 
ATOM     22  N   UNL A   1      33.447  20.680  26.873  1.00  0.00    -0.366 N 
ATOM     23  O   UNL A   1      33.458  19.635  24.892  1.00  0.00    -0.269 OA
ATOM     24  H   UNL A   1      33.799  21.404  27.442  1.00  0.00     0.159 HD
ATOM     25  H   UNL A   1      32.770  20.060  27.228  1.00  0.00     0.159 HD
ENDBRANCH  17  21
ENDBRANCH  13  15
ENDBRANCH  10  11
ENDBRANCH   3   6
ENDBRANCH   1   2
BRANCH   1  26
ATOM     26  C   UNL A   1      33.406  29.039  24.180  1.00  0.00     0.042 C 
BRANCH  26  27
ATOM     27  C   UNL A   1      32.914  29.079  25.617  1.00  0.00     0.118 C 
BRANCH  27  28
ATOM     28  N   UNL A   1      32.531  30.413  26.070  1.00  0.00    -0.352 N 
ATOM     29  C   UNL A   1      33.161  31.262  26.949  1.00  0.00     0.251 C 
ATOM     30  H   UNL A   1      31.691  30.758  25.689  1.00  0.00     0.163 HD
ATOM     31  O   UNL A   1      32.608  32.291  27.322  1.00  0.00    -0.269 OA
BRANCH  29  32
ATOM     32  C   UNL A   1      34.493  30.901  27.471  1.00  0.00     0.039 A 
ATOM     33  C   UNL A   1      35.459  31.895  27.634  1.00  0.00     0.014 A 
ATOM     34  C   UNL A   1      34.756  29.591  27.870  1.00  0.00     0.014 A 
ATOM     35  C   UNL A   1      36.650  31.589  28.293  1.00  0.00     0.010 A 
ATOM     36  C   UNL A   1      35.870  29.327  28.651  1.00  0.00     0.010 A 
ATOM     37  C   UNL A   1      36.839  30.318  28.860  1.00  0.00    -0.014 A 
BRANCH  37  38
ATOM     38  C   UNL A   1      38.041  29.995  29.668  1.00  0.00     0.031 A 
ATOM     39  C   UNL A   1      39.065  29.030  29.137  1.00  0.00     0.074 A 
ATOM     40  C   UNL A   1      38.167  30.501  30.909  1.00  0.00     0.049 A 
ATOM     41  N   UNL A   1      40.146  28.567  29.712  1.00  0.00    -0.248 NA
ATOM     42  C   UNL A   1      38.820  28.475  27.796  1.00  0.00     0.031 C 
ATOM     43  C   UNL A   1      37.200  31.381  31.568  1.00  0.00     0.029 A 
ATOM     44  N   UNL A   1      39.157  30.338  31.846  1.00  0.00    -0.354 N 
ATOM     45  C   UNL A   1      40.688  27.656  28.817  1.00  0.00     0.074 A 
ATOM     46  C   UNL A   1      39.780  27.570  27.696  1.00  0.00     0.031 C 
ATOM     47  C   UNL A   1      37.661  31.710  32.785  1.00  0.00     0.029 A 
ATOM     48  C   UNL A   1      38.932  31.029  33.012  1.00  0.00     0.049 A 
ATOM     49  H   UNL A   1      39.953  29.778  31.696  1.00  0.00     0.167 HD
ATOM     50  C   UNL A   1      41.855  26.975  28.905  1.00  0.00     0.037 A 
ATOM     51  C   UNL A   1      39.665  31.101  34.138  1.00  0.00     0.037 A 
ATOM     52  C   UNL A   1      42.767  27.089  30.012  1.00  0.00     0.049 A 
ATOM     53  C   UNL A   1      40.967  30.351  34.210  1.00  0.00     0.074 A 
ATOM     54  C   UNL A   1      44.014  26.514  30.165  1.00  0.00     0.029 A 
ATOM     55  N   UNL A   1      42.519  27.823  31.165  1.00  0.00    -0.354 N 
ATOM     56  N   UNL A   1      41.520  29.568  33.316  1.00  0.00    -0.248 NA
ATOM     57  C   UNL A   1      41.751  30.504  35.442  1.00  0.00     0.031 C 
ATOM     58  C   UNL A   1      44.494  26.846  31.436  1.00  0.00     0.029 A 
ATOM     59  C   UNL A   1      43.577  27.686  32.049  1.00  0.00     0.049 A 
ATOM     60  H   UNL A   1      41.712  28.362  31.328  1.00  0.00     0.167 HD
ATOM     61  C   UNL A   1      42.724  29.150  33.866  1.00  0.00     0.074 A 
ATOM     62  C   UNL A   1      42.829  29.784  35.165  1.00  0.00     0.031 C 
ATOM     63  C   UNL A   1      43.659  28.317  33.344  1.00  0.00     0.037 A 
BRANCH  50  64
ATOM     64  C   UNL A   1      42.199  26.043  27.776  1.00  0.00     0.064 A 
ATOM     65  C   UNL A   1      43.042  26.432  26.721  1.00  0.00     0.173 A 
ATOM     66  C   UNL A   1      41.675  24.742  27.745  1.00  0.00     0.173 A 
ATOM     67  F   UNL A   1      43.561  27.669  26.691  1.00  0.00    -0.203 F 
ATOM     68  C   UNL A   1      43.305  25.572  25.657  1.00  0.00     0.198 A 
ATOM     69  C   UNL A   1      41.974  23.871  26.701  1.00  0.00     0.198 A 
ATOM     70  F   UNL A   1      40.868  24.314  28.728  1.00  0.00    -0.203 F 
ATOM     71  F   UNL A   1      44.050  25.995  24.627  1.00  0.00    -0.200 F 
ATOM     72  C   UNL A   1      42.776  24.291  25.651  1.00  0.00     0.200 A 
ATOM     73  F   UNL A   1      41.474  22.628  26.703  1.00  0.00    -0.200 F 
ATOM     74  F   UNL A   1      43.030  23.466  24.626  1.00  0.00    -0.200 F 
ENDBRANCH  50  64
BRANCH  51  75
ATOM     75  C   UNL A   1      39.191  31.939  35.271  1.00  0.00     0.064 A 
ATOM     76  C   UNL A   1      39.452  33.315  35.309  1.00  0.00     0.173 A 
ATOM     77  C   UNL A   1      38.440  31.389  36.320  1.00  0.00     0.173 A 
ATOM     78  F   UNL A   1      40.182  33.886  34.339  1.00  0.00    -0.203 F 
ATOM     79  C   UNL A   1      38.990  34.107  36.359  1.00  0.00     0.198 A 
ATOM     80  C   UNL A   1      37.953  32.185  37.353  1.00  0.00     0.198 A 
ATOM     81  F   UNL A   1      38.155  30.078  36.326  1.00  0.00    -0.203 F 
ATOM     82  F   UNL A   1      39.285  35.414  36.389  1.00  0.00    -0.200 F 
ATOM     83  C   UNL A   1      38.234  33.544  37.375  1.00  0.00     0.200 A 
ATOM     84  F   UNL A   1      37.208  31.640  38.323  1.00  0.00    -0.200 F 
ATOM     85  F   UNL A   1      37.778  34.308  38.377  1.00  0.00    -0.200 F 
ENDBRANCH  51  75
BRANCH  63  86
ATOM     86  C   UNL A   1      44.888  28.060  34.167  1.00  0.00     0.064 A 
ATOM     87  C   UNL A   1      44.960  26.991  35.074  1.00  0.00     0.173 A 
ATOM     88  C   UNL A   1      46.026  28.869  34.017  1.00  0.00     0.173 A 
ATOM     89  F   UNL A   1      43.896  26.195  35.265  1.00  0.00    -0.203 F 
ATOM     90  C   UNL A   1      46.111  26.762  35.822  1.00  0.00     0.198 A 
ATOM     91  C   UNL A   1      47.187  28.615  34.740  1.00  0.00     0.198 A 
ATOM     92  F   UNL A   1      46.015  29.898  33.157  1.00  0.00    -0.203 F 
ATOM     93  F   UNL A   1      46.137  25.770  36.723  1.00  0.00    -0.200 F 
ATOM     94  C   UNL A   1      47.226  27.569  35.649  1.00  0.00     0.200 A 
ATOM     95  F   UNL A   1      48.269  29.384  34.557  1.00  0.00    -0.200 F 
ATOM     96  F   UNL A   1      48.337  27.341  36.363  1.00  0.00    -0.200 F 
ENDBRANCH  63  86
ENDBRANCH  37  38
ENDBRANCH  29  32
ENDBRANCH  27  28
ENDBRANCH  26  27
ENDBRANCH   1  26
TORSDOF 13
ENDMDL
MODEL 2
REMARK VINA RESULT:     -12.4      4.688      9.912
REMARK SMILES CC1(C)[C@H](C(=O)Nc2ccccc2C(N)=O)[C@@H]1C(=O)NCCCNC(=O)c1ccc(-c2c3nc(c(-c4c(F)c(F)c(F)c(F)c4F)c4ccc([nH]4)c(-c4c(F)c(F)c(F)c(F)c4F)c4nc(c(-c5c(F)c(F)c(F)c(F)c5F)c5ccc2[nH]5)C=C4)C=C3)cc1
REMARK SMILES IDX 21 1 20 2 18 3 19 4 17 6 1 7 2 8 3 9 4 10 5 11 6 12 7 13
REMARK SMILES IDX 8 15 9 16 13 17 10 18 12 19 11 20 14 21 15 22 16 23 22 26
REMARK SMILES IDX 23 27 24 28 25 29 26 31 27 32 28 33 89 34 29 35 88 36 30 37
REMARK SMILES IDX 31 38 32 39 82 40 33 41 87 42 81 43 83 44 34 45 86 46 80 47
REMARK SMILES IDX 79 48 35 50 67 51 47 52 66 53 48 54 51 55 65 56 84 57 49 58
REMARK SMILES IDX 50 59 64 61 85 62 52 63 36 64 37 65 45 66 38 67 39 68 43 69
REMARK SMILES IDX 46 70 40 71 41 72 44 73 42 74 68 75 69 76 77 77 70 78 71 79
REMARK SMILES IDX 75 80 78 81 72 82 73 83 76 84 74 85 53 86 54 87 62 88 55 89
REMARK SMILES IDX 56 90 60 91 63 92 57 93 58 94 61 95 59 96
REMARK H PARENT 20 5 7 14 15 24 15 25 24 30 83 49 51 60
REMARK Flexibility Score: inf
ROOT
ATOM      1  C   UNL A   1      37.025  21.495  24.621  1.00  0.00     0.117 C 
ENDROOT
BRANCH   1   2
ATOM      2  N   UNL A   1      36.626  22.259  25.779  1.00  0.00    -0.356 N 
ATOM      3  C   UNL A   1      35.386  22.706  26.113  1.00  0.00     0.224 C 
ATOM      4  O   UNL A   1      35.288  23.563  26.984  1.00  0.00    -0.275 OA
ATOM      5  H   UNL A   1      37.345  22.486  26.411  1.00  0.00     0.163 HD
BRANCH   3   6
ATOM      6  C   UNL A   1      34.179  22.196  25.400  1.00  0.00     0.098 C 
ATOM      7  C   UNL A   1      33.131  22.273  22.991  1.00  0.00     0.013 C 
ATOM      8  C   UNL A   1      33.651  23.020  24.212  1.00  0.00    -0.011 C 
ATOM      9  C   UNL A   1      34.493  24.198  23.804  1.00  0.00     0.013 C 
ATOM     10  C   UNL A   1      32.786  22.809  25.437  1.00  0.00     0.098 C 
BRANCH  10  11
ATOM     11  C   UNL A   1      32.279  23.483  26.662  1.00  0.00     0.228 C 
ATOM     12  O   UNL A   1      32.051  22.742  27.625  1.00  0.00    -0.274 OA
ATOM     13  N   UNL A   1      32.204  24.820  26.920  1.00  0.00    -0.325 N 
ATOM     14  H   UNL A   1      32.083  25.037  27.873  1.00  0.00     0.169 HD
BRANCH  13  15
ATOM     15  C   UNL A   1      32.262  25.933  26.095  1.00  0.00     0.053 A 
ATOM     16  C   UNL A   1      33.484  26.622  26.112  1.00  0.00     0.027 A 
ATOM     17  C   UNL A   1      31.198  26.393  25.308  1.00  0.00     0.063 A 
ATOM     18  C   UNL A   1      33.710  27.667  25.223  1.00  0.00     0.002 A 
ATOM     19  C   UNL A   1      31.432  27.461  24.427  1.00  0.00     0.016 A 
ATOM     20  C   UNL A   1      32.694  28.066  24.360  1.00  0.00     0.001 A 
BRANCH  17  21
ATOM     21  C   UNL A   1      29.827  25.828  25.476  1.00  0.00     0.250 C 
ATOM     22  N   UNL A   1      28.998  25.828  24.391  1.00  0.00    -0.366 N 
ATOM     23  O   UNL A   1      29.431  25.370  26.540  1.00  0.00    -0.269 OA
ATOM     24  H   UNL A   1      29.310  26.195  23.532  1.00  0.00     0.159 HD
ATOM     25  H   UNL A   1      28.087  25.461  24.467  1.00  0.00     0.159 HD
ENDBRANCH  17  21
ENDBRANCH  13  15
ENDBRANCH  10  11
ENDBRANCH   3   6
ENDBRANCH   1   2
BRANCH   1  26
ATOM     26  C   UNL A   1      37.790  20.250  25.007  1.00  0.00     0.042 C 
BRANCH  26  27
ATOM     27  C   UNL A   1      39.095  20.548  25.726  1.00  0.00     0.118 C 
BRANCH  27  28
ATOM     28  N   UNL A   1      39.963  19.383  25.876  1.00  0.00    -0.352 N 
ATOM     29  C   UNL A   1      41.318  19.313  26.103  1.00  0.00     0.251 C 
ATOM     30  H   UNL A   1      39.509  18.512  25.803  1.00  0.00     0.163 HD
ATOM     31  O   UNL A   1      41.901  18.236  26.054  1.00  0.00    -0.269 OA
BRANCH  29  32
ATOM     32  C   UNL A   1      42.070  20.556  26.364  1.00  0.00     0.039 A 
ATOM     33  C   UNL A   1      42.503  21.335  25.290  1.00  0.00     0.014 A 
ATOM     34  C   UNL A   1      42.277  20.985  27.674  1.00  0.00     0.014 A 
ATOM     35  C   UNL A   1      43.052  22.593  25.536  1.00  0.00     0.010 A 
ATOM     36  C   UNL A   1      42.683  22.290  27.908  1.00  0.00     0.010 A 
ATOM     37  C   UNL A   1      43.090  23.105  26.844  1.00  0.00    -0.014 A 
BRANCH  37  38
ATOM     38  C   UNL A   1      43.558  24.485  27.128  1.00  0.00     0.031 A 
ATOM     39  C   UNL A   1      42.588  25.516  27.636  1.00  0.00     0.074 A 
ATOM     40  C   UNL A   1      44.829  24.830  26.848  1.00  0.00     0.049 A 
ATOM     41  N   UNL A   1      42.782  26.787  27.882  1.00  0.00    -0.248 NA
ATOM     42  C   UNL A   1      41.203  25.071  27.857  1.00  0.00     0.031 C 
ATOM     43  C   UNL A   1      45.841  23.942  26.274  1.00  0.00     0.029 A 
ATOM     44  N   UNL A   1      45.485  26.026  26.997  1.00  0.00    -0.354 N 
ATOM     45  C   UNL A   1      41.545  27.290  28.258  1.00  0.00     0.074 A 
ATOM     46  C   UNL A   1      40.592  26.212  28.135  1.00  0.00     0.031 C 
ATOM     47  C   UNL A   1      46.998  24.611  26.154  1.00  0.00     0.029 A 
ATOM     48  C   UNL A   1      46.799  25.988  26.599  1.00  0.00     0.049 A 
ATOM     49  H   UNL A   1      45.054  26.836  27.356  1.00  0.00     0.167 HD
ATOM     50  C   UNL A   1      41.235  28.533  28.699  1.00  0.00     0.037 A 
ATOM     51  C   UNL A   1      47.736  26.954  26.590  1.00  0.00     0.037 A 
ATOM     52  C   UNL A   1      42.197  29.593  28.847  1.00  0.00     0.049 A 
ATOM     53  C   UNL A   1      47.378  28.323  27.101  1.00  0.00     0.074 A 
ATOM     54  C   UNL A   1      42.011  30.860  29.366  1.00  0.00     0.029 A 
ATOM     55  N   UNL A   1      43.528  29.508  28.460  1.00  0.00    -0.354 N 
ATOM     56  N   UNL A   1      46.227  28.762  27.549  1.00  0.00    -0.248 NA
ATOM     57  C   UNL A   1      48.450  29.325  27.114  1.00  0.00     0.031 C 
ATOM     58  C   UNL A   1      43.212  31.565  29.234  1.00  0.00     0.029 A 
ATOM     59  C   UNL A   1      44.167  30.715  28.697  1.00  0.00     0.049 A 
ATOM     60  H   UNL A   1      43.955  28.708  28.077  1.00  0.00     0.167 HD
ATOM     61  C   UNL A   1      46.439  30.084  27.916  1.00  0.00     0.074 A 
ATOM     62  C   UNL A   1      47.836  30.367  27.656  1.00  0.00     0.031 C 
ATOM     63  C   UNL A   1      45.558  30.982  28.423  1.00  0.00     0.037 A 
BRANCH  50  64
ATOM     64  C   UNL A   1      39.797  28.806  29.043  1.00  0.00     0.064 A 
ATOM     65  C   UNL A   1      39.288  28.597  30.335  1.00  0.00     0.173 A 
ATOM     66  C   UNL A   1      38.912  29.282  28.064  1.00  0.00     0.173 A 
ATOM     67  F   UNL A   1      40.086  28.130  31.309  1.00  0.00    -0.203 F 
ATOM     68  C   UNL A   1      37.941  28.805  30.620  1.00  0.00     0.198 A 
ATOM     69  C   UNL A   1      37.575  29.528  28.363  1.00  0.00     0.198 A 
ATOM     70  F   UNL A   1      39.343  29.505  26.813  1.00  0.00    -0.203 F 
ATOM     71  F   UNL A   1      37.466  28.524  31.841  1.00  0.00    -0.200 F 
ATOM     72  C   UNL A   1      37.087  29.277  29.636  1.00  0.00     0.200 A 
ATOM     73  F   UNL A   1      36.754  29.998  27.413  1.00  0.00    -0.200 F 
ATOM     74  F   UNL A   1      35.791  29.476  29.911  1.00  0.00    -0.200 F 
ENDBRANCH  50  64
BRANCH  51  75
ATOM     75  C   UNL A   1      49.107  26.642  26.106  1.00  0.00     0.064 A 
ATOM     76  C   UNL A   1      49.494  26.937  24.792  1.00  0.00     0.173 A 
ATOM     77  C   UNL A   1      50.067  26.074  26.957  1.00  0.00     0.173 A 
ATOM     78  F   UNL A   1      48.607  27.465  23.935  1.00  0.00    -0.203 F 
ATOM     79  C   UNL A   1      50.786  26.667  24.344  1.00  0.00     0.198 A 
ATOM     80  C   UNL A   1      51.366  25.831  26.517  1.00  0.00     0.198 A 
ATOM     81  F   UNL A   1      49.750  25.780  28.227  1.00  0.00    -0.203 F 
ATOM     82  F   UNL A   1      51.118  26.926  23.072  1.00  0.00    -0.200 F 
ATOM     83  C   UNL A   1      51.723  26.122  25.208  1.00  0.00     0.200 A 
ATOM     84  F   UNL A   1      52.273  25.322  27.360  1.00  0.00    -0.200 F 
ATOM     85  F   UNL A   1      52.969  25.875  24.781  1.00  0.00    -0.200 F 
ENDBRANCH  51  75
BRANCH  63  86
ATOM     86  C   UNL A   1      46.082  32.350  28.751  1.00  0.00     0.064 A 
ATOM     87  C   UNL A   1      46.645  32.646  30.002  1.00  0.00     0.173 A 
ATOM     88  C   UNL A   1      46.058  33.370  27.787  1.00  0.00     0.173 A 
ATOM     89  F   UNL A   1      46.680  31.710  30.965  1.00  0.00    -0.203 F 
ATOM     90  C   UNL A   1      47.134  33.918  30.286  1.00  0.00     0.198 A 
ATOM     91  C   UNL A   1      46.581  34.630  28.061  1.00  0.00     0.198 A 
ATOM     92  F   UNL A   1      45.540  33.139  26.571  1.00  0.00    -0.203 F 
ATOM     93  F   UNL A   1      47.616  34.192  31.506  1.00  0.00    -0.200 F 
ATOM     94  C   UNL A   1      47.109  34.906  29.313  1.00  0.00     0.200 A 
ATOM     95  F   UNL A   1      46.574  35.577  27.113  1.00  0.00    -0.200 F 
ATOM     96  F   UNL A   1      47.590  36.127  29.584  1.00  0.00    -0.200 F 
ENDBRANCH  63  86
ENDBRANCH  37  38
ENDBRANCH  29  32
ENDBRANCH  27  28
ENDBRANCH  26  27
ENDBRANCH   1  26
TORSDOF 13
ENDMDL
MODEL 3
REMARK VINA RESULT:     -12.4      1.709      7.741
REMARK SMILES CC1(C)[C@H](C(=O)Nc2ccccc2C(N)=O)[C@@H]1C(=O)NCCCNC(=O)c1ccc(-c2c3nc(c(-c4c(F)c(F)c(F)c(F)c4F)c4ccc([nH]4)c(-c4c(F)c(F)c(F)c(F)c4F)c4nc(c(-c5c(F)c(F)c(F)c(F)c5F)c5ccc2[nH]5)C=C4)C=C3)cc1
REMARK SMILES IDX 21 1 20 2 18 3 19 4 17 6 1 7 2 8 3 9 4 10 5 11 6 12 7 13
REMARK SMILES IDX 8 15 9 16 13 17 10 18 12 19 11 20 14 21 15 22 16 23 22 26
REMARK SMILES IDX 23 27 24 28 25 29 26 31 27 32 28 33 89 34 29 35 88 36 30 37
REMARK SMILES IDX 31 38 32 39 82 40 33 41 87 42 81 43 83 44 34 45 86 46 80 47
REMARK SMILES IDX 79 48 35 50 67 51 47 52 66 53 48 54 51 55 65 56 84 57 49 58
REMARK SMILES IDX 50 59 64 61 85 62 52 63 36 64 37 65 45 66 38 67 39 68 43 69
REMARK SMILES IDX 46 70 40 71 41 72 44 73 42 74 68 75 69 76 77 77 70 78 71 79
REMARK SMILES IDX 75 80 78 81 72 82 73 83 76 84 74 85 53 86 54 87 62 88 55 89
REMARK SMILES IDX 56 90 60 91 63 92 57 93 58 94 61 95 59 96
REMARK H PARENT 20 5 7 14 15 24 15 25 24 30 83 49 51 60
REMARK Flexibility Score: inf
ROOT
ATOM      1  C   UNL A   1      31.011  30.574  25.417  1.00  0.00     0.117 C 
ENDROOT
BRANCH   1   2
ATOM      2  N   UNL A   1      32.340  30.068  25.172  1.00  0.00    -0.356 N 
ATOM      3  C   UNL A   1      32.712  28.980  24.448  1.00  0.00     0.224 C 
ATOM      4  O   UNL A   1      33.854  28.554  24.577  1.00  0.00    -0.275 OA
ATOM      5  H   UNL A   1      33.075  30.579  25.582  1.00  0.00     0.163 HD
BRANCH   3   6
ATOM      6  C   UNL A   1      31.736  28.295  23.553  1.00  0.00     0.098 C 
ATOM      7  C   UNL A   1      29.537  26.870  23.756  1.00  0.00     0.013 C 
ATOM      8  C   UNL A   1      31.006  27.057  24.107  1.00  0.00    -0.011 C 
ATOM      9  C   UNL A   1      31.258  26.742  25.556  1.00  0.00     0.013 C 
ATOM     10  C   UNL A   1      31.915  26.930  22.902  1.00  0.00     0.098 C 
BRANCH  10  11
ATOM     11  C   UNL A   1      33.258  26.456  22.474  1.00  0.00     0.228 C 
ATOM     12  O   UNL A   1      33.789  27.105  21.565  1.00  0.00    -0.274 OA
ATOM     13  N   UNL A   1      34.053  25.521  23.069  1.00  0.00    -0.325 N 
ATOM     14  H   UNL A   1      34.993  25.550  22.774  1.00  0.00     0.169 HD
BRANCH  13  15
ATOM     15  C   UNL A   1      33.790  24.536  24.008  1.00  0.00     0.053 A 
ATOM     16  C   UNL A   1      34.189  24.841  25.317  1.00  0.00     0.027 A 
ATOM     17  C   UNL A   1      33.199  23.300  23.715  1.00  0.00     0.063 A 
ATOM     18  C   UNL A   1      33.851  23.994  26.367  1.00  0.00     0.002 A 
ATOM     19  C   UNL A   1      32.878  22.443  24.781  1.00  0.00     0.016 A 
ATOM     20  C   UNL A   1      33.170  22.810  26.101  1.00  0.00     0.001 A 
BRANCH  17  21
ATOM     21  C   UNL A   1      33.008  22.863  22.301  1.00  0.00     0.250 C 
ATOM     22  N   UNL A   1      32.092  21.880  22.053  1.00  0.00    -0.366 N 
ATOM     23  O   UNL A   1      33.636  23.353  21.371  1.00  0.00    -0.269 OA
ATOM     24  H   UNL A   1      31.583  21.482  22.796  1.00  0.00     0.159 HD
ATOM     25  H   UNL A   1      31.940  21.571  21.130  1.00  0.00     0.159 HD
ENDBRANCH  17  21
ENDBRANCH  13  15
ENDBRANCH  10  11
ENDBRANCH   3   6
ENDBRANCH   1   2
BRANCH   1  26
ATOM     26  C   UNL A   1      31.040  31.913  26.118  1.00  0.00     0.042 C 
BRANCH  26  27
ATOM     27  C   UNL A   1      32.328  32.159  26.884  1.00  0.00     0.118 C 
BRANCH  27  28
ATOM     28  N   UNL A   1      32.497  33.542  27.323  1.00  0.00    -0.352 N 
ATOM     29  C   UNL A   1      33.474  34.107  28.108  1.00  0.00     0.251 C 
ATOM     30  H   UNL A   1      31.803  34.166  27.009  1.00  0.00     0.163 HD
ATOM     31  O   UNL A   1      33.368  35.266  28.494  1.00  0.00    -0.269 OA
BRANCH  29  32
ATOM     32  C   UNL A   1      34.633  33.290  28.516  1.00  0.00     0.039 A 
ATOM     33  C   UNL A   1      35.924  33.775  28.302  1.00  0.00     0.014 A 
ATOM     34  C   UNL A   1      34.436  32.080  29.179  1.00  0.00     0.014 A 
ATOM     35  C   UNL A   1      37.010  33.090  28.847  1.00  0.00     0.010 A 
ATOM     36  C   UNL A   1      35.498  31.485  29.843  1.00  0.00     0.010 A 
ATOM     37  C   UNL A   1      36.800  31.973  29.673  1.00  0.00    -0.014 A 
BRANCH  37  38
ATOM     38  C   UNL A   1      37.923  31.293  30.365  1.00  0.00     0.031 A 
ATOM     39  C   UNL A   1      38.271  31.667  31.779  1.00  0.00     0.074 A 
ATOM     40  C   UNL A   1      38.680  30.404  29.693  1.00  0.00     0.049 A 
ATOM     41  N   UNL A   1      39.252  31.239  32.533  1.00  0.00    -0.248 NA
ATOM     42  C   UNL A   1      37.431  32.692  32.419  1.00  0.00     0.031 C 
ATOM     43  C   UNL A   1      38.495  30.019  28.293  1.00  0.00     0.029 A 
ATOM     44  N   UNL A   1      39.767  29.669  30.096  1.00  0.00    -0.354 N 
ATOM     45  C   UNL A   1      39.158  31.959  33.716  1.00  0.00     0.074 A 
ATOM     46  C   UNL A   1      38.078  32.904  33.554  1.00  0.00     0.031 C 
ATOM     47  C   UNL A   1      39.411  29.095  27.965  1.00  0.00     0.029 A 
ATOM     48  C   UNL A   1      40.276  28.854  29.115  1.00  0.00     0.049 A 
ATOM     49  H   UNL A   1      40.147  29.722  31.004  1.00  0.00     0.167 HD
ATOM     50  C   UNL A   1      39.887  31.822  34.849  1.00  0.00     0.037 A 
ATOM     51  C   UNL A   1      41.326  28.012  29.139  1.00  0.00     0.037 A 
ATOM     52  C   UNL A   1      40.942  30.858  35.011  1.00  0.00     0.049 A 
ATOM     53  C   UNL A   1      42.112  27.861  30.413  1.00  0.00     0.074 A 
ATOM     54  C   UNL A   1      41.685  30.574  36.142  1.00  0.00     0.029 A 
ATOM     55  N   UNL A   1      41.412  30.027  34.003  1.00  0.00    -0.354 N 
ATOM     56  N   UNL A   1      41.952  28.476  31.559  1.00  0.00    -0.248 NA
ATOM     57  C   UNL A   1      43.215  26.892  30.398  1.00  0.00     0.031 C 
ATOM     58  C   UNL A   1      42.648  29.618  35.801  1.00  0.00     0.029 A 
ATOM     59  C   UNL A   1      42.460  29.254  34.477  1.00  0.00     0.049 A 
ATOM     60  H   UNL A   1      41.051  29.990  33.087  1.00  0.00     0.167 HD
ATOM     61  C   UNL A   1      42.919  27.956  32.409  1.00  0.00     0.074 A 
ATOM     62  C   UNL A   1      43.648  26.961  31.649  1.00  0.00     0.031 C 
ATOM     63  C   UNL A   1      43.181  28.274  33.702  1.00  0.00     0.037 A 
BRANCH  50  64
ATOM     64  C   UNL A   1      39.567  32.745  35.992  1.00  0.00     0.064 A 
ATOM     65  C   UNL A   1      38.583  32.436  36.946  1.00  0.00     0.173 A 
ATOM     66  C   UNL A   1      40.252  33.961  36.136  1.00  0.00     0.173 A 
ATOM     67  F   UNL A   1      37.885  31.292  36.851  1.00  0.00    -0.203 F 
ATOM     68  C   UNL A   1      38.264  33.328  37.966  1.00  0.00     0.198 A 
ATOM     69  C   UNL A   1      39.959  34.832  37.181  1.00  0.00     0.198 A 
ATOM     70  F   UNL A   1      41.206  34.308  35.258  1.00  0.00    -0.203 F 
ATOM     71  F   UNL A   1      37.268  33.042  38.816  1.00  0.00    -0.200 F 
ATOM     72  C   UNL A   1      38.957  34.523  38.087  1.00  0.00     0.200 A 
ATOM     73  F   UNL A   1      40.640  35.980  37.305  1.00  0.00    -0.200 F 
ATOM     74  F   UNL A   1      38.648  35.381  39.069  1.00  0.00    -0.200 F 
ENDBRANCH  50  64
BRANCH  51  75
ATOM     75  C   UNL A   1      41.667  27.229  27.922  1.00  0.00     0.064 A 
ATOM     76  C   UNL A   1      42.534  27.744  26.950  1.00  0.00     0.173 A 
ATOM     77  C   UNL A   1      41.158  25.937  27.721  1.00  0.00     0.173 A 
ATOM     78  F   UNL A   1      43.033  28.983  27.087  1.00  0.00    -0.203 F 
ATOM     79  C   UNL A   1      42.872  27.003  25.819  1.00  0.00     0.198 A 
ATOM     80  C   UNL A   1      41.519  25.185  26.606  1.00  0.00     0.198 A 
ATOM     81  F   UNL A   1      40.329  25.394  28.626  1.00  0.00    -0.203 F 
ATOM     82  F   UNL A   1      43.676  27.534  24.889  1.00  0.00    -0.200 F 
ATOM     83  C   UNL A   1      42.372  25.721  25.653  1.00  0.00     0.200 A 
ATOM     84  F   UNL A   1      41.047  23.940  26.458  1.00  0.00    -0.200 F 
ATOM     85  F   UNL A   1      42.708  25.003  24.572  1.00  0.00    -0.200 F 
ENDBRANCH  51  75
BRANCH  63  86
ATOM     86  C   UNL A   1      44.287  27.523  34.385  1.00  0.00     0.064 A 
ATOM     87  C   UNL A   1      45.598  28.022  34.435  1.00  0.00     0.173 A 
ATOM     88  C   UNL A   1      44.025  26.306  35.033  1.00  0.00     0.173 A 
ATOM     89  F   UNL A   1      45.906  29.175  33.820  1.00  0.00    -0.203 F 
ATOM     90  C   UNL A   1      46.609  27.316  35.080  1.00  0.00     0.198 A 
ATOM     91  C   UNL A   1      45.030  25.621  35.709  1.00  0.00     0.198 A 
ATOM     92  F   UNL A   1      42.787  25.788  35.025  1.00  0.00    -0.203 F 
ATOM     93  F   UNL A   1      47.865  27.784  35.067  1.00  0.00    -0.200 F 
ATOM     94  C   UNL A   1      46.323  26.121  35.723  1.00  0.00     0.200 A 
ATOM     95  F   UNL A   1      44.747  24.476  36.346  1.00  0.00    -0.200 F 
ATOM     96  F   UNL A   1      47.296  25.447  36.353  1.00  0.00    -0.200 F 
ENDBRANCH  63  86
ENDBRANCH  37  38
ENDBRANCH  29  32
ENDBRANCH  27  28
ENDBRANCH  26  27
ENDBRANCH   1  26
TORSDOF 13
ENDMDL
