MODEL 1
REMARK VINA RESULT:     -12.1      0.000      0.000
REMARK SMILES C[C@H]([C@@H](C)O)[NH+]1CCC(C)(C(=O)NCCCNC(=O)c2ccc(-c3c4nc(c(-c5c(F)c(F)c(F)c(F)c5F)c5ccc([nH]5)c(-c5c(F)c(F)c(F)c(F)c5F)c5nc(c(-c6c(F)c(F)c(F)c(F)c6F)c6ccc3[nH]6)C=C5)C=C4)cc2)CC1
REMARK SMILES IDX 14 1 13 2 11 3 12 4 9 6 6 7 7 8 84 9 8 11 83 12 10 13 2 14
REMARK SMILES IDX 1 15 3 16 4 17 5 18 15 20 16 21 17 22 18 23 19 25 20 26
REMARK SMILES IDX 21 27 82 28 22 29 81 30 23 31 24 32 25 33 75 34 26 35 80 36
REMARK SMILES IDX 74 37 76 38 27 39 79 40 73 41 72 42 28 44 60 45 40 46 59 47
REMARK SMILES IDX 41 48 44 49 58 50 77 51 42 52 43 53 57 55 78 56 45 57 29 58
REMARK SMILES IDX 30 59 38 60 31 61 32 62 36 63 39 64 33 65 34 66 37 67 35 68
REMARK SMILES IDX 61 69 62 70 70 71 63 72 64 73 68 74 71 75 65 76 66 77 69 78
REMARK SMILES IDX 67 79 46 80 47 81 55 82 48 83 49 84 53 85 56 86 50 87 51 88
REMARK SMILES IDX 54 89 52 90
REMARK H PARENT 13 5 6 10 5 19 17 24 76 43 44 54
REMARK Flexibility Score: inf
ROOT
ATOM      1  C   UNL A   1      31.765  30.539  26.593  1.00  0.00     0.117 C 
ENDROOT
BRANCH   1   2
ATOM      2  N   UNL A   1      31.960  30.067  25.236  1.00  0.00    -0.356 N 
ATOM      3  C   UNL A   1      32.599  28.994  24.709  1.00  0.00     0.226 C 
ATOM      4  O   UNL A   1      32.733  29.012  23.482  1.00  0.00    -0.274 OA
ATOM      5  H   UNL A   1      31.542  30.645  24.557  1.00  0.00     0.163 HD
BRANCH   3   6
ATOM      6  C   UNL A   1      33.085  27.808  25.564  1.00  0.00     0.057 C 
ATOM      7  N   UNL A   1      31.552  25.291  25.066  1.00  0.00    -0.331 N 
ATOM      8  C   UNL A   1      32.496  25.801  24.071  1.00  0.00     0.263 C 
ATOM      9  C   UNL A   1      30.915  26.406  25.752  1.00  0.00     0.263 C 
ATOM     10  H   UNL A   1      30.762  24.817  24.626  1.00  0.00     0.348 HD
ATOM     11  C   UNL A   1      33.611  26.628  24.713  1.00  0.00     0.078 C 
ATOM     12  C   UNL A   1      31.902  27.338  26.461  1.00  0.00     0.078 C 
ATOM     13  C   UNL A   1      34.182  28.307  26.529  1.00  0.00     0.022 C 
BRANCH   7  14
ATOM     14  C   UNL A   1      32.068  24.137  25.836  1.00  0.00     0.209 C 
ATOM     15  C   UNL A   1      32.398  23.044  24.804  1.00  0.00     0.078 C 
BRANCH  14  16
ATOM     16  C   UNL A   1      31.327  23.541  27.082  1.00  0.00     0.169 C 
ATOM     17  C   UNL A   1      29.934  22.953  26.877  1.00  0.00     0.045 C 
BRANCH  16  18
ATOM     18  O   UNL A   1      32.141  22.508  27.668  1.00  0.00    -0.387 OA
ATOM     19  H   UNL A   1      32.704  22.893  28.358  1.00  0.00     0.211 HD
ENDBRANCH  16  18
ENDBRANCH  14  16
ENDBRANCH   7  14
ENDBRANCH   3   6
ENDBRANCH   1   2
BRANCH   1  20
ATOM     20  C   UNL A   1      31.632  32.057  26.626  1.00  0.00     0.042 C 
BRANCH  20  21
ATOM     21  C   UNL A   1      32.790  32.749  27.334  1.00  0.00     0.118 C 
BRANCH  21  22
ATOM     22  N   UNL A   1      32.507  34.149  27.626  1.00  0.00    -0.352 N 
ATOM     23  C   UNL A   1      33.030  34.961  28.604  1.00  0.00     0.251 C 
ATOM     24  H   UNL A   1      31.845  34.576  27.035  1.00  0.00     0.163 HD
ATOM     25  O   UNL A   1      32.529  36.047  28.844  1.00  0.00    -0.269 OA
BRANCH  23  26
ATOM     26  C   UNL A   1      34.198  34.491  29.377  1.00  0.00     0.039 A 
ATOM     27  C   UNL A   1      33.995  33.884  30.617  1.00  0.00     0.014 A 
ATOM     28  C   UNL A   1      35.486  34.632  28.856  1.00  0.00     0.014 A 
ATOM     29  C   UNL A   1      35.085  33.344  31.303  1.00  0.00     0.010 A 
ATOM     30  C   UNL A   1      36.553  34.015  29.494  1.00  0.00     0.010 A 
ATOM     31  C   UNL A   1      36.364  33.366  30.724  1.00  0.00    -0.014 A 
BRANCH  31  32
ATOM     32  C   UNL A   1      37.533  32.734  31.381  1.00  0.00     0.031 A 
ATOM     33  C   UNL A   1      38.232  31.588  30.703  1.00  0.00     0.074 A 
ATOM     34  C   UNL A   1      37.897  33.118  32.619  1.00  0.00     0.049 A 
ATOM     35  N   UNL A   1      39.164  30.795  31.165  1.00  0.00    -0.248 NA
ATOM     36  C   UNL A   1      37.795  31.268  29.334  1.00  0.00     0.031 C 
ATOM     37  C   UNL A   1      37.268  34.190  33.392  1.00  0.00     0.029 A 
ATOM     38  N   UNL A   1      38.870  32.631  33.457  1.00  0.00    -0.354 N 
ATOM     39  C   UNL A   1      39.404  29.871  30.157  1.00  0.00     0.074 A 
ATOM     40  C   UNL A   1      38.486  30.167  29.080  1.00  0.00     0.031 C 
ATOM     41  C   UNL A   1      37.880  34.289  34.584  1.00  0.00     0.029 A 
ATOM     42  C   UNL A   1      38.909  33.258  34.678  1.00  0.00     0.049 A 
ATOM     43  H   UNL A   1      39.482  31.903  33.205  1.00  0.00     0.167 HD
ATOM     44  C   UNL A   1      40.324  28.879  30.126  1.00  0.00     0.037 A 
ATOM     45  C   UNL A   1      39.676  33.014  35.757  1.00  0.00     0.037 A 
ATOM     46  C   UNL A   1      41.256  28.613  31.188  1.00  0.00     0.049 A 
ATOM     47  C   UNL A   1      40.685  31.899  35.701  1.00  0.00     0.074 A 
ATOM     48  C   UNL A   1      42.270  27.674  31.231  1.00  0.00     0.029 A 
ATOM     49  N   UNL A   1      41.286  29.292  32.398  1.00  0.00    -0.354 N 
ATOM     50  N   UNL A   1      40.946  31.069  34.720  1.00  0.00    -0.248 NA
ATOM     51  C   UNL A   1      41.507  31.685  36.901  1.00  0.00     0.031 C 
ATOM     52  C   UNL A   1      42.885  27.752  32.484  1.00  0.00     0.029 A 
ATOM     53  C   UNL A   1      42.289  28.777  33.202  1.00  0.00     0.049 A 
ATOM     54  H   UNL A   1      40.684  30.030  32.648  1.00  0.00     0.167 HD
ATOM     55  C   UNL A   1      41.982  30.261  35.168  1.00  0.00     0.074 A 
ATOM     56  C   UNL A   1      42.306  30.703  36.508  1.00  0.00     0.031 C 
ATOM     57  C   UNL A   1      42.610  29.247  34.526  1.00  0.00     0.037 A 
BRANCH  44  58
ATOM     58  C   UNL A   1      40.369  28.008  28.903  1.00  0.00     0.064 A 
ATOM     59  C   UNL A   1      41.141  28.352  27.783  1.00  0.00     0.173 A 
ATOM     60  C   UNL A   1      39.657  26.800  28.863  1.00  0.00     0.173 A 
ATOM     61  F   UNL A   1      41.831  29.503  27.765  1.00  0.00    -0.203 F 
ATOM     62  C   UNL A   1      41.175  27.533  26.657  1.00  0.00     0.198 A 
ATOM     63  C   UNL A   1      39.720  25.968  27.749  1.00  0.00     0.198 A 
ATOM     64  F   UNL A   1      38.907  26.421  29.909  1.00  0.00    -0.203 F 
ATOM     65  F   UNL A   1      41.878  27.908  25.581  1.00  0.00    -0.200 F 
ATOM     66  C   UNL A   1      40.471  26.339  26.645  1.00  0.00     0.200 A 
ATOM     67  F   UNL A   1      39.050  24.807  27.744  1.00  0.00    -0.200 F 
ATOM     68  F   UNL A   1      40.512  25.547  25.564  1.00  0.00    -0.200 F 
ENDBRANCH  44  58
BRANCH  45  69
ATOM     69  C   UNL A   1      39.531  33.853  36.977  1.00  0.00     0.064 A 
ATOM     70  C   UNL A   1      40.204  35.078  37.089  1.00  0.00     0.173 A 
ATOM     71  C   UNL A   1      38.725  33.451  38.051  1.00  0.00     0.173 A 
ATOM     72  F   UNL A   1      41.003  35.495  36.096  1.00  0.00    -0.203 F 
ATOM     73  C   UNL A   1      40.091  35.859  38.236  1.00  0.00     0.198 A 
ATOM     74  C   UNL A   1      38.589  34.248  39.186  1.00  0.00     0.198 A 
ATOM     75  F   UNL A   1      38.054  32.291  37.992  1.00  0.00    -0.203 F 
ATOM     76  F   UNL A   1      40.780  37.004  38.335  1.00  0.00    -0.200 F 
ATOM     77  C   UNL A   1      39.279  35.447  39.282  1.00  0.00     0.200 A 
ATOM     78  F   UNL A   1      37.791  33.853  40.188  1.00  0.00    -0.200 F 
ATOM     79  F   UNL A   1      39.167  36.202  40.383  1.00  0.00    -0.200 F 
ENDBRANCH  45  69
BRANCH  57  80
ATOM     80  C   UNL A   1      43.748  28.574  35.235  1.00  0.00     0.064 A 
ATOM     81  C   UNL A   1      45.062  29.052  35.140  1.00  0.00     0.173 A 
ATOM     82  C   UNL A   1      43.503  27.483  36.083  1.00  0.00     0.173 A 
ATOM     83  F   UNL A   1      45.348  30.083  34.331  1.00  0.00    -0.203 F 
ATOM     84  C   UNL A   1      46.094  28.453  35.858  1.00  0.00     0.198 A 
ATOM     85  C   UNL A   1      44.531  26.905  36.822  1.00  0.00     0.198 A 
ATOM     86  F   UNL A   1      42.262  26.993  36.213  1.00  0.00    -0.203 F 
ATOM     87  F   UNL A   1      47.348  28.905  35.728  1.00  0.00    -0.200 F 
ATOM     88  C   UNL A   1      45.825  27.388  36.707  1.00  0.00     0.200 A 
ATOM     89  F   UNL A   1      44.267  25.887  37.652  1.00  0.00    -0.200 F 
ATOM     90  F   UNL A   1      46.816  26.825  37.411  1.00  0.00    -0.200 F 
ENDBRANCH  57  80
ENDBRANCH  31  32
ENDBRANCH  23  26
ENDBRANCH  21  22
ENDBRANCH  20  21
ENDBRANCH   1  20
TORSDOF 13
ENDMDL
MODEL 2
REMARK VINA RESULT:     -11.9      6.145     11.415
REMARK SMILES C[C@H]([C@@H](C)O)[NH+]1CCC(C)(C(=O)NCCCNC(=O)c2ccc(-c3c4nc(c(-c5c(F)c(F)c(F)c(F)c5F)c5ccc([nH]5)c(-c5c(F)c(F)c(F)c(F)c5F)c5nc(c(-c6c(F)c(F)c(F)c(F)c6F)c6ccc3[nH]6)C=C5)C=C4)cc2)CC1
REMARK SMILES IDX 14 1 13 2 11 3 12 4 9 6 6 7 7 8 84 9 8 11 83 12 10 13 2 14
REMARK SMILES IDX 1 15 3 16 4 17 5 18 15 20 16 21 17 22 18 23 19 25 20 26
REMARK SMILES IDX 21 27 82 28 22 29 81 30 23 31 24 32 25 33 75 34 26 35 80 36
REMARK SMILES IDX 74 37 76 38 27 39 79 40 73 41 72 42 28 44 60 45 40 46 59 47
REMARK SMILES IDX 41 48 44 49 58 50 77 51 42 52 43 53 57 55 78 56 45 57 29 58
REMARK SMILES IDX 30 59 38 60 31 61 32 62 36 63 39 64 33 65 34 66 37 67 35 68
REMARK SMILES IDX 61 69 62 70 70 71 63 72 64 73 68 74 71 75 65 76 66 77 69 78
REMARK SMILES IDX 67 79 46 80 47 81 55 82 48 83 49 84 53 85 56 86 50 87 51 88
REMARK SMILES IDX 54 89 52 90
REMARK H PARENT 13 5 6 10 5 19 17 24 76 43 44 54
REMARK Flexibility Score: inf
ROOT
ATOM      1  C   UNL A   1      36.944  20.776  25.119  1.00  0.00     0.117 C 
ENDROOT
BRANCH   1   2
ATOM      2  N   UNL A   1      37.022  21.787  24.082  1.00  0.00    -0.356 N 
ATOM      3  C   UNL A   1      36.184  22.776  23.684  1.00  0.00     0.226 C 
ATOM      4  O   UNL A   1      36.491  23.331  22.625  1.00  0.00    -0.274 OA
ATOM      5  H   UNL A   1      37.855  21.749  23.559  1.00  0.00     0.163 HD
BRANCH   3   6
ATOM      6  C   UNL A   1      34.960  23.217  24.510  1.00  0.00     0.057 C 
ATOM      7  N   UNL A   1      32.355  22.502  23.232  1.00  0.00    -0.331 N 
ATOM      8  C   UNL A   1      33.202  21.470  23.832  1.00  0.00     0.263 C 
ATOM      9  C   UNL A   1      33.191  23.540  22.647  1.00  0.00     0.263 C 
ATOM     10  H   UNL A   1      31.842  22.144  22.425  1.00  0.00     0.348 HD
ATOM     11  C   UNL A   1      34.074  22.031  24.956  1.00  0.00     0.078 C 
ATOM     12  C   UNL A   1      34.129  24.215  23.651  1.00  0.00     0.078 C 
ATOM     13  C   UNL A   1      35.451  24.015  25.738  1.00  0.00     0.022 C 
BRANCH   7  14
ATOM     14  C   UNL A   1      31.184  22.864  24.062  1.00  0.00     0.209 C 
ATOM     15  C   UNL A   1      30.655  24.197  23.502  1.00  0.00     0.078 C 
BRANCH  14  16
ATOM     16  C   UNL A   1      31.220  22.877  25.629  1.00  0.00     0.169 C 
ATOM     17  C   UNL A   1      31.167  24.228  26.338  1.00  0.00     0.045 C 
BRANCH  16  18
ATOM     18  O   UNL A   1      30.125  22.091  26.134  1.00  0.00    -0.387 OA
ATOM     19  H   UNL A   1      29.940  22.346  27.052  1.00  0.00     0.211 HD
ENDBRANCH  16  18
ENDBRANCH  14  16
ENDBRANCH   7  14
ENDBRANCH   3   6
ENDBRANCH   1   2
BRANCH   1  20
ATOM     20  C   UNL A   1      38.097  19.788  25.001  1.00  0.00     0.042 C 
BRANCH  20  21
ATOM     21  C   UNL A   1      39.346  20.223  25.756  1.00  0.00     0.118 C 
BRANCH  21  22
ATOM     22  N   UNL A   1      40.298  19.135  25.934  1.00  0.00    -0.352 N 
ATOM     23  C   UNL A   1      41.659  19.185  26.121  1.00  0.00     0.251 C 
ATOM     24  H   UNL A   1      39.909  18.230  25.919  1.00  0.00     0.163 HD
ATOM     25  O   UNL A   1      42.336  18.173  26.040  1.00  0.00    -0.269 OA
BRANCH  23  26
ATOM     26  C   UNL A   1      42.296  20.488  26.402  1.00  0.00     0.039 A 
ATOM     27  C   UNL A   1      42.680  21.302  25.336  1.00  0.00     0.014 A 
ATOM     28  C   UNL A   1      42.486  20.905  27.721  1.00  0.00     0.014 A 
ATOM     29  C   UNL A   1      43.185  22.578  25.595  1.00  0.00     0.010 A 
ATOM     30  C   UNL A   1      42.902  22.205  27.974  1.00  0.00     0.010 A 
ATOM     31  C   UNL A   1      43.257  23.054  26.914  1.00  0.00    -0.014 A 
BRANCH  31  32
ATOM     32  C   UNL A   1      43.711  24.430  27.228  1.00  0.00     0.031 A 
ATOM     33  C   UNL A   1      42.719  25.439  27.736  1.00  0.00     0.074 A 
ATOM     34  C   UNL A   1      44.979  24.796  26.959  1.00  0.00     0.049 A 
ATOM     35  N   UNL A   1      42.865  26.726  27.920  1.00  0.00    -0.248 NA
ATOM     36  C   UNL A   1      41.370  24.937  28.042  1.00  0.00     0.031 C 
ATOM     37  C   UNL A   1      46.020  23.916  26.427  1.00  0.00     0.029 A 
ATOM     38  N   UNL A   1      45.601  26.014  27.075  1.00  0.00    -0.354 N 
ATOM     39  C   UNL A   1      41.624  27.188  28.336  1.00  0.00     0.074 A 
ATOM     40  C   UNL A   1      40.723  26.057  28.327  1.00  0.00     0.031 C 
ATOM     41  C   UNL A   1      47.154  24.619  26.276  1.00  0.00     0.029 A 
ATOM     42  C   UNL A   1      46.908  26.007  26.653  1.00  0.00     0.049 A 
ATOM     43  H   UNL A   1      45.153  26.816  27.428  1.00  0.00     0.167 HD
ATOM     44  C   UNL A   1      41.274  28.440  28.712  1.00  0.00     0.037 A 
ATOM     45  C   UNL A   1      47.799  27.013  26.563  1.00  0.00     0.037 A 
ATOM     46  C   UNL A   1      42.186  29.552  28.750  1.00  0.00     0.049 A 
ATOM     47  C   UNL A   1      47.384  28.398  26.978  1.00  0.00     0.074 A 
ATOM     48  C   UNL A   1      41.950  30.847  29.176  1.00  0.00     0.029 A 
ATOM     49  N   UNL A   1      43.512  29.497  28.345  1.00  0.00    -0.354 N 
ATOM     50  N   UNL A   1      46.224  28.813  27.428  1.00  0.00    -0.248 NA
ATOM     51  C   UNL A   1      48.400  29.455  26.875  1.00  0.00     0.031 C 
ATOM     52  C   UNL A   1      43.120  31.588  28.985  1.00  0.00     0.029 A 
ATOM     53  C   UNL A   1      44.100  30.742  28.492  1.00  0.00     0.049 A 
ATOM     54  H   UNL A   1      43.967  28.693  28.004  1.00  0.00     0.167 HD
ATOM     55  C   UNL A   1      46.380  30.167  27.694  1.00  0.00     0.074 A 
ATOM     56  C   UNL A   1      47.748  30.503  27.360  1.00  0.00     0.031 C 
ATOM     57  C   UNL A   1      45.472  31.050  28.174  1.00  0.00     0.037 A 
BRANCH  44  58
ATOM     58  C   UNL A   1      39.847  28.674  29.115  1.00  0.00     0.064 A 
ATOM     59  C   UNL A   1      39.415  28.484  30.436  1.00  0.00     0.173 A 
ATOM     60  C   UNL A   1      38.908  29.126  28.177  1.00  0.00     0.173 A 
ATOM     61  F   UNL A   1      40.270  28.040  31.370  1.00  0.00    -0.203 F 
ATOM     62  C   UNL A   1      38.088  28.707  30.796  1.00  0.00     0.198 A 
ATOM     63  C   UNL A   1      37.590  29.380  28.547  1.00  0.00     0.198 A 
ATOM     64  F   UNL A   1      39.269  29.329  26.901  1.00  0.00    -0.203 F 
ATOM     65  F   UNL A   1      37.688  28.468  32.052  1.00  0.00    -0.200 F 
ATOM     66  C   UNL A   1      37.179  29.163  29.853  1.00  0.00     0.200 A 
ATOM     67  F   UNL A   1      36.716  29.834  27.638  1.00  0.00    -0.200 F 
ATOM     68  F   UNL A   1      35.905  29.387  30.203  1.00  0.00    -0.200 F 
ENDBRANCH  44  58
BRANCH  45  69
ATOM     69  C   UNL A   1      49.178  26.742  26.074  1.00  0.00     0.064 A 
ATOM     70  C   UNL A   1      50.166  26.260  26.945  1.00  0.00     0.173 A 
ATOM     71  C   UNL A   1      49.537  26.960  24.737  1.00  0.00     0.173 A 
ATOM     72  F   UNL A   1      49.875  26.055  28.238  1.00  0.00    -0.203 F 
ATOM     73  C   UNL A   1      51.464  26.025  26.501  1.00  0.00     0.198 A 
ATOM     74  C   UNL A   1      50.829  26.696  24.287  1.00  0.00     0.198 A 
ATOM     75  F   UNL A   1      48.628  27.414  23.861  1.00  0.00    -0.203 F 
ATOM     76  F   UNL A   1      52.400  25.607  27.364  1.00  0.00    -0.200 F 
ATOM     77  C   UNL A   1      51.795  26.237  25.171  1.00  0.00     0.200 A 
ATOM     78  F   UNL A   1      51.140  26.888  22.997  1.00  0.00    -0.200 F 
ATOM     79  F   UNL A   1      53.043  26.006  24.743  1.00  0.00    -0.200 F 
ENDBRANCH  45  69
BRANCH  57  80
ATOM     80  C   UNL A   1      45.934  32.456  28.421  1.00  0.00     0.064 A 
ATOM     81  C   UNL A   1      45.821  33.453  27.442  1.00  0.00     0.173 A 
ATOM     82  C   UNL A   1      46.426  32.824  29.683  1.00  0.00     0.173 A 
ATOM     83  F   UNL A   1      45.369  33.146  26.217  1.00  0.00    -0.203 F 
ATOM     84  C   UNL A   1      46.195  34.766  27.713  1.00  0.00     0.198 A 
ATOM     85  C   UNL A   1      46.772  34.144  29.959  1.00  0.00     0.198 A 
ATOM     86  F   UNL A   1      46.549  31.909  30.655  1.00  0.00    -0.203 F 
ATOM     87  F   UNL A   1      46.108  35.697  26.753  1.00  0.00    -0.200 F 
ATOM     88  C   UNL A   1      46.660  35.112  28.974  1.00  0.00     0.200 A 
ATOM     89  F   UNL A   1      47.206  34.479  31.182  1.00  0.00    -0.200 F 
ATOM     90  F   UNL A   1      47.002  36.380  29.238  1.00  0.00    -0.200 F 
ENDBRANCH  57  80
ENDBRANCH  31  32
ENDBRANCH  23  26
ENDBRANCH  21  22
ENDBRANCH  20  21
ENDBRANCH   1  20
TORSDOF 13
ENDMDL
MODEL 3
REMARK VINA RESULT:     -11.9      0.583      7.554
REMARK SMILES C[C@H]([C@@H](C)O)[NH+]1CCC(C)(C(=O)NCCCNC(=O)c2ccc(-c3c4nc(c(-c5c(F)c(F)c(F)c(F)c5F)c5ccc([nH]5)c(-c5c(F)c(F)c(F)c(F)c5F)c5nc(c(-c6c(F)c(F)c(F)c(F)c6F)c6ccc3[nH]6)C=C5)C=C4)cc2)CC1
REMARK SMILES IDX 14 1 13 2 11 3 12 4 9 6 6 7 7 8 84 9 8 11 83 12 10 13 2 14
REMARK SMILES IDX 1 15 3 16 4 17 5 18 15 20 16 21 17 22 18 23 19 25 20 26
REMARK SMILES IDX 21 27 82 28 22 29 81 30 23 31 24 32 25 33 75 34 26 35 80 36
REMARK SMILES IDX 74 37 76 38 27 39 79 40 73 41 72 42 28 44 60 45 40 46 59 47
REMARK SMILES IDX 41 48 44 49 58 50 77 51 42 52 43 53 57 55 78 56 45 57 29 58
REMARK SMILES IDX 30 59 38 60 31 61 32 62 36 63 39 64 33 65 34 66 37 67 35 68
REMARK SMILES IDX 61 69 62 70 70 71 63 72 64 73 68 74 71 75 65 76 66 77 69 78
REMARK SMILES IDX 67 79 46 80 47 81 55 82 48 83 49 84 53 85 56 86 50 87 51 88
REMARK SMILES IDX 54 89 52 90
REMARK H PARENT 13 5 6 10 5 19 17 24 76 43 44 54
REMARK Flexibility Score: inf
ROOT
ATOM      1  C   UNL A   1      31.352  30.871  26.505  1.00  0.00     0.117 C 
ENDROOT
BRANCH   1   2
ATOM      2  N   UNL A   1      31.955  30.347  25.295  1.00  0.00    -0.356 N 
ATOM      3  C   UNL A   1      32.814  29.327  25.052  1.00  0.00     0.226 C 
ATOM      4  O   UNL A   1      33.276  29.290  23.907  1.00  0.00    -0.274 OA
ATOM      5  H   UNL A   1      31.685  30.832  24.481  1.00  0.00     0.163 HD
BRANCH   3   6
ATOM      6  C   UNL A   1      33.160  28.257  26.105  1.00  0.00     0.057 C 
ATOM      7  N   UNL A   1      31.929  25.595  25.528  1.00  0.00    -0.331 N 
ATOM      8  C   UNL A   1      33.044  26.094  24.722  1.00  0.00     0.263 C 
ATOM      9  C   UNL A   1      31.090  26.710  25.943  1.00  0.00     0.263 C 
ATOM     10  H   UNL A   1      31.289  25.026  24.972  1.00  0.00     0.348 HD
ATOM     11  C   UNL A   1      33.933  27.056  25.511  1.00  0.00     0.078 C 
ATOM     12  C   UNL A   1      31.833  27.771  26.758  1.00  0.00     0.078 C 
ATOM     13  C   UNL A   1      33.977  28.918  27.236  1.00  0.00     0.022 C 
BRANCH   7  14
ATOM     14  C   UNL A   1      32.322  24.552  26.502  1.00  0.00     0.209 C 
ATOM     15  C   UNL A   1      33.650  23.965  25.992  1.00  0.00     0.078 C 
BRANCH  14  16
ATOM     16  C   UNL A   1      31.347  23.425  26.986  1.00  0.00     0.169 C 
ATOM     17  C   UNL A   1      30.653  22.571  25.927  1.00  0.00     0.045 C 
BRANCH  16  18
ATOM     18  O   UNL A   1      32.059  22.525  27.856  1.00  0.00    -0.387 OA
ATOM     19  H   UNL A   1      31.654  21.644  27.810  1.00  0.00     0.211 HD
ENDBRANCH  16  18
ENDBRANCH  14  16
ENDBRANCH   7  14
ENDBRANCH   3   6
ENDBRANCH   1   2
BRANCH   1  20
ATOM     20  C   UNL A   1      31.404  32.393  26.523  1.00  0.00     0.042 C 
BRANCH  20  21
ATOM     21  C   UNL A   1      32.628  32.947  27.241  1.00  0.00     0.118 C 
BRANCH  21  22
ATOM     22  N   UNL A   1      32.454  34.335  27.649  1.00  0.00    -0.352 N 
ATOM     23  C   UNL A   1      33.021  35.016  28.700  1.00  0.00     0.251 C 
ATOM     24  H   UNL A   1      31.841  34.864  27.088  1.00  0.00     0.163 HD
ATOM     25  O   UNL A   1      32.605  36.116  29.026  1.00  0.00    -0.269 OA
BRANCH  23  26
ATOM     26  C   UNL A   1      34.131  34.387  29.445  1.00  0.00     0.039 A 
ATOM     27  C   UNL A   1      33.849  33.658  30.601  1.00  0.00     0.014 A 
ATOM     28  C   UNL A   1      35.442  34.504  28.979  1.00  0.00     0.014 A 
ATOM     29  C   UNL A   1      34.879  32.975  31.249  1.00  0.00     0.010 A 
ATOM     30  C   UNL A   1      36.447  33.752  29.571  1.00  0.00     0.010 A 
ATOM     31  C   UNL A   1      36.177  32.981  30.713  1.00  0.00    -0.014 A 
BRANCH  31  32
ATOM     32  C   UNL A   1      37.282  32.204  31.324  1.00  0.00     0.031 A 
ATOM     33  C   UNL A   1      37.783  32.580  32.690  1.00  0.00     0.074 A 
ATOM     34  C   UNL A   1      37.897  31.239  30.613  1.00  0.00     0.049 A 
ATOM     35  N   UNL A   1      38.832  32.142  33.338  1.00  0.00    -0.248 NA
ATOM     36  C   UNL A   1      37.022  33.615  33.409  1.00  0.00     0.031 C 
ATOM     37  C   UNL A   1      37.525  30.815  29.263  1.00  0.00     0.029 A 
ATOM     38  N   UNL A   1      38.982  30.457  30.920  1.00  0.00    -0.354 N 
ATOM     39  C   UNL A   1      38.870  32.866  34.522  1.00  0.00     0.074 A 
ATOM     40  C   UNL A   1      37.772  33.806  34.483  1.00  0.00     0.031 C 
ATOM     41  C   UNL A   1      38.358  29.840  28.864  1.00  0.00     0.029 A 
ATOM     42  C   UNL A   1      39.351  29.606  29.908  1.00  0.00     0.049 A 
ATOM     43  H   UNL A   1      39.450  30.501  31.785  1.00  0.00     0.167 HD
ATOM     44  C   UNL A   1      39.731  32.740  35.559  1.00  0.00     0.037 A 
ATOM     45  C   UNL A   1      40.386  28.748  29.826  1.00  0.00     0.037 A 
ATOM     46  C   UNL A   1      40.800  31.778  35.604  1.00  0.00     0.049 A 
ATOM     47  C   UNL A   1      41.335  28.633  30.988  1.00  0.00     0.074 A 
ATOM     48  C   UNL A   1      41.689  31.524  36.632  1.00  0.00     0.029 A 
ATOM     49  N   UNL A   1      41.122  30.910  34.571  1.00  0.00    -0.354 N 
ATOM     50  N   UNL A   1      41.327  29.279  32.129  1.00  0.00    -0.248 NA
ATOM     51  C   UNL A   1      42.438  27.670  30.852  1.00  0.00     0.031 C 
ATOM     52  C   UNL A   1      42.579  30.535  36.204  1.00  0.00     0.029 A 
ATOM     53  C   UNL A   1      42.211  30.134  34.930  1.00  0.00     0.049 A 
ATOM     54  H   UNL A   1      40.647  30.854  33.709  1.00  0.00     0.167 HD
ATOM     55  C   UNL A   1      42.396  28.777  32.859  1.00  0.00     0.074 A 
ATOM     56  C   UNL A   1      43.029  27.770  32.034  1.00  0.00     0.031 C 
ATOM     57  C   UNL A   1      42.813  29.120  34.102  1.00  0.00     0.037 A 
BRANCH  44  58
ATOM     58  C   UNL A   1      39.552  33.662  36.730  1.00  0.00     0.064 A 
ATOM     59  C   UNL A   1      38.757  33.309  37.830  1.00  0.00     0.173 A 
ATOM     60  C   UNL A   1      40.210  34.900  36.767  1.00  0.00     0.173 A 
ATOM     61  F   UNL A   1      38.096  32.141  37.839  1.00  0.00    -0.203 F 
ATOM     62  C   UNL A   1      38.602  34.174  38.911  1.00  0.00     0.198 A 
ATOM     63  C   UNL A   1      40.080  35.748  37.864  1.00  0.00     0.198 A 
ATOM     64  F   UNL A   1      40.988  35.285  35.744  1.00  0.00    -0.203 F 
ATOM     65  F   UNL A   1      37.796  33.836  39.926  1.00  0.00    -0.200 F 
ATOM     66  C   UNL A   1      39.270  35.388  38.930  1.00  0.00     0.200 A 
ATOM     67  F   UNL A   1      40.738  36.916  37.887  1.00  0.00    -0.200 F 
ATOM     68  F   UNL A   1      39.128  36.216  39.974  1.00  0.00    -0.200 F 
ENDBRANCH  44  58
BRANCH  45  69
ATOM     69  C   UNL A   1      40.567  27.918  28.605  1.00  0.00     0.064 A 
ATOM     70  C   UNL A   1      41.325  28.388  27.523  1.00  0.00     0.173 A 
ATOM     71  C   UNL A   1      39.991  26.644  28.493  1.00  0.00     0.173 A 
ATOM     72  F   UNL A   1      41.880  29.608  27.576  1.00  0.00    -0.203 F 
ATOM     73  C   UNL A   1      41.482  27.626  26.369  1.00  0.00     0.198 A 
ATOM     74  C   UNL A   1      40.174  25.870  27.348  1.00  0.00     0.198 A 
ATOM     75  F   UNL A   1      39.262  26.144  29.501  1.00  0.00    -0.203 F 
ATOM     76  F   UNL A   1      42.174  28.119  25.332  1.00  0.00    -0.200 F 
ATOM     77  C   UNL A   1      40.912  26.365  26.283  1.00  0.00     0.200 A 
ATOM     78  F   UNL A   1      39.633  24.646  27.277  1.00  0.00    -0.200 F 
ATOM     79  F   UNL A   1      41.067  25.630  25.174  1.00  0.00    -0.200 F 
ENDBRANCH  45  69
BRANCH  57  80
ATOM     80  C   UNL A   1      43.977  28.367  34.675  1.00  0.00     0.064 A 
ATOM     81  C   UNL A   1      45.286  28.864  34.600  1.00  0.00     0.173 A 
ATOM     82  C   UNL A   1      43.765  27.169  35.376  1.00  0.00     0.173 A 
ATOM     83  F   UNL A   1      45.539  29.997  33.929  1.00  0.00    -0.203 F 
ATOM     84  C   UNL A   1      46.343  28.182  35.196  1.00  0.00     0.198 A 
ATOM     85  C   UNL A   1      44.821  26.506  35.995  1.00  0.00     0.198 A 
ATOM     86  F   UNL A   1      42.531  26.656  35.481  1.00  0.00    -0.203 F 
ATOM     87  F   UNL A   1      47.591  28.658  35.085  1.00  0.00    -0.200 F 
ATOM     88  C   UNL A   1      46.108  27.010  35.902  1.00  0.00     0.200 A 
ATOM     89  F   UNL A   1      44.590  25.383  36.689  1.00  0.00    -0.200 F 
ATOM     90  F   UNL A   1      47.125  26.366  36.490  1.00  0.00    -0.200 F 
ENDBRANCH  57  80
ENDBRANCH  31  32
ENDBRANCH  23  26
ENDBRANCH  21  22
ENDBRANCH  20  21
ENDBRANCH   1  20
TORSDOF 13
ENDMDL
