MODEL 1
REMARK VINA RESULT:     -12.1      0.000      0.000
REMARK SMILES COc1ncccc1C[N@@H+]1CCC[C@H]1C(=O)NCCCNC(=O)c1ccc(-c2c3nc(c(-c4c(F)c(F)c(F)c(F)c4F)c4ccc([nH]4)c(-c4c(F)c(F)c(F)c(F)c4F)c4nc(c(-c5c(F)c(F)c(F)c(F)c5F)c5ccc2[nH]5)C=C4)C=C3)cc1
REMARK SMILES IDX 18 1 17 2 15 3 16 4 14 6 10 7 11 8 12 10 13 11 9 12 8 13
REMARK SMILES IDX 3 14 4 15 5 16 7 17 6 18 2 19 1 20 19 21 20 22 21 23 22 24
REMARK SMILES IDX 23 26 24 27 25 28 86 29 26 30 85 31 27 32 28 33 29 34 79 35
REMARK SMILES IDX 30 36 84 37 78 38 80 39 31 40 83 41 77 42 76 43 32 45 64 46
REMARK SMILES IDX 44 47 63 48 45 49 48 50 62 51 81 52 46 53 47 54 61 56 82 57
REMARK SMILES IDX 49 58 33 59 34 60 42 61 35 62 36 63 40 64 43 65 37 66 38 67
REMARK SMILES IDX 41 68 39 69 65 70 66 71 74 72 67 73 68 74 72 75 75 76 69 77
REMARK SMILES IDX 70 78 73 79 71 80 50 81 51 82 59 83 52 84 53 85 57 86 60 87
REMARK SMILES IDX 54 88 55 89 58 90 56 91
REMARK H PARENT 17 5 10 9 21 25 80 44 48 55
REMARK Flexibility Score: inf
ROOT
ATOM      1  C   UNL A   1      31.642  30.667  25.926  1.00  0.00     0.118 C 
ENDROOT
BRANCH   1   2
ATOM      2  N   UNL A   1      30.789  30.401  24.786  1.00  0.00    -0.351 N 
ATOM      3  C   UNL A   1      30.861  29.368  23.894  1.00  0.00     0.278 C 
ATOM      4  O   UNL A   1      30.174  29.437  22.874  1.00  0.00    -0.268 OA
ATOM      5  H   UNL A   1      30.062  31.048  24.634  1.00  0.00     0.163 HD
BRANCH   3   6
ATOM      6  C   UNL A   1      31.746  28.148  24.247  1.00  0.00     0.274 C 
ATOM      7  N   UNL A   1      31.040  27.412  25.314  1.00  0.00    -0.321 N 
ATOM      8  C   UNL A   1      30.133  26.508  24.609  1.00  0.00     0.263 C 
ATOM      9  H   UNL A   1      30.528  28.069  25.903  1.00  0.00     0.349 HD
ATOM     10  C   UNL A   1      30.892  26.041  23.382  1.00  0.00     0.068 C 
ATOM     11  C   UNL A   1      31.856  27.177  23.068  1.00  0.00     0.081 C 
BRANCH   7  12
ATOM     12  C   UNL A   1      31.838  26.831  26.401  1.00  0.00     0.305 C 
BRANCH  12  13
ATOM     13  C   UNL A   1      32.698  25.629  26.109  1.00  0.00     0.068 A 
ATOM     14  C   UNL A   1      32.283  24.321  26.365  1.00  0.00     0.221 A 
ATOM     15  N   UNL A   1      33.012  23.221  26.067  1.00  0.00    -0.222 NA
ATOM     16  C   UNL A   1      34.235  23.426  25.533  1.00  0.00     0.115 A 
ATOM     17  C   UNL A   1      34.002  25.788  25.618  1.00  0.00     0.017 A 
ATOM     18  C   UNL A   1      34.784  24.678  25.324  1.00  0.00     0.021 A 
BRANCH  14  19
ATOM     19  O   UNL A   1      31.238  24.107  27.229  1.00  0.00    -0.481 OA
ATOM     20  C   UNL A   1      30.330  23.126  26.755  1.00  0.00     0.280 C 
ENDBRANCH  14  19
ENDBRANCH  12  13
ENDBRANCH   7  12
ENDBRANCH   3   6
ENDBRANCH   1   2
BRANCH   1  21
ATOM     21  C   UNL A   1      31.370  32.059  26.487  1.00  0.00     0.042 C 
BRANCH  21  22
ATOM     22  C   UNL A   1      32.573  32.674  27.199  1.00  0.00     0.118 C 
BRANCH  22  23
ATOM     23  N   UNL A   1      32.357  34.068  27.561  1.00  0.00    -0.352 N 
ATOM     24  C   UNL A   1      32.960  34.831  28.525  1.00  0.00     0.251 C 
ATOM     25  H   UNL A   1      31.670  34.534  27.032  1.00  0.00     0.163 HD
ATOM     26  O   UNL A   1      32.508  35.944  28.796  1.00  0.00    -0.269 OA
BRANCH  24  27
ATOM     27  C   UNL A   1      34.135  34.319  29.258  1.00  0.00     0.039 A 
ATOM     28  C   UNL A   1      33.929  33.618  30.449  1.00  0.00     0.014 A 
ATOM     29  C   UNL A   1      35.433  34.541  28.789  1.00  0.00     0.014 A 
ATOM     30  C   UNL A   1      35.019  33.084  31.135  1.00  0.00     0.010 A 
ATOM     31  C   UNL A   1      36.514  33.945  29.434  1.00  0.00     0.010 A 
ATOM     32  C   UNL A   1      36.318  33.210  30.613  1.00  0.00    -0.014 A 
BRANCH  32  33
ATOM     33  C   UNL A   1      37.474  32.564  31.282  1.00  0.00     0.031 A 
ATOM     34  C   UNL A   1      38.208  31.435  30.615  1.00  0.00     0.074 A 
ATOM     35  C   UNL A   1      37.828  32.961  32.520  1.00  0.00     0.049 A 
ATOM     36  N   UNL A   1      39.209  30.719  31.063  1.00  0.00    -0.248 NA
ATOM     37  C   UNL A   1      37.739  31.040  29.278  1.00  0.00     0.031 C 
ATOM     38  C   UNL A   1      37.164  34.014  33.290  1.00  0.00     0.029 A 
ATOM     39  N   UNL A   1      38.829  32.524  33.351  1.00  0.00    -0.354 N 
ATOM     40  C   UNL A   1      39.483  29.789  30.069  1.00  0.00     0.074 A 
ATOM     41  C   UNL A   1      38.508  29.991  29.019  1.00  0.00     0.031 C 
ATOM     42  C   UNL A   1      37.790  34.158  34.468  1.00  0.00     0.029 A 
ATOM     43  C   UNL A   1      38.873  33.184  34.554  1.00  0.00     0.049 A 
ATOM     44  H   UNL A   1      39.456  31.805  33.107  1.00  0.00     0.167 HD
ATOM     45  C   UNL A   1      40.473  28.865  30.026  1.00  0.00     0.037 A 
ATOM     46  C   UNL A   1      39.692  33.018  35.610  1.00  0.00     0.037 A 
ATOM     47  C   UNL A   1      41.452  28.678  31.066  1.00  0.00     0.049 A 
ATOM     48  C   UNL A   1      40.772  31.974  35.542  1.00  0.00     0.074 A 
ATOM     49  C   UNL A   1      42.528  27.808  31.092  1.00  0.00     0.029 A 
ATOM     50  N   UNL A   1      41.469  29.370  32.268  1.00  0.00    -0.354 N 
ATOM     51  N   UNL A   1      41.067  31.148  34.568  1.00  0.00    -0.248 NA
ATOM     52  C   UNL A   1      41.640  31.844  36.721  1.00  0.00     0.031 C 
ATOM     53  C   UNL A   1      43.165  27.936  32.331  1.00  0.00     0.029 A 
ATOM     54  C   UNL A   1      42.521  28.928  33.054  1.00  0.00     0.049 A 
ATOM     55  H   UNL A   1      40.828  30.072  32.525  1.00  0.00     0.167 HD
ATOM     56  C   UNL A   1      42.167  30.422  35.002  1.00  0.00     0.074 A 
ATOM     57  C   UNL A   1      42.499  30.917  36.322  1.00  0.00     0.031 C 
ATOM     58  C   UNL A   1      42.842  29.433  34.365  1.00  0.00     0.037 A 
BRANCH  45  59
ATOM     59  C   UNL A   1      40.550  27.985  28.811  1.00  0.00     0.064 A 
ATOM     60  C   UNL A   1      39.848  26.772  28.734  1.00  0.00     0.173 A 
ATOM     61  C   UNL A   1      41.301  28.378  27.692  1.00  0.00     0.173 A 
ATOM     62  F   UNL A   1      39.123  26.345  29.779  1.00  0.00    -0.203 F 
ATOM     63  C   UNL A   1      39.920  25.972  27.597  1.00  0.00     0.198 A 
ATOM     64  C   UNL A   1      41.345  27.590  26.545  1.00  0.00     0.198 A 
ATOM     65  F   UNL A   1      41.986  29.531  27.708  1.00  0.00    -0.203 F 
ATOM     66  F   UNL A   1      39.281  24.793  27.568  1.00  0.00    -0.200 F 
ATOM     67  C   UNL A   1      40.662  26.384  26.501  1.00  0.00     0.200 A 
ATOM     68  F   UNL A   1      42.050  27.999  25.481  1.00  0.00    -0.200 F 
ATOM     69  F   UNL A   1      40.723  25.617  25.404  1.00  0.00    -0.200 F 
ENDBRANCH  45  59
BRANCH  46  70
ATOM     70  C   UNL A   1      39.534  33.875  36.814  1.00  0.00     0.064 A 
ATOM     71  C   UNL A   1      40.162  35.127  36.893  1.00  0.00     0.173 A 
ATOM     72  C   UNL A   1      38.762  33.464  37.910  1.00  0.00     0.173 A 
ATOM     73  F   UNL A   1      40.927  35.557  35.879  1.00  0.00    -0.203 F 
ATOM     74  C   UNL A   1      40.041  35.922  38.031  1.00  0.00     0.198 A 
ATOM     75  C   UNL A   1      38.618  34.273  39.034  1.00  0.00     0.198 A 
ATOM     76  F   UNL A   1      38.136  32.278  37.883  1.00  0.00    -0.203 F 
ATOM     77  F   UNL A   1      40.691  37.092  38.098  1.00  0.00    -0.200 F 
ATOM     78  C   UNL A   1      39.265  35.498  39.097  1.00  0.00     0.200 A 
ATOM     79  F   UNL A   1      37.852  33.866  40.057  1.00  0.00    -0.200 F 
ATOM     80  F   UNL A   1      39.146  36.265  40.190  1.00  0.00    -0.200 F 
ENDBRANCH  46  70
BRANCH  58  81
ATOM     81  C   UNL A   1      44.027  28.843  35.074  1.00  0.00     0.064 A 
ATOM     82  C   UNL A   1      45.313  29.388  34.941  1.00  0.00     0.173 A 
ATOM     83  C   UNL A   1      43.868  27.735  35.921  1.00  0.00     0.173 A 
ATOM     84  F   UNL A   1      45.522  30.436  34.130  1.00  0.00    -0.203 F 
ATOM     85  C   UNL A   1      46.400  28.828  35.608  1.00  0.00     0.198 A 
ATOM     86  C   UNL A   1      44.950  27.200  36.612  1.00  0.00     0.198 A 
ATOM     87  F   UNL A   1      42.657  27.180  36.088  1.00  0.00    -0.203 F 
ATOM     88  F   UNL A   1      47.628  29.332  35.423  1.00  0.00    -0.200 F 
ATOM     89  C   UNL A   1      46.216  27.740  36.448  1.00  0.00     0.200 A 
ATOM     90  F   UNL A   1      44.769  26.158  37.435  1.00  0.00    -0.200 F 
ATOM     91  F   UNL A   1      47.262  27.207  37.094  1.00  0.00    -0.200 F 
ENDBRANCH  58  81
ENDBRANCH  32  33
ENDBRANCH  24  27
ENDBRANCH  22  23
ENDBRANCH  21  22
ENDBRANCH   1  21
TORSDOF 13
ENDMDL
MODEL 2
REMARK VINA RESULT:     -12.1      5.543     11.108
REMARK SMILES COc1ncccc1C[N@@H+]1CCC[C@H]1C(=O)NCCCNC(=O)c1ccc(-c2c3nc(c(-c4c(F)c(F)c(F)c(F)c4F)c4ccc([nH]4)c(-c4c(F)c(F)c(F)c(F)c4F)c4nc(c(-c5c(F)c(F)c(F)c(F)c5F)c5ccc2[nH]5)C=C4)C=C3)cc1
REMARK SMILES IDX 18 1 17 2 15 3 16 4 14 6 10 7 11 8 12 10 13 11 9 12 8 13
REMARK SMILES IDX 3 14 4 15 5 16 7 17 6 18 2 19 1 20 19 21 20 22 21 23 22 24
REMARK SMILES IDX 23 26 24 27 25 28 86 29 26 30 85 31 27 32 28 33 29 34 79 35
REMARK SMILES IDX 30 36 84 37 78 38 80 39 31 40 83 41 77 42 76 43 32 45 64 46
REMARK SMILES IDX 44 47 63 48 45 49 48 50 62 51 81 52 46 53 47 54 61 56 82 57
REMARK SMILES IDX 49 58 33 59 34 60 42 61 35 62 36 63 40 64 43 65 37 66 38 67
REMARK SMILES IDX 41 68 39 69 65 70 66 71 74 72 67 73 68 74 72 75 75 76 69 77
REMARK SMILES IDX 70 78 73 79 71 80 50 81 51 82 59 83 52 84 53 85 57 86 60 87
REMARK SMILES IDX 54 88 55 89 58 90 56 91
REMARK H PARENT 17 5 10 9 21 25 80 44 48 55
REMARK Flexibility Score: inf
ROOT
ATOM      1  C   UNL A   1      36.660  20.679  25.026  1.00  0.00     0.118 C 
ENDROOT
BRANCH   1   2
ATOM      2  N   UNL A   1      35.403  19.961  24.967  1.00  0.00    -0.351 N 
ATOM      3  C   UNL A   1      34.140  20.443  25.168  1.00  0.00     0.278 C 
ATOM      4  O   UNL A   1      33.223  19.629  25.280  1.00  0.00    -0.268 OA
ATOM      5  H   UNL A   1      35.467  19.003  24.754  1.00  0.00     0.163 HD
BRANCH   3   6
ATOM      6  C   UNL A   1      33.927  21.977  25.175  1.00  0.00     0.274 C 
ATOM      7  N   UNL A   1      34.171  22.441  23.796  1.00  0.00    -0.321 N 
ATOM      8  C   UNL A   1      32.883  22.298  23.119  1.00  0.00     0.263 C 
ATOM      9  H   UNL A   1      34.887  21.860  23.360  1.00  0.00     0.349 HD
ATOM     10  C   UNL A   1      31.836  22.675  24.149  1.00  0.00     0.068 C 
ATOM     11  C   UNL A   1      32.472  22.337  25.490  1.00  0.00     0.081 C 
BRANCH   7  12
ATOM     12  C   UNL A   1      34.879  23.714  23.607  1.00  0.00     0.305 C 
BRANCH  12  13
ATOM     13  C   UNL A   1      34.205  24.991  24.038  1.00  0.00     0.068 A 
ATOM     14  C   UNL A   1      33.549  25.838  23.144  1.00  0.00     0.221 A 
ATOM     15  N   UNL A   1      32.892  26.964  23.509  1.00  0.00    -0.222 NA
ATOM     16  C   UNL A   1      32.929  27.295  24.818  1.00  0.00     0.115 A 
ATOM     17  C   UNL A   1      34.271  25.416  25.373  1.00  0.00     0.017 A 
ATOM     18  C   UNL A   1      33.627  26.580  25.773  1.00  0.00     0.021 A 
BRANCH  14  19
ATOM     19  O   UNL A   1      33.812  25.730  21.802  1.00  0.00    -0.481 OA
ATOM     20  C   UNL A   1      32.632  25.705  21.015  1.00  0.00     0.280 C 
ENDBRANCH  14  19
ENDBRANCH  12  13
ENDBRANCH   7  12
ENDBRANCH   3   6
ENDBRANCH   1   2
BRANCH   1  21
ATOM     21  C   UNL A   1      37.836  19.708  24.986  1.00  0.00     0.042 C 
BRANCH  21  22
ATOM     22  C   UNL A   1      39.061  20.203  25.751  1.00  0.00     0.118 C 
BRANCH  22  23
ATOM     23  N   UNL A   1      40.091  19.182  25.880  1.00  0.00    -0.352 N 
ATOM     24  C   UNL A   1      41.438  19.311  26.088  1.00  0.00     0.251 C 
ATOM     25  H   UNL A   1      39.770  18.255  25.805  1.00  0.00     0.163 HD
ATOM     26  O   UNL A   1      42.170  18.326  25.988  1.00  0.00    -0.269 OA
BRANCH  24  27
ATOM     27  C   UNL A   1      42.022  20.628  26.410  1.00  0.00     0.039 A 
ATOM     28  C   UNL A   1      42.335  21.497  25.361  1.00  0.00     0.014 A 
ATOM     29  C   UNL A   1      42.279  21.003  27.732  1.00  0.00     0.014 A 
ATOM     30  C   UNL A   1      42.845  22.765  25.641  1.00  0.00     0.010 A 
ATOM     31  C   UNL A   1      42.717  22.295  28.014  1.00  0.00     0.010 A 
ATOM     32  C   UNL A   1      43.004  23.188  26.971  1.00  0.00    -0.014 A 
BRANCH  32  33
ATOM     33  C   UNL A   1      43.452  24.568  27.283  1.00  0.00     0.031 A 
ATOM     34  C   UNL A   1      42.486  25.578  27.835  1.00  0.00     0.074 A 
ATOM     35  C   UNL A   1      44.723  24.926  27.015  1.00  0.00     0.049 A 
ATOM     36  N   UNL A   1      42.682  26.840  28.125  1.00  0.00    -0.248 NA
ATOM     37  C   UNL A   1      41.108  25.116  28.070  1.00  0.00     0.031 C 
ATOM     38  C   UNL A   1      45.742  24.050  26.435  1.00  0.00     0.029 A 
ATOM     39  N   UNL A   1      45.374  26.122  27.190  1.00  0.00    -0.354 N 
ATOM     40  C   UNL A   1      41.457  27.321  28.566  1.00  0.00     0.074 A 
ATOM     41  C   UNL A   1      40.509  26.234  28.453  1.00  0.00     0.031 C 
ATOM     42  C   UNL A   1      46.894  24.729  26.326  1.00  0.00     0.029 A 
ATOM     43  C   UNL A   1      46.687  26.097  26.789  1.00  0.00     0.049 A 
ATOM     44  H   UNL A   1      44.940  26.922  27.565  1.00  0.00     0.167 HD
ATOM     45  C   UNL A   1      41.155  28.553  29.045  1.00  0.00     0.037 A 
ATOM     46  C   UNL A   1      47.618  27.070  26.790  1.00  0.00     0.037 A 
ATOM     47  C   UNL A   1      42.106  29.627  29.171  1.00  0.00     0.049 A 
ATOM     48  C   UNL A   1      47.252  28.432  27.312  1.00  0.00     0.074 A 
ATOM     49  C   UNL A   1      41.914  30.893  29.696  1.00  0.00     0.029 A 
ATOM     50  N   UNL A   1      43.430  29.563  28.762  1.00  0.00    -0.354 N 
ATOM     51  N   UNL A   1      46.109  28.856  27.794  1.00  0.00    -0.248 NA
ATOM     52  C   UNL A   1      48.311  29.452  27.296  1.00  0.00     0.031 C 
ATOM     53  C   UNL A   1      43.105  31.612  29.557  1.00  0.00     0.029 A 
ATOM     54  C   UNL A   1      44.058  30.775  28.997  1.00  0.00     0.049 A 
ATOM     55  H   UNL A   1      43.860  28.772  28.362  1.00  0.00     0.167 HD
ATOM     56  C   UNL A   1      46.317  30.177  28.164  1.00  0.00     0.074 A 
ATOM     57  C   UNL A   1      47.701  30.481  27.866  1.00  0.00     0.031 C 
ATOM     58  C   UNL A   1      45.439  31.061  28.700  1.00  0.00     0.037 A 
BRANCH  45  59
ATOM     59  C   UNL A   1      39.737  28.805  29.471  1.00  0.00     0.064 A 
ATOM     60  C   UNL A   1      39.309  28.563  30.786  1.00  0.00     0.173 A 
ATOM     61  C   UNL A   1      38.804  29.333  28.566  1.00  0.00     0.173 A 
ATOM     62  F   UNL A   1      40.159  28.049  31.688  1.00  0.00    -0.203 F 
ATOM     63  C   UNL A   1      37.995  28.811  31.170  1.00  0.00     0.198 A 
ATOM     64  C   UNL A   1      37.498  29.610  28.963  1.00  0.00     0.198 A 
ATOM     65  F   UNL A   1      39.160  29.590  27.299  1.00  0.00    -0.203 F 
ATOM     66  F   UNL A   1      37.597  28.524  32.418  1.00  0.00    -0.200 F 
ATOM     67  C   UNL A   1      37.092  29.341  30.261  1.00  0.00     0.200 A 
ATOM     68  F   UNL A   1      36.631  30.137  28.086  1.00  0.00    -0.200 F 
ATOM     69  F   UNL A   1      35.829  29.588  30.635  1.00  0.00    -0.200 F 
ENDBRANCH  45  59
BRANCH  46  70
ATOM     70  C   UNL A   1      48.991  26.785  26.300  1.00  0.00     0.064 A 
ATOM     71  C   UNL A   1      49.341  27.015  24.961  1.00  0.00     0.173 A 
ATOM     72  C   UNL A   1      49.980  26.271  27.152  1.00  0.00     0.173 A 
ATOM     73  F   UNL A   1      48.425  27.487  24.103  1.00  0.00    -0.203 F 
ATOM     74  C   UNL A   1      50.619  26.722  24.490  1.00  0.00     0.198 A 
ATOM     75  C   UNL A   1      51.266  26.007  26.686  1.00  0.00     0.198 A 
ATOM     76  F   UNL A   1      49.700  26.038  28.442  1.00  0.00    -0.203 F 
ATOM     77  F   UNL A   1      50.910  26.906  23.195  1.00  0.00    -0.200 F 
ATOM     78  C   UNL A   1      51.582  26.224  25.353  1.00  0.00     0.200 A 
ATOM     79  F   UNL A   1      52.199  25.542  27.529  1.00  0.00    -0.200 F 
ATOM     80  F   UNL A   1      52.812  25.946  24.900  1.00  0.00    -0.200 F 
ENDBRANCH  46  70
BRANCH  58  81
ATOM     81  C   UNL A   1      45.959  32.431  29.032  1.00  0.00     0.064 A 
ATOM     82  C   UNL A   1      46.552  32.715  30.271  1.00  0.00     0.173 A 
ATOM     83  C   UNL A   1      45.890  33.464  28.084  1.00  0.00     0.173 A 
ATOM     84  F   UNL A   1      46.627  31.767  31.217  1.00  0.00    -0.203 F 
ATOM     85  C   UNL A   1      47.030  33.991  30.559  1.00  0.00     0.198 A 
ATOM     86  C   UNL A   1      46.399  34.728  28.364  1.00  0.00     0.198 A 
ATOM     87  F   UNL A   1      45.338  33.243  26.881  1.00  0.00    -0.203 F 
ATOM     88  F   UNL A   1      47.543  34.254  31.769  1.00  0.00    -0.200 F 
ATOM     89  C   UNL A   1      46.960  34.994  29.603  1.00  0.00     0.200 A 
ATOM     90  F   UNL A   1      46.344  35.692  27.434  1.00  0.00    -0.200 F 
ATOM     91  F   UNL A   1      47.427  36.219  29.881  1.00  0.00    -0.200 F 
ENDBRANCH  58  81
ENDBRANCH  32  33
ENDBRANCH  24  27
ENDBRANCH  22  23
ENDBRANCH  21  22
ENDBRANCH   1  21
TORSDOF 13
ENDMDL
MODEL 3
REMARK VINA RESULT:     -11.9      0.671      7.635
REMARK SMILES COc1ncccc1C[N@@H+]1CCC[C@H]1C(=O)NCCCNC(=O)c1ccc(-c2c3nc(c(-c4c(F)c(F)c(F)c(F)c4F)c4ccc([nH]4)c(-c4c(F)c(F)c(F)c(F)c4F)c4nc(c(-c5c(F)c(F)c(F)c(F)c5F)c5ccc2[nH]5)C=C4)C=C3)cc1
REMARK SMILES IDX 18 1 17 2 15 3 16 4 14 6 10 7 11 8 12 10 13 11 9 12 8 13
REMARK SMILES IDX 3 14 4 15 5 16 7 17 6 18 2 19 1 20 19 21 20 22 21 23 22 24
REMARK SMILES IDX 23 26 24 27 25 28 86 29 26 30 85 31 27 32 28 33 29 34 79 35
REMARK SMILES IDX 30 36 84 37 78 38 80 39 31 40 83 41 77 42 76 43 32 45 64 46
REMARK SMILES IDX 44 47 63 48 45 49 48 50 62 51 81 52 46 53 47 54 61 56 82 57
REMARK SMILES IDX 49 58 33 59 34 60 42 61 35 62 36 63 40 64 43 65 37 66 38 67
REMARK SMILES IDX 41 68 39 69 65 70 66 71 74 72 67 73 68 74 72 75 75 76 69 77
REMARK SMILES IDX 70 78 73 79 71 80 50 81 51 82 59 83 52 84 53 85 57 86 60 87
REMARK SMILES IDX 54 88 55 89 58 90 56 91
REMARK H PARENT 17 5 10 9 21 25 80 44 48 55
REMARK Flexibility Score: inf
ROOT
ATOM      1  C   UNL A   1      31.600  30.526  25.957  1.00  0.00     0.118 C 
ENDROOT
BRANCH   1   2
ATOM      2  N   UNL A   1      30.810  30.311  24.762  1.00  0.00    -0.351 N 
ATOM      3  C   UNL A   1      30.933  29.320  23.828  1.00  0.00     0.278 C 
ATOM      4  O   UNL A   1      30.302  29.436  22.778  1.00  0.00    -0.268 OA
ATOM      5  H   UNL A   1      30.091  30.964  24.602  1.00  0.00     0.163 HD
BRANCH   3   6
ATOM      6  C   UNL A   1      31.803  28.086  24.173  1.00  0.00     0.274 C 
ATOM      7  N   UNL A   1      31.065  27.328  25.201  1.00  0.00    -0.321 N 
ATOM      8  C   UNL A   1      30.171  26.448  24.450  1.00  0.00     0.263 C 
ATOM      9  H   UNL A   1      30.541  27.972  25.794  1.00  0.00     0.349 HD
ATOM     10  C   UNL A   1      30.959  26.008  23.231  1.00  0.00     0.068 C 
ATOM     11  C   UNL A   1      31.937  27.146  22.971  1.00  0.00     0.081 C 
BRANCH   7  12
ATOM     12  C   UNL A   1      31.831  26.713  26.293  1.00  0.00     0.305 C 
BRANCH  12  13
ATOM     13  C   UNL A   1      32.630  25.468  26.009  1.00  0.00     0.068 A 
ATOM     14  C   UNL A   1      32.176  24.188  26.331  1.00  0.00     0.221 A 
ATOM     15  N   UNL A   1      32.848  23.050  26.042  1.00  0.00    -0.222 NA
ATOM     16  C   UNL A   1      34.054  23.186  25.450  1.00  0.00     0.115 A 
ATOM     17  C   UNL A   1      33.917  25.557  25.458  1.00  0.00     0.017 A 
ATOM     18  C   UNL A   1      34.641  24.406  25.172  1.00  0.00     0.021 A 
BRANCH  14  19
ATOM     19  O   UNL A   1      31.162  24.047  27.245  1.00  0.00    -0.481 OA
ATOM     20  C   UNL A   1      30.230  23.044  26.875  1.00  0.00     0.280 C 
ENDBRANCH  14  19
ENDBRANCH  12  13
ENDBRANCH   7  12
ENDBRANCH   3   6
ENDBRANCH   1   2
BRANCH   1  21
ATOM     21  C   UNL A   1      31.403  31.943  26.485  1.00  0.00     0.042 C 
BRANCH  21  22
ATOM     22  C   UNL A   1      32.670  32.552  27.082  1.00  0.00     0.118 C 
BRANCH  22  23
ATOM     23  N   UNL A   1      32.460  33.905  27.579  1.00  0.00    -0.352 N 
ATOM     24  C   UNL A   1      33.074  34.571  28.605  1.00  0.00     0.251 C 
ATOM     25  H   UNL A   1      31.770  34.420  27.103  1.00  0.00     0.163 HD
ATOM     26  O   UNL A   1      32.627  35.654  28.986  1.00  0.00    -0.269 OA
BRANCH  24  27
ATOM     27  C   UNL A   1      34.254  33.989  29.275  1.00  0.00     0.039 A 
ATOM     28  C   UNL A   1      34.072  33.307  30.481  1.00  0.00     0.014 A 
ATOM     29  C   UNL A   1      35.535  34.128  28.734  1.00  0.00     0.014 A 
ATOM     30  C   UNL A   1      35.163  32.708  31.109  1.00  0.00     0.010 A 
ATOM     31  C   UNL A   1      36.611  33.467  29.322  1.00  0.00     0.010 A 
ATOM     32  C   UNL A   1      36.436  32.751  30.515  1.00  0.00    -0.014 A 
BRANCH  32  33
ATOM     33  C   UNL A   1      37.585  32.035  31.124  1.00  0.00     0.031 A 
ATOM     34  C   UNL A   1      38.055  32.385  32.507  1.00  0.00     0.074 A 
ATOM     35  C   UNL A   1      38.241  31.106  30.403  1.00  0.00     0.049 A 
ATOM     36  N   UNL A   1      39.067  31.904  33.185  1.00  0.00    -0.248 NA
ATOM     37  C   UNL A   1      37.304  33.434  33.216  1.00  0.00     0.031 C 
ATOM     38  C   UNL A   1      37.910  30.712  29.032  1.00  0.00     0.029 A 
ATOM     39  N   UNL A   1      39.326  30.326  30.718  1.00  0.00    -0.354 N 
ATOM     40  C   UNL A   1      39.078  32.593  34.390  1.00  0.00     0.074 A 
ATOM     41  C   UNL A   1      38.009  33.566  34.330  1.00  0.00     0.031 C 
ATOM     42  C   UNL A   1      38.756  29.749  28.635  1.00  0.00     0.029 A 
ATOM     43  C   UNL A   1      39.713  29.485  29.705  1.00  0.00     0.049 A 
ATOM     44  H   UNL A   1      39.784  30.368  31.589  1.00  0.00     0.167 HD
ATOM     45  C   UNL A   1      39.892  32.414  35.458  1.00  0.00     0.037 A 
ATOM     46  C   UNL A   1      40.729  28.603  29.643  1.00  0.00     0.037 A 
ATOM     47  C   UNL A   1      40.943  31.432  35.519  1.00  0.00     0.049 A 
ATOM     48  C   UNL A   1      41.627  28.435  30.838  1.00  0.00     0.074 A 
ATOM     49  C   UNL A   1      41.786  31.134  36.577  1.00  0.00     0.029 A 
ATOM     50  N   UNL A   1      41.302  30.592  34.475  1.00  0.00    -0.354 N 
ATOM     51  N   UNL A   1      41.583  29.043  31.999  1.00  0.00    -0.248 NA
ATOM     52  C   UNL A   1      42.713  27.454  30.715  1.00  0.00     0.031 C 
ATOM     53  C   UNL A   1      42.687  30.151  36.155  1.00  0.00     0.029 A 
ATOM     54  C   UNL A   1      42.370  29.794  34.854  1.00  0.00     0.049 A 
ATOM     55  H   UNL A   1      40.862  30.566  33.595  1.00  0.00     0.167 HD
ATOM     56  C   UNL A   1      42.613  28.498  32.753  1.00  0.00     0.074 A 
ATOM     57  C   UNL A   1      43.255  27.499  31.924  1.00  0.00     0.031 C 
ATOM     58  C   UNL A   1      42.995  28.800  34.019  1.00  0.00     0.037 A 
BRANCH  45  59
ATOM     59  C   UNL A   1      39.674  33.297  36.653  1.00  0.00     0.064 A 
ATOM     60  C   UNL A   1      40.383  34.497  36.822  1.00  0.00     0.173 A 
ATOM     61  C   UNL A   1      38.715  32.963  37.622  1.00  0.00     0.173 A 
ATOM     62  F   UNL A   1      41.318  34.859  35.930  1.00  0.00    -0.203 F 
ATOM     63  C   UNL A   1      40.163  35.312  37.929  1.00  0.00     0.198 A 
ATOM     64  C   UNL A   1      38.475  33.797  38.711  1.00  0.00     0.198 A 
ATOM     65  F   UNL A   1      38.003  31.832  37.508  1.00  0.00    -0.203 F 
ATOM     66  F   UNL A   1      40.889  36.426  38.094  1.00  0.00    -0.200 F 
ATOM     67  C   UNL A   1      39.204  34.965  38.869  1.00  0.00     0.200 A 
ATOM     68  F   UNL A   1      37.537  33.468  39.610  1.00  0.00    -0.200 F 
ATOM     69  F   UNL A   1      38.987  35.755  39.930  1.00  0.00    -0.200 F 
ENDBRANCH  45  59
BRANCH  46  70
ATOM     70  C   UNL A   1      40.938  27.796  28.413  1.00  0.00     0.064 A 
ATOM     71  C   UNL A   1      40.325  26.543  28.262  1.00  0.00     0.173 A 
ATOM     72  C   UNL A   1      41.755  28.251  27.368  1.00  0.00     0.173 A 
ATOM     73  F   UNL A   1      39.550  26.055  29.241  1.00  0.00    -0.203 F 
ATOM     74  C   UNL A   1      40.540  25.769  27.123  1.00  0.00     0.198 A 
ATOM     75  C   UNL A   1      41.944  27.490  26.217  1.00  0.00     0.198 A 
ATOM     76  F   UNL A   1      42.359  29.445  27.459  1.00  0.00    -0.203 F 
ATOM     77  F   UNL A   1      39.981  24.555  27.027  1.00  0.00    -0.200 F 
ATOM     78  C   UNL A   1      41.344  26.245  26.100  1.00  0.00     0.200 A 
ATOM     79  F   UNL A   1      42.709  27.962  25.222  1.00  0.00    -0.200 F 
ATOM     80  F   UNL A   1      41.548  25.502  25.003  1.00  0.00    -0.200 F 
ENDBRANCH  46  70
BRANCH  58  81
ATOM     81  C   UNL A   1      44.139  28.018  34.597  1.00  0.00     0.064 A 
ATOM     82  C   UNL A   1      43.940  26.792  35.249  1.00  0.00     0.173 A 
ATOM     83  C   UNL A   1      45.456  28.486  34.468  1.00  0.00     0.173 A 
ATOM     84  F   UNL A   1      42.699  26.308  35.414  1.00  0.00    -0.203 F 
ATOM     85  C   UNL A   1      45.014  26.079  35.777  1.00  0.00     0.198 A 
ATOM     86  C   UNL A   1      46.529  27.754  34.967  1.00  0.00     0.198 A 
ATOM     87  F   UNL A   1      45.702  29.650  33.846  1.00  0.00    -0.203 F 
ATOM     88  F   UNL A   1      44.794  24.937  36.444  1.00  0.00    -0.200 F 
ATOM     89  C   UNL A   1      46.308  26.557  35.629  1.00  0.00     0.200 A 
ATOM     90  F   UNL A   1      47.780  28.210  34.810  1.00  0.00    -0.200 F 
ATOM     91  F   UNL A   1      47.339  25.866  36.131  1.00  0.00    -0.200 F 
ENDBRANCH  58  81
ENDBRANCH  32  33
ENDBRANCH  24  27
ENDBRANCH  22  23
ENDBRANCH  21  22
ENDBRANCH   1  21
TORSDOF 13
ENDMDL
