MODEL 1
REMARK VINA RESULT:     -11.1      0.000      0.000
REMARK SMILES CC(C)[NH2+][C@]1(C(=O)NCCCNC(=O)c2ccc(-c3c4nc(c(-c5c(F)c(F)c(F)c(F)c5F)c5ccc([nH]5)c(-c5c(F)c(F)c(F)c(F)c5F)c5nc(c(-c6c(F)c(F)c(F)c(F)c6F)c6ccc3[nH]6)C=C5)C=C4)cc2)CC[C@@H]([N@@H+](C)[C@@H](C)C(C)C)C1
REMARK SMILES IDX 9 1 8 2 6 3 7 4 5 6 78 7 88 8 79 9 80 10 4 11 2 14 1 15 3 16
REMARK SMILES IDX 81 17 82 18 83 20 84 21 85 22 86 23 87 24 10 25 11 26 12 27
REMARK SMILES IDX 13 28 14 30 15 31 16 32 77 33 17 34 76 35 18 36 19 37 20 38
REMARK SMILES IDX 70 39 21 40 75 41 69 42 71 43 22 44 74 45 68 46 67 47 23 49
REMARK SMILES IDX 55 50 35 51 54 52 36 53 39 54 53 55 72 56 37 57 38 58 52 60
REMARK SMILES IDX 73 61 40 62 24 63 25 64 33 65 26 66 27 67 31 68 34 69 28 70
REMARK SMILES IDX 29 71 32 72 30 73 56 74 57 75 65 76 58 77 59 78 63 79 66 80
REMARK SMILES IDX 60 81 61 82 64 83 62 84 41 85 42 86 50 87 43 88 44 89 48 90
REMARK SMILES IDX 51 91 45 92 46 93 49 94 47 95
REMARK H PARENT 8 5 4 12 4 13 81 19 12 29 71 48 39 59
REMARK Flexibility Score: inf
ROOT
ATOM      1  C   UNL A   1      31.594  27.718  26.573  1.00  0.00     0.118 C 
ENDROOT
BRANCH   1   2
ATOM      2  N   UNL A   1      31.214  26.341  26.878  1.00  0.00    -0.351 N 
ATOM      3  C   UNL A   1      31.589  25.101  26.450  1.00  0.00     0.281 C 
ATOM      4  O   UNL A   1      31.115  24.168  27.115  1.00  0.00    -0.268 OA
ATOM      5  H   UNL A   1      30.509  26.296  27.564  1.00  0.00     0.163 HD
BRANCH   3   6
ATOM      6  C   UNL A   1      32.448  24.807  25.179  1.00  0.00     0.181 C 
ATOM      7  C   UNL A   1      33.846  25.429  25.216  1.00  0.00     0.085 C 
ATOM      8  C   UNL A   1      32.766  23.269  25.125  1.00  0.00     0.144 C 
ATOM      9  C   UNL A   1      34.809  24.459  24.565  1.00  0.00     0.072 C 
ATOM     10  C   UNL A   1      34.282  23.072  24.931  1.00  0.00     0.191 C 
BRANCH   6  11
ATOM     11  N   UNL A   1      31.735  25.122  23.902  1.00  0.00    -0.331 N 
ATOM     12  H   UNL A   1      31.906  24.343  23.265  1.00  0.00     0.347 HD
ATOM     13  H   UNL A   1      30.769  25.272  24.194  1.00  0.00     0.347 HD
BRANCH  11  14
ATOM     14  C   UNL A   1      32.074  26.349  23.178  1.00  0.00     0.176 C 
ATOM     15  C   UNL A   1      32.544  25.934  21.779  1.00  0.00     0.075 C 
ATOM     16  C   UNL A   1      30.886  27.306  23.017  1.00  0.00     0.075 C 
ENDBRANCH  11  14
ENDBRANCH   6  11
BRANCH  10  17
ATOM     17  N   UNL A   1      35.023  22.248  25.907  1.00  0.00    -0.332 N 
ATOM     18  C   UNL A   1      34.286  22.149  27.177  1.00  0.00     0.333 C 
ATOM     19  H   UNL A   1      35.864  22.823  25.932  1.00  0.00     0.348 HD
BRANCH  17  20
ATOM     20  C   UNL A   1      35.714  20.975  25.583  1.00  0.00     0.183 C 
ATOM     21  C   UNL A   1      34.853  19.938  24.849  1.00  0.00     0.075 C 
BRANCH  20  22
ATOM     22  C   UNL A   1      37.133  21.129  24.953  1.00  0.00     0.041 C 
ATOM     23  C   UNL A   1      38.036  22.026  25.816  1.00  0.00     0.013 C 
ATOM     24  C   UNL A   1      37.859  19.795  24.736  1.00  0.00     0.013 C 
ENDBRANCH  20  22
ENDBRANCH  17  20
ENDBRANCH  10  17
ENDBRANCH   3   6
ENDBRANCH   1   2
BRANCH   1  25
ATOM     25  C   UNL A   1      32.939  28.160  27.141  1.00  0.00     0.042 C 
BRANCH  25  26
ATOM     26  C   UNL A   1      33.726  29.084  26.223  1.00  0.00     0.118 C 
BRANCH  26  27
ATOM     27  N   UNL A   1      33.775  30.442  26.745  1.00  0.00    -0.352 N 
ATOM     28  C   UNL A   1      34.613  31.005  27.674  1.00  0.00     0.251 C 
ATOM     29  H   UNL A   1      33.099  31.053  26.373  1.00  0.00     0.163 HD
ATOM     30  O   UNL A   1      34.311  32.084  28.176  1.00  0.00    -0.269 OA
BRANCH  28  31
ATOM     31  C   UNL A   1      35.878  30.345  28.075  1.00  0.00     0.039 A 
ATOM     32  C   UNL A   1      35.955  29.755  29.342  1.00  0.00     0.014 A 
ATOM     33  C   UNL A   1      37.018  30.393  27.266  1.00  0.00     0.014 A 
ATOM     34  C   UNL A   1      37.161  29.207  29.789  1.00  0.00     0.010 A 
ATOM     35  C   UNL A   1      38.198  29.778  27.681  1.00  0.00     0.010 A 
ATOM     36  C   UNL A   1      38.293  29.210  28.960  1.00  0.00    -0.014 A 
BRANCH  36  37
ATOM     37  C   UNL A   1      39.604  28.707  29.445  1.00  0.00     0.031 A 
ATOM     38  C   UNL A   1      40.373  29.495  30.473  1.00  0.00     0.074 A 
ATOM     39  C   UNL A   1      40.124  27.572  28.943  1.00  0.00     0.049 A 
ATOM     40  N   UNL A   1      41.561  29.271  30.976  1.00  0.00    -0.248 NA
ATOM     41  C   UNL A   1      39.730  30.717  30.983  1.00  0.00     0.031 C 
ATOM     42  C   UNL A   1      39.500  26.735  27.919  1.00  0.00     0.029 A 
ATOM     43  N   UNL A   1      41.304  26.929  29.225  1.00  0.00    -0.354 N 
ATOM     44  C   UNL A   1      41.817  30.333  31.832  1.00  0.00     0.074 A 
ATOM     45  C   UNL A   1      40.683  31.227  31.750  1.00  0.00     0.031 C 
ATOM     46  C   UNL A   1      40.292  25.678  27.672  1.00  0.00     0.029 A 
ATOM     47  C   UNL A   1      41.491  25.777  28.501  1.00  0.00     0.049 A 
ATOM     48  H   UNL A   1      41.956  27.264  29.883  1.00  0.00     0.167 HD
ATOM     49  C   UNL A   1      42.890  30.538  32.634  1.00  0.00     0.037 A 
ATOM     50  C   UNL A   1      42.512  24.900  28.511  1.00  0.00     0.037 A 
ATOM     51  C   UNL A   1      43.996  29.627  32.754  1.00  0.00     0.049 A 
ATOM     52  C   UNL A   1      43.671  25.125  29.443  1.00  0.00     0.074 A 
ATOM     53  C   UNL A   1      45.110  29.721  33.572  1.00  0.00     0.029 A 
ATOM     54  N   UNL A   1      44.121  28.443  32.043  1.00  0.00    -0.354 N 
ATOM     55  N   UNL A   1      43.881  26.112  30.279  1.00  0.00    -0.248 NA
ATOM     56  C   UNL A   1      44.729  24.105  29.442  1.00  0.00     0.031 C 
ATOM     57  C   UNL A   1      45.919  28.604  33.339  1.00  0.00     0.029 A 
ATOM     58  C   UNL A   1      45.291  27.797  32.403  1.00  0.00     0.049 A 
ATOM     59  H   UNL A   1      43.473  28.111  31.380  1.00  0.00     0.167 HD
ATOM     60  C   UNL A   1      45.072  25.817  30.928  1.00  0.00     0.074 A 
ATOM     61  C   UNL A   1      45.538  24.554  30.393  1.00  0.00     0.031 C 
ATOM     62  C   UNL A   1      45.724  26.528  31.880  1.00  0.00     0.037 A 
BRANCH  49  63
ATOM     63  C   UNL A   1      42.912  31.797  33.452  1.00  0.00     0.064 A 
ATOM     64  C   UNL A   1      43.495  32.977  32.966  1.00  0.00     0.173 A 
ATOM     65  C   UNL A   1      42.324  31.829  34.725  1.00  0.00     0.173 A 
ATOM     66  F   UNL A   1      44.082  32.993  31.761  1.00  0.00    -0.203 F 
ATOM     67  C   UNL A   1      43.516  34.136  33.739  1.00  0.00     0.198 A 
ATOM     68  C   UNL A   1      42.322  32.997  35.483  1.00  0.00     0.198 A 
ATOM     69  F   UNL A   1      41.748  30.729  35.234  1.00  0.00    -0.203 F 
ATOM     70  F   UNL A   1      44.123  35.236  33.275  1.00  0.00    -0.200 F 
ATOM     71  C   UNL A   1      42.925  34.146  34.993  1.00  0.00     0.200 A 
ATOM     72  F   UNL A   1      41.740  33.011  36.690  1.00  0.00    -0.200 F 
ATOM     73  F   UNL A   1      42.943  35.263  35.734  1.00  0.00    -0.200 F 
ENDBRANCH  49  63
BRANCH  50  74
ATOM     74  C   UNL A   1      42.462  23.699  27.640  1.00  0.00     0.064 A 
ATOM     75  C   UNL A   1      41.964  22.482  28.127  1.00  0.00     0.173 A 
ATOM     76  C   UNL A   1      42.911  23.738  26.313  1.00  0.00     0.173 A 
ATOM     77  F   UNL A   1      41.544  22.392  29.397  1.00  0.00    -0.203 F 
ATOM     78  C   UNL A   1      41.934  21.344  27.324  1.00  0.00     0.198 A 
ATOM     79  C   UNL A   1      42.857  22.605  25.503  1.00  0.00     0.198 A 
ATOM     80  F   UNL A   1      43.391  24.880  25.799  1.00  0.00    -0.203 F 
ATOM     81  F   UNL A   1      41.491  20.183  27.828  1.00  0.00    -0.200 F 
ATOM     82  C   UNL A   1      42.376  21.408  26.012  1.00  0.00     0.200 A 
ATOM     83  F   UNL A   1      43.274  22.672  24.232  1.00  0.00    -0.200 F 
ATOM     84  F   UNL A   1      42.345  20.313  25.239  1.00  0.00    -0.200 F 
ENDBRANCH  50  74
BRANCH  62  85
ATOM     85  C   UNL A   1      46.978  25.933  32.444  1.00  0.00     0.064 A 
ATOM     86  C   UNL A   1      48.238  26.212  31.896  1.00  0.00     0.173 A 
ATOM     87  C   UNL A   1      46.920  25.100  33.573  1.00  0.00     0.173 A 
ATOM     88  F   UNL A   1      48.343  26.990  30.809  1.00  0.00    -0.203 F 
ATOM     89  C   UNL A   1      49.394  25.661  32.444  1.00  0.00     0.198 A 
ATOM     90  C   UNL A   1      48.079  24.570  34.132  1.00  0.00     0.198 A 
ATOM     91  F   UNL A   1      45.738  24.809  34.136  1.00  0.00    -0.203 F 
ATOM     92  F   UNL A   1      50.584  25.906  31.878  1.00  0.00    -0.200 F 
ATOM     93  C   UNL A   1      49.314  24.846  33.563  1.00  0.00     0.200 A 
ATOM     94  F   UNL A   1      48.001  23.792  35.219  1.00  0.00    -0.200 F 
ATOM     95  F   UNL A   1      50.427  24.318  34.091  1.00  0.00    -0.200 F 
ENDBRANCH  62  85
ENDBRANCH  36  37
ENDBRANCH  28  31
ENDBRANCH  26  27
ENDBRANCH  25  26
ENDBRANCH   1  25
TORSDOF 15
ENDMDL
MODEL 2
REMARK VINA RESULT:     -11.1      3.346      8.709
REMARK SMILES CC(C)[NH2+][C@]1(C(=O)NCCCNC(=O)c2ccc(-c3c4nc(c(-c5c(F)c(F)c(F)c(F)c5F)c5ccc([nH]5)c(-c5c(F)c(F)c(F)c(F)c5F)c5nc(c(-c6c(F)c(F)c(F)c(F)c6F)c6ccc3[nH]6)C=C5)C=C4)cc2)CC[C@@H]([N@@H+](C)[C@@H](C)C(C)C)C1
REMARK SMILES IDX 9 1 8 2 6 3 7 4 5 6 78 7 88 8 79 9 80 10 4 11 2 14 1 15 3 16
REMARK SMILES IDX 81 17 82 18 83 20 84 21 85 22 86 23 87 24 10 25 11 26 12 27
REMARK SMILES IDX 13 28 14 30 15 31 16 32 77 33 17 34 76 35 18 36 19 37 20 38
REMARK SMILES IDX 70 39 21 40 75 41 69 42 71 43 22 44 74 45 68 46 67 47 23 49
REMARK SMILES IDX 55 50 35 51 54 52 36 53 39 54 53 55 72 56 37 57 38 58 52 60
REMARK SMILES IDX 73 61 40 62 24 63 25 64 33 65 26 66 27 67 31 68 34 69 28 70
REMARK SMILES IDX 29 71 32 72 30 73 56 74 57 75 65 76 58 77 59 78 63 79 66 80
REMARK SMILES IDX 60 81 61 82 64 83 62 84 41 85 42 86 50 87 43 88 44 89 48 90
REMARK SMILES IDX 51 91 45 92 46 93 49 94 47 95
REMARK H PARENT 8 5 4 12 4 13 81 19 12 29 71 48 39 59
REMARK Flexibility Score: inf
ROOT
ATOM      1  C   UNL A   1      31.401  30.505  26.386  1.00  0.00     0.118 C 
ENDROOT
BRANCH   1   2
ATOM      2  N   UNL A   1      32.500  29.917  25.625  1.00  0.00    -0.351 N 
ATOM      3  C   UNL A   1      32.639  29.301  24.415  1.00  0.00     0.281 C 
ATOM      4  O   UNL A   1      33.815  29.102  24.076  1.00  0.00    -0.268 OA
ATOM      5  H   UNL A   1      33.357  29.980  26.106  1.00  0.00     0.163 HD
BRANCH   3   6
ATOM      6  C   UNL A   1      31.463  28.770  23.533  1.00  0.00     0.181 C 
ATOM      7  C   UNL A   1      31.900  27.802  22.432  1.00  0.00     0.085 C 
ATOM      8  C   UNL A   1      30.530  27.870  24.421  1.00  0.00     0.144 C 
ATOM      9  C   UNL A   1      30.835  26.735  22.294  1.00  0.00     0.072 C 
ATOM     10  C   UNL A   1      30.304  26.522  23.712  1.00  0.00     0.191 C 
BRANCH   6  11
ATOM     11  N   UNL A   1      30.591  29.862  22.998  1.00  0.00    -0.331 N 
ATOM     12  H   UNL A   1      31.030  30.747  23.253  1.00  0.00     0.347 HD
ATOM     13  H   UNL A   1      30.526  29.653  22.001  1.00  0.00     0.347 HD
BRANCH  11  14
ATOM     14  C   UNL A   1      29.194  29.936  23.430  1.00  0.00     0.176 C 
ATOM     15  C   UNL A   1      28.907  31.399  23.785  1.00  0.00     0.075 C 
ATOM     16  C   UNL A   1      28.199  29.507  22.343  1.00  0.00     0.075 C 
ENDBRANCH  11  14
ENDBRANCH   6  11
BRANCH  10  17
ATOM     17  N   UNL A   1      30.636  25.275  24.431  1.00  0.00    -0.332 N 
ATOM     18  C   UNL A   1      30.696  24.135  23.504  1.00  0.00     0.333 C 
ATOM     19  H   UNL A   1      29.834  25.286  25.061  1.00  0.00     0.348 HD
BRANCH  17  20
ATOM     20  C   UNL A   1      31.666  25.163  25.493  1.00  0.00     0.183 C 
ATOM     21  C   UNL A   1      31.346  24.155  26.605  1.00  0.00     0.075 C 
BRANCH  20  22
ATOM     22  C   UNL A   1      33.137  25.047  24.985  1.00  0.00     0.041 C 
ATOM     23  C   UNL A   1      34.028  26.146  25.586  1.00  0.00     0.013 C 
ATOM     24  C   UNL A   1      33.788  23.691  25.289  1.00  0.00     0.013 C 
ENDBRANCH  20  22
ENDBRANCH  17  20
ENDBRANCH  10  17
ENDBRANCH   3   6
ENDBRANCH   1   2
BRANCH   1  25
ATOM     25  C   UNL A   1      31.437  32.025  26.507  1.00  0.00     0.042 C 
BRANCH  25  26
ATOM     26  C   UNL A   1      32.656  32.560  27.246  1.00  0.00     0.118 C 
BRANCH  26  27
ATOM     27  N   UNL A   1      32.526  33.980  27.534  1.00  0.00    -0.352 N 
ATOM     28  C   UNL A   1      33.081  34.736  28.536  1.00  0.00     0.251 C 
ATOM     29  H   UNL A   1      31.948  34.478  26.911  1.00  0.00     0.163 HD
ATOM     30  O   UNL A   1      32.626  35.853  28.764  1.00  0.00    -0.269 OA
BRANCH  28  31
ATOM     31  C   UNL A   1      34.222  34.237  29.339  1.00  0.00     0.039 A 
ATOM     32  C   UNL A   1      35.521  34.436  28.857  1.00  0.00     0.014 A 
ATOM     33  C   UNL A   1      34.026  33.486  30.502  1.00  0.00     0.014 A 
ATOM     34  C   UNL A   1      36.614  33.898  29.541  1.00  0.00     0.010 A 
ATOM     35  C   UNL A   1      35.121  33.016  31.226  1.00  0.00     0.010 A 
ATOM     36  C   UNL A   1      36.424  33.186  30.735  1.00  0.00    -0.014 A 
BRANCH  36  37
ATOM     37  C   UNL A   1      37.563  32.537  31.434  1.00  0.00     0.031 A 
ATOM     38  C   UNL A   1      38.317  31.421  30.758  1.00  0.00     0.074 A 
ATOM     39  C   UNL A   1      37.899  32.914  32.681  1.00  0.00     0.049 A 
ATOM     40  N   UNL A   1      39.292  30.677  31.218  1.00  0.00    -0.248 NA
ATOM     41  C   UNL A   1      37.898  31.078  29.389  1.00  0.00     0.031 C 
ATOM     42  C   UNL A   1      37.228  33.953  33.461  1.00  0.00     0.029 A 
ATOM     43  N   UNL A   1      38.890  32.458  33.516  1.00  0.00    -0.354 N 
ATOM     44  C   UNL A   1      39.578  29.764  30.211  1.00  0.00     0.074 A 
ATOM     45  C   UNL A   1      38.647  30.015  29.134  1.00  0.00     0.031 C 
ATOM     46  C   UNL A   1      37.839  34.072  34.652  1.00  0.00     0.029 A 
ATOM     47  C   UNL A   1      38.926  33.099  34.730  1.00  0.00     0.049 A 
ATOM     48  H   UNL A   1      39.515  31.739  33.267  1.00  0.00     0.167 HD
ATOM     49  C   UNL A   1      40.545  28.815  30.176  1.00  0.00     0.037 A 
ATOM     50  C   UNL A   1      39.747  32.923  35.782  1.00  0.00     0.037 A 
ATOM     51  C   UNL A   1      41.503  28.596  31.227  1.00  0.00     0.049 A 
ATOM     52  C   UNL A   1      40.841  31.894  35.701  1.00  0.00     0.074 A 
ATOM     53  C   UNL A   1      42.550  27.691  31.268  1.00  0.00     0.029 A 
ATOM     54  N   UNL A   1      41.539  29.305  32.419  1.00  0.00    -0.354 N 
ATOM     55  N   UNL A   1      41.129  31.066  34.727  1.00  0.00    -0.248 NA
ATOM     56  C   UNL A   1      41.735  31.786  36.863  1.00  0.00     0.031 C 
ATOM     57  C   UNL A   1      43.206  27.837  32.495  1.00  0.00     0.029 A 
ATOM     58  C   UNL A   1      42.590  28.858  33.202  1.00  0.00     0.049 A 
ATOM     59  H   UNL A   1      40.910  30.019  32.670  1.00  0.00     0.167 HD
ATOM     60  C   UNL A   1      42.253  30.365  35.141  1.00  0.00     0.074 A 
ATOM     61  C   UNL A   1      42.601  30.869  36.454  1.00  0.00     0.031 C 
ATOM     62  C   UNL A   1      42.936  29.390  34.493  1.00  0.00     0.037 A 
BRANCH  49  63
ATOM     63  C   UNL A   1      40.617  27.946  28.955  1.00  0.00     0.064 A 
ATOM     64  C   UNL A   1      39.880  26.757  28.855  1.00  0.00     0.173 A 
ATOM     65  C   UNL A   1      41.416  28.318  27.862  1.00  0.00     0.173 A 
ATOM     66  F   UNL A   1      39.113  26.351  29.878  1.00  0.00    -0.203 F 
ATOM     67  C   UNL A   1      39.962  25.956  27.719  1.00  0.00     0.198 A 
ATOM     68  C   UNL A   1      41.473  27.529  26.717  1.00  0.00     0.198 A 
ATOM     69  F   UNL A   1      42.136  29.449  27.904  1.00  0.00    -0.203 F 
ATOM     70  F   UNL A   1      39.288  24.799  27.667  1.00  0.00    -0.200 F 
ATOM     71  C   UNL A   1      40.753  26.345  26.650  1.00  0.00     0.200 A 
ATOM     72  F   UNL A   1      42.229  27.911  25.678  1.00  0.00    -0.200 F 
ATOM     73  F   UNL A   1      40.829  25.574  25.556  1.00  0.00    -0.200 F 
ENDBRANCH  49  63
BRANCH  50  74
ATOM     74  C   UNL A   1      39.595  33.776  36.988  1.00  0.00     0.064 A 
ATOM     75  C   UNL A   1      38.794  33.361  38.062  1.00  0.00     0.173 A 
ATOM     76  C   UNL A   1      40.238  35.017  37.092  1.00  0.00     0.173 A 
ATOM     77  F   UNL A   1      38.142  32.191  37.996  1.00  0.00    -0.203 F 
ATOM     78  C   UNL A   1      38.628  34.164  39.187  1.00  0.00     0.198 A 
ATOM     79  C   UNL A   1      40.090  35.808  38.229  1.00  0.00     0.198 A 
ATOM     80  F   UNL A   1      41.019  35.455  36.094  1.00  0.00    -0.203 F 
ATOM     81  F   UNL A   1      37.824  33.761  40.181  1.00  0.00    -0.200 F 
ATOM     82  C   UNL A   1      39.280  35.384  39.273  1.00  0.00     0.200 A 
ATOM     83  F   UNL A   1      40.730  36.982  38.315  1.00  0.00    -0.200 F 
ATOM     84  F   UNL A   1      39.121  36.156  40.358  1.00  0.00    -0.200 F 
ENDBRANCH  50  74
BRANCH  62  85
ATOM     85  C   UNL A   1      44.158  28.843  35.167  1.00  0.00     0.064 A 
ATOM     86  C   UNL A   1      45.425  29.410  34.968  1.00  0.00     0.173 A 
ATOM     87  C   UNL A   1      44.051  27.759  36.052  1.00  0.00     0.173 A 
ATOM     88  F   UNL A   1      45.579  30.437  34.121  1.00  0.00    -0.203 F 
ATOM     89  C   UNL A   1      46.547  28.896  35.615  1.00  0.00     0.198 A 
ATOM     90  C   UNL A   1      45.171  27.264  36.716  1.00  0.00     0.198 A 
ATOM     91  F   UNL A   1      42.860  27.187  36.280  1.00  0.00    -0.203 F 
ATOM     92  F   UNL A   1      47.755  29.425  35.378  1.00  0.00    -0.200 F 
ATOM     93  C   UNL A   1      46.417  27.828  36.491  1.00  0.00     0.200 A 
ATOM     94  F   UNL A   1      45.043  26.239  37.569  1.00  0.00    -0.200 F 
ATOM     95  F   UNL A   1      47.497  27.337  37.114  1.00  0.00    -0.200 F 
ENDBRANCH  62  85
ENDBRANCH  36  37
ENDBRANCH  28  31
ENDBRANCH  26  27
ENDBRANCH  25  26
ENDBRANCH   1  25
TORSDOF 15
ENDMDL
MODEL 3
REMARK VINA RESULT:     -11.0      3.217      8.497
REMARK SMILES CC(C)[NH2+][C@]1(C(=O)NCCCNC(=O)c2ccc(-c3c4nc(c(-c5c(F)c(F)c(F)c(F)c5F)c5ccc([nH]5)c(-c5c(F)c(F)c(F)c(F)c5F)c5nc(c(-c6c(F)c(F)c(F)c(F)c6F)c6ccc3[nH]6)C=C5)C=C4)cc2)CC[C@@H]([N@@H+](C)[C@@H](C)C(C)C)C1
REMARK SMILES IDX 9 1 8 2 6 3 7 4 5 6 78 7 88 8 79 9 80 10 4 11 2 14 1 15 3 16
REMARK SMILES IDX 81 17 82 18 83 20 84 21 85 22 86 23 87 24 10 25 11 26 12 27
REMARK SMILES IDX 13 28 14 30 15 31 16 32 77 33 17 34 76 35 18 36 19 37 20 38
REMARK SMILES IDX 70 39 21 40 75 41 69 42 71 43 22 44 74 45 68 46 67 47 23 49
REMARK SMILES IDX 55 50 35 51 54 52 36 53 39 54 53 55 72 56 37 57 38 58 52 60
REMARK SMILES IDX 73 61 40 62 24 63 25 64 33 65 26 66 27 67 31 68 34 69 28 70
REMARK SMILES IDX 29 71 32 72 30 73 56 74 57 75 65 76 58 77 59 78 63 79 66 80
REMARK SMILES IDX 60 81 61 82 64 83 62 84 41 85 42 86 50 87 43 88 44 89 48 90
REMARK SMILES IDX 51 91 45 92 46 93 49 94 47 95
REMARK H PARENT 8 5 4 12 4 13 81 19 12 29 71 48 39 59
REMARK Flexibility Score: inf
ROOT
ATOM      1  C   UNL A   1      31.632  30.855  25.908  1.00  0.00     0.118 C 
ENDROOT
BRANCH   1   2
ATOM      2  N   UNL A   1      31.403  29.711  26.787  1.00  0.00    -0.351 N 
ATOM      3  C   UNL A   1      31.702  28.380  26.764  1.00  0.00     0.281 C 
ATOM      4  O   UNL A   1      31.459  27.786  27.826  1.00  0.00    -0.268 OA
ATOM      5  H   UNL A   1      30.907  29.963  27.599  1.00  0.00     0.163 HD
BRANCH   3   6
ATOM      6  C   UNL A   1      32.206  27.590  25.515  1.00  0.00     0.181 C 
ATOM      7  C   UNL A   1      33.716  27.340  25.504  1.00  0.00     0.085 C 
ATOM      8  C   UNL A   1      31.625  26.130  25.568  1.00  0.00     0.144 C 
ATOM      9  C   UNL A   1      33.961  25.965  24.920  1.00  0.00     0.072 C 
ATOM     10  C   UNL A   1      32.774  25.121  25.385  1.00  0.00     0.191 C 
BRANCH   6  11
ATOM     11  N   UNL A   1      31.731  28.172  24.220  1.00  0.00    -0.331 N 
ATOM     12  H   UNL A   1      31.302  29.072  24.438  1.00  0.00     0.347 HD
ATOM     13  H   UNL A   1      32.571  28.192  23.641  1.00  0.00     0.347 HD
BRANCH  11  14
ATOM     14  C   UNL A   1      30.769  27.423  23.411  1.00  0.00     0.176 C 
ATOM     15  C   UNL A   1      29.585  28.357  23.135  1.00  0.00     0.075 C 
ATOM     16  C   UNL A   1      31.338  26.963  22.061  1.00  0.00     0.075 C 
ENDBRANCH  11  14
ENDBRANCH   6  11
BRANCH  10  17
ATOM     17  N   UNL A   1      32.981  24.083  26.414  1.00  0.00    -0.332 N 
ATOM     18  C   UNL A   1      31.694  23.555  26.892  1.00  0.00     0.333 C 
ATOM     19  H   UNL A   1      33.486  24.671  27.076  1.00  0.00     0.348 HD
BRANCH  17  20
ATOM     20  C   UNL A   1      34.009  23.015  26.340  1.00  0.00     0.183 C 
ATOM     21  C   UNL A   1      34.026  22.047  27.531  1.00  0.00     0.075 C 
BRANCH  20  22
ATOM     22  C   UNL A   1      34.105  22.277  24.969  1.00  0.00     0.041 C 
ATOM     23  C   UNL A   1      35.400  22.643  24.224  1.00  0.00     0.013 C 
ATOM     24  C   UNL A   1      34.043  20.749  25.085  1.00  0.00     0.013 C 
ENDBRANCH  20  22
ENDBRANCH  17  20
ENDBRANCH  10  17
ENDBRANCH   3   6
ENDBRANCH   1   2
BRANCH   1  25
ATOM     25  C   UNL A   1      31.416  32.220  26.553  1.00  0.00     0.042 C 
BRANCH  25  26
ATOM     26  C   UNL A   1      32.635  32.760  27.287  1.00  0.00     0.118 C 
BRANCH  26  27
ATOM     27  N   UNL A   1      32.477  34.166  27.626  1.00  0.00    -0.352 N 
ATOM     28  C   UNL A   1      33.006  34.893  28.663  1.00  0.00     0.251 C 
ATOM     29  H   UNL A   1      31.898  34.677  27.015  1.00  0.00     0.163 HD
ATOM     30  O   UNL A   1      32.529  35.993  28.927  1.00  0.00    -0.269 OA
BRANCH  28  31
ATOM     31  C   UNL A   1      34.146  34.385  29.461  1.00  0.00     0.039 A 
ATOM     32  C   UNL A   1      35.436  34.477  28.926  1.00  0.00     0.014 A 
ATOM     33  C   UNL A   1      33.951  33.725  30.679  1.00  0.00     0.014 A 
ATOM     34  C   UNL A   1      36.522  33.923  29.610  1.00  0.00     0.010 A 
ATOM     35  C   UNL A   1      35.043  33.241  31.397  1.00  0.00     0.010 A 
ATOM     36  C   UNL A   1      36.335  33.304  30.854  1.00  0.00    -0.014 A 
BRANCH  36  37
ATOM     37  C   UNL A   1      37.461  32.639  31.560  1.00  0.00     0.031 A 
ATOM     38  C   UNL A   1      38.187  31.496  30.898  1.00  0.00     0.074 A 
ATOM     39  C   UNL A   1      37.811  33.026  32.800  1.00  0.00     0.049 A 
ATOM     40  N   UNL A   1      39.145  30.736  31.366  1.00  0.00    -0.248 NA
ATOM     41  C   UNL A   1      37.755  31.142  29.536  1.00  0.00     0.031 C 
ATOM     42  C   UNL A   1      37.167  34.093  33.566  1.00  0.00     0.029 A 
ATOM     43  N   UNL A   1      38.793  32.560  33.638  1.00  0.00    -0.354 N 
ATOM     44  C   UNL A   1      39.407  29.802  30.372  1.00  0.00     0.074 A 
ATOM     45  C   UNL A   1      38.478  30.059  29.294  1.00  0.00     0.031 C 
ATOM     46  C   UNL A   1      37.784  34.214  34.754  1.00  0.00     0.029 A 
ATOM     47  C   UNL A   1      38.848  33.218  34.842  1.00  0.00     0.049 A 
ATOM     48  H   UNL A   1      39.401  31.823  33.398  1.00  0.00     0.167 HD
ATOM     49  C   UNL A   1      40.351  28.830  30.348  1.00  0.00     0.037 A 
ATOM     50  C   UNL A   1      39.669  33.038  35.895  1.00  0.00     0.037 A 
ATOM     51  C   UNL A   1      41.307  28.604  31.399  1.00  0.00     0.049 A 
ATOM     52  C   UNL A   1      40.738  31.982  35.826  1.00  0.00     0.074 A 
ATOM     53  C   UNL A   1      42.333  27.675  31.451  1.00  0.00     0.029 A 
ATOM     54  N   UNL A   1      41.364  29.329  32.580  1.00  0.00    -0.354 N 
ATOM     55  N   UNL A   1      41.003  31.133  34.863  1.00  0.00    -0.248 NA
ATOM     56  C   UNL A   1      41.633  31.870  36.986  1.00  0.00     0.031 C 
ATOM     57  C   UNL A   1      42.996  27.823  32.673  1.00  0.00     0.029 A 
ATOM     58  C   UNL A   1      42.406  28.869  33.366  1.00  0.00     0.049 A 
ATOM     59  H   UNL A   1      40.753  30.062  32.823  1.00  0.00     0.167 HD
ATOM     60  C   UNL A   1      42.112  30.412  35.284  1.00  0.00     0.074 A 
ATOM     61  C   UNL A   1      42.476  30.927  36.588  1.00  0.00     0.031 C 
ATOM     62  C   UNL A   1      42.769  29.412  34.649  1.00  0.00     0.037 A 
BRANCH  49  63
ATOM     63  C   UNL A   1      40.398  27.941  29.139  1.00  0.00     0.064 A 
ATOM     64  C   UNL A   1      41.179  28.266  28.020  1.00  0.00     0.173 A 
ATOM     65  C   UNL A   1      39.672  26.741  29.109  1.00  0.00     0.173 A 
ATOM     66  F   UNL A   1      41.880  29.410  27.995  1.00  0.00    -0.203 F 
ATOM     67  C   UNL A   1      41.208  27.437  26.902  1.00  0.00     0.198 A 
ATOM     68  C   UNL A   1      39.726  25.900  28.000  1.00  0.00     0.198 A 
ATOM     69  F   UNL A   1      38.914  26.381  30.155  1.00  0.00    -0.203 F 
ATOM     70  F   UNL A   1      41.921  27.793  25.824  1.00  0.00    -0.200 F 
ATOM     71  C   UNL A   1      40.487  26.253  26.895  1.00  0.00     0.200 A 
ATOM     72  F   UNL A   1      39.038  24.750  27.998  1.00  0.00    -0.200 F 
ATOM     73  F   UNL A   1      40.518  25.454  25.819  1.00  0.00    -0.200 F 
ENDBRANCH  49  63
BRANCH  50  74
ATOM     74  C   UNL A   1      39.541  33.911  37.088  1.00  0.00     0.064 A 
ATOM     75  C   UNL A   1      38.815  33.489  38.210  1.00  0.00     0.173 A 
ATOM     76  C   UNL A   1      40.134  35.181  37.133  1.00  0.00     0.173 A 
ATOM     77  F   UNL A   1      38.212  32.291  38.203  1.00  0.00    -0.203 F 
ATOM     78  C   UNL A   1      38.671  34.311  39.325  1.00  0.00     0.198 A 
ATOM     79  C   UNL A   1      40.010  35.992  38.259  1.00  0.00     0.198 A 
ATOM     80  F   UNL A   1      40.844  35.628  36.086  1.00  0.00    -0.203 F 
ATOM     81  F   UNL A   1      37.937  33.898  40.368  1.00  0.00    -0.200 F 
ATOM     82  C   UNL A   1      39.273  35.559  39.351  1.00  0.00     0.200 A 
ATOM     83  F   UNL A   1      40.602  37.193  38.286  1.00  0.00    -0.200 F 
ATOM     84  F   UNL A   1      39.136  36.349  40.426  1.00  0.00    -0.200 F 
ENDBRANCH  50  74
BRANCH  62  85
ATOM     85  C   UNL A   1      43.981  28.846  35.327  1.00  0.00     0.064 A 
ATOM     86  C   UNL A   1      45.264  29.360  35.091  1.00  0.00     0.173 A 
ATOM     87  C   UNL A   1      43.848  27.800  36.252  1.00  0.00     0.173 A 
ATOM     88  F   UNL A   1      45.443  30.349  34.204  1.00  0.00    -0.203 F 
ATOM     89  C   UNL A   1      46.376  28.830  35.742  1.00  0.00     0.198 A 
ATOM     90  C   UNL A   1      44.959  27.289  36.919  1.00  0.00     0.198 A 
ATOM     91  F   UNL A   1      42.641  27.279  36.515  1.00  0.00    -0.203 F 
ATOM     92  F   UNL A   1      47.598  29.307  35.470  1.00  0.00    -0.200 F 
ATOM     93  C   UNL A   1      46.221  27.800  36.658  1.00  0.00     0.200 A 
ATOM     94  F   UNL A   1      44.807  26.301  37.811  1.00  0.00    -0.200 F 
ATOM     95  F   UNL A   1      47.292  27.294  37.286  1.00  0.00    -0.200 F 
ENDBRANCH  62  85
ENDBRANCH  36  37
ENDBRANCH  28  31
ENDBRANCH  26  27
ENDBRANCH  25  26
ENDBRANCH   1  25
TORSDOF 15
ENDMDL
