MODEL 1
REMARK VINA RESULT:     -13.2      0.000      0.000
REMARK SMILES O=C(NCCCNC(=O)c1ccc(Cn2ccc3ccc(Br)cc32)nc1)c1ccc(-c2c3nc(c(-c4c(F)c(F)c(F)c(F)c4F)c4ccc([nH]4)c(-c4c(F)c(F)c(F)c(F)c4F)c4nc(c(-c5c(F)c(F)c(F)c(F)c5F)c5ccc2[nH]5)C=C4)C=C3)cc1
REMARK SMILES IDX 5 1 4 2 3 3 1 4 2 5 27 7 28 8 89 9 29 10 88 11 30 12 31 13
REMARK SMILES IDX 32 14 82 15 33 16 87 17 81 18 83 19 34 20 86 21 80 22 79 23
REMARK SMILES IDX 35 25 67 26 47 27 66 28 48 29 51 30 65 31 84 32 49 33 50 34
REMARK SMILES IDX 64 36 85 37 52 38 36 39 37 40 45 41 38 42 39 43 43 44 46 45
REMARK SMILES IDX 40 46 41 47 44 48 42 49 68 50 69 51 77 52 70 53 71 54 75 55
REMARK SMILES IDX 78 56 72 57 73 58 76 59 74 60 53 61 54 62 62 63 55 64 56 65
REMARK SMILES IDX 60 66 63 67 57 68 58 69 61 70 59 71 6 72 7 73 8 74 9 76
REMARK SMILES IDX 10 77 11 78 26 79 12 80 25 81 13 82 14 83 15 84 16 85 24 86
REMARK SMILES IDX 17 87 18 88 23 89 19 90 21 91 20 92 22 93
REMARK H PARENT 3 6 83 24 51 35 7 75
REMARK Flexibility Score: inf
ROOT
ATOM      1  C   UNL A   1      38.868  20.844  25.726  1.00  0.00     0.042 C 
ENDROOT
BRANCH   1   2
ATOM      2  C   UNL A   1      39.710  21.850  26.493  1.00  0.00     0.118 C 
BRANCH   2   3
ATOM      3  N   UNL A   1      41.069  22.021  25.952  1.00  0.00    -0.352 N 
ATOM      4  O   UNL A   1      42.824  23.286  25.222  1.00  0.00    -0.269 OA
ATOM      5  C   UNL A   1      41.849  23.169  25.952  1.00  0.00     0.251 C 
ATOM      6  H   UNL A   1      41.474  21.223  25.542  1.00  0.00     0.163 HD
BRANCH   5   7
ATOM      7  C   UNL A   1      41.453  24.255  26.861  1.00  0.00     0.039 A 
ATOM      8  C   UNL A   1      42.025  24.415  28.124  1.00  0.00     0.014 A 
ATOM      9  C   UNL A   1      40.650  25.238  26.308  1.00  0.00     0.014 A 
ATOM     10  C   UNL A   1      41.888  25.647  28.768  1.00  0.00     0.010 A 
ATOM     11  C   UNL A   1      40.737  26.502  26.828  1.00  0.00     0.010 A 
ATOM     12  C   UNL A   1      41.283  26.719  28.092  1.00  0.00    -0.014 A 
BRANCH  12  13
ATOM     13  C   UNL A   1      41.263  28.078  28.648  1.00  0.00     0.031 A 
ATOM     14  C   UNL A   1      42.380  28.994  28.262  1.00  0.00     0.074 A 
ATOM     15  C   UNL A   1      40.221  28.578  29.352  1.00  0.00     0.049 A 
ATOM     16  N   UNL A   1      43.272  29.513  29.043  1.00  0.00    -0.248 NA
ATOM     17  C   UNL A   1      42.568  29.334  26.843  1.00  0.00     0.031 C 
ATOM     18  C   UNL A   1      38.918  27.967  29.652  1.00  0.00     0.029 A 
ATOM     19  N   UNL A   1      40.081  29.826  29.881  1.00  0.00    -0.354 N 
ATOM     20  C   UNL A   1      44.047  30.364  28.257  1.00  0.00     0.074 A 
ATOM     21  C   UNL A   1      43.643  30.127  26.894  1.00  0.00     0.031 C 
ATOM     22  C   UNL A   1      38.048  28.912  30.060  1.00  0.00     0.029 A 
ATOM     23  C   UNL A   1      38.788  30.136  30.274  1.00  0.00     0.049 A 
ATOM     24  H   UNL A   1      40.834  30.454  29.976  1.00  0.00     0.167 HD
ATOM     25  C   UNL A   1      44.835  31.328  28.813  1.00  0.00     0.037 A 
ATOM     26  C   UNL A   1      38.339  31.306  30.776  1.00  0.00     0.037 A 
ATOM     27  C   UNL A   1      45.043  31.095  30.218  1.00  0.00     0.049 A 
ATOM     28  C   UNL A   1      39.513  32.006  31.345  1.00  0.00     0.074 A 
ATOM     29  C   UNL A   1      45.602  30.071  30.958  1.00  0.00     0.029 A 
ATOM     30  N   UNL A   1      44.324  31.843  31.117  1.00  0.00    -0.354 N 
ATOM     31  N   UNL A   1      40.165  31.591  32.395  1.00  0.00    -0.248 NA
ATOM     32  C   UNL A   1      40.226  32.942  30.492  1.00  0.00     0.031 C 
ATOM     33  C   UNL A   1      44.779  29.966  32.118  1.00  0.00     0.029 A 
ATOM     34  C   UNL A   1      43.810  30.968  32.040  1.00  0.00     0.049 A 
ATOM     35  H   UNL A   1      44.200  32.820  31.102  1.00  0.00     0.167 HD
ATOM     36  C   UNL A   1      41.494  31.863  32.111  1.00  0.00     0.074 A 
ATOM     37  C   UNL A   1      41.458  32.792  30.984  1.00  0.00     0.031 C 
ATOM     38  C   UNL A   1      42.499  31.099  32.630  1.00  0.00     0.037 A 
BRANCH  25  39
ATOM     39  C   UNL A   1      45.167  32.655  28.175  1.00  0.00     0.064 A 
ATOM     40  C   UNL A   1      44.142  33.598  27.948  1.00  0.00     0.173 A 
ATOM     41  C   UNL A   1      46.385  32.910  27.512  1.00  0.00     0.173 A 
ATOM     42  F   UNL A   1      42.933  33.443  28.509  1.00  0.00    -0.203 F 
ATOM     43  C   UNL A   1      44.308  34.673  27.069  1.00  0.00     0.198 A 
ATOM     44  C   UNL A   1      46.563  34.013  26.677  1.00  0.00     0.198 A 
ATOM     45  F   UNL A   1      47.407  32.045  27.557  1.00  0.00    -0.203 F 
ATOM     46  F   UNL A   1      43.267  35.472  26.791  1.00  0.00    -0.200 F 
ATOM     47  C   UNL A   1      45.516  34.876  26.430  1.00  0.00     0.200 A 
ATOM     48  F   UNL A   1      47.735  34.182  26.051  1.00  0.00    -0.200 F 
ATOM     49  F   UNL A   1      45.659  35.868  25.543  1.00  0.00    -0.200 F 
ENDBRANCH  25  39
BRANCH  26  50
ATOM     50  C   UNL A   1      37.014  31.932  30.597  1.00  0.00     0.064 A 
ATOM     51  C   UNL A   1      36.054  31.892  31.618  1.00  0.00     0.173 A 
ATOM     52  C   UNL A   1      36.762  32.817  29.528  1.00  0.00     0.173 A 
ATOM     53  F   UNL A   1      36.236  31.098  32.683  1.00  0.00    -0.203 F 
ATOM     54  C   UNL A   1      34.929  32.722  31.596  1.00  0.00     0.198 A 
ATOM     55  C   UNL A   1      35.634  33.638  29.503  1.00  0.00     0.198 A 
ATOM     56  F   UNL A   1      37.652  32.972  28.538  1.00  0.00    -0.203 F 
ATOM     57  F   UNL A   1      34.072  32.709  32.627  1.00  0.00    -0.200 F 
ATOM     58  C   UNL A   1      34.728  33.603  30.547  1.00  0.00     0.200 A 
ATOM     59  F   UNL A   1      35.466  34.508  28.498  1.00  0.00    -0.200 F 
ATOM     60  F   UNL A   1      33.687  34.448  30.562  1.00  0.00    -0.200 F 
ENDBRANCH  26  50
BRANCH  38  61
ATOM     61  C   UNL A   1      42.159  30.127  33.725  1.00  0.00     0.064 A 
ATOM     62  C   UNL A   1      41.738  28.805  33.496  1.00  0.00     0.173 A 
ATOM     63  C   UNL A   1      42.441  30.491  35.048  1.00  0.00     0.173 A 
ATOM     64  F   UNL A   1      41.541  28.349  32.255  1.00  0.00    -0.203 F 
ATOM     65  C   UNL A   1      41.577  27.903  34.547  1.00  0.00     0.198 A 
ATOM     66  C   UNL A   1      42.312  29.579  36.092  1.00  0.00     0.198 A 
ATOM     67  F   UNL A   1      42.900  31.722  35.322  1.00  0.00    -0.203 F 
ATOM     68  F   UNL A   1      41.174  26.647  34.301  1.00  0.00    -0.200 F 
ATOM     69  C   UNL A   1      41.874  28.289  35.843  1.00  0.00     0.200 A 
ATOM     70  F   UNL A   1      42.648  29.942  37.339  1.00  0.00    -0.200 F 
ATOM     71  F   UNL A   1      41.769  27.408  36.849  1.00  0.00    -0.200 F 
ENDBRANCH  38  61
ENDBRANCH  12  13
ENDBRANCH   5   7
ENDBRANCH   2   3
ENDBRANCH   1   2
BRANCH   1  72
ATOM     72  C   UNL A   1      37.677  21.481  25.009  1.00  0.00     0.118 C 
BRANCH  72  73
ATOM     73  N   UNL A   1      36.443  20.706  25.103  1.00  0.00    -0.352 N 
ATOM     74  C   UNL A   1      35.139  21.115  24.947  1.00  0.00     0.252 C 
ATOM     75  H   UNL A   1      36.561  19.752  25.311  1.00  0.00     0.163 HD
ATOM     76  O   UNL A   1      34.210  20.341  25.146  1.00  0.00    -0.269 OA
BRANCH  74  77
ATOM     77  C   UNL A   1      34.866  22.513  24.599  1.00  0.00     0.058 A 
ATOM     78  C   UNL A   1      34.571  23.483  25.556  1.00  0.00     0.017 A 
ATOM     79  C   UNL A   1      34.839  22.864  23.265  1.00  0.00     0.125 A 
ATOM     80  C   UNL A   1      34.172  24.750  25.135  1.00  0.00     0.026 A 
ATOM     81  N   UNL A   1      34.420  24.075  22.834  1.00  0.00    -0.259 NA
ATOM     82  C   UNL A   1      34.088  25.008  23.767  1.00  0.00     0.060 A 
BRANCH  82  83
ATOM     83  C   UNL A   1      33.604  26.343  23.256  1.00  0.00     0.178 C 
BRANCH  83  84
ATOM     84  N   UNL A   1      32.606  26.937  24.137  1.00  0.00    -0.341 N 
ATOM     85  C   UNL A   1      31.252  26.736  24.017  1.00  0.00     0.087 A 
ATOM     86  C   UNL A   1      32.862  27.820  25.169  1.00  0.00     0.049 A 
ATOM     87  C   UNL A   1      30.627  27.467  25.001  1.00  0.00     0.028 A 
ATOM     88  C   UNL A   1      31.631  28.145  25.745  1.00  0.00    -0.000 A 
ATOM     89  C   UNL A   1      34.069  28.350  25.659  1.00  0.00     0.042 A 
ATOM     90  C   UNL A   1      31.603  29.010  26.857  1.00  0.00     0.011 A 
ATOM     91  C   UNL A   1      34.014  29.182  26.778  1.00  0.00     0.020 A 
ATOM     92  C   UNL A   1      32.803  29.513  27.374  1.00  0.00     0.016 A 
ATOM     93  Br  UNL A   1      35.630  29.855  27.504  1.00  0.00    -0.051 Br
ENDBRANCH  83  84
ENDBRANCH  82  83
ENDBRANCH  74  77
ENDBRANCH  72  73
ENDBRANCH   1  72
TORSDOF 12
ENDMDL
MODEL 2
REMARK VINA RESULT:     -13.2      0.686      1.310
REMARK SMILES O=C(NCCCNC(=O)c1ccc(Cn2ccc3ccc(Br)cc32)nc1)c1ccc(-c2c3nc(c(-c4c(F)c(F)c(F)c(F)c4F)c4ccc([nH]4)c(-c4c(F)c(F)c(F)c(F)c4F)c4nc(c(-c5c(F)c(F)c(F)c(F)c5F)c5ccc2[nH]5)C=C4)C=C3)cc1
REMARK SMILES IDX 5 1 4 2 3 3 1 4 2 5 27 7 28 8 89 9 29 10 88 11 30 12 31 13
REMARK SMILES IDX 32 14 82 15 33 16 87 17 81 18 83 19 34 20 86 21 80 22 79 23
REMARK SMILES IDX 35 25 67 26 47 27 66 28 48 29 51 30 65 31 84 32 49 33 50 34
REMARK SMILES IDX 64 36 85 37 52 38 36 39 37 40 45 41 38 42 39 43 43 44 46 45
REMARK SMILES IDX 40 46 41 47 44 48 42 49 68 50 69 51 77 52 70 53 71 54 75 55
REMARK SMILES IDX 78 56 72 57 73 58 76 59 74 60 53 61 54 62 62 63 55 64 56 65
REMARK SMILES IDX 60 66 63 67 57 68 58 69 61 70 59 71 6 72 7 73 8 74 9 76
REMARK SMILES IDX 10 77 11 78 26 79 12 80 25 81 13 82 14 83 15 84 16 85 24 86
REMARK SMILES IDX 17 87 18 88 23 89 19 90 21 91 20 92 22 93
REMARK H PARENT 3 6 83 24 51 35 7 75
REMARK Flexibility Score: inf
ROOT
ATOM      1  C   UNL A   1      39.559  21.042  25.915  1.00  0.00     0.042 C 
ENDROOT
BRANCH   1   2
ATOM      2  C   UNL A   1      40.443  22.034  26.653  1.00  0.00     0.118 C 
BRANCH   2   3
ATOM      3  N   UNL A   1      41.669  22.394  25.923  1.00  0.00    -0.352 N 
ATOM      4  O   UNL A   1      43.081  23.889  24.930  1.00  0.00    -0.269 OA
ATOM      5  C   UNL A   1      42.247  23.649  25.793  1.00  0.00     0.251 C 
ATOM      6  H   UNL A   1      42.137  21.654  25.472  1.00  0.00     0.163 HD
BRANCH   5   7
ATOM      7  C   UNL A   1      41.811  24.695  26.731  1.00  0.00     0.039 A 
ATOM      8  C   UNL A   1      42.415  24.879  27.975  1.00  0.00     0.014 A 
ATOM      9  C   UNL A   1      40.922  25.626  26.221  1.00  0.00     0.014 A 
ATOM     10  C   UNL A   1      42.217  26.091  28.641  1.00  0.00     0.010 A 
ATOM     11  C   UNL A   1      40.941  26.887  26.755  1.00  0.00     0.010 A 
ATOM     12  C   UNL A   1      41.516  27.126  28.002  1.00  0.00    -0.014 A 
BRANCH  12  13
ATOM     13  C   UNL A   1      41.423  28.473  28.578  1.00  0.00     0.031 A 
ATOM     14  C   UNL A   1      42.504  29.445  28.229  1.00  0.00     0.074 A 
ATOM     15  C   UNL A   1      40.344  28.915  29.268  1.00  0.00     0.049 A 
ATOM     16  N   UNL A   1      43.355  29.992  29.036  1.00  0.00    -0.248 NA
ATOM     17  C   UNL A   1      42.705  29.816  26.819  1.00  0.00     0.031 C 
ATOM     18  C   UNL A   1      39.065  28.240  29.530  1.00  0.00     0.029 A 
ATOM     19  N   UNL A   1      40.137  30.146  29.812  1.00  0.00    -0.354 N 
ATOM     20  C   UNL A   1      44.106  30.890  28.280  1.00  0.00     0.074 A 
ATOM     21  C   UNL A   1      43.741  30.656  26.905  1.00  0.00     0.031 C 
ATOM     22  C   UNL A   1      38.144  29.138  29.934  1.00  0.00     0.029 A 
ATOM     23  C   UNL A   1      38.823  30.391  30.182  1.00  0.00     0.049 A 
ATOM     24  H   UNL A   1      40.858  30.806  29.932  1.00  0.00     0.167 HD
ATOM     25  C   UNL A   1      44.838  31.880  28.866  1.00  0.00     0.037 A 
ATOM     26  C   UNL A   1      38.311  31.532  30.692  1.00  0.00     0.037 A 
ATOM     27  C   UNL A   1      45.028  31.634  30.272  1.00  0.00     0.049 A 
ATOM     28  C   UNL A   1      39.441  32.275  31.296  1.00  0.00     0.074 A 
ATOM     29  C   UNL A   1      45.618  30.624  31.008  1.00  0.00     0.029 A 
ATOM     30  N   UNL A   1      44.257  32.334  31.167  1.00  0.00    -0.354 N 
ATOM     31  N   UNL A   1      40.090  31.873  32.354  1.00  0.00    -0.248 NA
ATOM     32  C   UNL A   1      40.127  33.255  30.473  1.00  0.00     0.031 C 
ATOM     33  C   UNL A   1      44.777  30.463  32.149  1.00  0.00     0.029 A 
ATOM     34  C   UNL A   1      43.766  31.422  32.065  1.00  0.00     0.049 A 
ATOM     35  H   UNL A   1      44.089  33.304  31.163  1.00  0.00     0.167 HD
ATOM     36  C   UNL A   1      41.410  32.210  32.101  1.00  0.00     0.074 A 
ATOM     37  C   UNL A   1      41.355  33.154  30.987  1.00  0.00     0.031 C 
ATOM     38  C   UNL A   1      42.438  31.484  32.629  1.00  0.00     0.037 A 
BRANCH  25  39
ATOM     39  C   UNL A   1      45.122  33.230  28.255  1.00  0.00     0.064 A 
ATOM     40  C   UNL A   1      46.458  33.656  28.093  1.00  0.00     0.173 A 
ATOM     41  C   UNL A   1      44.142  34.232  28.105  1.00  0.00     0.173 A 
ATOM     42  F   UNL A   1      47.474  32.792  28.238  1.00  0.00    -0.203 F 
ATOM     43  C   UNL A   1      46.784  34.997  27.867  1.00  0.00     0.198 A 
ATOM     44  C   UNL A   1      44.469  35.559  27.827  1.00  0.00     0.198 A 
ATOM     45  F   UNL A   1      42.845  33.989  28.332  1.00  0.00    -0.203 F 
ATOM     46  F   UNL A   1      48.070  35.375  27.842  1.00  0.00    -0.200 F 
ATOM     47  C   UNL A   1      45.789  35.948  27.739  1.00  0.00     0.200 A 
ATOM     48  F   UNL A   1      43.492  36.471  27.727  1.00  0.00    -0.200 F 
ATOM     49  F   UNL A   1      46.099  37.241  27.583  1.00  0.00    -0.200 F 
ENDBRANCH  25  39
BRANCH  26  50
ATOM     50  C   UNL A   1      36.963  32.099  30.495  1.00  0.00     0.064 A 
ATOM     51  C   UNL A   1      35.998  32.035  31.510  1.00  0.00     0.173 A 
ATOM     52  C   UNL A   1      36.682  32.957  29.410  1.00  0.00     0.173 A 
ATOM     53  F   UNL A   1      36.205  31.265  32.588  1.00  0.00    -0.203 F 
ATOM     54  C   UNL A   1      34.840  32.818  31.468  1.00  0.00     0.198 A 
ATOM     55  C   UNL A   1      35.522  33.730  29.366  1.00  0.00     0.198 A 
ATOM     56  F   UNL A   1      37.572  33.134  28.424  1.00  0.00    -0.203 F 
ATOM     57  F   UNL A   1      33.977  32.785  32.493  1.00  0.00    -0.200 F 
ATOM     58  C   UNL A   1      34.611  33.673  30.404  1.00  0.00     0.200 A 
ATOM     59  F   UNL A   1      35.326  34.578  28.346  1.00  0.00    -0.200 F 
ATOM     60  F   UNL A   1      33.536  34.475  30.399  1.00  0.00    -0.200 F 
ENDBRANCH  26  50
BRANCH  38  61
ATOM     61  C   UNL A   1      42.121  30.480  33.702  1.00  0.00     0.064 A 
ATOM     62  C   UNL A   1      41.747  29.150  33.444  1.00  0.00     0.173 A 
ATOM     63  C   UNL A   1      42.377  30.828  35.035  1.00  0.00     0.173 A 
ATOM     64  F   UNL A   1      41.577  28.710  32.194  1.00  0.00    -0.203 F 
ATOM     65  C   UNL A   1      41.607  28.222  34.477  1.00  0.00     0.198 A 
ATOM     66  C   UNL A   1      42.270  29.892  36.060  1.00  0.00     0.198 A 
ATOM     67  F   UNL A   1      42.792  32.068  35.337  1.00  0.00    -0.203 F 
ATOM     68  F   UNL A   1      41.249  26.959  34.202  1.00  0.00    -0.200 F 
ATOM     69  C   UNL A   1      41.878  28.593  35.783  1.00  0.00     0.200 A 
ATOM     70  F   UNL A   1      42.581  30.242  37.317  1.00  0.00    -0.200 F 
ATOM     71  F   UNL A   1      41.793  27.690  36.770  1.00  0.00    -0.200 F 
ENDBRANCH  38  61
ENDBRANCH  12  13
ENDBRANCH   5   7
ENDBRANCH   2   3
ENDBRANCH   1   2
BRANCH   1  72
ATOM     72  C   UNL A   1      38.246  21.657  25.426  1.00  0.00     0.118 C 
BRANCH  72  73
ATOM     73  N   UNL A   1      37.174  20.686  25.226  1.00  0.00    -0.352 N 
ATOM     74  C   UNL A   1      35.859  20.894  24.882  1.00  0.00     0.252 C 
ATOM     75  H   UNL A   1      37.430  19.745  25.357  1.00  0.00     0.163 HD
ATOM     76  O   UNL A   1      35.066  19.960  24.838  1.00  0.00    -0.269 OA
BRANCH  74  77
ATOM     77  C   UNL A   1      35.394  22.261  24.629  1.00  0.00     0.058 A 
ATOM     78  C   UNL A   1      34.960  23.110  25.647  1.00  0.00     0.017 A 
ATOM     79  C   UNL A   1      35.327  22.701  23.323  1.00  0.00     0.125 A 
ATOM     80  C   UNL A   1      34.389  24.335  25.309  1.00  0.00     0.026 A 
ATOM     81  N   UNL A   1      34.745  23.869  22.971  1.00  0.00    -0.259 NA
ATOM     82  C   UNL A   1      34.279  24.676  23.962  1.00  0.00     0.060 A 
BRANCH  82  83
ATOM     83  C   UNL A   1      33.616  25.964  23.538  1.00  0.00     0.178 C 
BRANCH  83  84
ATOM     84  N   UNL A   1      32.607  26.401  24.495  1.00  0.00    -0.341 N 
ATOM     85  C   UNL A   1      31.305  25.964  24.497  1.00  0.00     0.087 A 
ATOM     86  C   UNL A   1      32.790  27.346  25.487  1.00  0.00     0.049 A 
ATOM     87  C   UNL A   1      30.646  26.603  25.522  1.00  0.00     0.028 A 
ATOM     88  C   UNL A   1      31.573  27.467  26.164  1.00  0.00    -0.000 A 
ATOM     89  C   UNL A   1      33.921  28.092  25.861  1.00  0.00     0.042 A 
ATOM     90  C   UNL A   1      31.487  28.347  27.262  1.00  0.00     0.011 A 
ATOM     91  C   UNL A   1      33.815  28.935  26.968  1.00  0.00     0.020 A 
ATOM     92  C   UNL A   1      32.619  29.067  27.664  1.00  0.00     0.016 A 
ATOM     93  Br  UNL A   1      35.342  29.901  27.538  1.00  0.00    -0.051 Br
ENDBRANCH  83  84
ENDBRANCH  82  83
ENDBRANCH  74  77
ENDBRANCH  72  73
ENDBRANCH   1  72
TORSDOF 12
ENDMDL
MODEL 3
REMARK VINA RESULT:     -13.1      3.418      9.091
REMARK SMILES O=C(NCCCNC(=O)c1ccc(Cn2ccc3ccc(Br)cc32)nc1)c1ccc(-c2c3nc(c(-c4c(F)c(F)c(F)c(F)c4F)c4ccc([nH]4)c(-c4c(F)c(F)c(F)c(F)c4F)c4nc(c(-c5c(F)c(F)c(F)c(F)c5F)c5ccc2[nH]5)C=C4)C=C3)cc1
REMARK SMILES IDX 5 1 4 2 3 3 1 4 2 5 27 7 28 8 89 9 29 10 88 11 30 12 31 13
REMARK SMILES IDX 32 14 82 15 33 16 87 17 81 18 83 19 34 20 86 21 80 22 79 23
REMARK SMILES IDX 35 25 67 26 47 27 66 28 48 29 51 30 65 31 84 32 49 33 50 34
REMARK SMILES IDX 64 36 85 37 52 38 36 39 37 40 45 41 38 42 39 43 43 44 46 45
REMARK SMILES IDX 40 46 41 47 44 48 42 49 68 50 69 51 77 52 70 53 71 54 75 55
REMARK SMILES IDX 78 56 72 57 73 58 76 59 74 60 53 61 54 62 62 63 55 64 56 65
REMARK SMILES IDX 60 66 63 67 57 68 58 69 61 70 59 71 6 72 7 73 8 74 9 76
REMARK SMILES IDX 10 77 11 78 26 79 12 80 25 81 13 82 14 83 15 84 16 85 24 86
REMARK SMILES IDX 17 87 18 88 23 89 19 90 21 91 20 92 22 93
REMARK H PARENT 3 6 83 24 51 35 7 75
REMARK Flexibility Score: inf
ROOT
ATOM      1  C   UNL A   1      32.254  30.273  26.734  1.00  0.00     0.042 C 
ENDROOT
BRANCH   1   2
ATOM      2  C   UNL A   1      33.458  30.523  27.627  1.00  0.00     0.118 C 
BRANCH   2   3
ATOM      3  N   UNL A   1      34.206  31.744  27.286  1.00  0.00    -0.352 N 
ATOM      4  O   UNL A   1      35.865  33.277  27.627  1.00  0.00    -0.269 OA
ATOM      5  C   UNL A   1      35.467  32.123  27.726  1.00  0.00     0.251 C 
ATOM      6  H   UNL A   1      33.758  32.368  26.670  1.00  0.00     0.163 HD
BRANCH   5   7
ATOM      7  C   UNL A   1      36.313  31.083  28.331  1.00  0.00     0.039 A 
ATOM      8  C   UNL A   1      36.376  29.785  27.823  1.00  0.00     0.014 A 
ATOM      9  C   UNL A   1      37.211  31.522  29.288  1.00  0.00     0.014 A 
ATOM     10  C   UNL A   1      37.450  28.974  28.195  1.00  0.00     0.010 A 
ATOM     11  C   UNL A   1      38.375  30.818  29.444  1.00  0.00     0.010 A 
ATOM     12  C   UNL A   1      38.489  29.512  28.972  1.00  0.00    -0.014 A 
BRANCH  12  13
ATOM     13  C   UNL A   1      39.720  28.763  29.250  1.00  0.00     0.031 A 
ATOM     14  C   UNL A   1      40.092  28.562  30.684  1.00  0.00     0.074 A 
ATOM     15  C   UNL A   1      40.434  28.123  28.294  1.00  0.00     0.049 A 
ATOM     16  N   UNL A   1      41.142  29.015  31.291  1.00  0.00    -0.248 NA
ATOM     17  C   UNL A   1      39.174  27.823  31.565  1.00  0.00     0.031 C 
ATOM     18  C   UNL A   1      40.144  27.965  26.861  1.00  0.00     0.029 A 
ATOM     19  N   UNL A   1      41.563  27.375  28.443  1.00  0.00    -0.354 N 
ATOM     20  C   UNL A   1      41.109  28.503  32.586  1.00  0.00     0.074 A 
ATOM     21  C   UNL A   1      39.821  27.873  32.734  1.00  0.00     0.031 C 
ATOM     22  C   UNL A   1      40.901  26.977  26.344  1.00  0.00     0.029 A 
ATOM     23  C   UNL A   1      41.882  26.601  27.337  1.00  0.00     0.049 A 
ATOM     24  H   UNL A   1      42.106  27.382  29.264  1.00  0.00     0.167 HD
ATOM     25  C   UNL A   1      42.221  28.483  33.375  1.00  0.00     0.037 A 
ATOM     26  C   UNL A   1      42.903  25.725  27.213  1.00  0.00     0.037 A 
ATOM     27  C   UNL A   1      43.244  29.360  32.867  1.00  0.00     0.049 A 
ATOM     28  C   UNL A   1      43.925  26.116  28.210  1.00  0.00     0.074 A 
ATOM     29  C   UNL A   1      43.321  30.717  32.618  1.00  0.00     0.029 A 
ATOM     30  N   UNL A   1      44.302  28.805  32.191  1.00  0.00    -0.354 N 
ATOM     31  N   UNL A   1      44.618  27.219  28.144  1.00  0.00    -0.248 NA
ATOM     32  C   UNL A   1      43.878  25.480  29.516  1.00  0.00     0.031 C 
ATOM     33  C   UNL A   1      44.081  30.826  31.416  1.00  0.00     0.029 A 
ATOM     34  C   UNL A   1      44.467  29.537  31.043  1.00  0.00     0.049 A 
ATOM     35  H   UNL A   1      44.838  28.029  32.475  1.00  0.00     0.167 HD
ATOM     36  C   UNL A   1      44.727  27.640  29.460  1.00  0.00     0.074 A 
ATOM     37  C   UNL A   1      44.354  26.479  30.263  1.00  0.00     0.031 C 
ATOM     38  C   UNL A   1      44.839  28.965  29.770  1.00  0.00     0.037 A 
BRANCH  25  39
ATOM     39  C   UNL A   1      42.522  27.448  34.430  1.00  0.00     0.064 A 
ATOM     40  C   UNL A   1      43.185  26.255  34.070  1.00  0.00     0.173 A 
ATOM     41  C   UNL A   1      41.923  27.449  35.707  1.00  0.00     0.173 A 
ATOM     42  F   UNL A   1      43.769  26.133  32.869  1.00  0.00    -0.203 F 
ATOM     43  C   UNL A   1      43.184  25.129  34.900  1.00  0.00     0.198 A 
ATOM     44  C   UNL A   1      41.971  26.341  36.554  1.00  0.00     0.198 A 
ATOM     45  F   UNL A   1      41.178  28.475  36.135  1.00  0.00    -0.203 F 
ATOM     46  F   UNL A   1      43.721  23.980  34.464  1.00  0.00    -0.200 F 
ATOM     47  C   UNL A   1      42.573  25.172  36.139  1.00  0.00     0.200 A 
ATOM     48  F   UNL A   1      41.355  26.395  37.742  1.00  0.00    -0.200 F 
ATOM     49  F   UNL A   1      42.519  24.079  36.910  1.00  0.00    -0.200 F 
ENDBRANCH  25  39
BRANCH  26  50
ATOM     50  C   UNL A   1      42.941  24.466  26.443  1.00  0.00     0.064 A 
ATOM     51  C   UNL A   1      43.807  24.314  25.351  1.00  0.00     0.173 A 
ATOM     52  C   UNL A   1      42.328  23.293  26.930  1.00  0.00     0.173 A 
ATOM     53  F   UNL A   1      44.452  25.378  24.850  1.00  0.00    -0.203 F 
ATOM     54  C   UNL A   1      44.083  23.057  24.807  1.00  0.00     0.198 A 
ATOM     55  C   UNL A   1      42.596  22.039  26.379  1.00  0.00     0.198 A 
ATOM     56  F   UNL A   1      41.534  23.327  28.009  1.00  0.00    -0.203 F 
ATOM     57  F   UNL A   1      44.974  22.943  23.812  1.00  0.00    -0.200 F 
ATOM     58  C   UNL A   1      43.488  21.921  25.329  1.00  0.00     0.200 A 
ATOM     59  F   UNL A   1      42.039  20.944  26.913  1.00  0.00    -0.200 F 
ATOM     60  F   UNL A   1      43.807  20.709  24.852  1.00  0.00    -0.200 F 
ENDBRANCH  26  50
BRANCH  38  61
ATOM     61  C   UNL A   1      45.109  29.936  28.655  1.00  0.00     0.064 A 
ATOM     62  C   UNL A   1      44.103  30.543  27.884  1.00  0.00     0.173 A 
ATOM     63  C   UNL A   1      46.420  30.400  28.482  1.00  0.00     0.173 A 
ATOM     64  F   UNL A   1      42.816  30.228  28.056  1.00  0.00    -0.203 F 
ATOM     65  C   UNL A   1      44.402  31.546  26.961  1.00  0.00     0.198 A 
ATOM     66  C   UNL A   1      46.712  31.424  27.585  1.00  0.00     0.198 A 
ATOM     67  F   UNL A   1      47.415  29.897  29.230  1.00  0.00    -0.203 F 
ATOM     68  F   UNL A   1      43.422  32.109  26.238  1.00  0.00    -0.200 F 
ATOM     69  C   UNL A   1      45.705  31.991  26.820  1.00  0.00     0.200 A 
ATOM     70  F   UNL A   1      47.967  31.887  27.487  1.00  0.00    -0.200 F 
ATOM     71  F   UNL A   1      45.987  32.990  25.970  1.00  0.00    -0.200 F 
ENDBRANCH  38  61
ENDBRANCH  12  13
ENDBRANCH   5   7
ENDBRANCH   2   3
ENDBRANCH   1   2
BRANCH   1  72
ATOM     72  C   UNL A   1      32.637  29.856  25.313  1.00  0.00     0.118 C 
BRANCH  72  73
ATOM     73  N   UNL A   1      31.501  29.470  24.481  1.00  0.00    -0.352 N 
ATOM     74  C   UNL A   1      30.972  28.222  24.248  1.00  0.00     0.252 C 
ATOM     75  H   UNL A   1      31.048  30.211  24.019  1.00  0.00     0.163 HD
ATOM     76  O   UNL A   1      30.058  28.067  23.447  1.00  0.00    -0.269 OA
BRANCH  74  77
ATOM     77  C   UNL A   1      31.558  27.060  24.923  1.00  0.00     0.058 A 
ATOM     78  C   UNL A   1      32.572  26.291  24.355  1.00  0.00     0.017 A 
ATOM     79  C   UNL A   1      31.038  26.680  26.144  1.00  0.00     0.125 A 
ATOM     80  C   UNL A   1      32.967  25.115  24.990  1.00  0.00     0.026 A 
ATOM     81  N   UNL A   1      31.380  25.526  26.759  1.00  0.00    -0.259 NA
ATOM     82  C   UNL A   1      32.337  24.751  26.180  1.00  0.00     0.060 A 
BRANCH  82  83
ATOM     83  C   UNL A   1      32.684  23.459  26.878  1.00  0.00     0.178 C 
BRANCH  83  84
ATOM     84  N   UNL A   1      33.379  22.530  25.996  1.00  0.00    -0.341 N 
ATOM     85  C   UNL A   1      32.761  21.531  25.284  1.00  0.00     0.087 A 
ATOM     86  C   UNL A   1      34.746  22.477  25.793  1.00  0.00     0.049 A 
ATOM     87  C   UNL A   1      33.729  20.847  24.585  1.00  0.00     0.028 A 
ATOM     88  C   UNL A   1      34.985  21.442  24.885  1.00  0.00    -0.000 A 
ATOM     89  C   UNL A   1      35.792  23.259  26.314  1.00  0.00     0.042 A 
ATOM     90  C   UNL A   1      36.307  21.191  24.468  1.00  0.00     0.011 A 
ATOM     91  C   UNL A   1      37.088  23.006  25.862  1.00  0.00     0.020 A 
ATOM     92  C   UNL A   1      37.351  21.988  24.953  1.00  0.00     0.016 A 
ATOM     93  Br  UNL A   1      38.509  24.089  26.492  1.00  0.00    -0.051 Br
ENDBRANCH  83  84
ENDBRANCH  82  83
ENDBRANCH  74  77
ENDBRANCH  72  73
ENDBRANCH   1  72
TORSDOF 12
ENDMDL
