MODEL 1
REMARK VINA RESULT:     -11.5      0.000      0.000
REMARK SMILES O=C(NCCCNC(=O)[C@@H]1CS[C@@H](c2cc(Br)ccc2O)[NH2+]1)c1ccc(-c2c3nc(c(-c4c(F)c(F)c(F)c(F)c4F)c4ccc([nH]4)c(-c4c(F)c(F)c(F)c(F)c4F)c4nc(c(-c5c(F)c(F)c(F)c(F)c5F)c5ccc2[nH]5)C=C4)C=C3)cc1
REMARK SMILES IDX 5 1 4 2 3 3 1 4 2 5 23 7 24 8 85 9 25 10 84 11 26 12 27 13
REMARK SMILES IDX 28 14 78 15 29 16 83 17 77 18 79 19 30 20 82 21 76 22 75 23
REMARK SMILES IDX 31 25 63 26 43 27 62 28 44 29 47 30 61 31 80 32 45 33 46 34
REMARK SMILES IDX 60 36 81 37 48 38 32 39 33 40 41 41 34 42 35 43 39 44 42 45
REMARK SMILES IDX 36 46 37 47 40 48 38 49 64 50 65 51 73 52 66 53 67 54 71 55
REMARK SMILES IDX 74 56 68 57 69 58 72 59 70 60 49 61 50 62 58 63 51 64 52 65
REMARK SMILES IDX 56 66 59 67 53 68 54 69 57 70 55 71 6 72 7 73 8 74 9 76
REMARK SMILES IDX 10 77 11 78 22 79 12 80 13 81 14 84 15 85 20 86 16 87 19 88
REMARK SMILES IDX 17 89 18 90 21 91
REMARK H PARENT 3 6 79 24 47 35 7 75 22 82 22 83 21 92
REMARK Flexibility Score: inf
ROOT
ATOM      1  C   UNL A   1      40.888  20.581  27.143  1.00  0.00     0.042 C 
ENDROOT
BRANCH   1   2
ATOM      2  C   UNL A   1      40.887  22.010  26.598  1.00  0.00     0.118 C 
BRANCH   2   3
ATOM      3  N   UNL A   1      39.631  22.380  25.959  1.00  0.00    -0.352 N 
ATOM      4  O   UNL A   1      37.744  23.530  25.550  1.00  0.00    -0.269 OA
ATOM      5  C   UNL A   1      38.855  23.503  26.085  1.00  0.00     0.251 C 
ATOM      6  H   UNL A   1      39.280  21.709  25.331  1.00  0.00     0.163 HD
BRANCH   5   7
ATOM      7  C   UNL A   1      39.306  24.674  26.869  1.00  0.00     0.039 A 
ATOM      8  C   UNL A   1      39.000  24.811  28.225  1.00  0.00     0.014 A 
ATOM      9  C   UNL A   1      40.110  25.631  26.240  1.00  0.00     0.014 A 
ATOM     10  C   UNL A   1      39.379  25.964  28.912  1.00  0.00     0.010 A 
ATOM     11  C   UNL A   1      40.552  26.750  26.950  1.00  0.00     0.010 A 
ATOM     12  C   UNL A   1      40.163  26.944  28.285  1.00  0.00    -0.014 A 
BRANCH  12  13
ATOM     13  C   UNL A   1      40.598  28.155  29.030  1.00  0.00     0.031 A 
ATOM     14  C   UNL A   1      42.001  28.268  29.557  1.00  0.00     0.074 A 
ATOM     15  C   UNL A   1      39.717  29.149  29.249  1.00  0.00     0.049 A 
ATOM     16  N   UNL A   1      42.541  29.217  30.281  1.00  0.00    -0.248 NA
ATOM     17  C   UNL A   1      42.915  27.163  29.239  1.00  0.00     0.031 C 
ATOM     18  C   UNL A   1      38.327  29.157  28.791  1.00  0.00     0.029 A 
ATOM     19  N   UNL A   1      39.855  30.339  29.918  1.00  0.00    -0.354 N 
ATOM     20  C   UNL A   1      43.849  28.816  30.519  1.00  0.00     0.074 A 
ATOM     21  C   UNL A   1      44.011  27.522  29.891  1.00  0.00     0.031 C 
ATOM     22  C   UNL A   1      37.744  30.301  29.180  1.00  0.00     0.029 A 
ATOM     23  C   UNL A   1      38.699  31.078  29.964  1.00  0.00     0.049 A 
ATOM     24  H   UNL A   1      40.700  30.634  30.326  1.00  0.00     0.167 HD
ATOM     25  C   UNL A   1      44.826  29.471  31.194  1.00  0.00     0.037 A 
ATOM     26  C   UNL A   1      38.425  32.237  30.594  1.00  0.00     0.037 A 
ATOM     27  C   UNL A   1      44.657  30.761  31.816  1.00  0.00     0.049 A 
ATOM     28  C   UNL A   1      39.510  32.922  31.377  1.00  0.00     0.074 A 
ATOM     29  C   UNL A   1      45.593  31.523  32.491  1.00  0.00     0.029 A 
ATOM     30  N   UNL A   1      43.464  31.473  31.851  1.00  0.00    -0.354 N 
ATOM     31  N   UNL A   1      40.753  32.554  31.564  1.00  0.00    -0.248 NA
ATOM     32  C   UNL A   1      39.152  34.185  32.037  1.00  0.00     0.031 C 
ATOM     33  C   UNL A   1      44.954  32.663  32.990  1.00  0.00     0.029 A 
ATOM     34  C   UNL A   1      43.636  32.650  32.563  1.00  0.00     0.049 A 
ATOM     35  H   UNL A   1      42.622  31.183  31.433  1.00  0.00     0.167 HD
ATOM     36  C   UNL A   1      41.337  33.552  32.332  1.00  0.00     0.074 A 
ATOM     37  C   UNL A   1      40.310  34.545  32.574  1.00  0.00     0.031 C 
ATOM     38  C   UNL A   1      42.610  33.638  32.790  1.00  0.00     0.037 A 
BRANCH  25  39
ATOM     39  C   UNL A   1      46.160  28.789  31.322  1.00  0.00     0.064 A 
ATOM     40  C   UNL A   1      46.458  27.940  32.400  1.00  0.00     0.173 A 
ATOM     41  C   UNL A   1      47.148  28.970  30.342  1.00  0.00     0.173 A 
ATOM     42  F   UNL A   1      45.556  27.736  33.371  1.00  0.00    -0.203 F 
ATOM     43  C   UNL A   1      47.708  27.334  32.511  1.00  0.00     0.198 A 
ATOM     44  C   UNL A   1      48.383  28.334  30.438  1.00  0.00     0.198 A 
ATOM     45  F   UNL A   1      46.913  29.761  29.283  1.00  0.00    -0.203 F 
ATOM     46  F   UNL A   1      47.992  26.579  33.582  1.00  0.00    -0.200 F 
ATOM     47  C   UNL A   1      48.667  27.526  31.527  1.00  0.00     0.200 A 
ATOM     48  F   UNL A   1      49.301  28.507  29.477  1.00  0.00    -0.200 F 
ATOM     49  F   UNL A   1      49.867  26.942  31.637  1.00  0.00    -0.200 F 
ENDBRANCH  25  39
BRANCH  26  50
ATOM     50  C   UNL A   1      37.059  32.812  30.503  1.00  0.00     0.064 A 
ATOM     51  C   UNL A   1      36.117  32.603  31.519  1.00  0.00     0.173 A 
ATOM     52  C   UNL A   1      36.678  33.608  29.412  1.00  0.00     0.173 A 
ATOM     53  F   UNL A   1      36.429  31.835  32.573  1.00  0.00    -0.203 F 
ATOM     54  C   UNL A   1      34.842  33.161  31.443  1.00  0.00     0.198 A 
ATOM     55  C   UNL A   1      35.413  34.190  29.353  1.00  0.00     0.198 A 
ATOM     56  F   UNL A   1      37.544  33.844  28.416  1.00  0.00    -0.203 F 
ATOM     57  F   UNL A   1      33.949  32.917  32.411  1.00  0.00    -0.200 F 
ATOM     58  C   UNL A   1      34.495  33.961  30.366  1.00  0.00     0.200 A 
ATOM     59  F   UNL A   1      35.089  34.979  28.318  1.00  0.00    -0.200 F 
ATOM     60  F   UNL A   1      33.273  34.509  30.301  1.00  0.00    -0.200 F 
ENDBRANCH  26  50
BRANCH  38  61
ATOM     61  C   UNL A   1      42.991  34.874  33.553  1.00  0.00     0.064 A 
ATOM     62  C   UNL A   1      43.370  36.061  32.908  1.00  0.00     0.173 A 
ATOM     63  C   UNL A   1      42.919  34.886  34.956  1.00  0.00     0.173 A 
ATOM     64  F   UNL A   1      43.469  36.099  31.570  1.00  0.00    -0.203 F 
ATOM     65  C   UNL A   1      43.682  37.205  33.639  1.00  0.00     0.198 A 
ATOM     66  C   UNL A   1      43.200  36.040  35.680  1.00  0.00     0.198 A 
ATOM     67  F   UNL A   1      42.557  33.779  35.623  1.00  0.00    -0.203 F 
ATOM     68  F   UNL A   1      44.084  38.314  33.002  1.00  0.00    -0.200 F 
ATOM     69  C   UNL A   1      43.587  37.196  35.022  1.00  0.00     0.200 A 
ATOM     70  F   UNL A   1      43.092  36.033  37.017  1.00  0.00    -0.200 F 
ATOM     71  F   UNL A   1      43.874  38.303  35.722  1.00  0.00    -0.200 F 
ENDBRANCH  38  61
ENDBRANCH  12  13
ENDBRANCH   5   7
ENDBRANCH   2   3
ENDBRANCH   1   2
BRANCH   1  72
ATOM     72  C   UNL A   1      41.056  19.491  26.086  1.00  0.00     0.118 C 
BRANCH  72  73
ATOM     73  N   UNL A   1      42.171  18.604  26.363  1.00  0.00    -0.351 N 
ATOM     74  C   UNL A   1      43.434  18.604  25.833  1.00  0.00     0.279 C 
ATOM     75  H   UNL A   1      41.995  17.902  27.029  1.00  0.00     0.163 HD
ATOM     76  O   UNL A   1      44.234  17.772  26.264  1.00  0.00    -0.268 OA
BRANCH  74  77
ATOM     77  C   UNL A   1      43.793  19.608  24.717  1.00  0.00     0.283 C 
ATOM     78  C   UNL A   1      45.083  19.197  24.003  1.00  0.00     0.151 C 
ATOM     79  N   UNL A   1      43.909  20.986  25.262  1.00  0.00    -0.320 N 
ATOM     80  S   UNL A   1      46.351  20.377  24.515  1.00  0.00    -0.087 SA
ATOM     81  C   UNL A   1      45.285  21.156  25.765  1.00  0.00     0.278 C 
ATOM     82  H   UNL A   1      43.243  21.117  26.022  1.00  0.00     0.348 HD
ATOM     83  H   UNL A   1      43.707  21.674  24.537  1.00  0.00     0.348 HD
BRANCH  81  84
ATOM     84  C   UNL A   1      45.597  22.619  26.067  1.00  0.00     0.063 A 
ATOM     85  C   UNL A   1      46.455  23.411  25.275  1.00  0.00     0.030 A 
ATOM     86  C   UNL A   1      44.992  23.246  27.172  1.00  0.00     0.125 A 
ATOM     87  C   UNL A   1      46.702  24.752  25.595  1.00  0.00     0.018 A 
ATOM     88  C   UNL A   1      45.224  24.589  27.482  1.00  0.00     0.048 A 
ATOM     89  Br  UNL A   1      47.890  25.769  24.530  1.00  0.00    -0.051 Br
ATOM     90  C   UNL A   1      46.086  25.345  26.691  1.00  0.00     0.019 A 
BRANCH  86  91
ATOM     91  O   UNL A   1      44.157  22.514  27.971  1.00  0.00    -0.507 OA
ATOM     92  H   UNL A   1      43.928  21.638  27.730  1.00  0.00     0.293 HD
ENDBRANCH  86  91
ENDBRANCH  81  84
ENDBRANCH  74  77
ENDBRANCH  72  73
ENDBRANCH   1  72
TORSDOF 12
ENDMDL
MODEL 2
REMARK VINA RESULT:     -11.3      5.651     10.184
REMARK SMILES O=C(NCCCNC(=O)[C@@H]1CS[C@@H](c2cc(Br)ccc2O)[NH2+]1)c1ccc(-c2c3nc(c(-c4c(F)c(F)c(F)c(F)c4F)c4ccc([nH]4)c(-c4c(F)c(F)c(F)c(F)c4F)c4nc(c(-c5c(F)c(F)c(F)c(F)c5F)c5ccc2[nH]5)C=C4)C=C3)cc1
REMARK SMILES IDX 5 1 4 2 3 3 1 4 2 5 23 7 24 8 85 9 25 10 84 11 26 12 27 13
REMARK SMILES IDX 28 14 78 15 29 16 83 17 77 18 79 19 30 20 82 21 76 22 75 23
REMARK SMILES IDX 31 25 63 26 43 27 62 28 44 29 47 30 61 31 80 32 45 33 46 34
REMARK SMILES IDX 60 36 81 37 48 38 32 39 33 40 41 41 34 42 35 43 39 44 42 45
REMARK SMILES IDX 36 46 37 47 40 48 38 49 64 50 65 51 73 52 66 53 67 54 71 55
REMARK SMILES IDX 74 56 68 57 69 58 72 59 70 60 49 61 50 62 58 63 51 64 52 65
REMARK SMILES IDX 56 66 59 67 53 68 54 69 57 70 55 71 6 72 7 73 8 74 9 76
REMARK SMILES IDX 10 77 11 78 22 79 12 80 13 81 14 84 15 85 20 86 16 87 19 88
REMARK SMILES IDX 17 89 18 90 21 91
REMARK H PARENT 3 6 79 24 47 35 7 75 22 82 22 83 21 92
REMARK Flexibility Score: inf
ROOT
ATOM      1  C   UNL A   1      31.403  32.114  26.723  1.00  0.00     0.042 C 
ENDROOT
BRANCH   1   2
ATOM      2  C   UNL A   1      32.676  32.919  26.985  1.00  0.00     0.118 C 
BRANCH   2   3
ATOM      3  N   UNL A   1      32.423  34.203  27.626  1.00  0.00    -0.352 N 
ATOM      4  O   UNL A   1      32.528  35.836  29.166  1.00  0.00    -0.269 OA
ATOM      5  C   UNL A   1      33.015  34.800  28.708  1.00  0.00     0.251 C 
ATOM      6  H   UNL A   1      31.703  34.730  27.211  1.00  0.00     0.163 HD
BRANCH   5   7
ATOM      7  C   UNL A   1      34.211  34.218  29.357  1.00  0.00     0.039 A 
ATOM      8  C   UNL A   1      35.504  34.557  28.953  1.00  0.00     0.014 A 
ATOM      9  C   UNL A   1      34.029  33.352  30.442  1.00  0.00     0.014 A 
ATOM     10  C   UNL A   1      36.605  33.931  29.538  1.00  0.00     0.010 A 
ATOM     11  C   UNL A   1      35.136  32.783  31.076  1.00  0.00     0.010 A 
ATOM     12  C   UNL A   1      36.434  33.041  30.608  1.00  0.00    -0.014 A 
BRANCH  12  13
ATOM     13  C   UNL A   1      37.610  32.404  31.255  1.00  0.00     0.031 A 
ATOM     14  C   UNL A   1      38.354  31.291  30.570  1.00  0.00     0.074 A 
ATOM     15  C   UNL A   1      37.999  32.816  32.477  1.00  0.00     0.049 A 
ATOM     16  N   UNL A   1      39.361  30.575  31.005  1.00  0.00    -0.248 NA
ATOM     17  C   UNL A   1      37.899  30.928  29.221  1.00  0.00     0.031 C 
ATOM     18  C   UNL A   1      37.358  33.883  33.246  1.00  0.00     0.029 A 
ATOM     19  N   UNL A   1      39.017  32.384  33.289  1.00  0.00    -0.354 N 
ATOM     20  C   UNL A   1      39.647  29.667  29.993  1.00  0.00     0.074 A 
ATOM     21  C   UNL A   1      38.686  29.901  28.937  1.00  0.00     0.031 C 
ATOM     22  C   UNL A   1      38.006  34.032  34.412  1.00  0.00     0.029 A 
ATOM     23  C   UNL A   1      39.067  33.034  34.497  1.00  0.00     0.049 A 
ATOM     24  H   UNL A   1      39.650  31.676  33.030  1.00  0.00     0.167 HD
ATOM     25  C   UNL A   1      40.627  28.731  29.949  1.00  0.00     0.037 A 
ATOM     26  C   UNL A   1      39.855  32.829  35.569  1.00  0.00     0.037 A 
ATOM     27  C   UNL A   1      41.581  28.505  31.006  1.00  0.00     0.049 A 
ATOM     28  C   UNL A   1      40.903  31.752  35.516  1.00  0.00     0.074 A 
ATOM     29  C   UNL A   1      42.632  27.606  31.042  1.00  0.00     0.029 A 
ATOM     30  N   UNL A   1      41.591  29.177  32.221  1.00  0.00    -0.354 N 
ATOM     31  N   UNL A   1      41.190  30.925  34.542  1.00  0.00    -0.248 NA
ATOM     32  C   UNL A   1      41.736  31.580  36.714  1.00  0.00     0.031 C 
ATOM     33  C   UNL A   1      43.236  27.687  32.301  1.00  0.00     0.029 A 
ATOM     34  C   UNL A   1      42.610  28.689  33.024  1.00  0.00     0.049 A 
ATOM     35  H   UNL A   1      40.964  29.893  32.475  1.00  0.00     0.167 HD
ATOM     36  C   UNL A   1      42.257  30.159  34.991  1.00  0.00     0.074 A 
ATOM     37  C   UNL A   1      42.568  30.623  36.328  1.00  0.00     0.031 C 
ATOM     38  C   UNL A   1      42.919  29.165  34.350  1.00  0.00     0.037 A 
BRANCH  25  39
ATOM     39  C   UNL A   1      40.696  27.855  28.729  1.00  0.00     0.064 A 
ATOM     40  C   UNL A   1      41.496  28.183  27.623  1.00  0.00     0.173 A 
ATOM     41  C   UNL A   1      39.966  26.657  28.672  1.00  0.00     0.173 A 
ATOM     42  F   UNL A   1      42.209  29.319  27.618  1.00  0.00    -0.203 F 
ATOM     43  C   UNL A   1      41.529  27.368  26.494  1.00  0.00     0.198 A 
ATOM     44  C   UNL A   1      40.030  25.826  27.556  1.00  0.00     0.198 A 
ATOM     45  F   UNL A   1      39.192  26.286  29.704  1.00  0.00    -0.203 F 
ATOM     46  F   UNL A   1      42.252  27.734  25.426  1.00  0.00    -0.200 F 
ATOM     47  C   UNL A   1      40.801  26.188  26.463  1.00  0.00     0.200 A 
ATOM     48  F   UNL A   1      39.338  24.678  27.536  1.00  0.00    -0.200 F 
ATOM     49  F   UNL A   1      40.836  25.405  25.376  1.00  0.00    -0.200 F 
ENDBRANCH  25  39
BRANCH  26  50
ATOM     50  C   UNL A   1      39.674  33.670  36.780  1.00  0.00     0.064 A 
ATOM     51  C   UNL A   1      40.317  34.909  36.903  1.00  0.00     0.173 A 
ATOM     52  C   UNL A   1      38.831  33.265  37.825  1.00  0.00     0.173 A 
ATOM     53  F   UNL A   1      41.147  35.331  35.938  1.00  0.00    -0.203 F 
ATOM     54  C   UNL A   1      40.130  35.707  38.030  1.00  0.00     0.198 A 
ATOM     55  C   UNL A   1      38.621  34.077  38.937  1.00  0.00     0.198 A 
ATOM     56  F   UNL A   1      38.188  32.091  37.753  1.00  0.00    -0.203 F 
ATOM     57  F   UNL A   1      40.784  36.871  38.139  1.00  0.00    -0.200 F 
ATOM     58  C   UNL A   1      39.275  35.295  39.041  1.00  0.00     0.200 A 
ATOM     59  F   UNL A   1      37.778  33.683  39.903  1.00  0.00    -0.200 F 
ATOM     60  F   UNL A   1      39.086  36.069  40.118  1.00  0.00    -0.200 F 
ENDBRANCH  26  50
BRANCH  38  61
ATOM     61  C   UNL A   1      44.089  28.542  35.059  1.00  0.00     0.064 A 
ATOM     62  C   UNL A   1      43.944  27.424  35.893  1.00  0.00     0.173 A 
ATOM     63  C   UNL A   1      45.385  29.042  34.852  1.00  0.00     0.173 A 
ATOM     64  F   UNL A   1      42.726  26.916  36.137  1.00  0.00    -0.203 F 
ATOM     65  C   UNL A   1      45.051  26.843  36.509  1.00  0.00     0.198 A 
ATOM     66  C   UNL A   1      46.490  28.439  35.443  1.00  0.00     0.198 A 
ATOM     67  F   UNL A   1      45.580  30.107  34.059  1.00  0.00    -0.203 F 
ATOM     68  F   UNL A   1      44.883  25.802  37.337  1.00  0.00    -0.200 F 
ATOM     69  C   UNL A   1      46.322  27.344  36.276  1.00  0.00     0.200 A 
ATOM     70  F   UNL A   1      47.720  28.916  35.202  1.00  0.00    -0.200 F 
ATOM     71  F   UNL A   1      47.387  26.774  36.858  1.00  0.00    -0.200 F 
ENDBRANCH  38  61
ENDBRANCH  12  13
ENDBRANCH   5   7
ENDBRANCH   2   3
ENDBRANCH   1   2
BRANCH   1  72
ATOM     72  C   UNL A   1      31.636  30.670  26.283  1.00  0.00     0.118 C 
BRANCH  72  73
ATOM     73  N   UNL A   1      31.028  30.366  25.001  1.00  0.00    -0.351 N 
ATOM     74  C   UNL A   1      31.328  29.368  24.112  1.00  0.00     0.279 C 
ATOM     75  H   UNL A   1      30.293  30.962  24.732  1.00  0.00     0.163 HD
ATOM     76  O   UNL A   1      30.633  29.278  23.098  1.00  0.00    -0.268 OA
BRANCH  74  77
ATOM     77  C   UNL A   1      32.518  28.427  24.394  1.00  0.00     0.283 C 
ATOM     78  C   UNL A   1      33.225  28.032  23.095  1.00  0.00     0.151 C 
ATOM     79  N   UNL A   1      32.076  27.221  25.140  1.00  0.00    -0.320 N 
ATOM     80  S   UNL A   1      32.822  26.297  22.799  1.00  0.00    -0.087 SA
ATOM     81  C   UNL A   1      31.612  26.228  24.155  1.00  0.00     0.278 C 
ATOM     82  H   UNL A   1      31.315  27.464  25.774  1.00  0.00     0.348 HD
ATOM     83  H   UNL A   1      32.845  26.843  25.693  1.00  0.00     0.348 HD
BRANCH  81  84
ATOM     84  C   UNL A   1      31.421  24.853  24.788  1.00  0.00     0.063 A 
ATOM     85  C   UNL A   1      32.016  23.676  24.287  1.00  0.00     0.030 A 
ATOM     86  C   UNL A   1      30.637  24.725  25.950  1.00  0.00     0.125 A 
ATOM     87  C   UNL A   1      31.812  22.439  24.912  1.00  0.00     0.018 A 
ATOM     88  C   UNL A   1      30.447  23.494  26.585  1.00  0.00     0.048 A 
ATOM     89  Br  UNL A   1      32.595  20.878  24.185  1.00  0.00    -0.051 Br
ATOM     90  C   UNL A   1      31.035  22.344  26.061  1.00  0.00     0.019 A 
BRANCH  86  91
ATOM     91  O   UNL A   1      30.037  25.840  26.467  1.00  0.00    -0.507 OA
ATOM     92  H   UNL A   1      30.001  25.964  27.395  1.00  0.00     0.293 HD
ENDBRANCH  86  91
ENDBRANCH  81  84
ENDBRANCH  74  77
ENDBRANCH  72  73
ENDBRANCH   1  72
TORSDOF 12
ENDMDL
MODEL 3
REMARK VINA RESULT:     -11.2      5.323      9.484
REMARK SMILES O=C(NCCCNC(=O)[C@@H]1CS[C@@H](c2cc(Br)ccc2O)[NH2+]1)c1ccc(-c2c3nc(c(-c4c(F)c(F)c(F)c(F)c4F)c4ccc([nH]4)c(-c4c(F)c(F)c(F)c(F)c4F)c4nc(c(-c5c(F)c(F)c(F)c(F)c5F)c5ccc2[nH]5)C=C4)C=C3)cc1
REMARK SMILES IDX 5 1 4 2 3 3 1 4 2 5 23 7 24 8 85 9 25 10 84 11 26 12 27 13
REMARK SMILES IDX 28 14 78 15 29 16 83 17 77 18 79 19 30 20 82 21 76 22 75 23
REMARK SMILES IDX 31 25 63 26 43 27 62 28 44 29 47 30 61 31 80 32 45 33 46 34
REMARK SMILES IDX 60 36 81 37 48 38 32 39 33 40 41 41 34 42 35 43 39 44 42 45
REMARK SMILES IDX 36 46 37 47 40 48 38 49 64 50 65 51 73 52 66 53 67 54 71 55
REMARK SMILES IDX 74 56 68 57 69 58 72 59 70 60 49 61 50 62 58 63 51 64 52 65
REMARK SMILES IDX 56 66 59 67 53 68 54 69 57 70 55 71 6 72 7 73 8 74 9 76
REMARK SMILES IDX 10 77 11 78 22 79 12 80 13 81 14 84 15 85 20 86 16 87 19 88
REMARK SMILES IDX 17 89 18 90 21 91
REMARK H PARENT 3 6 79 24 47 35 7 75 22 82 22 83 21 92
REMARK Flexibility Score: inf
ROOT
ATOM      1  C   UNL A   1      31.282  32.271  26.501  1.00  0.00     0.042 C 
ENDROOT
BRANCH   1   2
ATOM      2  C   UNL A   1      32.564  32.903  27.041  1.00  0.00     0.118 C 
BRANCH   2   3
ATOM      3  N   UNL A   1      32.354  34.221  27.626  1.00  0.00    -0.352 N 
ATOM      4  O   UNL A   1      32.529  35.922  29.084  1.00  0.00    -0.269 OA
ATOM      5  C   UNL A   1      32.983  34.854  28.667  1.00  0.00     0.251 C 
ATOM      6  H   UNL A   1      31.637  34.745  27.202  1.00  0.00     0.163 HD
BRANCH   5   7
ATOM      7  C   UNL A   1      34.178  34.275  29.318  1.00  0.00     0.039 A 
ATOM      8  C   UNL A   1      35.470  34.562  28.870  1.00  0.00     0.014 A 
ATOM      9  C   UNL A   1      34.000  33.467  30.447  1.00  0.00     0.014 A 
ATOM     10  C   UNL A   1      36.568  33.939  29.462  1.00  0.00     0.010 A 
ATOM     11  C   UNL A   1      35.107  32.902  31.086  1.00  0.00     0.010 A 
ATOM     12  C   UNL A   1      36.400  33.106  30.578  1.00  0.00    -0.014 A 
BRANCH  12  13
ATOM     13  C   UNL A   1      37.576  32.472  31.231  1.00  0.00     0.031 A 
ATOM     14  C   UNL A   1      38.317  31.352  30.555  1.00  0.00     0.074 A 
ATOM     15  C   UNL A   1      37.965  32.895  32.449  1.00  0.00     0.049 A 
ATOM     16  N   UNL A   1      39.323  30.638  30.997  1.00  0.00    -0.248 NA
ATOM     17  C   UNL A   1      37.861  30.978  29.210  1.00  0.00     0.031 C 
ATOM     18  C   UNL A   1      37.327  33.970  33.209  1.00  0.00     0.029 A 
ATOM     19  N   UNL A   1      38.982  32.467  33.264  1.00  0.00    -0.354 N 
ATOM     20  C   UNL A   1      39.607  29.721  29.993  1.00  0.00     0.074 A 
ATOM     21  C   UNL A   1      38.646  29.946  28.935  1.00  0.00     0.031 C 
ATOM     22  C   UNL A   1      37.975  34.128  34.373  1.00  0.00     0.029 A 
ATOM     23  C   UNL A   1      39.033  33.128  34.467  1.00  0.00     0.049 A 
ATOM     24  H   UNL A   1      39.614  31.756  33.012  1.00  0.00     0.167 HD
ATOM     25  C   UNL A   1      40.585  28.782  29.957  1.00  0.00     0.037 A 
ATOM     26  C   UNL A   1      39.822  32.932  35.540  1.00  0.00     0.037 A 
ATOM     27  C   UNL A   1      41.539  28.564  31.016  1.00  0.00     0.049 A 
ATOM     28  C   UNL A   1      40.868  31.852  35.497  1.00  0.00     0.074 A 
ATOM     29  C   UNL A   1      42.588  27.663  31.060  1.00  0.00     0.029 A 
ATOM     30  N   UNL A   1      41.550  29.246  32.225  1.00  0.00    -0.354 N 
ATOM     31  N   UNL A   1      41.153  31.016  34.530  1.00  0.00    -0.248 NA
ATOM     32  C   UNL A   1      41.701  31.690  36.696  1.00  0.00     0.031 C 
ATOM     33  C   UNL A   1      43.193  27.754  32.318  1.00  0.00     0.029 A 
ATOM     34  C   UNL A   1      42.569  28.764  33.032  1.00  0.00     0.049 A 
ATOM     35  H   UNL A   1      40.925  29.966  32.473  1.00  0.00     0.167 HD
ATOM     36  C   UNL A   1      42.218  30.252  34.987  1.00  0.00     0.074 A 
ATOM     37  C   UNL A   1      42.530  30.727  36.319  1.00  0.00     0.031 C 
ATOM     38  C   UNL A   1      42.879  29.251  34.354  1.00  0.00     0.037 A 
BRANCH  25  39
ATOM     39  C   UNL A   1      40.652  27.895  28.745  1.00  0.00     0.064 A 
ATOM     40  C   UNL A   1      39.942  26.686  28.668  1.00  0.00     0.173 A 
ATOM     41  C   UNL A   1      41.422  28.270  27.632  1.00  0.00     0.173 A 
ATOM     42  F   UNL A   1      39.197  26.273  29.704  1.00  0.00    -0.203 F 
ATOM     43  C   UNL A   1      40.036  25.869  27.544  1.00  0.00     0.198 A 
ATOM     44  C   UNL A   1      41.484  27.468  26.496  1.00  0.00     0.198 A 
ATOM     45  F   UNL A   1      42.113  29.421  27.644  1.00  0.00    -0.203 F 
ATOM     46  F   UNL A   1      39.399  24.689  27.520  1.00  0.00    -0.200 F 
ATOM     47  C   UNL A   1      40.801  26.263  26.456  1.00  0.00     0.200 A 
ATOM     48  F   UNL A   1      42.211  27.859  25.440  1.00  0.00    -0.200 F 
ATOM     49  F   UNL A   1      40.888  25.475  25.376  1.00  0.00    -0.200 F 
ENDBRANCH  25  39
BRANCH  26  50
ATOM     50  C   UNL A   1      39.643  33.784  36.744  1.00  0.00     0.064 A 
ATOM     51  C   UNL A   1      40.270  35.033  36.846  1.00  0.00     0.173 A 
ATOM     52  C   UNL A   1      38.816  33.379  37.803  1.00  0.00     0.173 A 
ATOM     53  F   UNL A   1      41.084  35.455  35.868  1.00  0.00    -0.203 F 
ATOM     54  C   UNL A   1      40.084  35.840  37.966  1.00  0.00     0.198 A 
ATOM     55  C   UNL A   1      38.607  34.201  38.908  1.00  0.00     0.198 A 
ATOM     56  F   UNL A   1      38.188  32.196  37.751  1.00  0.00    -0.203 F 
ATOM     57  F   UNL A   1      40.724  37.014  38.055  1.00  0.00    -0.200 F 
ATOM     58  C   UNL A   1      39.246  35.429  38.991  1.00  0.00     0.200 A 
ATOM     59  F   UNL A   1      37.781  33.807  39.887  1.00  0.00    -0.200 F 
ATOM     60  F   UNL A   1      39.058  36.213  40.061  1.00  0.00    -0.200 F 
ENDBRANCH  26  50
BRANCH  38  61
ATOM     61  C   UNL A   1      44.047  28.632  35.068  1.00  0.00     0.064 A 
ATOM     62  C   UNL A   1      45.336  29.181  34.999  1.00  0.00     0.173 A 
ATOM     63  C   UNL A   1      43.858  27.502  35.880  1.00  0.00     0.173 A 
ATOM     64  F   UNL A   1      45.574  30.251  34.225  1.00  0.00    -0.203 F 
ATOM     65  C   UNL A   1      46.396  28.609  35.701  1.00  0.00     0.198 A 
ATOM     66  C   UNL A   1      44.912  26.954  36.605  1.00  0.00     0.198 A 
ATOM     67  F   UNL A   1      42.644  26.941  35.986  1.00  0.00    -0.203 F 
ATOM     68  F   UNL A   1      47.628  29.124  35.585  1.00  0.00    -0.200 F 
ATOM     69  C   UNL A   1      46.181  27.504  36.510  1.00  0.00     0.200 A 
ATOM     70  F   UNL A   1      44.698  25.896  37.399  1.00  0.00    -0.200 F 
ATOM     71  F   UNL A   1      47.199  26.964  37.195  1.00  0.00    -0.200 F 
ENDBRANCH  38  61
ENDBRANCH  12  13
ENDBRANCH   5   7
ENDBRANCH   2   3
ENDBRANCH   1   2
BRANCH   1  72
ATOM     72  C   UNL A   1      31.413  30.807  26.085  1.00  0.00     0.118 C 
BRANCH  72  73
ATOM     73  N   UNL A   1      32.485  30.118  26.779  1.00  0.00    -0.351 N 
ATOM     74  C   UNL A   1      33.000  28.868  26.559  1.00  0.00     0.279 C 
ATOM     75  H   UNL A   1      32.904  30.621  27.513  1.00  0.00     0.163 HD
ATOM     76  O   UNL A   1      33.954  28.513  27.253  1.00  0.00    -0.268 OA
BRANCH  74  77
ATOM     77  C   UNL A   1      32.362  27.957  25.488  1.00  0.00     0.283 C 
ATOM     78  C   UNL A   1      31.250  27.096  26.092  1.00  0.00     0.151 C 
ATOM     79  N   UNL A   1      33.391  27.107  24.834  1.00  0.00    -0.320 N 
ATOM     80  S   UNL A   1      31.885  25.406  26.152  1.00  0.00    -0.087 SA
ATOM     81  C   UNL A   1      33.566  25.898  25.661  1.00  0.00     0.278 C 
ATOM     82  H   UNL A   1      34.273  27.615  24.771  1.00  0.00     0.348 HD
ATOM     83  H   UNL A   1      33.097  26.855  23.892  1.00  0.00     0.348 HD
BRANCH  81  84
ATOM     84  C   UNL A   1      34.370  24.828  24.929  1.00  0.00     0.063 A 
ATOM     85  C   UNL A   1      35.506  24.197  25.478  1.00  0.00     0.030 A 
ATOM     86  C   UNL A   1      33.966  24.408  23.648  1.00  0.00     0.125 A 
ATOM     87  C   UNL A   1      36.204  23.215  24.765  1.00  0.00     0.018 A 
ATOM     88  C   UNL A   1      34.652  23.415  22.942  1.00  0.00     0.048 A 
ATOM     89  Br  UNL A   1      37.747  22.421  25.520  1.00  0.00    -0.051 Br
ATOM     90  C   UNL A   1      35.779  22.818  23.502  1.00  0.00     0.019 A 
BRANCH  86  91
ATOM     91  O   UNL A   1      32.873  24.997  23.075  1.00  0.00    -0.507 OA
ATOM     92  H   UNL A   1      32.773  25.928  23.104  1.00  0.00     0.293 HD
ENDBRANCH  86  91
ENDBRANCH  81  84
ENDBRANCH  74  77
ENDBRANCH  72  73
ENDBRANCH   1  72
TORSDOF 12
ENDMDL
