MODEL 1
REMARK VINA RESULT:     -12.9      0.000      0.000
REMARK SMILES CC1=C(C(=O)NCCCNC(=O)c2ccc(-c3c4nc(c(-c5c(F)c(F)c(F)c(F)c5F)c5ccc([nH]5)c(-c5c(F)c(F)c(F)c(F)c5F)c5nc(c(-c6c(F)c(F)c(F)c(F)c6F)c6ccc3[nH]6)C=C5)C=C4)cc2)N2C(=O)[C@H](NC(=O)c3c(Cl)c(C(F)(F)F)nn3C)[C@@H]2SC1
REMARK SMILES IDX 7 1 6 2 4 3 5 4 3 6 1 7 2 8 96 9 76 10 95 11 77 12 94 13
REMARK SMILES IDX 78 14 79 15 80 16 81 17 82 19 83 20 84 21 92 22 85 23 86 24
REMARK SMILES IDX 91 25 93 26 87 27 88 28 89 29 90 30 8 31 9 32 10 33 11 34
REMARK SMILES IDX 12 36 13 37 14 38 75 39 15 40 74 41 16 42 17 43 18 44 68 45
REMARK SMILES IDX 19 46 73 47 67 48 69 49 20 50 72 51 66 52 65 53 21 55 53 56
REMARK SMILES IDX 33 57 52 58 34 59 37 60 51 61 70 62 35 63 36 64 50 66 71 67
REMARK SMILES IDX 38 68 22 69 23 70 31 71 24 72 25 73 29 74 32 75 26 76 27 77
REMARK SMILES IDX 30 78 28 79 54 80 55 81 63 82 56 83 57 84 61 85 64 86 58 87
REMARK SMILES IDX 59 88 62 89 60 90 39 91 40 92 48 93 41 94 42 95 46 96 49 97
REMARK SMILES IDX 43 98 44 99 47 100 45 101
REMARK H PARENT 6 5 80 18 10 35 69 54 37 65
REMARK Flexibility Score: inf
ROOT
ATOM      1  C   UNL A   1      36.713  20.741  24.754  1.00  0.00     0.118 C 
ENDROOT
BRANCH   1   2
ATOM      2  N   UNL A   1      35.949  21.154  25.920  1.00  0.00    -0.351 N 
ATOM      3  C   UNL A   1      34.603  21.392  26.069  1.00  0.00     0.268 C 
ATOM      4  O   UNL A   1      34.156  21.457  27.210  1.00  0.00    -0.268 OA
ATOM      5  H   UNL A   1      36.483  21.287  26.737  1.00  0.00     0.163 HD
BRANCH   3   6
ATOM      6  C   UNL A   1      33.742  21.646  24.852  1.00  0.00     0.110 C 
ATOM      7  C   UNL A   1      32.776  19.303  24.874  1.00  0.00     0.043 C 
ATOM      8  C   UNL A   1      33.030  20.657  24.256  1.00  0.00    -0.034 C 
ATOM      9  C   UNL A   1      32.311  20.834  22.942  1.00  0.00     0.104 C 
ATOM     10  N   UNL A   1      33.590  22.942  24.433  1.00  0.00    -0.290 N 
ATOM     11  S   UNL A   1      31.484  22.429  22.833  1.00  0.00    -0.129 SA
ATOM     12  C   UNL A   1      33.616  24.167  25.020  1.00  0.00     0.253 C 
ATOM     13  C   UNL A   1      32.998  23.367  23.184  1.00  0.00     0.181 C 
ATOM     14  O   UNL A   1      33.997  24.593  26.081  1.00  0.00    -0.272 OA
ATOM     15  C   UNL A   1      32.788  24.774  23.835  1.00  0.00     0.206 C 
BRANCH  15  16
ATOM     16  N   UNL A   1      31.377  25.133  24.153  1.00  0.00    -0.336 N 
ATOM     17  C   UNL A   1      30.830  26.317  24.579  1.00  0.00     0.271 C 
ATOM     18  H   UNL A   1      30.730  24.399  24.040  1.00  0.00     0.164 HD
ATOM     19  O   UNL A   1      29.609  26.379  24.700  1.00  0.00    -0.267 OA
BRANCH  17  20
ATOM     20  C   UNL A   1      31.694  27.417  24.895  1.00  0.00     0.145 A 
ATOM     21  C   UNL A   1      31.929  27.974  26.138  1.00  0.00     0.104 A 
ATOM     22  N   UNL A   1      32.352  28.239  24.020  1.00  0.00    -0.261 N 
ATOM     23  Cl  UNL A   1      31.285  27.489  27.634  1.00  0.00    -0.079 Cl
ATOM     24  C   UNL A   1      32.843  29.035  25.933  1.00  0.00     0.185 A 
ATOM     25  N   UNL A   1      33.135  29.156  24.620  1.00  0.00    -0.166 NA
ATOM     26  C   UNL A   1      32.265  28.265  22.579  1.00  0.00     0.174 C 
BRANCH  24  27
ATOM     27  C   UNL A   1      33.420  29.928  26.991  1.00  0.00     0.436 C 
ATOM     28  F   UNL A   1      32.456  30.648  27.625  1.00  0.00    -0.164 F 
ATOM     29  F   UNL A   1      34.075  29.223  27.952  1.00  0.00    -0.164 F 
ATOM     30  F   UNL A   1      34.315  30.829  26.503  1.00  0.00    -0.164 F 
ENDBRANCH  24  27
ENDBRANCH  17  20
ENDBRANCH  15  16
ENDBRANCH   3   6
ENDBRANCH   1   2
BRANCH   1  31
ATOM     31  C   UNL A   1      37.780  19.686  25.001  1.00  0.00     0.042 C 
BRANCH  31  32
ATOM     32  C   UNL A   1      39.014  20.162  25.754  1.00  0.00     0.118 C 
BRANCH  32  33
ATOM     33  N   UNL A   1      40.084  19.177  25.845  1.00  0.00    -0.352 N 
ATOM     34  C   UNL A   1      41.431  19.283  26.105  1.00  0.00     0.251 C 
ATOM     35  H   UNL A   1      39.784  18.252  25.688  1.00  0.00     0.163 HD
ATOM     36  O   UNL A   1      42.128  18.273  26.033  1.00  0.00    -0.269 OA
BRANCH  34  37
ATOM     37  C   UNL A   1      42.074  20.582  26.421  1.00  0.00     0.039 A 
ATOM     38  C   UNL A   1      42.516  21.389  25.365  1.00  0.00     0.014 A 
ATOM     39  C   UNL A   1      42.279  21.010  27.729  1.00  0.00     0.014 A 
ATOM     40  C   UNL A   1      43.068  22.650  25.623  1.00  0.00     0.010 A 
ATOM     41  C   UNL A   1      42.709  22.311  27.982  1.00  0.00     0.010 A 
ATOM     42  C   UNL A   1      43.118  23.147  26.933  1.00  0.00    -0.014 A 
BRANCH  42  43
ATOM     43  C   UNL A   1      43.615  24.516  27.244  1.00  0.00     0.031 A 
ATOM     44  C   UNL A   1      42.667  25.558  27.781  1.00  0.00     0.074 A 
ATOM     45  C   UNL A   1      44.889  24.855  26.953  1.00  0.00     0.049 A 
ATOM     46  N   UNL A   1      42.862  26.840  27.970  1.00  0.00    -0.248 NA
ATOM     47  C   UNL A   1      41.303  25.112  28.107  1.00  0.00     0.031 C 
ATOM     48  C   UNL A   1      45.894  23.966  26.369  1.00  0.00     0.029 A 
ATOM     49  N   UNL A   1      45.551  26.051  27.094  1.00  0.00    -0.354 N 
ATOM     50  C   UNL A   1      41.638  27.353  28.383  1.00  0.00     0.074 A 
ATOM     51  C   UNL A   1      40.695  26.258  28.376  1.00  0.00     0.031 C 
ATOM     52  C   UNL A   1      47.049  24.637  26.223  1.00  0.00     0.029 A 
ATOM     53  C   UNL A   1      46.857  26.014  26.664  1.00  0.00     0.049 A 
ATOM     54  H   UNL A   1      45.131  26.859  27.467  1.00  0.00     0.167 HD
ATOM     55  C   UNL A   1      41.333  28.618  28.758  1.00  0.00     0.037 A 
ATOM     56  C   UNL A   1      47.791  26.984  26.624  1.00  0.00     0.037 A 
ATOM     57  C   UNL A   1      42.289  29.687  28.850  1.00  0.00     0.049 A 
ATOM     58  C   UNL A   1      47.441  28.361  27.120  1.00  0.00     0.074 A 
ATOM     59  C   UNL A   1      42.099  30.978  29.315  1.00  0.00     0.029 A 
ATOM     60  N   UNL A   1      43.622  29.585  28.484  1.00  0.00    -0.354 N 
ATOM     61  N   UNL A   1      46.298  28.812  27.577  1.00  0.00    -0.248 NA
ATOM     62  C   UNL A   1      48.516  29.365  27.106  1.00  0.00     0.031 C 
ATOM     63  C   UNL A   1      43.312  31.665  29.203  1.00  0.00     0.029 A 
ATOM     64  C   UNL A   1      44.265  30.790  28.708  1.00  0.00     0.049 A 
ATOM     65  H   UNL A   1      44.048  28.775  28.120  1.00  0.00     0.167 HD
ATOM     66  C   UNL A   1      46.527  30.132  27.942  1.00  0.00     0.074 A 
ATOM     67  C   UNL A   1      47.919  30.408  27.664  1.00  0.00     0.031 C 
ATOM     68  C   UNL A   1      45.660  31.036  28.458  1.00  0.00     0.037 A 
BRANCH  55  69
ATOM     69  C   UNL A   1      39.909  28.919  29.127  1.00  0.00     0.064 A 
ATOM     70  C   UNL A   1      38.975  29.352  28.175  1.00  0.00     0.173 A 
ATOM     71  C   UNL A   1      39.457  28.705  30.439  1.00  0.00     0.173 A 
ATOM     72  F   UNL A   1      39.359  29.583  26.910  1.00  0.00    -0.203 F 
ATOM     73  C   UNL A   1      37.647  29.581  28.525  1.00  0.00     0.198 A 
ATOM     74  C   UNL A   1      38.122  28.905  30.780  1.00  0.00     0.198 A 
ATOM     75  F   UNL A   1      40.308  28.285  31.387  1.00  0.00    -0.203 F 
ATOM     76  F   UNL A   1      36.783  30.032  27.607  1.00  0.00    -0.200 F 
ATOM     77  C   UNL A   1      37.219  29.348  29.824  1.00  0.00     0.200 A 
ATOM     78  F   UNL A   1      37.707  28.667  32.031  1.00  0.00    -0.200 F 
ATOM     79  F   UNL A   1      35.937  29.552  30.155  1.00  0.00    -0.200 F 
ENDBRANCH  55  69
BRANCH  56  80
ATOM     80  C   UNL A   1      49.161  26.692  26.123  1.00  0.00     0.064 A 
ATOM     81  C   UNL A   1      49.518  26.981  24.798  1.00  0.00     0.173 A 
ATOM     82  C   UNL A   1      50.125  26.085  26.939  1.00  0.00     0.173 A 
ATOM     83  F   UNL A   1      48.623  27.545  23.972  1.00  0.00    -0.203 F 
ATOM     84  C   UNL A   1      50.772  26.639  24.298  1.00  0.00     0.198 A 
ATOM     85  C   UNL A   1      51.391  25.772  26.446  1.00  0.00     0.198 A 
ATOM     86  F   UNL A   1      49.839  25.795  28.217  1.00  0.00    -0.203 F 
ATOM     87  F   UNL A   1      51.063  26.870  23.009  1.00  0.00    -0.200 F 
ATOM     88  C   UNL A   1      51.709  26.038  25.122  1.00  0.00     0.200 A 
ATOM     89  F   UNL A   1      52.299  25.203  27.251  1.00  0.00    -0.200 F 
ATOM     90  F   UNL A   1      52.913  25.703  24.640  1.00  0.00    -0.200 F 
ENDBRANCH  56  80
BRANCH  68  91
ATOM     91  C   UNL A   1      46.206  32.386  28.819  1.00  0.00     0.064 A 
ATOM     92  C   UNL A   1      46.741  32.650  30.087  1.00  0.00     0.173 A 
ATOM     93  C   UNL A   1      46.225  33.416  27.866  1.00  0.00     0.173 A 
ATOM     94  F   UNL A   1      46.732  31.702  31.036  1.00  0.00    -0.203 F 
ATOM     95  C   UNL A   1      47.253  33.907  30.398  1.00  0.00     0.198 A 
ATOM     96  C   UNL A   1      46.765  34.662  28.171  1.00  0.00     0.198 A 
ATOM     97  F   UNL A   1      45.732  33.209  26.636  1.00  0.00    -0.203 F 
ATOM     98  F   UNL A   1      47.716  34.154  31.631  1.00  0.00    -0.200 F 
ATOM     99  C   UNL A   1      47.270  34.910  29.438  1.00  0.00     0.200 A 
ATOM    100  F   UNL A   1      46.792  35.624  27.238  1.00  0.00    -0.200 F 
ATOM    101  F   UNL A   1      47.768  36.117  29.737  1.00  0.00    -0.200 F 
ENDBRANCH  68  91
ENDBRANCH  42  43
ENDBRANCH  34  37
ENDBRANCH  32  33
ENDBRANCH  31  32
ENDBRANCH   1  31
TORSDOF 13
ENDMDL
MODEL 2
REMARK VINA RESULT:     -12.8      1.736      7.318
REMARK SMILES CC1=C(C(=O)NCCCNC(=O)c2ccc(-c3c4nc(c(-c5c(F)c(F)c(F)c(F)c5F)c5ccc([nH]5)c(-c5c(F)c(F)c(F)c(F)c5F)c5nc(c(-c6c(F)c(F)c(F)c(F)c6F)c6ccc3[nH]6)C=C5)C=C4)cc2)N2C(=O)[C@H](NC(=O)c3c(Cl)c(C(F)(F)F)nn3C)[C@@H]2SC1
REMARK SMILES IDX 7 1 6 2 4 3 5 4 3 6 1 7 2 8 96 9 76 10 95 11 77 12 94 13
REMARK SMILES IDX 78 14 79 15 80 16 81 17 82 19 83 20 84 21 92 22 85 23 86 24
REMARK SMILES IDX 91 25 93 26 87 27 88 28 89 29 90 30 8 31 9 32 10 33 11 34
REMARK SMILES IDX 12 36 13 37 14 38 75 39 15 40 74 41 16 42 17 43 18 44 68 45
REMARK SMILES IDX 19 46 73 47 67 48 69 49 20 50 72 51 66 52 65 53 21 55 53 56
REMARK SMILES IDX 33 57 52 58 34 59 37 60 51 61 70 62 35 63 36 64 50 66 71 67
REMARK SMILES IDX 38 68 22 69 23 70 31 71 24 72 25 73 29 74 32 75 26 76 27 77
REMARK SMILES IDX 30 78 28 79 54 80 55 81 63 82 56 83 57 84 61 85 64 86 58 87
REMARK SMILES IDX 59 88 62 89 60 90 39 91 40 92 48 93 41 94 42 95 46 96 49 97
REMARK SMILES IDX 43 98 44 99 47 100 45 101
REMARK H PARENT 6 5 80 18 10 35 69 54 37 65
REMARK Flexibility Score: inf
ROOT
ATOM      1  C   UNL A   1      35.337  20.238  24.983  1.00  0.00     0.118 C 
ENDROOT
BRANCH   1   2
ATOM      2  N   UNL A   1      33.960  20.155  25.442  1.00  0.00    -0.351 N 
ATOM      3  C   UNL A   1      32.817  20.739  24.949  1.00  0.00     0.268 C 
ATOM      4  O   UNL A   1      31.738  20.298  25.333  1.00  0.00    -0.268 OA
ATOM      5  H   UNL A   1      33.823  19.589  26.236  1.00  0.00     0.163 HD
BRANCH   3   6
ATOM      6  C   UNL A   1      32.916  21.938  24.034  1.00  0.00     0.110 C 
ATOM      7  C   UNL A   1      32.117  20.635  22.012  1.00  0.00     0.043 C 
ATOM      8  C   UNL A   1      32.723  21.838  22.694  1.00  0.00    -0.034 C 
ATOM      9  C   UNL A   1      32.992  22.970  21.735  1.00  0.00     0.104 C 
ATOM     10  N   UNL A   1      33.080  23.172  24.607  1.00  0.00    -0.290 N 
ATOM     11  S   UNL A   1      32.440  24.554  22.385  1.00  0.00    -0.129 SA
ATOM     12  C   UNL A   1      32.749  23.749  25.792  1.00  0.00     0.253 C 
ATOM     13  C   UNL A   1      33.411  24.396  23.911  1.00  0.00     0.181 C 
ATOM     14  O   UNL A   1      32.384  23.339  26.865  1.00  0.00    -0.272 OA
ATOM     15  C   UNL A   1      32.859  25.176  25.150  1.00  0.00     0.206 C 
BRANCH  15  16
ATOM     16  N   UNL A   1      31.567  25.888  24.940  1.00  0.00    -0.336 N 
ATOM     17  C   UNL A   1      31.272  27.228  24.953  1.00  0.00     0.271 C 
ATOM     18  H   UNL A   1      30.797  25.300  24.763  1.00  0.00     0.164 HD
ATOM     19  O   UNL A   1      30.126  27.570  24.671  1.00  0.00    -0.267 OA
BRANCH  17  20
ATOM     20  C   UNL A   1      32.290  28.168  25.322  1.00  0.00     0.145 A 
ATOM     21  C   UNL A   1      32.576  28.647  26.586  1.00  0.00     0.104 A 
ATOM     22  N   UNL A   1      33.092  28.898  24.487  1.00  0.00    -0.261 N 
ATOM     23  Cl  UNL A   1      31.824  28.230  28.052  1.00  0.00    -0.079 Cl
ATOM     24  C   UNL A   1      33.652  29.554  26.434  1.00  0.00     0.185 A 
ATOM     25  N   UNL A   1      33.994  29.663  25.132  1.00  0.00    -0.166 NA
ATOM     26  C   UNL A   1      33.049  28.977  23.046  1.00  0.00     0.174 C 
BRANCH  24  27
ATOM     27  C   UNL A   1      34.334  30.316  27.531  1.00  0.00     0.436 C 
ATOM     28  F   UNL A   1      33.466  31.118  28.205  1.00  0.00    -0.164 F 
ATOM     29  F   UNL A   1      34.895  29.489  28.453  1.00  0.00    -0.164 F 
ATOM     30  F   UNL A   1      35.335  31.122  27.083  1.00  0.00    -0.164 F 
ENDBRANCH  24  27
ENDBRANCH  17  20
ENDBRANCH  15  16
ENDBRANCH   3   6
ENDBRANCH   1   2
BRANCH   1  31
ATOM     31  C   UNL A   1      36.149  21.400  25.531  1.00  0.00     0.042 C 
BRANCH  31  32
ATOM     32  C   UNL A   1      37.586  21.490  25.036  1.00  0.00     0.118 C 
BRANCH  32  33
ATOM     33  N   UNL A   1      38.523  20.619  25.735  1.00  0.00    -0.352 N 
ATOM     34  C   UNL A   1      39.622  20.872  26.523  1.00  0.00     0.251 C 
ATOM     35  H   UNL A   1      38.331  19.660  25.620  1.00  0.00     0.163 HD
ATOM     36  O   UNL A   1      40.293  19.923  26.922  1.00  0.00    -0.269 OA
BRANCH  34  37
ATOM     37  C   UNL A   1      40.048  22.251  26.864  1.00  0.00     0.039 A 
ATOM     38  C   UNL A   1      41.063  22.426  27.813  1.00  0.00     0.014 A 
ATOM     39  C   UNL A   1      39.454  23.374  26.296  1.00  0.00     0.014 A 
ATOM     40  C   UNL A   1      41.536  23.711  28.112  1.00  0.00     0.010 A 
ATOM     41  C   UNL A   1      40.006  24.636  26.495  1.00  0.00     0.010 A 
ATOM     42  C   UNL A   1      41.050  24.825  27.413  1.00  0.00    -0.014 A 
BRANCH  42  43
ATOM     43  C   UNL A   1      41.586  26.196  27.636  1.00  0.00     0.031 A 
ATOM     44  C   UNL A   1      42.974  26.549  27.160  1.00  0.00     0.074 A 
ATOM     45  C   UNL A   1      40.874  27.093  28.348  1.00  0.00     0.049 A 
ATOM     46  N   UNL A   1      43.680  27.629  27.387  1.00  0.00    -0.248 NA
ATOM     47  C   UNL A   1      43.681  25.536  26.361  1.00  0.00     0.031 C 
ATOM     48  C   UNL A   1      39.549  26.864  28.925  1.00  0.00     0.029 A 
ATOM     49  N   UNL A   1      41.177  28.380  28.726  1.00  0.00    -0.354 N 
ATOM     50  C   UNL A   1      44.921  27.400  26.807  1.00  0.00     0.074 A 
ATOM     51  C   UNL A   1      44.891  26.064  26.254  1.00  0.00     0.031 C 
ATOM     52  C   UNL A   1      39.142  27.975  29.561  1.00  0.00     0.029 A 
ATOM     53  C   UNL A   1      40.193  28.983  29.474  1.00  0.00     0.049 A 
ATOM     54  H   UNL A   1      42.019  28.828  28.484  1.00  0.00     0.167 HD
ATOM     55  C   UNL A   1      45.983  28.235  26.718  1.00  0.00     0.037 A 
ATOM     56  C   UNL A   1      40.147  30.208  30.033  1.00  0.00     0.037 A 
ATOM     57  C   UNL A   1      45.984  29.594  27.188  1.00  0.00     0.049 A 
ATOM     58  C   UNL A   1      41.315  31.141  29.851  1.00  0.00     0.074 A 
ATOM     59  C   UNL A   1      46.975  30.552  27.056  1.00  0.00     0.029 A 
ATOM     60  N   UNL A   1      44.935  30.193  27.867  1.00  0.00    -0.354 N 
ATOM     61  N   UNL A   1      42.453  30.935  29.235  1.00  0.00    -0.248 NA
ATOM     62  C   UNL A   1      41.186  32.486  30.434  1.00  0.00     0.031 C 
ATOM     63  C   UNL A   1      46.536  31.723  27.682  1.00  0.00     0.029 A 
ATOM     64  C   UNL A   1      45.256  31.506  28.166  1.00  0.00     0.049 A 
ATOM     65  H   UNL A   1      44.087  29.750  28.102  1.00  0.00     0.167 HD
ATOM     66  C   UNL A   1      43.155  32.130  29.321  1.00  0.00     0.074 A 
ATOM     67  C   UNL A   1      42.312  33.061  30.038  1.00  0.00     0.031 C 
ATOM     68  C   UNL A   1      44.389  32.429  28.849  1.00  0.00     0.037 A 
BRANCH  55  69
ATOM     69  C   UNL A   1      47.233  27.720  26.065  1.00  0.00     0.064 A 
ATOM     70  C   UNL A   1      47.394  27.724  24.672  1.00  0.00     0.173 A 
ATOM     71  C   UNL A   1      48.312  27.279  26.848  1.00  0.00     0.173 A 
ATOM     72  F   UNL A   1      46.389  28.125  23.878  1.00  0.00    -0.203 F 
ATOM     73  C   UNL A   1      48.578  27.287  24.085  1.00  0.00     0.198 A 
ATOM     74  C   UNL A   1      49.506  26.871  26.260  1.00  0.00     0.198 A 
ATOM     75  F   UNL A   1      48.213  27.261  28.186  1.00  0.00    -0.203 F 
ATOM     76  F   UNL A   1      48.693  27.264  22.751  1.00  0.00    -0.200 F 
ATOM     77  C   UNL A   1      49.636  26.870  24.879  1.00  0.00     0.200 A 
ATOM     78  F   UNL A   1      50.532  26.482  27.029  1.00  0.00    -0.200 F 
ATOM     79  F   UNL A   1      50.781  26.467  24.313  1.00  0.00    -0.200 F 
ENDBRANCH  55  69
BRANCH  56  80
ATOM     80  C   UNL A   1      38.947  30.646  30.795  1.00  0.00     0.064 A 
ATOM     81  C   UNL A   1      38.899  30.522  32.191  1.00  0.00     0.173 A 
ATOM     82  C   UNL A   1      37.815  31.157  30.147  1.00  0.00     0.173 A 
ATOM     83  F   UNL A   1      39.952  30.020  32.855  1.00  0.00    -0.203 F 
ATOM     84  C   UNL A   1      37.750  30.855  32.906  1.00  0.00     0.198 A 
ATOM     85  C   UNL A   1      36.677  31.520  30.867  1.00  0.00     0.198 A 
ATOM     86  F   UNL A   1      37.811  31.304  28.815  1.00  0.00    -0.203 F 
ATOM     87  F   UNL A   1      37.711  30.666  34.232  1.00  0.00    -0.200 F 
ATOM     88  C   UNL A   1      36.641  31.357  32.244  1.00  0.00     0.200 A 
ATOM     89  F   UNL A   1      35.612  32.017  30.224  1.00  0.00    -0.200 F 
ATOM     90  F   UNL A   1      35.534  31.671  32.930  1.00  0.00    -0.200 F 
ENDBRANCH  56  80
BRANCH  68  91
ATOM     91  C   UNL A   1      44.876  33.835  29.033  1.00  0.00     0.064 A 
ATOM     92  C   UNL A   1      45.640  34.211  30.147  1.00  0.00     0.173 A 
ATOM     93  C   UNL A   1      44.604  34.809  28.060  1.00  0.00     0.173 A 
ATOM     94  F   UNL A   1      45.915  33.320  31.110  1.00  0.00    -0.203 F 
ATOM     95  C   UNL A   1      46.092  35.520  30.293  1.00  0.00     0.198 A 
ATOM     96  C   UNL A   1      45.082  36.108  28.195  1.00  0.00     0.198 A 
ATOM     97  F   UNL A   1      43.883  34.495  26.972  1.00  0.00    -0.203 F 
ATOM     98  F   UNL A   1      46.780  35.871  31.388  1.00  0.00    -0.200 F 
ATOM     99  C   UNL A   1      45.818  36.466  29.315  1.00  0.00     0.200 A 
ATOM    100  F   UNL A   1      44.827  37.017  27.243  1.00  0.00    -0.200 F 
ATOM    101  F   UNL A   1      46.259  37.723  29.454  1.00  0.00    -0.200 F 
ENDBRANCH  68  91
ENDBRANCH  42  43
ENDBRANCH  34  37
ENDBRANCH  32  33
ENDBRANCH  31  32
ENDBRANCH   1  31
TORSDOF 13
ENDMDL
MODEL 3
REMARK VINA RESULT:     -12.7      2.115      7.648
REMARK SMILES CC1=C(C(=O)NCCCNC(=O)c2ccc(-c3c4nc(c(-c5c(F)c(F)c(F)c(F)c5F)c5ccc([nH]5)c(-c5c(F)c(F)c(F)c(F)c5F)c5nc(c(-c6c(F)c(F)c(F)c(F)c6F)c6ccc3[nH]6)C=C5)C=C4)cc2)N2C(=O)[C@H](NC(=O)c3c(Cl)c(C(F)(F)F)nn3C)[C@@H]2SC1
REMARK SMILES IDX 7 1 6 2 4 3 5 4 3 6 1 7 2 8 96 9 76 10 95 11 77 12 94 13
REMARK SMILES IDX 78 14 79 15 80 16 81 17 82 19 83 20 84 21 92 22 85 23 86 24
REMARK SMILES IDX 91 25 93 26 87 27 88 28 89 29 90 30 8 31 9 32 10 33 11 34
REMARK SMILES IDX 12 36 13 37 14 38 75 39 15 40 74 41 16 42 17 43 18 44 68 45
REMARK SMILES IDX 19 46 73 47 67 48 69 49 20 50 72 51 66 52 65 53 21 55 53 56
REMARK SMILES IDX 33 57 52 58 34 59 37 60 51 61 70 62 35 63 36 64 50 66 71 67
REMARK SMILES IDX 38 68 22 69 23 70 31 71 24 72 25 73 29 74 32 75 26 76 27 77
REMARK SMILES IDX 30 78 28 79 54 80 55 81 63 82 56 83 57 84 61 85 64 86 58 87
REMARK SMILES IDX 59 88 62 89 60 90 39 91 40 92 48 93 41 94 42 95 46 96 49 97
REMARK SMILES IDX 43 98 44 99 47 100 45 101
REMARK H PARENT 6 5 80 18 10 35 69 54 37 65
REMARK Flexibility Score: inf
ROOT
ATOM      1  C   UNL A   1      35.379  20.455  25.196  1.00  0.00     0.118 C 
ENDROOT
BRANCH   1   2
ATOM      2  N   UNL A   1      33.996  20.240  25.589  1.00  0.00    -0.351 N 
ATOM      3  C   UNL A   1      32.827  20.710  25.037  1.00  0.00     0.268 C 
ATOM      4  O   UNL A   1      31.778  20.167  25.371  1.00  0.00    -0.268 OA
ATOM      5  H   UNL A   1      33.875  19.664  26.378  1.00  0.00     0.163 HD
BRANCH   3   6
ATOM      6  C   UNL A   1      32.854  21.911  24.120  1.00  0.00     0.110 C 
ATOM      7  C   UNL A   1      32.196  20.548  22.087  1.00  0.00     0.043 C 
ATOM      8  C   UNL A   1      32.696  21.794  22.777  1.00  0.00    -0.034 C 
ATOM      9  C   UNL A   1      32.899  22.942  21.819  1.00  0.00     0.104 C 
ATOM     10  N   UNL A   1      32.914  23.155  24.692  1.00  0.00    -0.290 N 
ATOM     11  S   UNL A   1      32.217  24.481  22.453  1.00  0.00    -0.129 SA
ATOM     12  C   UNL A   1      32.518  23.708  25.868  1.00  0.00     0.253 C 
ATOM     13  C   UNL A   1      33.166  24.399  23.999  1.00  0.00     0.181 C 
ATOM     14  O   UNL A   1      32.162  23.274  26.935  1.00  0.00    -0.272 OA
ATOM     15  C   UNL A   1      32.533  25.138  25.224  1.00  0.00     0.206 C 
BRANCH  15  16
ATOM     16  N   UNL A   1      31.196  25.751  24.986  1.00  0.00    -0.336 N 
ATOM     17  C   UNL A   1      30.814  27.067  24.922  1.00  0.00     0.271 C 
ATOM     18  H   UNL A   1      30.465  25.104  24.852  1.00  0.00     0.164 HD
ATOM     19  O   UNL A   1      29.646  27.317  24.633  1.00  0.00    -0.267 OA
BRANCH  17  20
ATOM     20  C   UNL A   1      31.771  28.091  25.224  1.00  0.00     0.145 A 
ATOM     21  C   UNL A   1      32.068  28.629  26.462  1.00  0.00     0.104 A 
ATOM     22  N   UNL A   1      32.484  28.854  24.338  1.00  0.00    -0.261 N 
ATOM     23  Cl  UNL A   1      31.405  28.202  27.967  1.00  0.00    -0.079 Cl
ATOM     24  C   UNL A   1      33.065  29.609  26.242  1.00  0.00     0.185 A 
ATOM     25  N   UNL A   1      33.349  29.703  24.925  1.00  0.00    -0.166 NA
ATOM     26  C   UNL A   1      32.380  28.884  22.898  1.00  0.00     0.174 C 
BRANCH  24  27
ATOM     27  C   UNL A   1      33.728  30.454  27.290  1.00  0.00     0.436 C 
ATOM     28  F   UNL A   1      32.906  31.440  27.739  1.00  0.00    -0.164 F 
ATOM     29  F   UNL A   1      34.090  29.723  28.378  1.00  0.00    -0.164 F 
ATOM     30  F   UNL A   1      34.860  31.066  26.848  1.00  0.00    -0.164 F 
ENDBRANCH  24  27
ENDBRANCH  17  20
ENDBRANCH  15  16
ENDBRANCH   3   6
ENDBRANCH   1   2
BRANCH   1  31
ATOM     31  C   UNL A   1      36.053  21.681  25.790  1.00  0.00     0.042 C 
BRANCH  31  32
ATOM     32  C   UNL A   1      37.428  22.013  25.229  1.00  0.00     0.118 C 
BRANCH  32  33
ATOM     33  N   UNL A   1      38.510  21.185  25.749  1.00  0.00    -0.352 N 
ATOM     34  C   UNL A   1      39.661  21.481  26.441  1.00  0.00     0.251 C 
ATOM     35  H   UNL A   1      38.393  20.224  25.568  1.00  0.00     0.163 HD
ATOM     36  O   UNL A   1      40.454  20.574  26.684  1.00  0.00    -0.269 OA
BRANCH  34  37
ATOM     37  C   UNL A   1      39.997  22.863  26.859  1.00  0.00     0.039 A 
ATOM     38  C   UNL A   1      40.800  23.048  27.992  1.00  0.00     0.014 A 
ATOM     39  C   UNL A   1      39.518  23.981  26.183  1.00  0.00     0.014 A 
ATOM     40  C   UNL A   1      41.191  24.336  28.378  1.00  0.00     0.010 A 
ATOM     41  C   UNL A   1      40.007  25.249  26.487  1.00  0.00     0.010 A 
ATOM     42  C   UNL A   1      40.844  25.447  27.595  1.00  0.00    -0.014 A 
BRANCH  42  43
ATOM     43  C   UNL A   1      41.312  26.823  27.919  1.00  0.00     0.031 A 
ATOM     44  C   UNL A   1      42.761  27.192  27.723  1.00  0.00     0.074 A 
ATOM     45  C   UNL A   1      40.464  27.710  28.480  1.00  0.00     0.049 A 
ATOM     46  N   UNL A   1      43.398  28.279  28.084  1.00  0.00    -0.248 NA
ATOM     47  C   UNL A   1      43.622  26.188  27.076  1.00  0.00     0.031 C 
ATOM     48  C   UNL A   1      39.055  27.465  28.787  1.00  0.00     0.029 A 
ATOM     49  N   UNL A   1      40.674  28.999  28.911  1.00  0.00    -0.354 N 
ATOM     50  C   UNL A   1      44.731  28.064  27.756  1.00  0.00     0.074 A 
ATOM     51  C   UNL A   1      44.823  26.730  27.207  1.00  0.00     0.031 C 
ATOM     52  C   UNL A   1      38.520  28.570  29.333  1.00  0.00     0.029 A 
ATOM     53  C   UNL A   1      39.556  29.589  29.453  1.00  0.00     0.049 A 
ATOM     54  H   UNL A   1      41.542  29.457  28.838  1.00  0.00     0.167 HD
ATOM     55  C   UNL A   1      45.780  28.911  27.877  1.00  0.00     0.037 A 
ATOM     56  C   UNL A   1      39.389  30.812  29.994  1.00  0.00     0.037 A 
ATOM     57  C   UNL A   1      45.675  30.269  28.339  1.00  0.00     0.049 A 
ATOM     58  C   UNL A   1      40.560  31.758  30.043  1.00  0.00     0.074 A 
ATOM     59  C   UNL A   1      46.662  31.238  28.403  1.00  0.00     0.029 A 
ATOM     60  N   UNL A   1      44.507  30.854  28.801  1.00  0.00    -0.354 N 
ATOM     61  N   UNL A   1      41.798  31.566  29.661  1.00  0.00    -0.248 NA
ATOM     62  C   UNL A   1      40.305  33.100  30.591  1.00  0.00     0.031 C 
ATOM     63  C   UNL A   1      46.096  32.402  28.933  1.00  0.00     0.029 A 
ATOM     64  C   UNL A   1      44.749  32.170  29.158  1.00  0.00     0.049 A 
ATOM     65  H   UNL A   1      43.634  30.402  28.866  1.00  0.00     0.167 HD
ATOM     66  C   UNL A   1      42.457  32.768  29.882  1.00  0.00     0.074 A 
ATOM     67  C   UNL A   1      41.480  33.688  30.422  1.00  0.00     0.031 C 
ATOM     68  C   UNL A   1      43.756  33.081  29.660  1.00  0.00     0.037 A 
BRANCH  55  69
ATOM     69  C   UNL A   1      47.139  28.411  27.479  1.00  0.00     0.064 A 
ATOM     70  C   UNL A   1      48.038  27.887  28.420  1.00  0.00     0.173 A 
ATOM     71  C   UNL A   1      47.519  28.393  26.128  1.00  0.00     0.173 A 
ATOM     72  F   UNL A   1      47.727  27.892  29.725  1.00  0.00    -0.203 F 
ATOM     73  C   UNL A   1      49.275  27.384  28.027  1.00  0.00     0.198 A 
ATOM     74  C   UNL A   1      48.745  27.862  25.734  1.00  0.00     0.198 A 
ATOM     75  F   UNL A   1      46.695  28.877  25.187  1.00  0.00    -0.203 F 
ATOM     76  F   UNL A   1      50.132  26.925  28.948  1.00  0.00    -0.200 F 
ATOM     77  C   UNL A   1      49.623  27.363  26.684  1.00  0.00     0.200 A 
ATOM     78  F   UNL A   1      49.074  27.829  24.436  1.00  0.00    -0.200 F 
ATOM     79  F   UNL A   1      50.807  26.862  26.306  1.00  0.00    -0.200 F 
ENDBRANCH  55  69
BRANCH  56  80
ATOM     80  C   UNL A   1      38.059  31.235  30.508  1.00  0.00     0.064 A 
ATOM     81  C   UNL A   1      37.077  31.728  29.637  1.00  0.00     0.173 A 
ATOM     82  C   UNL A   1      37.755  31.192  31.875  1.00  0.00     0.173 A 
ATOM     83  F   UNL A   1      37.328  31.806  28.321  1.00  0.00    -0.203 F 
ATOM     84  C   UNL A   1      35.857  32.199  30.118  1.00  0.00     0.198 A 
ATOM     85  C   UNL A   1      36.522  31.635  32.352  1.00  0.00     0.198 A 
ATOM     86  F   UNL A   1      38.656  30.721  32.750  1.00  0.00    -0.203 F 
ATOM     87  F   UNL A   1      34.963  32.725  29.269  1.00  0.00    -0.200 F 
ATOM     88  C   UNL A   1      35.579  32.150  31.475  1.00  0.00     0.200 A 
ATOM     89  F   UNL A   1      36.252  31.572  33.663  1.00  0.00    -0.200 F 
ATOM     90  F   UNL A   1      34.409  32.609  31.939  1.00  0.00    -0.200 F 
ENDBRANCH  56  80
BRANCH  68  91
ATOM     91  C   UNL A   1      44.182  34.492  29.937  1.00  0.00     0.064 A 
ATOM     92  C   UNL A   1      44.085  35.496  28.964  1.00  0.00     0.173 A 
ATOM     93  C   UNL A   1      44.658  34.848  31.208  1.00  0.00     0.173 A 
ATOM     94  F   UNL A   1      43.649  35.202  27.730  1.00  0.00    -0.203 F 
ATOM     95  C   UNL A   1      44.475  36.803  29.245  1.00  0.00     0.198 A 
ATOM     96  C   UNL A   1      45.019  36.161  31.494  1.00  0.00     0.198 A 
ATOM     97  F   UNL A   1      44.762  33.924  32.175  1.00  0.00    -0.203 F 
ATOM     98  F   UNL A   1      44.420  37.737  28.286  1.00  0.00    -0.200 F 
ATOM     99  C   UNL A   1      44.936  37.136  30.511  1.00  0.00     0.200 A 
ATOM    100  F   UNL A   1      45.452  36.483  32.721  1.00  0.00    -0.200 F 
ATOM    101  F   UNL A   1      45.305  38.395  30.781  1.00  0.00    -0.200 F 
ENDBRANCH  68  91
ENDBRANCH  42  43
ENDBRANCH  34  37
ENDBRANCH  32  33
ENDBRANCH  31  32
ENDBRANCH   1  31
TORSDOF 13
ENDMDL
