MODEL 1
REMARK VINA RESULT:     -13.1      0.000      0.000
REMARK SMILES COc1cccc(-c2cc(OCC(=O)NCCCNC(=O)c3ccc(-c4c5nc(c(-c6c(F)c(F)c(F)c(F)c6F)c6ccc([nH]6)c(-c6c(F)c(F)c(F)c(F)c6F)c6nc(c(-c7c(F)c(F)c(F)c(F)c7F)c7ccc4[nH]7)C=C6)C=C5)cc3)nc(Nc3ccccc3Br)n2)c1
REMARK SMILES IDX 16 1 15 2 13 3 14 4 12 6 11 7 10 8 8 9 9 10 95 11 86 12
REMARK SMILES IDX 85 13 7 14 3 15 4 16 96 17 5 18 6 19 2 20 1 21 87 22 88 24
REMARK SMILES IDX 89 25 93 26 90 27 92 28 94 29 91 30 17 31 18 32 19 33 20 34
REMARK SMILES IDX 21 36 22 37 23 38 84 39 24 40 83 41 25 42 26 43 27 44 77 45
REMARK SMILES IDX 28 46 82 47 76 48 78 49 29 50 81 51 75 52 74 53 30 55 62 56
REMARK SMILES IDX 42 57 61 58 43 59 46 60 60 61 79 62 44 63 45 64 59 66 80 67
REMARK SMILES IDX 47 68 31 69 32 70 40 71 33 72 34 73 38 74 41 75 35 76 36 77
REMARK SMILES IDX 39 78 37 79 63 80 64 81 72 82 65 83 66 84 70 85 73 86 67 87
REMARK SMILES IDX 68 88 71 89 69 90 48 91 49 92 57 93 50 94 51 95 55 96 58 97
REMARK SMILES IDX 52 98 53 99 56 100 54 101
REMARK H PARENT 15 5 87 23 19 35 78 54 46 65
REMARK Flexibility Score: inf
ROOT
ATOM      1  C   UNL A   1      31.786  30.714  26.002  1.00  0.00     0.117 C 
ENDROOT
BRANCH   1   2
ATOM      2  N   UNL A   1      31.401  29.558  26.787  1.00  0.00    -0.353 N 
ATOM      3  C   UNL A   1      32.195  28.563  27.271  1.00  0.00     0.258 C 
ATOM      4  O   UNL A   1      31.673  27.659  27.925  1.00  0.00    -0.271 OA
ATOM      5  H   UNL A   1      30.442  29.482  26.995  1.00  0.00     0.163 HD
BRANCH   3   6
ATOM      6  C   UNL A   1      33.706  28.593  27.005  1.00  0.00     0.331 C 
BRANCH   6   7
ATOM      7  O   UNL A   1      34.106  28.565  25.644  1.00  0.00    -0.467 OA
BRANCH   7   8
ATOM      8  C   UNL A   1      33.610  27.565  24.853  1.00  0.00     0.219 A 
ATOM      9  C   UNL A   1      33.270  25.369  24.140  1.00  0.00     0.080 A 
ATOM     10  C   UNL A   1      33.946  26.241  24.960  1.00  0.00     0.097 A 
ATOM     11  N   UNL A   1      32.373  25.785  23.236  1.00  0.00    -0.212 NA
ATOM     12  C   UNL A   1      32.111  27.098  23.178  1.00  0.00     0.231 A 
ATOM     13  N   UNL A   1      32.713  28.010  23.955  1.00  0.00    -0.177 NA
BRANCH   9  14
ATOM     14  C   UNL A   1      33.473  23.922  24.245  1.00  0.00     0.004 A 
ATOM     15  C   UNL A   1      34.984  22.028  24.532  1.00  0.00     0.119 A 
ATOM     16  C   UNL A   1      33.927  21.158  24.271  1.00  0.00     0.046 A 
ATOM     17  C   UNL A   1      34.757  23.404  24.509  1.00  0.00     0.056 A 
ATOM     18  C   UNL A   1      32.642  21.651  24.040  1.00  0.00     0.005 A 
ATOM     19  C   UNL A   1      32.415  23.027  24.039  1.00  0.00     0.010 A 
BRANCH  15  20
ATOM     20  O   UNL A   1      36.198  21.436  24.739  1.00  0.00    -0.497 OA
ATOM     21  C   UNL A   1      37.182  22.241  25.379  1.00  0.00     0.278 C 
ENDBRANCH  15  20
ENDBRANCH   9  14
BRANCH  12  22
ATOM     22  N   UNL A   1      31.191  27.568  22.244  1.00  0.00    -0.323 N 
ATOM     23  H   UNL A   1      31.312  27.256  21.318  1.00  0.00     0.170 HD
BRANCH  22  24
ATOM     24  C   UNL A   1      30.113  28.435  22.471  1.00  0.00     0.055 A 
ATOM     25  C   UNL A   1      30.209  29.753  21.996  1.00  0.00     0.027 A 
ATOM     26  C   UNL A   1      28.897  28.031  23.057  1.00  0.00     0.041 A 
ATOM     27  C   UNL A   1      29.121  30.629  22.068  1.00  0.00     0.002 A 
ATOM     28  C   UNL A   1      27.809  28.909  23.129  1.00  0.00     0.018 A 
ATOM     29  Br  UNL A   1      28.684  26.333  23.898  1.00  0.00    -0.049 Br
ATOM     30  C   UNL A   1      27.918  30.202  22.625  1.00  0.00     0.001 A 
ENDBRANCH  22  24
ENDBRANCH  12  22
ENDBRANCH   7   8
ENDBRANCH   6   7
ENDBRANCH   3   6
ENDBRANCH   1   2
BRANCH   1  31
ATOM     31  C   UNL A   1      31.465  32.027  26.705  1.00  0.00     0.042 C 
BRANCH  31  32
ATOM     32  C   UNL A   1      32.681  32.747  27.277  1.00  0.00     0.118 C 
BRANCH  32  33
ATOM     33  N   UNL A   1      32.416  34.140  27.620  1.00  0.00    -0.352 N 
ATOM     34  C   UNL A   1      32.998  34.944  28.569  1.00  0.00     0.251 C 
ATOM     35  H   UNL A   1      31.707  34.571  27.089  1.00  0.00     0.163 HD
ATOM     36  O   UNL A   1      32.521  36.050  28.814  1.00  0.00    -0.269 OA
BRANCH  34  37
ATOM     37  C   UNL A   1      34.185  34.477  29.313  1.00  0.00     0.039 A 
ATOM     38  C   UNL A   1      34.014  33.913  30.581  1.00  0.00     0.014 A 
ATOM     39  C   UNL A   1      35.463  34.594  28.764  1.00  0.00     0.014 A 
ATOM     40  C   UNL A   1      35.116  33.386  31.260  1.00  0.00     0.010 A 
ATOM     41  C   UNL A   1      36.545  34.001  29.405  1.00  0.00     0.010 A 
ATOM     42  C   UNL A   1      36.384  33.384  30.655  1.00  0.00    -0.014 A 
BRANCH  42  43
ATOM     43  C   UNL A   1      37.563  32.748  31.297  1.00  0.00     0.031 A 
ATOM     44  C   UNL A   1      38.253  31.600  30.616  1.00  0.00     0.074 A 
ATOM     45  C   UNL A   1      37.951  33.139  32.527  1.00  0.00     0.049 A 
ATOM     46  N   UNL A   1      39.178  30.796  31.075  1.00  0.00    -0.248 NA
ATOM     47  C   UNL A   1      37.826  31.302  29.239  1.00  0.00     0.031 C 
ATOM     48  C   UNL A   1      37.356  34.231  33.299  1.00  0.00     0.029 A 
ATOM     49  N   UNL A   1      38.926  32.642  33.358  1.00  0.00    -0.354 N 
ATOM     50  C   UNL A   1      39.433  29.893  30.052  1.00  0.00     0.074 A 
ATOM     51  C   UNL A   1      38.531  30.212  28.968  1.00  0.00     0.031 C 
ATOM     52  C   UNL A   1      37.982  34.327  34.483  1.00  0.00     0.029 A 
ATOM     53  C   UNL A   1      38.984  33.269  34.579  1.00  0.00     0.049 A 
ATOM     54  H   UNL A   1      39.528  31.906  33.102  1.00  0.00     0.167 HD
ATOM     55  C   UNL A   1      40.354  28.901  30.013  1.00  0.00     0.037 A 
ATOM     56  C   UNL A   1      39.739  33.003  35.663  1.00  0.00     0.037 A 
ATOM     57  C   UNL A   1      41.257  28.595  31.090  1.00  0.00     0.049 A 
ATOM     58  C   UNL A   1      40.709  31.850  35.616  1.00  0.00     0.074 A 
ATOM     59  C   UNL A   1      42.236  27.618  31.144  1.00  0.00     0.029 A 
ATOM     60  N   UNL A   1      41.292  29.264  32.305  1.00  0.00    -0.354 N 
ATOM     61  N   UNL A   1      40.967  31.024  34.630  1.00  0.00    -0.248 NA
ATOM     62  C   UNL A   1      41.495  31.591  36.832  1.00  0.00     0.031 C 
ATOM     63  C   UNL A   1      42.833  27.666  32.406  1.00  0.00     0.029 A 
ATOM     64  C   UNL A   1      42.269  28.713  33.117  1.00  0.00     0.049 A 
ATOM     65  H   UNL A   1      40.708  30.017  32.552  1.00  0.00     0.167 HD
ATOM     66  C   UNL A   1      41.977  30.188  35.088  1.00  0.00     0.074 A 
ATOM     67  C   UNL A   1      42.285  30.601  36.440  1.00  0.00     0.031 C 
ATOM     68  C   UNL A   1      42.596  29.170  34.442  1.00  0.00     0.037 A 
BRANCH  55  69
ATOM     69  C   UNL A   1      40.442  28.078  28.761  1.00  0.00     0.064 A 
ATOM     70  C   UNL A   1      41.254  28.469  27.685  1.00  0.00     0.173 A 
ATOM     71  C   UNL A   1      39.759  26.858  28.656  1.00  0.00     0.173 A 
ATOM     72  F   UNL A   1      41.922  29.632  27.730  1.00  0.00    -0.203 F 
ATOM     73  C   UNL A   1      41.359  27.680  26.543  1.00  0.00     0.198 A 
ATOM     74  C   UNL A   1      39.891  26.056  27.526  1.00  0.00     0.198 A 
ATOM     75  F   UNL A   1      38.975  26.433  29.659  1.00  0.00    -0.203 F 
ATOM     76  F   UNL A   1      42.107  28.095  25.511  1.00  0.00    -0.200 F 
ATOM     77  C   UNL A   1      40.687  26.470  26.469  1.00  0.00     0.200 A 
ATOM     78  F   UNL A   1      39.254  24.878  27.463  1.00  0.00    -0.200 F 
ATOM     79  F   UNL A   1      40.801  25.704  25.374  1.00  0.00    -0.200 F 
ENDBRANCH  55  69
BRANCH  56  80
ATOM     80  C   UNL A   1      39.621  33.837  36.890  1.00  0.00     0.064 A 
ATOM     81  C   UNL A   1      38.802  33.434  37.955  1.00  0.00     0.173 A 
ATOM     82  C   UNL A   1      40.282  35.068  37.009  1.00  0.00     0.173 A 
ATOM     83  F   UNL A   1      38.131  32.275  37.882  1.00  0.00    -0.203 F 
ATOM     84  C   UNL A   1      38.619  34.246  39.072  1.00  0.00     0.198 A 
ATOM     85  C   UNL A   1      40.126  35.864  38.143  1.00  0.00     0.198 A 
ATOM     86  F   UNL A   1      41.082  35.501  36.023  1.00  0.00    -0.203 F 
ATOM     87  F   UNL A   1      37.776  33.867  40.043  1.00  0.00    -0.200 F 
ATOM     88  C   UNL A   1      39.283  35.460  39.167  1.00  0.00     0.200 A 
ATOM     89  F   UNL A   1      40.782  37.029  38.238  1.00  0.00    -0.200 F 
ATOM     90  F   UNL A   1      39.101  36.244  40.237  1.00  0.00    -0.200 F 
ENDBRANCH  56  80
BRANCH  68  91
ATOM     91  C   UNL A   1      43.734  28.484  35.142  1.00  0.00     0.064 A 
ATOM     92  C   UNL A   1      45.053  28.945  35.045  1.00  0.00     0.173 A 
ATOM     93  C   UNL A   1      43.477  27.397  35.993  1.00  0.00     0.173 A 
ATOM     94  F   UNL A   1      45.353  29.972  34.234  1.00  0.00    -0.203 F 
ATOM     95  C   UNL A   1      46.077  28.338  35.768  1.00  0.00     0.198 A 
ATOM     96  C   UNL A   1      44.497  26.812  36.736  1.00  0.00     0.198 A 
ATOM     97  F   UNL A   1      42.229  26.922  36.125  1.00  0.00    -0.203 F 
ATOM     98  F   UNL A   1      47.337  28.775  35.637  1.00  0.00    -0.200 F 
ATOM     99  C   UNL A   1      45.796  27.281  36.622  1.00  0.00     0.200 A 
ATOM    100  F   UNL A   1      44.219  25.804  37.575  1.00  0.00    -0.200 F 
ATOM    101  F   UNL A   1      46.779  26.713  37.334  1.00  0.00    -0.200 F 
ENDBRANCH  68  91
ENDBRANCH  42  43
ENDBRANCH  34  37
ENDBRANCH  32  33
ENDBRANCH  31  32
ENDBRANCH   1  31
TORSDOF 16
ENDMDL
MODEL 2
REMARK VINA RESULT:     -13.0      2.410      4.496
REMARK SMILES COc1cccc(-c2cc(OCC(=O)NCCCNC(=O)c3ccc(-c4c5nc(c(-c6c(F)c(F)c(F)c(F)c6F)c6ccc([nH]6)c(-c6c(F)c(F)c(F)c(F)c6F)c6nc(c(-c7c(F)c(F)c(F)c(F)c7F)c7ccc4[nH]7)C=C6)C=C5)cc3)nc(Nc3ccccc3Br)n2)c1
REMARK SMILES IDX 16 1 15 2 13 3 14 4 12 6 11 7 10 8 8 9 9 10 95 11 86 12
REMARK SMILES IDX 85 13 7 14 3 15 4 16 96 17 5 18 6 19 2 20 1 21 87 22 88 24
REMARK SMILES IDX 89 25 93 26 90 27 92 28 94 29 91 30 17 31 18 32 19 33 20 34
REMARK SMILES IDX 21 36 22 37 23 38 84 39 24 40 83 41 25 42 26 43 27 44 77 45
REMARK SMILES IDX 28 46 82 47 76 48 78 49 29 50 81 51 75 52 74 53 30 55 62 56
REMARK SMILES IDX 42 57 61 58 43 59 46 60 60 61 79 62 44 63 45 64 59 66 80 67
REMARK SMILES IDX 47 68 31 69 32 70 40 71 33 72 34 73 38 74 41 75 35 76 36 77
REMARK SMILES IDX 39 78 37 79 63 80 64 81 72 82 65 83 66 84 70 85 73 86 67 87
REMARK SMILES IDX 68 88 71 89 69 90 48 91 49 92 57 93 50 94 51 95 55 96 58 97
REMARK SMILES IDX 52 98 53 99 56 100 54 101
REMARK H PARENT 15 5 87 23 19 35 78 54 46 65
REMARK Flexibility Score: inf
ROOT
ATOM      1  C   UNL A   1      31.316  27.833  25.502  1.00  0.00     0.117 C 
ENDROOT
BRANCH   1   2
ATOM      2  N   UNL A   1      30.970  26.873  24.472  1.00  0.00    -0.353 N 
ATOM      3  C   UNL A   1      30.536  25.591  24.623  1.00  0.00     0.258 C 
ATOM      4  O   UNL A   1      30.291  24.930  23.614  1.00  0.00    -0.271 OA
ATOM      5  H   UNL A   1      31.063  27.188  23.544  1.00  0.00     0.163 HD
BRANCH   3   6
ATOM      6  C   UNL A   1      30.353  25.007  26.031  1.00  0.00     0.331 C 
BRANCH   6   7
ATOM      7  O   UNL A   1      31.535  24.828  26.796  1.00  0.00    -0.467 OA
BRANCH   7   8
ATOM      8  C   UNL A   1      32.413  23.856  26.398  1.00  0.00     0.219 A 
ATOM      9  C   UNL A   1      34.500  22.899  25.980  1.00  0.00     0.080 A 
ATOM     10  C   UNL A   1      33.770  24.018  26.303  1.00  0.00     0.097 A 
ATOM     11  N   UNL A   1      33.922  21.722  25.708  1.00  0.00    -0.212 NA
ATOM     12  C   UNL A   1      32.588  21.646  25.804  1.00  0.00     0.231 A 
ATOM     13  N   UNL A   1      31.807  22.685  26.132  1.00  0.00    -0.177 NA
BRANCH   9  14
ATOM     14  C   UNL A   1      35.964  22.933  25.954  1.00  0.00     0.004 A 
ATOM     15  C   UNL A   1      38.087  21.768  25.663  1.00  0.00     0.119 A 
ATOM     16  C   UNL A   1      38.762  22.917  26.073  1.00  0.00     0.046 A 
ATOM     17  C   UNL A   1      36.693  21.776  25.614  1.00  0.00     0.056 A 
ATOM     18  C   UNL A   1      38.058  24.081  26.382  1.00  0.00     0.005 A 
ATOM     19  C   UNL A   1      36.666  24.092  26.311  1.00  0.00     0.010 A 
BRANCH  15  20
ATOM     20  O   UNL A   1      38.877  20.685  25.390  1.00  0.00    -0.497 OA
ATOM     21  C   UNL A   1      38.190  19.478  25.081  1.00  0.00     0.278 C 
ENDBRANCH  15  20
ENDBRANCH   9  14
BRANCH  12  22
ATOM     22  N   UNL A   1      31.951  20.440  25.520  1.00  0.00    -0.323 N 
ATOM     23  H   UNL A   1      31.049  20.324  25.896  1.00  0.00     0.170 HD
BRANCH  22  24
ATOM     24  C   UNL A   1      32.449  19.372  24.760  1.00  0.00     0.055 A 
ATOM     25  C   UNL A   1      32.906  18.230  25.438  1.00  0.00     0.027 A 
ATOM     26  C   UNL A   1      32.420  19.336  23.352  1.00  0.00     0.041 A 
ATOM     27  C   UNL A   1      33.288  17.080  24.741  1.00  0.00     0.002 A 
ATOM     28  C   UNL A   1      32.803  18.184  22.655  1.00  0.00     0.018 A 
ATOM     29  Br  UNL A   1      31.988  20.868  22.301  1.00  0.00    -0.049 Br
ATOM     30  C   UNL A   1      33.226  17.054  23.350  1.00  0.00     0.001 A 
ENDBRANCH  22  24
ENDBRANCH  12  22
ENDBRANCH   7   8
ENDBRANCH   6   7
ENDBRANCH   3   6
ENDBRANCH   1   2
BRANCH   1  31
ATOM     31  C   UNL A   1      32.820  27.938  25.717  1.00  0.00     0.042 C 
BRANCH  31  32
ATOM     32  C   UNL A   1      33.429  29.261  25.266  1.00  0.00     0.118 C 
BRANCH  32  33
ATOM     33  N   UNL A   1      32.848  30.419  25.937  1.00  0.00    -0.352 N 
ATOM     34  C   UNL A   1      33.282  31.113  27.040  1.00  0.00     0.251 C 
ATOM     35  H   UNL A   1      32.013  30.755  25.537  1.00  0.00     0.163 HD
ATOM     36  O   UNL A   1      32.562  31.967  27.551  1.00  0.00    -0.269 OA
BRANCH  34  37
ATOM     37  C   UNL A   1      34.604  30.820  27.630  1.00  0.00     0.039 A 
ATOM     38  C   UNL A   1      35.559  31.838  27.699  1.00  0.00     0.014 A 
ATOM     39  C   UNL A   1      34.902  29.544  28.113  1.00  0.00     0.014 A 
ATOM     40  C   UNL A   1      36.781  31.600  28.334  1.00  0.00     0.010 A 
ATOM     41  C   UNL A   1      36.086  29.331  28.811  1.00  0.00     0.010 A 
ATOM     42  C   UNL A   1      37.035  30.358  28.936  1.00  0.00    -0.014 A 
BRANCH  42  43
ATOM     43  C   UNL A   1      38.279  30.092  29.704  1.00  0.00     0.031 A 
ATOM     44  C   UNL A   1      39.294  29.124  29.165  1.00  0.00     0.074 A 
ATOM     45  C   UNL A   1      38.448  30.645  30.922  1.00  0.00     0.049 A 
ATOM     46  N   UNL A   1      40.351  28.619  29.749  1.00  0.00    -0.248 NA
ATOM     47  C   UNL A   1      39.076  28.641  27.792  1.00  0.00     0.031 C 
ATOM     48  C   UNL A   1      37.531  31.589  31.561  1.00  0.00     0.029 A 
ATOM     49  N   UNL A   1      39.444  30.471  31.853  1.00  0.00    -0.354 N 
ATOM     50  C   UNL A   1      40.913  27.752  28.821  1.00  0.00     0.074 A 
ATOM     51  C   UNL A   1      40.055  27.758  27.657  1.00  0.00     0.031 C 
ATOM     52  C   UNL A   1      38.009  31.917  32.772  1.00  0.00     0.029 A 
ATOM     53  C   UNL A   1      39.236  31.165  33.020  1.00  0.00     0.049 A 
ATOM     54  H   UNL A   1      40.233  29.903  31.697  1.00  0.00     0.167 HD
ATOM     55  C   UNL A   1      42.058  27.034  28.924  1.00  0.00     0.037 A 
ATOM     56  C   UNL A   1      39.939  31.172  34.170  1.00  0.00     0.037 A 
ATOM     57  C   UNL A   1      42.913  27.040  30.080  1.00  0.00     0.049 A 
ATOM     58  C   UNL A   1      41.171  30.310  34.280  1.00  0.00     0.074 A 
ATOM     59  C   UNL A   1      44.101  26.357  30.277  1.00  0.00     0.029 A 
ATOM     60  N   UNL A   1      42.673  27.768  31.236  1.00  0.00    -0.354 N 
ATOM     61  N   UNL A   1      41.714  29.522  33.384  1.00  0.00    -0.248 NA
ATOM     62  C   UNL A   1      41.891  30.340  35.562  1.00  0.00     0.031 C 
ATOM     63  C   UNL A   1      44.557  26.636  31.568  1.00  0.00     0.029 A 
ATOM     64  C   UNL A   1      43.686  27.542  32.153  1.00  0.00     0.049 A 
ATOM     65  H   UNL A   1      41.898  28.357  31.382  1.00  0.00     0.167 HD
ATOM     66  C   UNL A   1      42.862  29.007  33.974  1.00  0.00     0.074 A 
ATOM     67  C   UNL A   1      42.937  29.568  35.305  1.00  0.00     0.031 C 
ATOM     68  C   UNL A   1      43.772  28.148  33.455  1.00  0.00     0.037 A 
BRANCH  55  69
ATOM     69  C   UNL A   1      42.458  26.187  27.751  1.00  0.00     0.064 A 
ATOM     70  C   UNL A   1      43.366  26.655  26.788  1.00  0.00     0.173 A 
ATOM     71  C   UNL A   1      41.981  24.876  27.618  1.00  0.00     0.173 A 
ATOM     72  F   UNL A   1      43.846  27.906  26.864  1.00  0.00    -0.203 F 
ATOM     73  C   UNL A   1      43.762  25.849  25.725  1.00  0.00     0.198 A 
ATOM     74  C   UNL A   1      42.403  24.060  26.572  1.00  0.00     0.198 A 
ATOM     75  F   UNL A   1      41.117  24.376  28.515  1.00  0.00    -0.203 F 
ATOM     76  F   UNL A   1      44.596  26.332  24.794  1.00  0.00    -0.200 F 
ATOM     77  C   UNL A   1      43.288  24.550  25.623  1.00  0.00     0.200 A 
ATOM     78  F   UNL A   1      41.958  22.799  26.484  1.00  0.00    -0.200 F 
ATOM     79  F   UNL A   1      43.682  23.769  24.607  1.00  0.00    -0.200 F 
ENDBRANCH  55  69
BRANCH  56  80
ATOM     80  C   UNL A   1      39.508  32.019  35.314  1.00  0.00     0.064 A 
ATOM     81  C   UNL A   1      38.621  31.524  36.280  1.00  0.00     0.173 A 
ATOM     82  C   UNL A   1      39.933  33.350  35.445  1.00  0.00     0.173 A 
ATOM     83  F   UNL A   1      38.168  30.265  36.189  1.00  0.00    -0.203 F 
ATOM     84  C   UNL A   1      38.146  32.334  37.309  1.00  0.00     0.198 A 
ATOM     85  C   UNL A   1      39.485  34.150  36.496  1.00  0.00     0.198 A 
ATOM     86  F   UNL A   1      40.786  33.875  34.553  1.00  0.00    -0.203 F 
ATOM     87  F   UNL A   1      37.246  31.854  38.177  1.00  0.00    -0.200 F 
ATOM     88  C   UNL A   1      38.581  33.646  37.418  1.00  0.00     0.200 A 
ATOM     89  F   UNL A   1      39.921  35.413  36.606  1.00  0.00    -0.200 F 
ATOM     90  F   UNL A   1      38.119  34.429  38.402  1.00  0.00    -0.200 F 
ENDBRANCH  56  80
BRANCH  68  91
ATOM     91  C   UNL A   1      44.983  27.826  34.282  1.00  0.00     0.064 A 
ATOM     92  C   UNL A   1      46.144  28.610  34.237  1.00  0.00     0.173 A 
ATOM     93  C   UNL A   1      44.941  26.764  35.198  1.00  0.00     0.173 A 
ATOM     94  F   UNL A   1      46.239  29.628  33.368  1.00  0.00    -0.203 F 
ATOM     95  C   UNL A   1      47.224  28.335  35.073  1.00  0.00     0.198 A 
ATOM     96  C   UNL A   1      46.010  26.511  36.053  1.00  0.00     0.198 A 
ATOM     97  F   UNL A   1      43.850  25.988  35.285  1.00  0.00    -0.203 F 
ATOM     98  F   UNL A   1      48.336  29.077  34.991  1.00  0.00    -0.200 F 
ATOM     99  C   UNL A   1      47.151  27.295  35.988  1.00  0.00     0.200 A 
ATOM    100  F   UNL A   1      45.929  25.517  36.949  1.00  0.00    -0.200 F 
ATOM    101  F   UNL A   1      48.182  27.048  36.807  1.00  0.00    -0.200 F 
ENDBRANCH  68  91
ENDBRANCH  42  43
ENDBRANCH  34  37
ENDBRANCH  32  33
ENDBRANCH  31  32
ENDBRANCH   1  31
TORSDOF 16
ENDMDL
MODEL 3
REMARK VINA RESULT:     -13.0      1.785      7.461
REMARK SMILES COc1cccc(-c2cc(OCC(=O)NCCCNC(=O)c3ccc(-c4c5nc(c(-c6c(F)c(F)c(F)c(F)c6F)c6ccc([nH]6)c(-c6c(F)c(F)c(F)c(F)c6F)c6nc(c(-c7c(F)c(F)c(F)c(F)c7F)c7ccc4[nH]7)C=C6)C=C5)cc3)nc(Nc3ccccc3Br)n2)c1
REMARK SMILES IDX 16 1 15 2 13 3 14 4 12 6 11 7 10 8 8 9 9 10 95 11 86 12
REMARK SMILES IDX 85 13 7 14 3 15 4 16 96 17 5 18 6 19 2 20 1 21 87 22 88 24
REMARK SMILES IDX 89 25 93 26 90 27 92 28 94 29 91 30 17 31 18 32 19 33 20 34
REMARK SMILES IDX 21 36 22 37 23 38 84 39 24 40 83 41 25 42 26 43 27 44 77 45
REMARK SMILES IDX 28 46 82 47 76 48 78 49 29 50 81 51 75 52 74 53 30 55 62 56
REMARK SMILES IDX 42 57 61 58 43 59 46 60 60 61 79 62 44 63 45 64 59 66 80 67
REMARK SMILES IDX 47 68 31 69 32 70 40 71 33 72 34 73 38 74 41 75 35 76 36 77
REMARK SMILES IDX 39 78 37 79 63 80 64 81 72 82 65 83 66 84 70 85 73 86 67 87
REMARK SMILES IDX 68 88 71 89 69 90 48 91 49 92 57 93 50 94 51 95 55 96 58 97
REMARK SMILES IDX 52 98 53 99 56 100 54 101
REMARK H PARENT 15 5 87 23 19 35 78 54 46 65
REMARK Flexibility Score: inf
ROOT
ATOM      1  C   UNL A   1      34.314  34.541  27.786  1.00  0.00     0.117 C 
ENDROOT
BRANCH   1   2
ATOM      2  N   UNL A   1      35.370  33.572  28.004  1.00  0.00    -0.353 N 
ATOM      3  C   UNL A   1      35.302  32.215  27.915  1.00  0.00     0.258 C 
ATOM      4  O   UNL A   1      36.320  31.559  28.137  1.00  0.00    -0.271 OA
ATOM      5  H   UNL A   1      36.248  33.943  28.248  1.00  0.00     0.163 HD
BRANCH   3   6
ATOM      6  C   UNL A   1      33.977  31.539  27.534  1.00  0.00     0.331 C 
BRANCH   6   7
ATOM      7  O   UNL A   1      33.936  30.125  27.652  1.00  0.00    -0.467 OA
BRANCH   7   8
ATOM      8  C   UNL A   1      33.517  29.405  26.566  1.00  0.00     0.219 A 
ATOM      9  C   UNL A   1      33.343  27.542  25.172  1.00  0.00     0.080 A 
ATOM     10  C   UNL A   1      33.951  28.146  26.247  1.00  0.00     0.097 A 
ATOM     11  N   UNL A   1      32.419  28.166  24.430  1.00  0.00    -0.212 NA
ATOM     12  C   UNL A   1      32.059  29.404  24.794  1.00  0.00     0.231 A 
ATOM     13  N   UNL A   1      32.590  30.053  25.839  1.00  0.00    -0.177 NA
BRANCH   9  14
ATOM     14  C   UNL A   1      33.654  26.158  24.806  1.00  0.00     0.004 A 
ATOM     15  C   UNL A   1      34.386  23.926  25.464  1.00  0.00     0.119 A 
ATOM     16  C   UNL A   1      34.429  23.556  24.121  1.00  0.00     0.046 A 
ATOM     17  C   UNL A   1      34.008  25.226  25.801  1.00  0.00     0.056 A 
ATOM     18  C   UNL A   1      34.050  24.455  23.123  1.00  0.00     0.005 A 
ATOM     19  C   UNL A   1      33.653  25.747  23.467  1.00  0.00     0.010 A 
BRANCH  15  20
ATOM     20  O   UNL A   1      34.782  22.967  26.353  1.00  0.00    -0.497 OA
ATOM     21  C   UNL A   1      34.457  21.625  26.007  1.00  0.00     0.278 C 
ENDBRANCH  15  20
ENDBRANCH   9  14
BRANCH  12  22
ATOM     22  N   UNL A   1      31.107  30.086  24.040  1.00  0.00    -0.323 N 
ATOM     23  H   UNL A   1      31.350  30.996  23.752  1.00  0.00     0.170 HD
BRANCH  22  24
ATOM     24  C   UNL A   1      29.843  29.626  23.644  1.00  0.00     0.055 A 
ATOM     25  C   UNL A   1      29.621  28.240  23.614  1.00  0.00     0.027 A 
ATOM     26  C   UNL A   1      28.752  30.476  23.376  1.00  0.00     0.041 A 
ATOM     27  C   UNL A   1      28.349  27.717  23.360  1.00  0.00     0.002 A 
ATOM     28  C   UNL A   1      27.480  29.952  23.122  1.00  0.00     0.018 A 
ATOM     29  Br  UNL A   1      28.947  32.366  23.213  1.00  0.00    -0.049 Br
ATOM     30  C   UNL A   1      27.277  28.574  23.125  1.00  0.00     0.001 A 
ENDBRANCH  22  24
ENDBRANCH  12  22
ENDBRANCH   7   8
ENDBRANCH   6   7
ENDBRANCH   3   6
ENDBRANCH   1   2
BRANCH   1  31
ATOM     31  C   UNL A   1      33.457  34.755  29.028  1.00  0.00     0.042 C 
BRANCH  31  32
ATOM     32  C   UNL A   1      33.509  36.172  29.591  1.00  0.00     0.118 C 
BRANCH  32  33
ATOM     33  N   UNL A   1      32.527  36.408  30.644  1.00  0.00    -0.352 N 
ATOM     34  C   UNL A   1      32.480  35.934  31.932  1.00  0.00     0.251 C 
ATOM     35  H   UNL A   1      31.781  36.999  30.391  1.00  0.00     0.163 HD
ATOM     36  O   UNL A   1      31.478  36.120  32.618  1.00  0.00    -0.269 OA
BRANCH  34  37
ATOM     37  C   UNL A   1      33.621  35.181  32.489  1.00  0.00     0.039 A 
ATOM     38  C   UNL A   1      33.405  33.898  33.001  1.00  0.00     0.014 A 
ATOM     39  C   UNL A   1      34.902  35.737  32.508  1.00  0.00     0.014 A 
ATOM     40  C   UNL A   1      34.489  33.139  33.451  1.00  0.00     0.010 A 
ATOM     41  C   UNL A   1      35.988  34.953  32.883  1.00  0.00     0.010 A 
ATOM     42  C   UNL A   1      35.795  33.644  33.351  1.00  0.00    -0.014 A 
BRANCH  42  43
ATOM     43  C   UNL A   1      36.984  32.836  33.726  1.00  0.00     0.031 A 
ATOM     44  C   UNL A   1      37.714  33.135  35.005  1.00  0.00     0.074 A 
ATOM     45  C   UNL A   1      37.459  31.905  32.876  1.00  0.00     0.049 A 
ATOM     46  N   UNL A   1      38.864  32.677  35.432  1.00  0.00    -0.248 NA
ATOM     47  C   UNL A   1      37.075  34.100  35.915  1.00  0.00     0.031 C 
ATOM     48  C   UNL A   1      36.850  31.530  31.600  1.00  0.00     0.029 A 
ATOM     49  N   UNL A   1      38.584  31.118  32.948  1.00  0.00    -0.354 N 
ATOM     50  C   UNL A   1      39.089  33.306  36.649  1.00  0.00     0.074 A 
ATOM     51  C   UNL A   1      37.988  34.216  36.870  1.00  0.00     0.031 C 
ATOM     52  C   UNL A   1      37.600  30.582  31.014  1.00  0.00     0.029 A 
ATOM     53  C   UNL A   1      38.773  30.323  31.843  1.00  0.00     0.049 A 
ATOM     54  H   UNL A   1      39.196  31.124  33.719  1.00  0.00     0.167 HD
ATOM     55  C   UNL A   1      40.114  33.121  37.516  1.00  0.00     0.037 A 
ATOM     56  C   UNL A   1      39.791  29.499  31.524  1.00  0.00     0.037 A 
ATOM     57  C   UNL A   1      41.202  32.206  37.297  1.00  0.00     0.049 A 
ATOM     58  C   UNL A   1      40.951  29.364  32.477  1.00  0.00     0.074 A 
ATOM     59  C   UNL A   1      42.281  31.937  38.120  1.00  0.00     0.029 A 
ATOM     60  N   UNL A   1      41.348  31.409  36.171  1.00  0.00    -0.354 N 
ATOM     61  N   UNL A   1      41.138  29.936  33.642  1.00  0.00    -0.248 NA
ATOM     62  C   UNL A   1      42.044  28.468  32.071  1.00  0.00     0.031 C 
ATOM     63  C   UNL A   1      43.104  31.010  37.474  1.00  0.00     0.029 A 
ATOM     64  C   UNL A   1      42.505  30.655  36.276  1.00  0.00     0.049 A 
ATOM     65  H   UNL A   1      40.722  31.383  35.412  1.00  0.00     0.167 HD
ATOM     66  C   UNL A   1      42.336  29.429  34.129  1.00  0.00     0.074 A 
ATOM     67  C   UNL A   1      42.836  28.506  33.133  1.00  0.00     0.031 C 
ATOM     68  C   UNL A   1      42.962  29.703  35.298  1.00  0.00     0.037 A 
BRANCH  55  69
ATOM     69  C   UNL A   1      40.104  33.916  38.789  1.00  0.00     0.064 A 
ATOM     70  C   UNL A   1      39.415  33.467  39.926  1.00  0.00     0.173 A 
ATOM     71  C   UNL A   1      40.837  35.107  38.896  1.00  0.00     0.173 A 
ATOM     72  F   UNL A   1      38.690  32.338  39.875  1.00  0.00    -0.203 F 
ATOM     73  C   UNL A   1      39.443  34.192  41.115  1.00  0.00     0.198 A 
ATOM     74  C   UNL A   1      40.889  35.813  40.095  1.00  0.00     0.198 A 
ATOM     75  F   UNL A   1      41.520  35.578  37.841  1.00  0.00    -0.203 F 
ATOM     76  F   UNL A   1      38.742  33.765  42.174  1.00  0.00    -0.200 F 
ATOM     77  C   UNL A   1      40.187  35.357  41.200  1.00  0.00     0.200 A 
ATOM     78  F   UNL A   1      41.624  36.930  40.182  1.00  0.00    -0.200 F 
ATOM     79  F   UNL A   1      40.226  36.047  42.350  1.00  0.00    -0.200 F 
ENDBRANCH  55  69
BRANCH  56  80
ATOM     80  C   UNL A   1      39.770  28.730  30.250  1.00  0.00     0.064 A 
ATOM     81  C   UNL A   1      39.231  27.437  30.203  1.00  0.00     0.173 A 
ATOM     82  C   UNL A   1      40.325  29.246  29.070  1.00  0.00     0.173 A 
ATOM     83  F   UNL A   1      38.706  26.889  31.309  1.00  0.00    -0.203 F 
ATOM     84  C   UNL A   1      39.281  26.676  29.037  1.00  0.00     0.198 A 
ATOM     85  C   UNL A   1      40.344  28.497  27.894  1.00  0.00     0.198 A 
ATOM     86  F   UNL A   1      40.851  30.480  29.056  1.00  0.00    -0.203 F 
ATOM     87  F   UNL A   1      38.820  25.418  29.039  1.00  0.00    -0.200 F 
ATOM     88  C   UNL A   1      39.835  27.207  27.882  1.00  0.00     0.200 A 
ATOM     89  F   UNL A   1      40.866  29.021  26.776  1.00  0.00    -0.200 F 
ATOM     90  F   UNL A   1      39.891  26.473  26.763  1.00  0.00    -0.200 F 
ENDBRANCH  56  80
BRANCH  68  91
ATOM     91  C   UNL A   1      44.211  28.935  35.622  1.00  0.00     0.064 A 
ATOM     92  C   UNL A   1      45.486  29.419  35.300  1.00  0.00     0.173 A 
ATOM     93  C   UNL A   1      44.125  27.735  36.346  1.00  0.00     0.173 A 
ATOM     94  F   UNL A   1      45.622  30.554  34.597  1.00  0.00    -0.203 F 
ATOM     95  C   UNL A   1      46.631  28.724  35.683  1.00  0.00     0.198 A 
ATOM     96  C   UNL A   1      45.271  27.060  36.753  1.00  0.00     0.198 A 
ATOM     97  F   UNL A   1      42.928  27.233  36.684  1.00  0.00    -0.203 F 
ATOM     98  F   UNL A   1      47.840  29.187  35.338  1.00  0.00    -0.200 F 
ATOM     99  C   UNL A   1      46.523  27.553  36.419  1.00  0.00     0.200 A 
ATOM    100  F   UNL A   1      45.164  25.939  37.480  1.00  0.00    -0.200 F 
ATOM    101  F   UNL A   1      47.627  26.899  36.806  1.00  0.00    -0.200 F 
ENDBRANCH  68  91
ENDBRANCH  42  43
ENDBRANCH  34  37
ENDBRANCH  32  33
ENDBRANCH  31  32
ENDBRANCH   1  31
TORSDOF 16
ENDMDL
