MODEL 1
REMARK VINA RESULT:     -12.4      0.000      0.000
REMARK SMILES CC(C)(C)OC(=O)N1CCC[C@H]1C(=O)N1CCC[C@H]1C(=O)N1CCC[C@@H]1C(=O)NCCCNC(=O)c1ccc(-c2c3nc(c(-c4c(F)c(F)c(F)c(F)c4F)c4ccc([nH]4)c(-c4c(F)c(F)c(F)c(F)c4F)c4nc(c(-c5c(F)c(F)c(F)c(F)c5F)c5ccc2[nH]5)C=C4)C=C3)cc1
REMARK SMILES IDX 22 1 23 2 24 3 25 4 26 5 20 6 21 7 19 8 15 9 16 10 17 11
REMARK SMILES IDX 18 12 13 13 14 14 12 15 8 16 9 17 10 18 11 19 6 20 7 21 5 22
REMARK SMILES IDX 2 23 1 24 3 25 4 26 27 27 28 28 29 29 30 31 31 32 32 33
REMARK SMILES IDX 33 34 34 35 35 37 36 38 37 39 98 40 38 41 97 42 39 43 40 44
REMARK SMILES IDX 41 45 91 46 42 47 96 48 90 49 92 50 43 51 95 52 89 53 88 54
REMARK SMILES IDX 44 56 76 57 56 58 75 59 57 60 60 61 74 62 93 63 58 64 59 65
REMARK SMILES IDX 73 67 94 68 61 69 45 70 46 71 54 72 47 73 48 74 52 75 55 76
REMARK SMILES IDX 49 77 50 78 53 79 51 80 77 81 78 82 86 83 79 84 80 85 84 86
REMARK SMILES IDX 87 87 81 88 82 89 85 90 83 91 62 92 63 93 71 94 64 95 65 96
REMARK SMILES IDX 69 97 72 98 66 99 67 100 70 101 68 102
REMARK H PARENT 29 30 33 36 92 55 60 66
REMARK Flexibility Score: inf
ROOT
ATOM      1  N   UNL A   1      33.600  22.018  23.916  1.00  0.00    -0.329 N 
ATOM      2  C   UNL A   1      32.290  21.412  23.776  1.00  0.00     0.120 C 
ATOM      3  C   UNL A   1      32.174  20.464  24.959  1.00  0.00     0.024 C 
ATOM      4  C   UNL A   1      33.616  20.077  25.292  1.00  0.00     0.037 C 
ATOM      5  C   UNL A   1      34.505  21.175  24.688  1.00  0.00     0.174 C 
ENDROOT
BRANCH   1   6
ATOM      6  C   UNL A   1      34.096  23.057  23.141  1.00  0.00     0.246 C 
ATOM      7  O   UNL A   1      35.252  23.075  22.724  1.00  0.00    -0.272 OA
BRANCH   6   8
ATOM      8  C   UNL A   1      33.102  24.221  22.914  1.00  0.00     0.174 C 
ATOM      9  N   UNL A   1      33.519  25.532  23.452  1.00  0.00    -0.329 N 
ATOM     10  C   UNL A   1      33.630  26.507  22.390  1.00  0.00     0.120 C 
ATOM     11  C   UNL A   1      32.736  25.970  21.290  1.00  0.00     0.024 C 
ATOM     12  C   UNL A   1      32.868  24.458  21.419  1.00  0.00     0.037 C 
BRANCH   9  13
ATOM     13  C   UNL A   1      33.697  25.728  24.813  1.00  0.00     0.246 C 
ATOM     14  O   UNL A   1      34.801  25.545  25.328  1.00  0.00    -0.272 OA
BRANCH  13  15
ATOM     15  C   UNL A   1      32.454  26.037  25.701  1.00  0.00     0.178 C 
ATOM     16  N   UNL A   1      31.433  26.859  25.019  1.00  0.00    -0.296 N 
ATOM     17  C   UNL A   1      30.177  26.158  24.888  1.00  0.00     0.124 C 
ATOM     18  C   UNL A   1      30.200  25.214  26.068  1.00  0.00     0.024 C 
ATOM     19  C   UNL A   1      31.667  24.799  26.150  1.00  0.00     0.037 C 
BRANCH  16  20
ATOM     20  C   UNL A   1      31.630  28.192  24.735  1.00  0.00     0.410 C 
ATOM     21  O   UNL A   1      31.007  28.787  23.875  1.00  0.00    -0.224 OA
BRANCH  20  22
ATOM     22  O   UNL A   1      32.640  28.729  25.485  1.00  0.00    -0.444 OA
BRANCH  22  23
ATOM     23  C   UNL A   1      32.370  29.512  26.680  1.00  0.00     0.106 C 
ATOM     24  C   UNL A   1      31.577  30.747  26.229  1.00  0.00     0.056 C 
ATOM     25  C   UNL A   1      33.698  29.966  27.296  1.00  0.00     0.056 C 
ATOM     26  C   UNL A   1      31.494  28.773  27.688  1.00  0.00     0.056 C 
ENDBRANCH  22  23
ENDBRANCH  20  22
ENDBRANCH  16  20
ENDBRANCH  13  15
ENDBRANCH   9  13
ENDBRANCH   6   8
ENDBRANCH   1   6
BRANCH   5  27
ATOM     27  C   UNL A   1      35.260  21.926  25.808  1.00  0.00     0.242 C 
ATOM     28  O   UNL A   1      34.634  22.469  26.726  1.00  0.00    -0.273 OA
ATOM     29  N   UNL A   1      36.598  22.189  25.724  1.00  0.00    -0.354 N 
ATOM     30  H   UNL A   1      36.955  22.732  26.464  1.00  0.00     0.163 HD
BRANCH  29  31
ATOM     31  C   UNL A   1      37.575  21.806  24.732  1.00  0.00     0.117 C 
BRANCH  31  32
ATOM     32  C   UNL A   1      38.191  20.449  25.016  1.00  0.00     0.042 C 
BRANCH  32  33
ATOM     33  C   UNL A   1      39.249  20.527  26.095  1.00  0.00     0.118 C 
BRANCH  33  34
ATOM     34  N   UNL A   1      40.229  19.454  25.984  1.00  0.00    -0.352 N 
ATOM     35  C   UNL A   1      41.593  19.470  26.096  1.00  0.00     0.251 C 
ATOM     36  H   UNL A   1      39.844  18.567  25.798  1.00  0.00     0.163 HD
ATOM     37  O   UNL A   1      42.233  18.443  25.880  1.00  0.00    -0.269 OA
BRANCH  35  38
ATOM     38  C   UNL A   1      42.306  20.705  26.490  1.00  0.00     0.039 A 
ATOM     39  C   UNL A   1      42.851  21.495  25.475  1.00  0.00     0.014 A 
ATOM     40  C   UNL A   1      42.473  21.081  27.828  1.00  0.00     0.014 A 
ATOM     41  C   UNL A   1      43.453  22.708  25.794  1.00  0.00     0.010 A 
ATOM     42  C   UNL A   1      42.996  22.323  28.146  1.00  0.00     0.010 A 
ATOM     43  C   UNL A   1      43.460  23.153  27.125  1.00  0.00    -0.014 A 
BRANCH  43  44
ATOM     44  C   UNL A   1      43.816  24.545  27.447  1.00  0.00     0.031 A 
ATOM     45  C   UNL A   1      45.242  24.987  27.477  1.00  0.00     0.074 A 
ATOM     46  C   UNL A   1      42.815  25.365  27.817  1.00  0.00     0.049 A 
ATOM     47  N   UNL A   1      45.726  26.174  27.731  1.00  0.00    -0.248 NA
ATOM     48  C   UNL A   1      46.262  23.960  27.216  1.00  0.00     0.031 C 
ATOM     49  C   UNL A   1      41.405  24.975  27.920  1.00  0.00     0.029 A 
ATOM     50  N   UNL A   1      42.822  26.682  28.184  1.00  0.00    -0.354 N 
ATOM     51  C   UNL A   1      47.104  26.041  27.652  1.00  0.00     0.074 A 
ATOM     52  C   UNL A   1      47.383  24.645  27.391  1.00  0.00     0.031 C 
ATOM     53  C   UNL A   1      40.680  26.040  28.291  1.00  0.00     0.029 A 
ATOM     54  C   UNL A   1      41.576  27.172  28.481  1.00  0.00     0.049 A 
ATOM     55  H   UNL A   1      43.642  27.226  28.230  1.00  0.00     0.167 HD
ATOM     56  C   UNL A   1      48.041  27.011  27.766  1.00  0.00     0.037 A 
ATOM     57  C   UNL A   1      41.202  28.405  28.861  1.00  0.00     0.037 A 
ATOM     58  C   UNL A   1      47.728  28.389  28.043  1.00  0.00     0.049 A 
ATOM     59  C   UNL A   1      42.260  29.465  28.967  1.00  0.00     0.074 A 
ATOM     60  C   UNL A   1      48.581  29.474  28.114  1.00  0.00     0.029 A 
ATOM     61  N   UNL A   1      46.450  28.867  28.311  1.00  0.00    -0.354 N 
ATOM     62  N   UNL A   1      43.553  29.363  28.771  1.00  0.00    -0.248 NA
ATOM     63  C   UNL A   1      41.808  30.813  29.328  1.00  0.00     0.031 C 
ATOM     64  C   UNL A   1      47.829  30.596  28.483  1.00  0.00     0.029 A 
ATOM     65  C   UNL A   1      46.497  30.226  28.580  1.00  0.00     0.049 A 
ATOM     66  H   UNL A   1      45.631  28.320  28.311  1.00  0.00     0.167 HD
ATOM     67  C   UNL A   1      44.070  30.634  28.963  1.00  0.00     0.074 A 
ATOM     68  C   UNL A   1      42.944  31.495  29.272  1.00  0.00     0.031 C 
ATOM     69  C   UNL A   1      45.358  31.053  28.892  1.00  0.00     0.037 A 
BRANCH  56  70
ATOM     70  C   UNL A   1      49.479  26.612  27.594  1.00  0.00     0.064 A 
ATOM     71  C   UNL A   1      50.047  26.437  26.321  1.00  0.00     0.173 A 
ATOM     72  C   UNL A   1      50.308  26.422  28.709  1.00  0.00     0.173 A 
ATOM     73  F   UNL A   1      49.298  26.595  25.219  1.00  0.00    -0.203 F 
ATOM     74  C   UNL A   1      51.379  26.055  26.174  1.00  0.00     0.198 A 
ATOM     75  C   UNL A   1      51.648  26.072  28.557  1.00  0.00     0.198 A 
ATOM     76  F   UNL A   1      49.821  26.578  29.949  1.00  0.00    -0.203 F 
ATOM     77  F   UNL A   1      51.881  25.841  24.950  1.00  0.00    -0.200 F 
ATOM     78  C   UNL A   1      52.179  25.880  27.291  1.00  0.00     0.200 A 
ATOM     79  F   UNL A   1      52.424  25.914  29.639  1.00  0.00    -0.200 F 
ATOM     80  F   UNL A   1      53.461  25.516  27.148  1.00  0.00    -0.200 F 
ENDBRANCH  56  70
BRANCH  57  81
ATOM     81  C   UNL A   1      39.768  28.695  29.108  1.00  0.00     0.064 A 
ATOM     82  C   UNL A   1      39.210  28.530  30.382  1.00  0.00     0.173 A 
ATOM     83  C   UNL A   1      38.937  29.187  28.090  1.00  0.00     0.173 A 
ATOM     84  F   UNL A   1      39.963  28.057  31.386  1.00  0.00    -0.203 F 
ATOM     85  C   UNL A   1      37.871  28.828  30.626  1.00  0.00     0.198 A 
ATOM     86  C   UNL A   1      37.606  29.512  28.342  1.00  0.00     0.198 A 
ATOM     87  F   UNL A   1      39.428  29.381  26.857  1.00  0.00    -0.203 F 
ATOM     88  F   UNL A   1      37.354  28.629  31.846  1.00  0.00    -0.200 F 
ATOM     89  C   UNL A   1      37.072  29.325  29.607  1.00  0.00     0.200 A 
ATOM     90  F   UNL A   1      36.844  30.014  27.360  1.00  0.00    -0.200 F 
ATOM     91  F   UNL A   1      35.787  29.624  29.846  1.00  0.00    -0.200 F 
ENDBRANCH  57  81
BRANCH  69  92
ATOM     92  C   UNL A   1      45.606  32.514  29.134  1.00  0.00     0.064 A 
ATOM     93  C   UNL A   1      45.453  33.464  28.114  1.00  0.00     0.173 A 
ATOM     94  C   UNL A   1      45.972  32.967  30.409  1.00  0.00     0.173 A 
ATOM     95  F   UNL A   1      45.121  33.078  26.874  1.00  0.00    -0.203 F 
ATOM     96  C   UNL A   1      45.688  34.814  28.357  1.00  0.00     0.198 A 
ATOM     97  C   UNL A   1      46.173  34.322  30.656  1.00  0.00     0.198 A 
ATOM     98  F   UNL A   1      46.126  32.098  31.419  1.00  0.00    -0.203 F 
ATOM     99  F   UNL A   1      45.591  35.700  27.355  1.00  0.00    -0.200 F 
ATOM    100  C   UNL A   1      46.039  35.243  29.629  1.00  0.00     0.200 A 
ATOM    101  F   UNL A   1      46.497  34.736  31.889  1.00  0.00    -0.200 F 
ATOM    102  F   UNL A   1      46.259  36.544  29.861  1.00  0.00    -0.200 F 
ENDBRANCH  69  92
ENDBRANCH  43  44
ENDBRANCH  35  38
ENDBRANCH  33  34
ENDBRANCH  32  33
ENDBRANCH  31  32
ENDBRANCH  29  31
ENDBRANCH   5  27
TORSDOF 17
ENDMDL
MODEL 2
REMARK VINA RESULT:     -12.4      0.625      7.188
REMARK SMILES CC(C)(C)OC(=O)N1CCC[C@H]1C(=O)N1CCC[C@H]1C(=O)N1CCC[C@@H]1C(=O)NCCCNC(=O)c1ccc(-c2c3nc(c(-c4c(F)c(F)c(F)c(F)c4F)c4ccc([nH]4)c(-c4c(F)c(F)c(F)c(F)c4F)c4nc(c(-c5c(F)c(F)c(F)c(F)c5F)c5ccc2[nH]5)C=C4)C=C3)cc1
REMARK SMILES IDX 22 1 23 2 24 3 25 4 26 5 20 6 21 7 19 8 15 9 16 10 17 11
REMARK SMILES IDX 18 12 13 13 14 14 12 15 8 16 9 17 10 18 11 19 6 20 7 21 5 22
REMARK SMILES IDX 2 23 1 24 3 25 4 26 27 27 28 28 29 29 30 31 31 32 32 33
REMARK SMILES IDX 33 34 34 35 35 37 36 38 37 39 98 40 38 41 97 42 39 43 40 44
REMARK SMILES IDX 41 45 91 46 42 47 96 48 90 49 92 50 43 51 95 52 89 53 88 54
REMARK SMILES IDX 44 56 76 57 56 58 75 59 57 60 60 61 74 62 93 63 58 64 59 65
REMARK SMILES IDX 73 67 94 68 61 69 45 70 46 71 54 72 47 73 48 74 52 75 55 76
REMARK SMILES IDX 49 77 50 78 53 79 51 80 77 81 78 82 86 83 79 84 80 85 84 86
REMARK SMILES IDX 87 87 81 88 82 89 85 90 83 91 62 92 63 93 71 94 64 95 65 96
REMARK SMILES IDX 69 97 72 98 66 99 67 100 70 101 68 102
REMARK H PARENT 29 30 33 36 92 55 60 66
REMARK Flexibility Score: inf
ROOT
ATOM      1  N   UNL A   1      33.590  22.061  23.906  1.00  0.00    -0.329 N 
ATOM      2  C   UNL A   1      32.271  21.475  23.772  1.00  0.00     0.120 C 
ATOM      3  C   UNL A   1      32.156  20.508  24.939  1.00  0.00     0.024 C 
ATOM      4  C   UNL A   1      33.596  20.096  25.248  1.00  0.00     0.037 C 
ATOM      5  C   UNL A   1      34.492  21.193  24.652  1.00  0.00     0.174 C 
ENDROOT
BRANCH   1   6
ATOM      6  C   UNL A   1      34.090  23.107  23.144  1.00  0.00     0.246 C 
ATOM      7  O   UNL A   1      35.263  23.154  22.778  1.00  0.00    -0.272 OA
BRANCH   6   8
ATOM      8  C   UNL A   1      33.075  24.240  22.863  1.00  0.00     0.174 C 
ATOM      9  N   UNL A   1      33.445  25.573  23.380  1.00  0.00    -0.329 N 
ATOM     10  C   UNL A   1      33.563  26.526  22.298  1.00  0.00     0.120 C 
ATOM     11  C   UNL A   1      32.712  25.942  21.188  1.00  0.00     0.024 C 
ATOM     12  C   UNL A   1      32.877  24.437  21.357  1.00  0.00     0.037 C 
BRANCH   9  13
ATOM     13  C   UNL A   1      33.581  25.806  24.741  1.00  0.00     0.246 C 
ATOM     14  O   UNL A   1      34.662  25.612  25.299  1.00  0.00    -0.272 OA
BRANCH  13  15
ATOM     15  C   UNL A   1      32.317  26.172  25.574  1.00  0.00     0.178 C 
ATOM     16  N   UNL A   1      31.379  27.063  24.861  1.00  0.00    -0.296 N 
ATOM     17  C   UNL A   1      30.092  26.439  24.656  1.00  0.00     0.124 C 
ATOM     18  C   UNL A   1      30.004  25.475  25.818  1.00  0.00     0.024 C 
ATOM     19  C   UNL A   1      31.439  24.974  25.961  1.00  0.00     0.037 C 
BRANCH  16  20
ATOM     20  C   UNL A   1      31.665  28.388  24.614  1.00  0.00     0.410 C 
ATOM     21  O   UNL A   1      31.125  29.030  23.733  1.00  0.00    -0.224 OA
BRANCH  20  22
ATOM     22  O   UNL A   1      32.661  28.853  25.427  1.00  0.00    -0.444 OA
BRANCH  22  23
ATOM     23  C   UNL A   1      32.382  29.740  26.545  1.00  0.00     0.106 C 
ATOM     24  C   UNL A   1      31.613  28.912  27.584  1.00  0.00     0.056 C 
ATOM     25  C   UNL A   1      31.495  30.894  26.066  1.00  0.00     0.056 C 
ATOM     26  C   UNL A   1      33.649  30.241  27.234  1.00  0.00     0.056 C 
ENDBRANCH  22  23
ENDBRANCH  20  22
ENDBRANCH  16  20
ENDBRANCH  13  15
ENDBRANCH   9  13
ENDBRANCH   6   8
ENDBRANCH   1   6
BRANCH   5  27
ATOM     27  C   UNL A   1      35.271  21.914  25.777  1.00  0.00     0.242 C 
ATOM     28  O   UNL A   1      34.662  22.479  26.693  1.00  0.00    -0.273 OA
ATOM     29  N   UNL A   1      36.618  22.126  25.699  1.00  0.00    -0.354 N 
ATOM     30  H   UNL A   1      36.993  22.654  26.440  1.00  0.00     0.163 HD
BRANCH  29  31
ATOM     31  C   UNL A   1      37.584  21.707  24.710  1.00  0.00     0.117 C 
BRANCH  31  32
ATOM     32  C   UNL A   1      38.203  20.361  25.035  1.00  0.00     0.042 C 
BRANCH  32  33
ATOM     33  C   UNL A   1      39.268  20.476  26.104  1.00  0.00     0.118 C 
BRANCH  33  34
ATOM     34  N   UNL A   1      40.242  19.394  26.030  1.00  0.00    -0.352 N 
ATOM     35  C   UNL A   1      41.607  19.409  26.131  1.00  0.00     0.251 C 
ATOM     36  H   UNL A   1      39.851  18.503  25.884  1.00  0.00     0.163 HD
ATOM     37  O   UNL A   1      42.240  18.370  25.952  1.00  0.00    -0.269 OA
BRANCH  35  38
ATOM     38  C   UNL A   1      42.330  20.655  26.467  1.00  0.00     0.039 A 
ATOM     39  C   UNL A   1      42.894  21.385  25.419  1.00  0.00     0.014 A 
ATOM     40  C   UNL A   1      42.486  21.099  27.786  1.00  0.00     0.014 A 
ATOM     41  C   UNL A   1      43.506  22.607  25.681  1.00  0.00     0.010 A 
ATOM     42  C   UNL A   1      43.019  22.350  28.044  1.00  0.00     0.010 A 
ATOM     43  C   UNL A   1      43.504  23.121  26.986  1.00  0.00    -0.014 A 
BRANCH  43  44
ATOM     44  C   UNL A   1      43.871  24.524  27.240  1.00  0.00     0.031 A 
ATOM     45  C   UNL A   1      42.839  25.530  27.628  1.00  0.00     0.074 A 
ATOM     46  C   UNL A   1      45.147  24.877  27.001  1.00  0.00     0.049 A 
ATOM     47  N   UNL A   1      42.993  26.800  27.897  1.00  0.00    -0.248 NA
ATOM     48  C   UNL A   1      41.446  25.062  27.698  1.00  0.00     0.031 C 
ATOM     49  C   UNL A   1      46.192  23.973  26.512  1.00  0.00     0.029 A 
ATOM     50  N   UNL A   1      45.783  26.082  27.124  1.00  0.00    -0.354 N 
ATOM     51  C   UNL A   1      41.723  27.281  28.176  1.00  0.00     0.074 A 
ATOM     52  C   UNL A   1      40.800  26.184  27.981  1.00  0.00     0.031 C 
ATOM     53  C   UNL A   1      47.345  24.647  26.408  1.00  0.00     0.029 A 
ATOM     54  C   UNL A   1      47.113  26.032  26.792  1.00  0.00     0.049 A 
ATOM     55  H   UNL A   1      45.330  26.904  27.421  1.00  0.00     0.167 HD
ATOM     56  C   UNL A   1      41.375  28.525  28.581  1.00  0.00     0.037 A 
ATOM     57  C   UNL A   1      48.042  27.003  26.803  1.00  0.00     0.037 A 
ATOM     58  C   UNL A   1      42.321  29.598  28.749  1.00  0.00     0.049 A 
ATOM     59  C   UNL A   1      47.632  28.370  27.269  1.00  0.00     0.074 A 
ATOM     60  C   UNL A   1      42.101  30.880  29.218  1.00  0.00     0.029 A 
ATOM     61  N   UNL A   1      43.672  29.514  28.434  1.00  0.00    -0.354 N 
ATOM     62  N   UNL A   1      46.450  28.792  27.651  1.00  0.00    -0.248 NA
ATOM     63  C   UNL A   1      48.684  29.390  27.324  1.00  0.00     0.031 C 
ATOM     64  C   UNL A   1      43.306  31.587  29.132  1.00  0.00     0.029 A 
ATOM     65  C   UNL A   1      44.292  30.731  28.668  1.00  0.00     0.049 A 
ATOM     66  H   UNL A   1      44.123  28.708  28.094  1.00  0.00     0.167 HD
ATOM     67  C   UNL A   1      46.616  30.119  28.012  1.00  0.00     0.074 A 
ATOM     68  C   UNL A   1      48.021  30.425  27.821  1.00  0.00     0.031 C 
ATOM     69  C   UNL A   1      45.693  31.006  28.460  1.00  0.00     0.037 A 
BRANCH  56  70
ATOM     70  C   UNL A   1      39.923  28.782  28.865  1.00  0.00     0.064 A 
ATOM     71  C   UNL A   1      39.373  28.571  30.140  1.00  0.00     0.173 A 
ATOM     72  C   UNL A   1      39.072  29.267  27.861  1.00  0.00     0.173 A 
ATOM     73  F   UNL A   1      40.138  28.098  31.136  1.00  0.00    -0.203 F 
ATOM     74  C   UNL A   1      38.022  28.802  30.388  1.00  0.00     0.198 A 
ATOM     75  C   UNL A   1      37.729  29.528  28.121  1.00  0.00     0.198 A 
ATOM     76  F   UNL A   1      39.543  29.491  26.625  1.00  0.00    -0.203 F 
ATOM     77  F   UNL A   1      37.510  28.539  31.599  1.00  0.00    -0.200 F 
ATOM     78  C   UNL A   1      37.203  29.287  29.381  1.00  0.00     0.200 A 
ATOM     79  F   UNL A   1      36.941  30.009  27.149  1.00  0.00    -0.200 F 
ATOM     80  F   UNL A   1      35.905  29.512  29.622  1.00  0.00    -0.200 F 
ENDBRANCH  56  70
BRANCH  57  81
ATOM     81  C   UNL A   1      49.438  26.689  26.413  1.00  0.00     0.064 A 
ATOM     82  C   UNL A   1      49.872  26.857  25.092  1.00  0.00     0.173 A 
ATOM     83  C   UNL A   1      50.381  26.260  27.360  1.00  0.00     0.173 A 
ATOM     84  F   UNL A   1      49.006  27.260  24.150  1.00  0.00    -0.203 F 
ATOM     85  C   UNL A   1      51.189  26.591  24.727  1.00  0.00     0.198 A 
ATOM     86  C   UNL A   1      51.705  26.021  26.999  1.00  0.00     0.198 A 
ATOM     87  F   UNL A   1      50.022  26.102  28.642  1.00  0.00    -0.203 F 
ATOM     88  F   UNL A   1      51.569  26.727  23.449  1.00  0.00    -0.200 F 
ATOM     89  C   UNL A   1      52.107  26.180  25.682  1.00  0.00     0.200 A 
ATOM     90  F   UNL A   1      52.594  25.647  27.930  1.00  0.00    -0.200 F 
ATOM     91  F   UNL A   1      53.378  25.936  25.332  1.00  0.00    -0.200 F 
ENDBRANCH  57  81
BRANCH  69  92
ATOM     92  C   UNL A   1      46.187  32.384  28.792  1.00  0.00     0.064 A 
ATOM     93  C   UNL A   1      46.692  32.698  30.062  1.00  0.00     0.173 A 
ATOM     94  C   UNL A   1      46.179  33.391  27.817  1.00  0.00     0.173 A 
ATOM     95  F   UNL A   1      46.703  31.773  31.033  1.00  0.00    -0.203 F 
ATOM     96  C   UNL A   1      47.145  33.982  30.351  1.00  0.00     0.198 A 
ATOM     97  C   UNL A   1      46.665  34.664  28.100  1.00  0.00     0.198 A 
ATOM     98  F   UNL A   1      45.711  33.139  26.586  1.00  0.00    -0.203 F 
ATOM     99  F   UNL A   1      47.572  34.276  31.588  1.00  0.00    -0.200 F 
ATOM    100  C   UNL A   1      47.139  34.960  29.369  1.00  0.00     0.200 A 
ATOM    101  F   UNL A   1      46.673  35.605  27.145  1.00  0.00    -0.200 F 
ATOM    102  F   UNL A   1      47.581  36.195  29.649  1.00  0.00    -0.200 F 
ENDBRANCH  69  92
ENDBRANCH  43  44
ENDBRANCH  35  38
ENDBRANCH  33  34
ENDBRANCH  32  33
ENDBRANCH  31  32
ENDBRANCH  29  31
ENDBRANCH   5  27
TORSDOF 17
ENDMDL
MODEL 3
REMARK VINA RESULT:     -12.2      1.241      2.468
REMARK SMILES CC(C)(C)OC(=O)N1CCC[C@H]1C(=O)N1CCC[C@H]1C(=O)N1CCC[C@@H]1C(=O)NCCCNC(=O)c1ccc(-c2c3nc(c(-c4c(F)c(F)c(F)c(F)c4F)c4ccc([nH]4)c(-c4c(F)c(F)c(F)c(F)c4F)c4nc(c(-c5c(F)c(F)c(F)c(F)c5F)c5ccc2[nH]5)C=C4)C=C3)cc1
REMARK SMILES IDX 22 1 23 2 24 3 25 4 26 5 20 6 21 7 19 8 15 9 16 10 17 11
REMARK SMILES IDX 18 12 13 13 14 14 12 15 8 16 9 17 10 18 11 19 6 20 7 21 5 22
REMARK SMILES IDX 2 23 1 24 3 25 4 26 27 27 28 28 29 29 30 31 31 32 32 33
REMARK SMILES IDX 33 34 34 35 35 37 36 38 37 39 98 40 38 41 97 42 39 43 40 44
REMARK SMILES IDX 41 45 91 46 42 47 96 48 90 49 92 50 43 51 95 52 89 53 88 54
REMARK SMILES IDX 44 56 76 57 56 58 75 59 57 60 60 61 74 62 93 63 58 64 59 65
REMARK SMILES IDX 73 67 94 68 61 69 45 70 46 71 54 72 47 73 48 74 52 75 55 76
REMARK SMILES IDX 49 77 50 78 53 79 51 80 77 81 78 82 86 83 79 84 80 85 84 86
REMARK SMILES IDX 87 87 81 88 82 89 85 90 83 91 62 92 63 93 71 94 64 95 65 96
REMARK SMILES IDX 69 97 72 98 66 99 67 100 70 101 68 102
REMARK H PARENT 29 30 33 36 92 55 60 66
REMARK Flexibility Score: inf
ROOT
ATOM      1  N   UNL A   1      33.638  22.472  24.327  1.00  0.00    -0.329 N 
ATOM      2  C   UNL A   1      32.345  21.941  23.942  1.00  0.00     0.120 C 
ATOM      3  C   UNL A   1      32.292  20.556  24.568  1.00  0.00     0.024 C 
ATOM      4  C   UNL A   1      33.754  20.120  24.674  1.00  0.00     0.037 C 
ATOM      5  C   UNL A   1      34.590  21.408  24.624  1.00  0.00     0.174 C 
ENDROOT
BRANCH   1   6
ATOM      6  C   UNL A   1      34.078  23.768  24.103  1.00  0.00     0.246 C 
ATOM      7  O   UNL A   1      35.002  24.027  23.334  1.00  0.00    -0.272 OA
BRANCH   6   8
ATOM      8  C   UNL A   1      33.367  24.845  24.955  1.00  0.00     0.174 C 
ATOM      9  N   UNL A   1      32.216  25.512  24.312  1.00  0.00    -0.329 N 
ATOM     10  C   UNL A   1      31.006  25.287  25.070  1.00  0.00     0.120 C 
ATOM     11  C   UNL A   1      31.492  24.976  26.472  1.00  0.00     0.024 C 
ATOM     12  C   UNL A   1      32.807  24.241  26.247  1.00  0.00     0.037 C 
BRANCH   9  13
ATOM     13  C   UNL A   1      32.377  26.283  23.170  1.00  0.00     0.246 C 
ATOM     14  O   UNL A   1      32.448  25.746  22.063  1.00  0.00    -0.272 OA
BRANCH  13  15
ATOM     15  C   UNL A   1      32.612  27.816  23.319  1.00  0.00     0.178 C 
ATOM     16  N   UNL A   1      31.409  28.556  23.754  1.00  0.00    -0.296 N 
ATOM     17  C   UNL A   1      31.607  29.202  25.031  1.00  0.00     0.124 C 
ATOM     18  C   UNL A   1      33.099  29.445  25.051  1.00  0.00     0.024 C 
ATOM     19  C   UNL A   1      33.661  28.200  24.371  1.00  0.00     0.037 C 
BRANCH  16  20
ATOM     20  C   UNL A   1      30.324  28.749  22.928  1.00  0.00     0.410 C 
ATOM     21  O   UNL A   1      30.132  28.094  21.920  1.00  0.00    -0.224 OA
BRANCH  20  22
ATOM     22  O   UNL A   1      29.546  29.793  23.344  1.00  0.00    -0.444 OA
BRANCH  22  23
ATOM     23  C   UNL A   1      28.203  30.000  22.825  1.00  0.00     0.106 C 
ATOM     24  C   UNL A   1      27.608  31.184  23.600  1.00  0.00     0.056 C 
ATOM     25  C   UNL A   1      27.360  28.749  23.094  1.00  0.00     0.056 C 
ATOM     26  C   UNL A   1      28.192  30.392  21.350  1.00  0.00     0.056 C 
ENDBRANCH  22  23
ENDBRANCH  20  22
ENDBRANCH  16  20
ENDBRANCH  13  15
ENDBRANCH   9  13
ENDBRANCH   6   8
ENDBRANCH   1   6
BRANCH   5  27
ATOM     27  C   UNL A   1      35.353  21.601  25.954  1.00  0.00     0.242 C 
ATOM     28  O   UNL A   1      34.731  21.760  27.012  1.00  0.00    -0.273 OA
ATOM     29  N   UNL A   1      36.703  21.803  25.988  1.00  0.00    -0.354 N 
ATOM     30  H   UNL A   1      37.068  21.981  26.885  1.00  0.00     0.163 HD
BRANCH  29  31
ATOM     31  C   UNL A   1      37.686  21.802  24.928  1.00  0.00     0.117 C 
BRANCH  31  32
ATOM     32  C   UNL A   1      39.104  21.679  25.451  1.00  0.00     0.042 C 
BRANCH  32  33
ATOM     33  C   UNL A   1      39.231  20.574  26.478  1.00  0.00     0.118 C 
BRANCH  33  34
ATOM     34  N   UNL A   1      40.226  19.579  26.096  1.00  0.00    -0.352 N 
ATOM     35  C   UNL A   1      41.589  19.663  26.006  1.00  0.00     0.251 C 
ATOM     36  H   UNL A   1      39.853  18.698  25.864  1.00  0.00     0.163 HD
ATOM     37  O   UNL A   1      42.229  18.705  25.576  1.00  0.00    -0.269 OA
BRANCH  35  38
ATOM     38  C   UNL A   1      42.303  20.886  26.434  1.00  0.00     0.039 A 
ATOM     39  C   UNL A   1      42.869  21.691  25.443  1.00  0.00     0.014 A 
ATOM     40  C   UNL A   1      42.450  21.236  27.781  1.00  0.00     0.014 A 
ATOM     41  C   UNL A   1      43.473  22.894  25.794  1.00  0.00     0.010 A 
ATOM     42  C   UNL A   1      42.975  22.468  28.131  1.00  0.00     0.010 A 
ATOM     43  C   UNL A   1      43.461  23.315  27.133  1.00  0.00    -0.014 A 
BRANCH  43  44
ATOM     44  C   UNL A   1      43.819  24.698  27.487  1.00  0.00     0.031 A 
ATOM     45  C   UNL A   1      45.247  25.129  27.556  1.00  0.00     0.074 A 
ATOM     46  C   UNL A   1      42.816  25.519  27.849  1.00  0.00     0.049 A 
ATOM     47  N   UNL A   1      45.734  26.308  27.841  1.00  0.00    -0.248 NA
ATOM     48  C   UNL A   1      46.265  24.098  27.300  1.00  0.00     0.031 C 
ATOM     49  C   UNL A   1      41.402  25.139  27.914  1.00  0.00     0.029 A 
ATOM     50  N   UNL A   1      42.825  26.830  28.239  1.00  0.00    -0.354 N 
ATOM     51  C   UNL A   1      47.113  26.165  27.791  1.00  0.00     0.074 A 
ATOM     52  C   UNL A   1      47.387  24.772  27.512  1.00  0.00     0.031 C 
ATOM     53  C   UNL A   1      40.676  26.202  28.287  1.00  0.00     0.029 A 
ATOM     54  C   UNL A   1      41.576  27.324  28.517  1.00  0.00     0.049 A 
ATOM     55  H   UNL A   1      43.647  27.366  28.312  1.00  0.00     0.167 HD
ATOM     56  C   UNL A   1      48.054  27.126  27.942  1.00  0.00     0.037 A 
ATOM     57  C   UNL A   1      41.203  28.553  28.909  1.00  0.00     0.037 A 
ATOM     58  C   UNL A   1      47.745  28.502  28.235  1.00  0.00     0.049 A 
ATOM     59  C   UNL A   1      42.265  29.604  29.057  1.00  0.00     0.074 A 
ATOM     60  C   UNL A   1      48.604  29.579  28.344  1.00  0.00     0.029 A 
ATOM     61  N   UNL A   1      46.465  28.984  28.483  1.00  0.00    -0.354 N 
ATOM     62  N   UNL A   1      43.562  29.494  28.888  1.00  0.00    -0.248 NA
ATOM     63  C   UNL A   1      41.816  30.948  29.431  1.00  0.00     0.031 C 
ATOM     64  C   UNL A   1      47.853  30.699  28.715  1.00  0.00     0.029 A 
ATOM     65  C   UNL A   1      46.516  30.338  28.777  1.00  0.00     0.049 A 
ATOM     66  H   UNL A   1      45.642  28.444  28.456  1.00  0.00     0.167 HD
ATOM     67  C   UNL A   1      44.084  30.758  29.113  1.00  0.00     0.074 A 
ATOM     68  C   UNL A   1      42.957  31.622  29.412  1.00  0.00     0.031 C 
ATOM     69  C   UNL A   1      45.376  31.169  29.078  1.00  0.00     0.037 A 
BRANCH  56  70
ATOM     70  C   UNL A   1      49.492  26.718  27.794  1.00  0.00     0.064 A 
ATOM     71  C   UNL A   1      50.086  26.556  26.532  1.00  0.00     0.173 A 
ATOM     72  C   UNL A   1      50.297  26.510  28.924  1.00  0.00     0.173 A 
ATOM     73  F   UNL A   1      49.361  26.731  25.417  1.00  0.00    -0.203 F 
ATOM     74  C   UNL A   1      51.418  26.166  26.408  1.00  0.00     0.198 A 
ATOM     75  C   UNL A   1      51.637  26.152  28.796  1.00  0.00     0.198 A 
ATOM     76  F   UNL A   1      49.785  26.654  30.155  1.00  0.00    -0.203 F 
ATOM     77  F   UNL A   1      51.944  25.963  25.192  1.00  0.00    -0.200 F 
ATOM     78  C   UNL A   1      52.194  25.971  27.539  1.00  0.00     0.200 A 
ATOM     79  F   UNL A   1      52.390  25.976  29.891  1.00  0.00    -0.200 F 
ATOM     80  F   UNL A   1      53.475  25.601  27.418  1.00  0.00    -0.200 F 
ENDBRANCH  56  70
BRANCH  57  81
ATOM     81  C   UNL A   1      39.766  28.850  29.130  1.00  0.00     0.064 A 
ATOM     82  C   UNL A   1      38.945  29.263  28.072  1.00  0.00     0.173 A 
ATOM     83  C   UNL A   1      39.171  28.682  30.390  1.00  0.00     0.173 A 
ATOM     84  F   UNL A   1      39.469  29.443  26.850  1.00  0.00    -0.203 F 
ATOM     85  C   UNL A   1      37.590  29.515  28.268  1.00  0.00     0.198 A 
ATOM     86  C   UNL A   1      37.809  28.907  30.578  1.00  0.00     0.198 A 
ATOM     87  F   UNL A   1      39.908  28.270  31.431  1.00  0.00    -0.203 F 
ATOM     88  F   UNL A   1      36.835  29.942  27.246  1.00  0.00    -0.200 F 
ATOM     89  C   UNL A   1      37.021  29.330  29.519  1.00  0.00     0.200 A 
ATOM     90  F   UNL A   1      37.260  28.704  31.783  1.00  0.00    -0.200 F 
ATOM     91  F   UNL A   1      35.713  29.560  29.704  1.00  0.00    -0.200 F 
ENDBRANCH  57  81
BRANCH  69  92
ATOM     92  C   UNL A   1      45.629  32.623  29.351  1.00  0.00     0.064 A 
ATOM     93  C   UNL A   1      45.901  33.093  30.644  1.00  0.00     0.173 A 
ATOM     94  C   UNL A   1      45.626  33.550  28.299  1.00  0.00     0.173 A 
ATOM     95  F   UNL A   1      45.897  32.247  31.685  1.00  0.00    -0.203 F 
ATOM     96  C   UNL A   1      46.132  34.445  30.877  1.00  0.00     0.198 A 
ATOM     97  C   UNL A   1      45.891  34.896  28.531  1.00  0.00     0.198 A 
ATOM     98  F   UNL A   1      45.376  33.150  27.043  1.00  0.00    -0.203 F 
ATOM     99  F   UNL A   1      46.335  34.881  32.129  1.00  0.00    -0.200 F 
ATOM    100  C   UNL A   1      46.135  35.343  29.821  1.00  0.00     0.200 A 
ATOM    101  F   UNL A   1      45.909  35.761  27.507  1.00  0.00    -0.200 F 
ATOM    102  F   UNL A   1      46.364  36.645  30.048  1.00  0.00    -0.200 F 
ENDBRANCH  69  92
ENDBRANCH  43  44
ENDBRANCH  35  38
ENDBRANCH  33  34
ENDBRANCH  32  33
ENDBRANCH  31  32
ENDBRANCH  29  31
ENDBRANCH   5  27
TORSDOF 17
ENDMDL
