MODEL 1
REMARK VINA RESULT:     -11.2      0.000      0.000
REMARK SMILES CC(C)CC1(CNc2ccnc(C(=O)NCCCNC(=O)c3ccc(-c4c5nc(c(-c6c(F)c(F)c(F)c(F)c6F)c6ccc([nH]6)c(-c6c(F)c(F)c(F)c(F)c6F)c6nc(c(-c7c(F)c(F)c(F)c(F)c7F)c7ccc4[nH]7)C=C6)C=C5)cc3)c2)CCCC1
REMARK SMILES IDX 13 1 14 2 15 3 12 5 8 6 9 7 85 8 10 9 11 10 7 11 6 13 5 14
REMARK SMILES IDX 86 15 89 16 87 17 88 18 4 19 2 20 1 21 3 22 16 23 17 24
REMARK SMILES IDX 18 25 19 26 20 27 21 29 22 30 23 31 84 32 24 33 83 34 25 35
REMARK SMILES IDX 26 36 27 37 77 38 28 39 82 40 76 41 78 42 29 43 81 44 75 45
REMARK SMILES IDX 74 46 30 48 62 49 42 50 61 51 43 52 46 53 60 54 79 55 44 56
REMARK SMILES IDX 45 57 59 59 80 60 47 61 31 62 32 63 40 64 33 65 34 66 38 67
REMARK SMILES IDX 41 68 35 69 36 70 39 71 37 72 63 73 64 74 72 75 65 76 66 77
REMARK SMILES IDX 70 78 73 79 67 80 68 81 71 82 69 83 48 84 49 85 57 86 50 87
REMARK SMILES IDX 51 88 55 89 58 90 52 91 53 92 56 93 54 94
REMARK H PARENT 15 4 7 12 19 28 78 47 46 58
REMARK Flexibility Score: inf
ROOT
ATOM      1  C   UNL A   1      42.724  18.460  26.123  1.00  0.00     0.269 C 
ATOM      2  O   UNL A   1      42.292  17.375  25.726  1.00  0.00    -0.268 OA
ATOM      3  N   UNL A   1      41.924  19.115  27.036  1.00  0.00    -0.351 N 
ATOM      4  H   UNL A   1      41.087  18.634  27.229  1.00  0.00     0.163 HD
ENDROOT
BRANCH   1   5
ATOM      5  C   UNL A   1      44.050  18.972  25.619  1.00  0.00     0.130 A 
ATOM      6  C   UNL A   1      45.494  20.604  24.578  1.00  0.00     0.038 A 
ATOM      7  C   UNL A   1      46.542  19.705  24.704  1.00  0.00     0.046 A 
ATOM      8  C   UNL A   1      44.225  20.198  24.998  1.00  0.00     0.060 A 
ATOM      9  C   UNL A   1      46.295  18.487  25.314  1.00  0.00     0.114 A 
ATOM     10  N   UNL A   1      45.087  18.111  25.782  1.00  0.00    -0.251 NA
BRANCH   6  11
ATOM     11  N   UNL A   1      45.623  21.855  24.011  1.00  0.00    -0.384 N 
ATOM     12  H   UNL A   1      46.367  21.999  23.381  1.00  0.00     0.160 HD
BRANCH  11  13
ATOM     13  C   UNL A   1      44.737  22.976  24.280  1.00  0.00     0.119 C 
BRANCH  13  14
ATOM     14  C   UNL A   1      45.413  23.987  25.272  1.00  0.00    -0.012 C 
ATOM     15  C   UNL A   1      45.325  23.438  26.707  1.00  0.00     0.009 C 
ATOM     16  C   UNL A   1      44.576  25.278  25.432  1.00  0.00     0.009 C 
ATOM     17  C   UNL A   1      43.875  23.662  27.127  1.00  0.00     0.001 C 
ATOM     18  C   UNL A   1      43.431  24.918  26.380  1.00  0.00     0.001 C 
BRANCH  14  19
ATOM     19  C   UNL A   1      46.855  24.284  24.760  1.00  0.00     0.012 C 
BRANCH  19  20
ATOM     20  C   UNL A   1      47.503  25.652  25.070  1.00  0.00    -0.017 C 
ATOM     21  C   UNL A   1      48.310  25.631  26.374  1.00  0.00     0.007 C 
ATOM     22  C   UNL A   1      48.461  26.032  23.930  1.00  0.00     0.007 C 
ENDBRANCH  19  20
ENDBRANCH  14  19
ENDBRANCH  13  14
ENDBRANCH  11  13
ENDBRANCH   6  11
ENDBRANCH   1   5
BRANCH   3  23
ATOM     23  C   UNL A   1      42.051  20.357  27.773  1.00  0.00     0.118 C 
BRANCH  23  24
ATOM     24  C   UNL A   1      40.829  21.256  27.564  1.00  0.00     0.042 C 
BRANCH  24  25
ATOM     25  C   UNL A   1      40.849  21.998  26.228  1.00  0.00     0.118 C 
BRANCH  25  26
ATOM     26  N   UNL A   1      39.503  22.310  25.763  1.00  0.00    -0.352 N 
ATOM     27  C   UNL A   1      38.661  23.340  26.094  1.00  0.00     0.251 C 
ATOM     28  H   UNL A   1      39.140  21.677  25.102  1.00  0.00     0.163 HD
ATOM     29  O   UNL A   1      37.479  23.279  25.766  1.00  0.00    -0.269 OA
BRANCH  27  30
ATOM     30  C   UNL A   1      39.152  24.520  26.838  1.00  0.00     0.039 A 
ATOM     31  C   UNL A   1      39.879  25.495  26.145  1.00  0.00     0.014 A 
ATOM     32  C   UNL A   1      38.967  24.639  28.217  1.00  0.00     0.014 A 
ATOM     33  C   UNL A   1      40.379  26.607  26.826  1.00  0.00     0.010 A 
ATOM     34  C   UNL A   1      39.409  25.779  28.884  1.00  0.00     0.010 A 
ATOM     35  C   UNL A   1      40.126  26.770  28.197  1.00  0.00    -0.014 A 
BRANCH  35  36
ATOM     36  C   UNL A   1      40.608  27.968  28.930  1.00  0.00     0.031 A 
ATOM     37  C   UNL A   1      42.032  28.047  29.401  1.00  0.00     0.074 A 
ATOM     38  C   UNL A   1      39.740  28.953  29.231  1.00  0.00     0.049 A 
ATOM     39  N   UNL A   1      42.619  28.974  30.117  1.00  0.00    -0.248 NA
ATOM     40  C   UNL A   1      42.908  26.922  29.041  1.00  0.00     0.031 C 
ATOM     41  C   UNL A   1      38.324  28.971  28.864  1.00  0.00     0.029 A 
ATOM     42  N   UNL A   1      39.921  30.124  29.923  1.00  0.00    -0.354 N 
ATOM     43  C   UNL A   1      43.920  28.530  30.316  1.00  0.00     0.074 A 
ATOM     44  C   UNL A   1      44.025  27.233  29.681  1.00  0.00     0.031 C 
ATOM     45  C   UNL A   1      37.770  30.108  29.312  1.00  0.00     0.029 A 
ATOM     46  C   UNL A   1      38.780  30.881  30.029  1.00  0.00     0.049 A 
ATOM     47  H   UNL A   1      40.786  30.396  30.307  1.00  0.00     0.167 HD
ATOM     48  C   UNL A   1      44.938  29.156  30.954  1.00  0.00     0.037 A 
ATOM     49  C   UNL A   1      38.573  32.062  30.639  1.00  0.00     0.037 A 
ATOM     50  C   UNL A   1      44.835  30.461  31.555  1.00  0.00     0.049 A 
ATOM     51  C   UNL A   1      39.719  32.737  31.341  1.00  0.00     0.074 A 
ATOM     52  C   UNL A   1      45.827  31.217  32.154  1.00  0.00     0.029 A 
ATOM     53  N   UNL A   1      43.664  31.202  31.635  1.00  0.00    -0.354 N 
ATOM     54  N   UNL A   1      40.963  32.344  31.462  1.00  0.00    -0.248 NA
ATOM     55  C   UNL A   1      39.430  34.024  31.989  1.00  0.00     0.031 C 
ATOM     56  C   UNL A   1      45.247  32.395  32.638  1.00  0.00     0.029 A 
ATOM     57  C   UNL A   1      43.903  32.395  32.299  1.00  0.00     0.049 A 
ATOM     58  H   UNL A   1      42.792  30.920  31.274  1.00  0.00     0.167 HD
ATOM     59  C   UNL A   1      41.613  33.343  32.172  1.00  0.00     0.074 A 
ATOM     60  C   UNL A   1      40.626  34.367  32.447  1.00  0.00     0.031 C 
ATOM     61  C   UNL A   1      42.910  33.406  32.561  1.00  0.00     0.037 A 
BRANCH  48  62
ATOM     62  C   UNL A   1      46.250  28.430  31.044  1.00  0.00     0.064 A 
ATOM     63  C   UNL A   1      47.258  28.603  30.082  1.00  0.00     0.173 A 
ATOM     64  C   UNL A   1      46.510  27.562  32.115  1.00  0.00     0.173 A 
ATOM     65  F   UNL A   1      47.057  29.413  29.032  1.00  0.00    -0.203 F 
ATOM     66  C   UNL A   1      48.459  27.904  30.168  1.00  0.00     0.198 A 
ATOM     67  C   UNL A   1      47.725  26.888  32.215  1.00  0.00     0.198 A 
ATOM     68  F   UNL A   1      45.586  27.366  33.068  1.00  0.00    -0.203 F 
ATOM     69  F   UNL A   1      49.382  28.041  29.206  1.00  0.00    -0.200 F 
ATOM     70  C   UNL A   1      48.694  27.051  31.236  1.00  0.00     0.200 A 
ATOM     71  F   UNL A   1      47.956  26.076  33.255  1.00  0.00    -0.200 F 
ATOM     72  F   UNL A   1      49.851  26.379  31.318  1.00  0.00    -0.200 F 
ENDBRANCH  48  62
BRANCH  49  73
ATOM     73  C   UNL A   1      37.233  32.699  30.575  1.00  0.00     0.064 A 
ATOM     74  C   UNL A   1      36.889  33.525  29.497  1.00  0.00     0.173 A 
ATOM     75  C   UNL A   1      36.267  32.481  31.568  1.00  0.00     0.173 A 
ATOM     76  F   UNL A   1      37.787  33.778  28.533  1.00  0.00    -0.203 F 
ATOM     77  C   UNL A   1      35.631  34.120  29.419  1.00  0.00     0.198 A 
ATOM     78  C   UNL A   1      35.001  33.055  31.476  1.00  0.00     0.198 A 
ATOM     79  F   UNL A   1      36.547  31.693  32.615  1.00  0.00    -0.203 F 
ATOM     80  F   UNL A   1      35.338  34.930  28.394  1.00  0.00    -0.200 F 
ATOM     81  C   UNL A   1      34.685  33.878  30.405  1.00  0.00     0.200 A 
ATOM     82  F   UNL A   1      34.084  32.807  32.422  1.00  0.00    -0.200 F 
ATOM     83  F   UNL A   1      33.472  34.440  30.323  1.00  0.00    -0.200 F 
ENDBRANCH  49  73
BRANCH  61  84
ATOM     84  C   UNL A   1      43.345  34.638  33.298  1.00  0.00     0.064 A 
ATOM     85  C   UNL A   1      43.687  35.818  32.624  1.00  0.00     0.173 A 
ATOM     86  C   UNL A   1      43.385  34.647  34.701  1.00  0.00     0.173 A 
ATOM     87  F   UNL A   1      43.681  35.855  31.283  1.00  0.00    -0.203 F 
ATOM     88  C   UNL A   1      44.075  36.957  33.326  1.00  0.00     0.198 A 
ATOM     89  C   UNL A   1      43.746  35.795  35.401  1.00  0.00     0.198 A 
ATOM     90  F   UNL A   1      43.063  33.544  35.394  1.00  0.00    -0.203 F 
ATOM     91  F   UNL A   1      44.442  38.060  32.659  1.00  0.00    -0.200 F 
ATOM     92  C   UNL A   1      44.096  36.947  34.713  1.00  0.00     0.200 A 
ATOM     93  F   UNL A   1      43.754  35.787  36.741  1.00  0.00    -0.200 F 
ATOM     94  F   UNL A   1      44.464  38.045  35.387  1.00  0.00    -0.200 F 
ENDBRANCH  61  84
ENDBRANCH  35  36
ENDBRANCH  27  30
ENDBRANCH  25  26
ENDBRANCH  24  25
ENDBRANCH  23  24
ENDBRANCH   3  23
TORSDOF 15
ENDMDL
MODEL 2
REMARK VINA RESULT:     -11.1      0.546      2.425
REMARK SMILES CC(C)CC1(CNc2ccnc(C(=O)NCCCNC(=O)c3ccc(-c4c5nc(c(-c6c(F)c(F)c(F)c(F)c6F)c6ccc([nH]6)c(-c6c(F)c(F)c(F)c(F)c6F)c6nc(c(-c7c(F)c(F)c(F)c(F)c7F)c7ccc4[nH]7)C=C6)C=C5)cc3)c2)CCCC1
REMARK SMILES IDX 13 1 14 2 15 3 12 5 8 6 9 7 85 8 10 9 11 10 7 11 6 13 5 14
REMARK SMILES IDX 86 15 89 16 87 17 88 18 4 19 2 20 1 21 3 22 16 23 17 24
REMARK SMILES IDX 18 25 19 26 20 27 21 29 22 30 23 31 84 32 24 33 83 34 25 35
REMARK SMILES IDX 26 36 27 37 77 38 28 39 82 40 76 41 78 42 29 43 81 44 75 45
REMARK SMILES IDX 74 46 30 48 62 49 42 50 61 51 43 52 46 53 60 54 79 55 44 56
REMARK SMILES IDX 45 57 59 59 80 60 47 61 31 62 32 63 40 64 33 65 34 66 38 67
REMARK SMILES IDX 41 68 35 69 36 70 39 71 37 72 63 73 64 74 72 75 65 76 66 77
REMARK SMILES IDX 70 78 73 79 67 80 68 81 71 82 69 83 48 84 49 85 57 86 50 87
REMARK SMILES IDX 51 88 55 89 58 90 52 91 53 92 56 93 54 94
REMARK H PARENT 15 4 7 12 19 28 78 47 46 58
REMARK Flexibility Score: inf
ROOT
ATOM      1  C   UNL A   1      42.757  18.464  26.093  1.00  0.00     0.269 C 
ATOM      2  O   UNL A   1      42.407  17.370  25.644  1.00  0.00    -0.268 OA
ATOM      3  N   UNL A   1      41.916  19.010  27.039  1.00  0.00    -0.351 N 
ATOM      4  H   UNL A   1      41.120  18.457  27.212  1.00  0.00     0.163 HD
ENDROOT
BRANCH   1   5
ATOM      5  C   UNL A   1      44.036  19.101  25.610  1.00  0.00     0.130 A 
ATOM      6  C   UNL A   1      45.371  20.937  24.784  1.00  0.00     0.038 A 
ATOM      7  C   UNL A   1      46.447  20.067  24.695  1.00  0.00     0.046 A 
ATOM      8  C   UNL A   1      44.141  20.420  25.200  1.00  0.00     0.060 A 
ATOM      9  C   UNL A   1      46.270  18.755  25.099  1.00  0.00     0.114 A 
ATOM     10  N   UNL A   1      45.103  18.262  25.562  1.00  0.00    -0.251 NA
BRANCH   6  11
ATOM     11  N   UNL A   1      45.433  22.270  24.435  1.00  0.00    -0.384 N 
ATOM     12  H   UNL A   1      46.224  22.576  23.932  1.00  0.00     0.160 HD
BRANCH  11  13
ATOM     13  C   UNL A   1      44.413  23.254  24.758  1.00  0.00     0.119 C 
BRANCH  13  14
ATOM     14  C   UNL A   1      44.762  23.988  26.100  1.00  0.00    -0.012 C 
ATOM     15  C   UNL A   1      44.284  25.449  26.029  1.00  0.00     0.009 C 
ATOM     16  C   UNL A   1      46.285  24.215  26.250  1.00  0.00     0.009 C 
ATOM     17  C   UNL A   1      45.299  26.152  25.130  1.00  0.00     0.001 C 
ATOM     18  C   UNL A   1      46.616  25.416  25.361  1.00  0.00     0.001 C 
BRANCH  14  19
ATOM     19  C   UNL A   1      44.176  23.154  27.280  1.00  0.00     0.012 C 
BRANCH  19  20
ATOM     20  C   UNL A   1      43.878  23.850  28.627  1.00  0.00    -0.017 C 
ATOM     21  C   UNL A   1      42.406  23.718  29.036  1.00  0.00     0.007 C 
ATOM     22  C   UNL A   1      44.733  23.209  29.732  1.00  0.00     0.007 C 
ENDBRANCH  19  20
ENDBRANCH  14  19
ENDBRANCH  13  14
ENDBRANCH  11  13
ENDBRANCH   6  11
ENDBRANCH   1   5
BRANCH   3  23
ATOM     23  C   UNL A   1      41.952  20.221  27.836  1.00  0.00     0.118 C 
BRANCH  23  24
ATOM     24  C   UNL A   1      40.727  21.101  27.568  1.00  0.00     0.042 C 
BRANCH  24  25
ATOM     25  C   UNL A   1      40.915  22.047  26.383  1.00  0.00     0.118 C 
BRANCH  25  26
ATOM     26  N   UNL A   1      39.642  22.394  25.762  1.00  0.00    -0.352 N 
ATOM     27  C   UNL A   1      38.809  23.462  25.971  1.00  0.00     0.251 C 
ATOM     28  H   UNL A   1      39.330  21.756  25.080  1.00  0.00     0.163 HD
ATOM     29  O   UNL A   1      37.669  23.435  25.515  1.00  0.00    -0.269 OA
BRANCH  27  30
ATOM     30  C   UNL A   1      39.259  24.645  26.738  1.00  0.00     0.039 A 
ATOM     31  C   UNL A   1      40.078  25.584  26.101  1.00  0.00     0.014 A 
ATOM     32  C   UNL A   1      38.946  24.798  28.090  1.00  0.00     0.014 A 
ATOM     33  C   UNL A   1      40.543  26.697  26.806  1.00  0.00     0.010 A 
ATOM     34  C   UNL A   1      39.354  25.941  28.774  1.00  0.00     0.010 A 
ATOM     35  C   UNL A   1      40.163  26.896  28.142  1.00  0.00    -0.014 A 
BRANCH  35  36
ATOM     36  C   UNL A   1      40.606  28.096  28.895  1.00  0.00     0.031 A 
ATOM     37  C   UNL A   1      42.021  28.202  29.389  1.00  0.00     0.074 A 
ATOM     38  C   UNL A   1      39.711  29.058  29.194  1.00  0.00     0.049 A 
ATOM     39  N   UNL A   1      42.575  29.134  30.125  1.00  0.00    -0.248 NA
ATOM     40  C   UNL A   1      42.927  27.101  29.031  1.00  0.00     0.031 C 
ATOM     41  C   UNL A   1      38.301  29.048  28.806  1.00  0.00     0.029 A 
ATOM     42  N   UNL A   1      39.855  30.224  29.902  1.00  0.00    -0.354 N 
ATOM     43  C   UNL A   1      43.883  28.718  30.339  1.00  0.00     0.074 A 
ATOM     44  C   UNL A   1      44.028  27.431  29.691  1.00  0.00     0.031 C 
ATOM     45  C   UNL A   1      37.714  30.167  29.258  1.00  0.00     0.029 A 
ATOM     46  C   UNL A   1      38.696  30.954  29.999  1.00  0.00     0.049 A 
ATOM     47  H   UNL A   1      40.708  30.511  30.302  1.00  0.00     0.167 HD
ATOM     48  C   UNL A   1      44.876  29.359  31.000  1.00  0.00     0.037 A 
ATOM     49  C   UNL A   1      38.452  32.123  30.619  1.00  0.00     0.037 A 
ATOM     50  C   UNL A   1      44.735  30.654  31.613  1.00  0.00     0.049 A 
ATOM     51  C   UNL A   1      39.572  32.817  31.346  1.00  0.00     0.074 A 
ATOM     52  C   UNL A   1      45.700  31.426  32.235  1.00  0.00     0.029 A 
ATOM     53  N   UNL A   1      43.546  31.368  31.684  1.00  0.00    -0.354 N 
ATOM     54  N   UNL A   1      40.823  32.450  31.481  1.00  0.00    -0.248 NA
ATOM     55  C   UNL A   1      39.244  34.088  32.004  1.00  0.00     0.031 C 
ATOM     56  C   UNL A   1      45.086  32.585  32.723  1.00  0.00     0.029 A 
ATOM     57  C   UNL A   1      43.748  32.558  32.364  1.00  0.00     0.049 A 
ATOM     58  H   UNL A   1      42.687  31.071  31.306  1.00  0.00     0.167 HD
ATOM     59  C   UNL A   1      41.439  33.455  32.213  1.00  0.00     0.074 A 
ATOM     60  C   UNL A   1      40.425  34.453  32.484  1.00  0.00     0.031 C 
ATOM     61  C   UNL A   1      42.728  33.543  32.622  1.00  0.00     0.037 A 
BRANCH  48  62
ATOM     62  C   UNL A   1      46.203  28.662  31.101  1.00  0.00     0.064 A 
ATOM     63  C   UNL A   1      46.514  27.816  32.178  1.00  0.00     0.173 A 
ATOM     64  C   UNL A   1      47.172  28.828  30.100  1.00  0.00     0.173 A 
ATOM     65  F   UNL A   1      45.627  27.631  33.167  1.00  0.00    -0.203 F 
ATOM     66  C   UNL A   1      47.758  27.196  32.268  1.00  0.00     0.198 A 
ATOM     67  C   UNL A   1      48.404  28.182  30.178  1.00  0.00     0.198 A 
ATOM     68  F   UNL A   1      46.926  29.619  29.044  1.00  0.00    -0.203 F 
ATOM     69  F   UNL A   1      48.052  26.441  33.336  1.00  0.00    -0.200 F 
ATOM     70  C   UNL A   1      48.700  27.376  31.266  1.00  0.00     0.200 A 
ATOM     71  F   UNL A   1      49.307  28.345  29.202  1.00  0.00    -0.200 F 
ATOM     72  F   UNL A   1      49.896  26.778  31.354  1.00  0.00    -0.200 F 
ENDBRANCH  48  62
BRANCH  49  73
ATOM     73  C   UNL A   1      37.099  32.730  30.542  1.00  0.00     0.064 A 
ATOM     74  C   UNL A   1      36.161  32.510  31.559  1.00  0.00     0.173 A 
ATOM     75  C   UNL A   1      36.723  33.554  29.471  1.00  0.00     0.173 A 
ATOM     76  F   UNL A   1      36.469  31.715  32.594  1.00  0.00    -0.203 F 
ATOM     77  C   UNL A   1      34.892  33.083  31.504  1.00  0.00     0.198 A 
ATOM     78  C   UNL A   1      35.463  34.146  29.429  1.00  0.00     0.198 A 
ATOM     79  F   UNL A   1      37.588  33.799  28.477  1.00  0.00    -0.203 F 
ATOM     80  F   UNL A   1      34.004  32.831  32.474  1.00  0.00    -0.200 F 
ATOM     81  C   UNL A   1      34.547  33.907  30.443  1.00  0.00     0.200 A 
ATOM     82  F   UNL A   1      35.138  34.954  28.410  1.00  0.00    -0.200 F 
ATOM     83  F   UNL A   1      33.330  34.466  30.396  1.00  0.00    -0.200 F 
ENDBRANCH  49  73
BRANCH  61  84
ATOM     84  C   UNL A   1      43.124  34.777  33.380  1.00  0.00     0.064 A 
ATOM     85  C   UNL A   1      43.136  34.808  34.781  1.00  0.00     0.173 A 
ATOM     86  C   UNL A   1      43.531  35.930  32.693  1.00  0.00     0.173 A 
ATOM     87  F   UNL A   1      42.739  33.735  35.483  1.00  0.00    -0.203 F 
ATOM     88  C   UNL A   1      43.519  35.957  35.468  1.00  0.00     0.198 A 
ATOM     89  C   UNL A   1      43.941  37.068  33.382  1.00  0.00     0.198 A 
ATOM     90  F   UNL A   1      43.542  35.951  31.351  1.00  0.00    -0.203 F 
ATOM     91  F   UNL A   1      43.479  35.979  36.807  1.00  0.00    -0.200 F 
ATOM     92  C   UNL A   1      43.929  37.082  34.768  1.00  0.00     0.200 A 
ATOM     93  F   UNL A   1      44.348  38.150  32.705  1.00  0.00    -0.200 F 
ATOM     94  F   UNL A   1      44.304  38.185  35.431  1.00  0.00    -0.200 F 
ENDBRANCH  61  84
ENDBRANCH  35  36
ENDBRANCH  27  30
ENDBRANCH  25  26
ENDBRANCH  24  25
ENDBRANCH  23  24
ENDBRANCH   3  23
TORSDOF 15
ENDMDL
MODEL 3
REMARK VINA RESULT:     -10.7      3.870     10.386
REMARK SMILES CC(C)CC1(CNc2ccnc(C(=O)NCCCNC(=O)c3ccc(-c4c5nc(c(-c6c(F)c(F)c(F)c(F)c6F)c6ccc([nH]6)c(-c6c(F)c(F)c(F)c(F)c6F)c6nc(c(-c7c(F)c(F)c(F)c(F)c7F)c7ccc4[nH]7)C=C6)C=C5)cc3)c2)CCCC1
REMARK SMILES IDX 13 1 14 2 15 3 12 5 8 6 9 7 85 8 10 9 11 10 7 11 6 13 5 14
REMARK SMILES IDX 86 15 89 16 87 17 88 18 4 19 2 20 1 21 3 22 16 23 17 24
REMARK SMILES IDX 18 25 19 26 20 27 21 29 22 30 23 31 84 32 24 33 83 34 25 35
REMARK SMILES IDX 26 36 27 37 77 38 28 39 82 40 76 41 78 42 29 43 81 44 75 45
REMARK SMILES IDX 74 46 30 48 62 49 42 50 61 51 43 52 46 53 60 54 79 55 44 56
REMARK SMILES IDX 45 57 59 59 80 60 47 61 31 62 32 63 40 64 33 65 34 66 38 67
REMARK SMILES IDX 41 68 35 69 36 70 39 71 37 72 63 73 64 74 72 75 65 76 66 77
REMARK SMILES IDX 70 78 73 79 67 80 68 81 71 82 69 83 48 84 49 85 57 86 50 87
REMARK SMILES IDX 51 88 55 89 58 90 52 91 53 92 56 93 54 94
REMARK H PARENT 15 4 7 12 19 28 78 47 46 58
REMARK Flexibility Score: inf
ROOT
ATOM      1  C   UNL A   1      37.428  23.321  25.776  1.00  0.00     0.269 C 
ATOM      2  O   UNL A   1      38.224  24.116  26.282  1.00  0.00    -0.268 OA
ATOM      3  N   UNL A   1      37.992  22.181  25.243  1.00  0.00    -0.351 N 
ATOM      4  H   UNL A   1      38.974  22.167  25.313  1.00  0.00     0.163 HD
ENDROOT
BRANCH   1   5
ATOM      5  C   UNL A   1      35.951  23.626  25.786  1.00  0.00     0.130 A 
ATOM      6  C   UNL A   1      33.978  24.827  25.083  1.00  0.00     0.038 A 
ATOM      7  C   UNL A   1      33.243  24.078  25.989  1.00  0.00     0.046 A 
ATOM      8  C   UNL A   1      35.359  24.624  25.029  1.00  0.00     0.060 A 
ATOM      9  C   UNL A   1      33.900  23.113  26.732  1.00  0.00     0.114 A 
ATOM     10  N   UNL A   1      35.222  22.864  26.641  1.00  0.00    -0.251 NA
BRANCH   6  11
ATOM     11  N   UNL A   1      33.430  25.799  24.271  1.00  0.00    -0.384 N 
ATOM     12  H   UNL A   1      34.025  26.513  23.944  1.00  0.00     0.160 HD
BRANCH  11  13
ATOM     13  C   UNL A   1      32.035  25.841  23.864  1.00  0.00     0.119 C 
BRANCH  13  14
ATOM     14  C   UNL A   1      31.277  26.992  24.615  1.00  0.00    -0.012 C 
ATOM     15  C   UNL A   1      30.501  26.406  25.808  1.00  0.00     0.009 C 
ATOM     16  C   UNL A   1      30.098  27.543  23.778  1.00  0.00     0.009 C 
ATOM     17  C   UNL A   1      29.287  25.718  25.189  1.00  0.00     0.001 C 
ATOM     18  C   UNL A   1      28.966  26.525  23.933  1.00  0.00     0.001 C 
BRANCH  14  19
ATOM     19  C   UNL A   1      32.309  28.103  24.974  1.00  0.00     0.012 C 
BRANCH  19  20
ATOM     20  C   UNL A   1      32.497  28.516  26.451  1.00  0.00    -0.017 C 
ATOM     21  C   UNL A   1      33.969  28.485  26.881  1.00  0.00     0.007 C 
ATOM     22  C   UNL A   1      31.978  29.948  26.651  1.00  0.00     0.007 C 
ENDBRANCH  19  20
ENDBRANCH  14  19
ENDBRANCH  13  14
ENDBRANCH  11  13
ENDBRANCH   6  11
ENDBRANCH   1   5
BRANCH   3  23
ATOM     23  C   UNL A   1      37.450  20.997  24.604  1.00  0.00     0.118 C 
BRANCH  23  24
ATOM     24  C   UNL A   1      38.289  19.757  24.924  1.00  0.00     0.042 C 
BRANCH  24  25
ATOM     25  C   UNL A   1      39.253  19.968  26.091  1.00  0.00     0.118 C 
BRANCH  25  26
ATOM     26  N   UNL A   1      40.442  19.133  25.967  1.00  0.00    -0.352 N 
ATOM     27  C   UNL A   1      41.771  19.463  26.002  1.00  0.00     0.251 C 
ATOM     28  H   UNL A   1      40.258  18.174  25.839  1.00  0.00     0.163 HD
ATOM     29  O   UNL A   1      42.605  18.639  25.635  1.00  0.00    -0.269 OA
BRANCH  27  30
ATOM     30  C   UNL A   1      42.218  20.793  26.470  1.00  0.00     0.039 A 
ATOM     31  C   UNL A   1      42.556  21.761  25.517  1.00  0.00     0.014 A 
ATOM     32  C   UNL A   1      42.376  21.071  27.829  1.00  0.00     0.014 A 
ATOM     33  C   UNL A   1      43.008  23.016  25.927  1.00  0.00     0.010 A 
ATOM     34  C   UNL A   1      42.763  22.344  28.240  1.00  0.00     0.010 A 
ATOM     35  C   UNL A   1      43.091  23.326  27.294  1.00  0.00    -0.014 A 
BRANCH  35  36
ATOM     36  C   UNL A   1      43.523  24.671  27.752  1.00  0.00     0.031 A 
ATOM     37  C   UNL A   1      42.502  25.710  28.121  1.00  0.00     0.074 A 
ATOM     38  C   UNL A   1      44.835  24.976  27.767  1.00  0.00     0.049 A 
ATOM     39  N   UNL A   1      42.680  26.959  28.472  1.00  0.00    -0.248 NA
ATOM     40  C   UNL A   1      41.092  25.297  28.064  1.00  0.00     0.031 C 
ATOM     41  C   UNL A   1      45.917  24.066  27.392  1.00  0.00     0.029 A 
ATOM     42  N   UNL A   1      45.478  26.140  28.102  1.00  0.00    -0.354 N 
ATOM     43  C   UNL A   1      41.407  27.486  28.649  1.00  0.00     0.074 A 
ATOM     44  C   UNL A   1      40.466  26.434  28.327  1.00  0.00     0.031 C 
ATOM     45  C   UNL A   1      47.092  24.697  27.541  1.00  0.00     0.029 A 
ATOM     46  C   UNL A   1      46.844  26.066  27.985  1.00  0.00     0.049 A 
ATOM     47  H   UNL A   1      45.006  26.953  28.398  1.00  0.00     0.167 HD
ATOM     48  C   UNL A   1      41.056  28.729  29.060  1.00  0.00     0.037 A 
ATOM     49  C   UNL A   1      47.789  26.997  28.209  1.00  0.00     0.037 A 
ATOM     50  C   UNL A   1      41.998  29.760  29.411  1.00  0.00     0.049 A 
ATOM     51  C   UNL A   1      47.375  28.369  28.665  1.00  0.00     0.074 A 
ATOM     52  C   UNL A   1      41.748  31.024  29.916  1.00  0.00     0.029 A 
ATOM     53  N   UNL A   1      43.376  29.645  29.288  1.00  0.00    -0.354 N 
ATOM     54  N   UNL A   1      46.173  28.836  28.898  1.00  0.00    -0.248 NA
ATOM     55  C   UNL A   1      48.452  29.342  28.890  1.00  0.00     0.031 C 
ATOM     56  C   UNL A   1      42.971  31.690  30.055  1.00  0.00     0.029 A 
ATOM     57  C   UNL A   1      43.987  30.825  29.682  1.00  0.00     0.049 A 
ATOM     58  H   UNL A   1      43.849  28.842  28.969  1.00  0.00     0.167 HD
ATOM     59  C   UNL A   1      46.347  30.145  29.324  1.00  0.00     0.074 A 
ATOM     60  C   UNL A   1      47.774  30.395  29.327  1.00  0.00     0.031 C 
ATOM     61  C   UNL A   1      45.410  31.056  29.683  1.00  0.00     0.037 A 
BRANCH  48  62
ATOM     62  C   UNL A   1      39.590  29.043  29.142  1.00  0.00     0.064 A 
ATOM     63  C   UNL A   1      38.890  28.996  30.359  1.00  0.00     0.173 A 
ATOM     64  C   UNL A   1      38.876  29.413  27.992  1.00  0.00     0.173 A 
ATOM     65  F   UNL A   1      39.522  28.638  31.486  1.00  0.00    -0.203 F 
ATOM     66  C   UNL A   1      37.525  29.268  30.412  1.00  0.00     0.198 A 
ATOM     67  C   UNL A   1      37.518  29.715  28.055  1.00  0.00     0.198 A 
ATOM     68  F   UNL A   1      39.497  29.483  26.804  1.00  0.00    -0.203 F 
ATOM     69  F   UNL A   1      36.868  29.158  31.575  1.00  0.00    -0.200 F 
ATOM     70  C   UNL A   1      36.842  29.631  29.262  1.00  0.00     0.200 A 
ATOM     71  F   UNL A   1      36.862  30.080  26.945  1.00  0.00    -0.200 F 
ATOM     72  F   UNL A   1      35.528  29.893  29.316  1.00  0.00    -0.200 F 
ENDBRANCH  48  62
BRANCH  49  73
ATOM     73  C   UNL A   1      49.223  26.646  28.043  1.00  0.00     0.064 A 
ATOM     74  C   UNL A   1      49.807  26.620  26.770  1.00  0.00     0.173 A 
ATOM     75  C   UNL A   1      50.040  26.354  29.144  1.00  0.00     0.173 A 
ATOM     76  F   UNL A   1      49.060  26.875  25.685  1.00  0.00    -0.203 F 
ATOM     77  C   UNL A   1      51.153  26.303  26.602  1.00  0.00     0.198 A 
ATOM     78  C   UNL A   1      51.392  26.062  28.977  1.00  0.00     0.198 A 
ATOM     79  F   UNL A   1      49.529  26.372  30.383  1.00  0.00    -0.203 F 
ATOM     80  F   UNL A   1      51.679  26.254  25.371  1.00  0.00    -0.200 F 
ATOM     81  C   UNL A   1      51.947  26.032  27.707  1.00  0.00     0.200 A 
ATOM     82  F   UNL A   1      52.160  25.816  30.048  1.00  0.00    -0.200 F 
ATOM     83  F   UNL A   1      53.244  25.739  27.545  1.00  0.00    -0.200 F 
ENDBRANCH  49  73
BRANCH  61  84
ATOM     84  C   UNL A   1      45.899  32.400  30.137  1.00  0.00     0.064 A 
ATOM     85  C   UNL A   1      46.211  32.654  31.480  1.00  0.00     0.173 A 
ATOM     86  C   UNL A   1      46.091  33.435  29.210  1.00  0.00     0.173 A 
ATOM     87  F   UNL A   1      46.029  31.702  32.407  1.00  0.00    -0.203 F 
ATOM     88  C   UNL A   1      46.678  33.903  31.882  1.00  0.00     0.198 A 
ATOM     89  C   UNL A   1      46.584  34.674  29.610  1.00  0.00     0.198 A 
ATOM     90  F   UNL A   1      45.811  33.241  27.912  1.00  0.00    -0.203 F 
ATOM     91  F   UNL A   1      46.927  34.138  33.177  1.00  0.00    -0.200 F 
ATOM     92  C   UNL A   1      46.871  34.909  30.946  1.00  0.00     0.200 A 
ATOM     93  F   UNL A   1      46.782  35.640  28.703  1.00  0.00    -0.200 F 
ATOM     94  F   UNL A   1      47.326  36.108  31.333  1.00  0.00    -0.200 F 
ENDBRANCH  61  84
ENDBRANCH  35  36
ENDBRANCH  27  30
ENDBRANCH  25  26
ENDBRANCH  24  25
ENDBRANCH  23  24
ENDBRANCH   3  23
TORSDOF 15
ENDMDL
