MODEL 1
REMARK VINA RESULT:     -12.3      0.000      0.000
REMARK SMILES Cc1noc(C[N@@H+]2CCC[C@H]2C(=O)NCCCNC(=O)c2ccc(-c3c4nc(c(-c5c(F)c(F)c(F)c(F)c5F)c5ccc([nH]5)c(-c5c(F)c(F)c(F)c(F)c5F)c5nc(c(-c6c(F)c(F)c(F)c(F)c6F)c6ccc3[nH]6)C=C5)C=C4)cc2)n1
REMARK SMILES IDX 16 1 15 2 14 3 12 4 13 5 11 7 7 8 8 9 9 11 10 12 6 13 5 14
REMARK SMILES IDX 1 15 2 16 3 17 84 18 4 19 17 20 18 21 19 22 20 24 21 25
REMARK SMILES IDX 22 26 83 27 23 28 82 29 24 30 25 31 26 32 76 33 27 34 81 35
REMARK SMILES IDX 75 36 77 37 28 38 80 39 74 40 73 41 29 43 61 44 41 45 60 46
REMARK SMILES IDX 42 47 45 48 59 49 78 50 43 51 44 52 58 54 79 55 46 56 30 57
REMARK SMILES IDX 31 58 39 59 32 60 33 61 37 62 40 63 34 64 35 65 38 66 36 67
REMARK SMILES IDX 62 68 63 69 71 70 64 71 65 72 69 73 72 74 66 75 67 76 70 77
REMARK SMILES IDX 68 78 47 79 48 80 56 81 49 82 50 83 54 84 57 85 51 86 52 87
REMARK SMILES IDX 55 88 53 89
REMARK H PARENT 14 6 7 10 18 23 77 42 45 53
REMARK Flexibility Score: inf
ROOT
ATOM      1  C   UNL A   1      31.401  32.156  26.455  1.00  0.00     0.042 C 
ENDROOT
BRANCH   1   2
ATOM      2  C   UNL A   1      31.409  30.633  26.357  1.00  0.00     0.118 C 
BRANCH   2   3
ATOM      3  N   UNL A   1      32.389  30.157  25.402  1.00  0.00    -0.351 N 
ATOM      4  C   UNL A   1      32.322  29.099  24.539  1.00  0.00     0.278 C 
ATOM      5  O   UNL A   1      33.313  28.866  23.842  1.00  0.00    -0.268 OA
ATOM      6  H   UNL A   1      33.228  30.672  25.369  1.00  0.00     0.163 HD
BRANCH   4   7
ATOM      7  C   UNL A   1      31.013  28.283  24.445  1.00  0.00     0.274 C 
ATOM      8  N   UNL A   1      30.558  28.331  23.036  1.00  0.00    -0.317 N 
ATOM      9  C   UNL A   1      31.003  27.080  22.409  1.00  0.00     0.263 C 
ATOM     10  H   UNL A   1      30.979  29.133  22.568  1.00  0.00     0.349 HD
ATOM     11  C   UNL A   1      31.065  26.032  23.504  1.00  0.00     0.068 C 
ATOM     12  C   UNL A   1      31.251  26.811  24.794  1.00  0.00     0.081 C 
BRANCH   8  13
ATOM     13  C   UNL A   1      29.122  28.617  22.856  1.00  0.00     0.364 C 
BRANCH  13  14
ATOM     14  C   UNL A   1      28.691  30.007  23.164  1.00  0.00     0.281 A 
ATOM     15  C   UNL A   1      28.747  33.501  23.094  1.00  0.00     0.093 C 
ATOM     16  C   UNL A   1      28.430  32.072  23.261  1.00  0.00     0.169 A 
ATOM     17  N   UNL A   1      27.176  31.608  23.339  1.00  0.00    -0.063 NA
ATOM     18  N   UNL A   1      29.402  31.112  23.207  1.00  0.00    -0.191 NA
ATOM     19  O   UNL A   1      27.347  30.223  23.282  1.00  0.00    -0.333 OA
ENDBRANCH  13  14
ENDBRANCH   8  13
ENDBRANCH   4   7
ENDBRANCH   2   3
ENDBRANCH   1   2
BRANCH   1  20
ATOM     20  C   UNL A   1      32.585  32.735  27.225  1.00  0.00     0.118 C 
BRANCH  20  21
ATOM     21  N   UNL A   1      32.384  34.126  27.614  1.00  0.00    -0.352 N 
ATOM     22  C   UNL A   1      33.012  34.883  28.569  1.00  0.00     0.251 C 
ATOM     23  H   UNL A   1      31.681  34.597  27.110  1.00  0.00     0.163 HD
ATOM     24  O   UNL A   1      32.571  35.996  28.850  1.00  0.00    -0.269 OA
BRANCH  22  25
ATOM     25  C   UNL A   1      34.202  34.369  29.281  1.00  0.00     0.039 A 
ATOM     26  C   UNL A   1      34.025  33.724  30.509  1.00  0.00     0.014 A 
ATOM     27  C   UNL A   1      35.489  34.544  28.766  1.00  0.00     0.014 A 
ATOM     28  C   UNL A   1      35.128  33.194  31.183  1.00  0.00     0.010 A 
ATOM     29  C   UNL A   1      36.577  33.947  29.398  1.00  0.00     0.010 A 
ATOM     30  C   UNL A   1      36.409  33.266  30.614  1.00  0.00    -0.014 A 
BRANCH  30  31
ATOM     31  C   UNL A   1      37.585  32.639  31.270  1.00  0.00     0.031 A 
ATOM     32  C   UNL A   1      38.314  31.508  30.599  1.00  0.00     0.074 A 
ATOM     33  C   UNL A   1      37.955  33.038  32.503  1.00  0.00     0.049 A 
ATOM     34  N   UNL A   1      39.299  30.771  31.049  1.00  0.00    -0.248 NA
ATOM     35  C   UNL A   1      37.859  31.139  29.249  1.00  0.00     0.031 C 
ATOM     36  C   UNL A   1      37.310  34.100  33.277  1.00  0.00     0.029 A 
ATOM     37  N   UNL A   1      38.956  32.588  33.329  1.00  0.00    -0.354 N 
ATOM     38  C   UNL A   1      39.569  29.847  30.047  1.00  0.00     0.074 A 
ATOM     39  C   UNL A   1      38.608  30.078  28.990  1.00  0.00     0.031 C 
ATOM     40  C   UNL A   1      37.942  34.233  34.453  1.00  0.00     0.029 A 
ATOM     41  C   UNL A   1      39.005  33.236  34.540  1.00  0.00     0.049 A 
ATOM     42  H   UNL A   1      39.580  31.869  33.078  1.00  0.00     0.167 HD
ATOM     43  C   UNL A   1      40.544  28.907  30.003  1.00  0.00     0.037 A 
ATOM     44  C   UNL A   1      39.807  33.041  35.604  1.00  0.00     0.037 A 
ATOM     45  C   UNL A   1      41.507  28.690  31.052  1.00  0.00     0.049 A 
ATOM     46  C   UNL A   1      40.858  31.965  35.543  1.00  0.00     0.074 A 
ATOM     47  C   UNL A   1      42.560  27.794  31.082  1.00  0.00     0.029 A 
ATOM     48  N   UNL A   1      41.528  29.373  32.259  1.00  0.00    -0.354 N 
ATOM     49  N   UNL A   1      41.144  31.139  34.566  1.00  0.00    -0.248 NA
ATOM     50  C   UNL A   1      41.705  31.800  36.733  1.00  0.00     0.031 C 
ATOM     51  C   UNL A   1      43.185  27.893  32.329  1.00  0.00     0.029 A 
ATOM     52  C   UNL A   1      42.562  28.898  33.051  1.00  0.00     0.049 A 
ATOM     53  H   UNL A   1      40.901  30.088  32.515  1.00  0.00     0.167 HD
ATOM     54  C   UNL A   1      42.223  30.383  35.008  1.00  0.00     0.074 A 
ATOM     55  C   UNL A   1      42.548  30.857  36.337  1.00  0.00     0.031 C 
ATOM     56  C   UNL A   1      42.887  29.390  34.367  1.00  0.00     0.037 A 
BRANCH  43  57
ATOM     57  C   UNL A   1      40.614  28.036  28.780  1.00  0.00     0.064 A 
ATOM     58  C   UNL A   1      39.915  26.822  28.698  1.00  0.00     0.173 A 
ATOM     59  C   UNL A   1      41.361  28.437  27.662  1.00  0.00     0.173 A 
ATOM     60  F   UNL A   1      39.192  26.387  29.741  1.00  0.00    -0.203 F 
ATOM     61  C   UNL A   1      39.991  26.025  27.559  1.00  0.00     0.198 A 
ATOM     62  C   UNL A   1      41.405  27.654  26.510  1.00  0.00     0.198 A 
ATOM     63  F   UNL A   1      42.043  29.592  27.680  1.00  0.00    -0.203 F 
ATOM     64  F   UNL A   1      39.361  24.843  27.527  1.00  0.00    -0.200 F 
ATOM     65  C   UNL A   1      40.729  26.445  26.463  1.00  0.00     0.200 A 
ATOM     66  F   UNL A   1      42.106  28.071  25.446  1.00  0.00    -0.200 F 
ATOM     67  F   UNL A   1      40.794  25.682  25.363  1.00  0.00    -0.200 F 
ENDBRANCH  43  57
BRANCH  44  68
ATOM     68  C   UNL A   1      39.658  33.891  36.816  1.00  0.00     0.064 A 
ATOM     69  C   UNL A   1      38.863  33.475  37.892  1.00  0.00     0.173 A 
ATOM     70  C   UNL A   1      40.294  35.137  36.917  1.00  0.00     0.173 A 
ATOM     71  F   UNL A   1      38.218  32.301  37.834  1.00  0.00    -0.203 F 
ATOM     72  C   UNL A   1      38.689  34.284  39.014  1.00  0.00     0.198 A 
ATOM     73  C   UNL A   1      40.145  35.931  38.053  1.00  0.00     0.198 A 
ATOM     74  F   UNL A   1      41.070  35.580  35.919  1.00  0.00    -0.203 F 
ATOM     75  F   UNL A   1      37.880  33.885  40.004  1.00  0.00    -0.200 F 
ATOM     76  C   UNL A   1      39.334  35.509  39.096  1.00  0.00     0.200 A 
ATOM     77  F   UNL A   1      40.784  37.105  38.136  1.00  0.00    -0.200 F 
ATOM     78  F   UNL A   1      39.168  36.285  40.175  1.00  0.00    -0.200 F 
ENDBRANCH  44  68
BRANCH  56  79
ATOM     79  C   UNL A   1      44.067  28.780  35.067  1.00  0.00     0.064 A 
ATOM     80  C   UNL A   1      43.942  27.648  35.886  1.00  0.00     0.173 A 
ATOM     81  C   UNL A   1      45.353  29.311  34.877  1.00  0.00     0.173 A 
ATOM     82  F   UNL A   1      42.734  27.110  36.114  1.00  0.00    -0.203 F 
ATOM     83  C   UNL A   1      45.055  27.087  36.507  1.00  0.00     0.198 A 
ATOM     84  C   UNL A   1      46.468  28.727  35.470  1.00  0.00     0.198 A 
ATOM     85  F   UNL A   1      45.530  30.389  34.097  1.00  0.00    -0.203 F 
ATOM     86  F   UNL A   1      44.904  26.035  37.324  1.00  0.00    -0.200 F 
ATOM     87  C   UNL A   1      46.318  27.620  36.291  1.00  0.00     0.200 A 
ATOM     88  F   UNL A   1      47.688  29.234  35.246  1.00  0.00    -0.200 F 
ATOM     89  F   UNL A   1      47.389  27.070  36.879  1.00  0.00    -0.200 F 
ENDBRANCH  56  79
ENDBRANCH  30  31
ENDBRANCH  22  25
ENDBRANCH  20  21
ENDBRANCH   1  20
TORSDOF 12
ENDMDL
MODEL 2
REMARK VINA RESULT:     -12.3      4.332     10.359
REMARK SMILES Cc1noc(C[N@@H+]2CCC[C@H]2C(=O)NCCCNC(=O)c2ccc(-c3c4nc(c(-c5c(F)c(F)c(F)c(F)c5F)c5ccc([nH]5)c(-c5c(F)c(F)c(F)c(F)c5F)c5nc(c(-c6c(F)c(F)c(F)c(F)c6F)c6ccc3[nH]6)C=C5)C=C4)cc2)n1
REMARK SMILES IDX 16 1 15 2 14 3 12 4 13 5 11 7 7 8 8 9 9 11 10 12 6 13 5 14
REMARK SMILES IDX 1 15 2 16 3 17 84 18 4 19 17 20 18 21 19 22 20 24 21 25
REMARK SMILES IDX 22 26 83 27 23 28 82 29 24 30 25 31 26 32 76 33 27 34 81 35
REMARK SMILES IDX 75 36 77 37 28 38 80 39 74 40 73 41 29 43 61 44 41 45 60 46
REMARK SMILES IDX 42 47 45 48 59 49 78 50 43 51 44 52 58 54 79 55 46 56 30 57
REMARK SMILES IDX 31 58 39 59 32 60 33 61 37 62 40 63 34 64 35 65 38 66 36 67
REMARK SMILES IDX 62 68 63 69 71 70 64 71 65 72 69 73 72 74 66 75 67 76 70 77
REMARK SMILES IDX 68 78 47 79 48 80 56 81 49 82 50 83 54 84 57 85 51 86 52 87
REMARK SMILES IDX 55 88 53 89
REMARK H PARENT 14 6 7 10 18 23 77 42 45 53
REMARK Flexibility Score: inf
ROOT
ATOM      1  C   UNL A   1      34.666  33.607  28.250  1.00  0.00     0.042 C 
ENDROOT
BRANCH   1   2
ATOM      2  C   UNL A   1      33.290  34.258  28.154  1.00  0.00     0.118 C 
BRANCH   2   3
ATOM      3  N   UNL A   1      33.345  35.683  28.416  1.00  0.00    -0.351 N 
ATOM      4  C   UNL A   1      33.227  36.355  29.600  1.00  0.00     0.278 C 
ATOM      5  O   UNL A   1      33.270  37.588  29.564  1.00  0.00    -0.268 OA
ATOM      6  H   UNL A   1      33.490  36.249  27.624  1.00  0.00     0.163 HD
BRANCH   4   7
ATOM      7  C   UNL A   1      33.092  35.554  30.914  1.00  0.00     0.274 C 
ATOM      8  N   UNL A   1      34.393  35.631  31.619  1.00  0.00    -0.317 N 
ATOM      9  C   UNL A   1      34.259  36.688  32.628  1.00  0.00     0.263 C 
ATOM     10  H   UNL A   1      35.129  35.865  30.954  1.00  0.00     0.349 HD
ATOM     11  C   UNL A   1      32.796  36.744  33.024  1.00  0.00     0.068 C 
ATOM     12  C   UNL A   1      32.039  36.175  31.837  1.00  0.00     0.081 C 
BRANCH   8  13
ATOM     13  C   UNL A   1      34.887  34.348  32.153  1.00  0.00     0.364 C 
BRANCH  13  14
ATOM     14  C   UNL A   1      36.320  34.318  32.552  1.00  0.00     0.281 A 
ATOM     15  C   UNL A   1      39.789  34.498  32.168  1.00  0.00     0.093 C 
ATOM     16  C   UNL A   1      38.398  34.430  32.649  1.00  0.00     0.169 A 
ATOM     17  N   UNL A   1      38.017  34.890  33.848  1.00  0.00    -0.063 NA
ATOM     18  N   UNL A   1      37.380  34.012  31.837  1.00  0.00    -0.191 NA
ATOM     19  O   UNL A   1      36.624  34.809  33.790  1.00  0.00    -0.333 OA
ENDBRANCH  13  14
ENDBRANCH   8  13
ENDBRANCH   4   7
ENDBRANCH   2   3
ENDBRANCH   1   2
BRANCH   1  20
ATOM     20  C   UNL A   1      34.702  32.354  29.121  1.00  0.00     0.118 C 
BRANCH  20  21
ATOM     21  N   UNL A   1      34.162  31.179  28.448  1.00  0.00    -0.352 N 
ATOM     22  C   UNL A   1      34.786  30.039  28.012  1.00  0.00     0.251 C 
ATOM     23  H   UNL A   1      33.193  31.210  28.279  1.00  0.00     0.163 HD
ATOM     24  O   UNL A   1      34.168  29.237  27.315  1.00  0.00    -0.269 OA
BRANCH  22  25
ATOM     25  C   UNL A   1      36.200  29.771  28.352  1.00  0.00     0.039 A 
ATOM     26  C   UNL A   1      36.503  29.260  29.618  1.00  0.00     0.014 A 
ATOM     27  C   UNL A   1      37.229  30.044  27.448  1.00  0.00     0.014 A 
ATOM     28  C   UNL A   1      37.826  28.960  29.950  1.00  0.00     0.010 A 
ATOM     29  C   UNL A   1      38.537  29.670  27.749  1.00  0.00     0.010 A 
ATOM     30  C   UNL A   1      38.850  29.125  29.004  1.00  0.00    -0.014 A 
BRANCH  30  31
ATOM     31  C   UNL A   1      40.252  28.736  29.304  1.00  0.00     0.031 A 
ATOM     32  C   UNL A   1      41.149  29.666  30.074  1.00  0.00     0.074 A 
ATOM     33  C   UNL A   1      40.742  27.576  28.823  1.00  0.00     0.049 A 
ATOM     34  N   UNL A   1      42.423  29.550  30.353  1.00  0.00    -0.248 NA
ATOM     35  C   UNL A   1      40.536  30.906  30.576  1.00  0.00     0.031 C 
ATOM     36  C   UNL A   1      39.987  26.602  28.034  1.00  0.00     0.029 A 
ATOM     37  N   UNL A   1      41.997  27.025  28.916  1.00  0.00    -0.354 N 
ATOM     38  C   UNL A   1      42.765  30.703  31.048  1.00  0.00     0.074 A 
ATOM     39  C   UNL A   1      41.580  31.532  31.098  1.00  0.00     0.031 C 
ATOM     40  C   UNL A   1      40.785  25.566  27.733  1.00  0.00     0.029 A 
ATOM     41  C   UNL A   1      42.121  25.822  28.264  1.00  0.00     0.049 A 
ATOM     42  H   UNL A   1      42.738  27.452  29.404  1.00  0.00     0.167 HD
ATOM     43  C   UNL A   1      43.952  31.031  31.612  1.00  0.00     0.037 A 
ATOM     44  C   UNL A   1      43.192  25.023  28.099  1.00  0.00     0.037 A 
ATOM     45  C   UNL A   1      45.126  30.196  31.571  1.00  0.00     0.049 A 
ATOM     46  C   UNL A   1      44.510  25.428  28.706  1.00  0.00     0.074 A 
ATOM     47  C   UNL A   1      46.362  30.418  32.151  1.00  0.00     0.029 A 
ATOM     48  N   UNL A   1      45.208  28.981  30.907  1.00  0.00    -0.354 N 
ATOM     49  N   UNL A   1      44.805  26.491  29.413  1.00  0.00    -0.248 NA
ATOM     50  C   UNL A   1      45.643  24.515  28.496  1.00  0.00     0.031 C 
ATOM     51  C   UNL A   1      47.210  29.367  31.790  1.00  0.00     0.029 A 
ATOM     52  C   UNL A   1      46.484  28.455  31.042  1.00  0.00     0.049 A 
ATOM     53  H   UNL A   1      44.471  28.556  30.412  1.00  0.00     0.167 HD
ATOM     54  C   UNL A   1      46.143  26.358  29.763  1.00  0.00     0.074 A 
ATOM     55  C   UNL A   1      46.599  25.104  29.199  1.00  0.00     0.031 C 
ATOM     56  C   UNL A   1      46.921  27.197  30.489  1.00  0.00     0.037 A 
BRANCH  43  57
ATOM     57  C   UNL A   1      44.044  32.354  32.319  1.00  0.00     0.064 A 
ATOM     58  C   UNL A   1      43.751  32.481  33.686  1.00  0.00     0.173 A 
ATOM     59  C   UNL A   1      44.465  33.501  31.632  1.00  0.00     0.173 A 
ATOM     60  F   UNL A   1      43.336  31.416  34.390  1.00  0.00    -0.203 F 
ATOM     61  C   UNL A   1      43.839  33.713  34.328  1.00  0.00     0.198 A 
ATOM     62  C   UNL A   1      44.588  34.726  32.286  1.00  0.00     0.198 A 
ATOM     63  F   UNL A   1      44.768  33.438  30.326  1.00  0.00    -0.203 F 
ATOM     64  F   UNL A   1      43.499  33.820  35.620  1.00  0.00    -0.200 F 
ATOM     65  C   UNL A   1      44.266  34.832  33.630  1.00  0.00     0.200 A 
ATOM     66  F   UNL A   1      45.016  35.802  31.613  1.00  0.00    -0.200 F 
ATOM     67  F   UNL A   1      44.359  36.017  34.251  1.00  0.00    -0.200 F 
ENDBRANCH  43  57
BRANCH  44  68
ATOM     68  C   UNL A   1      43.064  23.751  27.340  1.00  0.00     0.064 A 
ATOM     69  C   UNL A   1      42.553  22.598  27.950  1.00  0.00     0.173 A 
ATOM     70  C   UNL A   1      43.461  23.657  25.998  1.00  0.00     0.173 A 
ATOM     71  F   UNL A   1      42.179  22.631  29.237  1.00  0.00    -0.203 F 
ATOM     72  C   UNL A   1      42.467  21.392  27.255  1.00  0.00     0.198 A 
ATOM     73  C   UNL A   1      43.344  22.459  25.294  1.00  0.00     0.198 A 
ATOM     74  F   UNL A   1      43.952  24.731  25.364  1.00  0.00    -0.203 F 
ATOM     75  F   UNL A   1      42.025  20.293  27.880  1.00  0.00    -0.200 F 
ATOM     76  C   UNL A   1      42.858  21.325  25.927  1.00  0.00     0.200 A 
ATOM     77  F   UNL A   1      43.707  22.403  24.006  1.00  0.00    -0.200 F 
ATOM     78  F   UNL A   1      42.772  20.167  25.259  1.00  0.00    -0.200 F 
ENDBRANCH  44  68
BRANCH  56  79
ATOM     79  C   UNL A   1      48.334  26.768  30.767  1.00  0.00     0.064 A 
ATOM     80  C   UNL A   1      49.408  27.187  29.969  1.00  0.00     0.173 A 
ATOM     81  C   UNL A   1      48.621  25.961  31.880  1.00  0.00     0.173 A 
ATOM     82  F   UNL A   1      49.187  27.946  28.884  1.00  0.00    -0.203 F 
ATOM     83  C   UNL A   1      50.712  26.794  30.259  1.00  0.00     0.198 A 
ATOM     84  C   UNL A   1      49.929  25.599  32.188  1.00  0.00     0.198 A 
ATOM     85  F   UNL A   1      47.631  25.538  32.681  1.00  0.00    -0.203 F 
ATOM     86  F   UNL A   1      51.717  27.166  29.453  1.00  0.00    -0.200 F 
ATOM     87  C   UNL A   1      50.973  26.010  31.373  1.00  0.00     0.200 A 
ATOM     88  F   UNL A   1      50.179  24.856  33.273  1.00  0.00    -0.200 F 
ATOM     89  F   UNL A   1      52.230  25.644  31.658  1.00  0.00    -0.200 F 
ENDBRANCH  56  79
ENDBRANCH  30  31
ENDBRANCH  22  25
ENDBRANCH  20  21
ENDBRANCH   1  20
TORSDOF 12
ENDMDL
MODEL 3
REMARK VINA RESULT:     -12.2      4.282     10.390
REMARK SMILES Cc1noc(C[N@@H+]2CCC[C@H]2C(=O)NCCCNC(=O)c2ccc(-c3c4nc(c(-c5c(F)c(F)c(F)c(F)c5F)c5ccc([nH]5)c(-c5c(F)c(F)c(F)c(F)c5F)c5nc(c(-c6c(F)c(F)c(F)c(F)c6F)c6ccc3[nH]6)C=C5)C=C4)cc2)n1
REMARK SMILES IDX 16 1 15 2 14 3 12 4 13 5 11 7 7 8 8 9 9 11 10 12 6 13 5 14
REMARK SMILES IDX 1 15 2 16 3 17 84 18 4 19 17 20 18 21 19 22 20 24 21 25
REMARK SMILES IDX 22 26 83 27 23 28 82 29 24 30 25 31 26 32 76 33 27 34 81 35
REMARK SMILES IDX 75 36 77 37 28 38 80 39 74 40 73 41 29 43 61 44 41 45 60 46
REMARK SMILES IDX 42 47 45 48 59 49 78 50 43 51 44 52 58 54 79 55 46 56 30 57
REMARK SMILES IDX 31 58 39 59 32 60 33 61 37 62 40 63 34 64 35 65 38 66 36 67
REMARK SMILES IDX 62 68 63 69 71 70 64 71 65 72 69 73 72 74 66 75 67 76 70 77
REMARK SMILES IDX 68 78 47 79 48 80 56 81 49 82 50 83 54 84 57 85 51 86 52 87
REMARK SMILES IDX 55 88 53 89
REMARK H PARENT 14 6 7 10 18 23 77 42 45 53
REMARK Flexibility Score: inf
ROOT
ATOM      1  C   UNL A   1      34.695  33.610  28.410  1.00  0.00     0.042 C 
ENDROOT
BRANCH   1   2
ATOM      2  C   UNL A   1      33.346  34.264  28.125  1.00  0.00     0.118 C 
BRANCH   2   3
ATOM      3  N   UNL A   1      33.373  35.691  28.378  1.00  0.00    -0.351 N 
ATOM      4  C   UNL A   1      33.269  36.368  29.561  1.00  0.00     0.278 C 
ATOM      5  O   UNL A   1      33.280  37.600  29.517  1.00  0.00    -0.268 OA
ATOM      6  H   UNL A   1      33.483  36.256  27.580  1.00  0.00     0.163 HD
BRANCH   4   7
ATOM      7  C   UNL A   1      33.187  35.571  30.883  1.00  0.00     0.274 C 
ATOM      8  N   UNL A   1      34.447  35.808  31.625  1.00  0.00    -0.317 N 
ATOM      9  C   UNL A   1      34.159  36.854  32.614  1.00  0.00     0.263 C 
ATOM     10  H   UNL A   1      35.171  36.119  30.978  1.00  0.00     0.349 HD
ATOM     11  C   UNL A   1      32.687  36.743  32.965  1.00  0.00     0.068 C 
ATOM     12  C   UNL A   1      32.040  36.074  31.765  1.00  0.00     0.081 C 
BRANCH   8  13
ATOM     13  C   UNL A   1      35.071  34.599  32.193  1.00  0.00     0.364 C 
BRANCH  13  14
ATOM     14  C   UNL A   1      36.559  34.574  32.196  1.00  0.00     0.281 A 
ATOM     15  C   UNL A   1      39.783  34.110  33.462  1.00  0.00     0.093 C 
ATOM     16  C   UNL A   1      38.580  34.330  32.642  1.00  0.00     0.169 A 
ATOM     17  N   UNL A   1      38.523  34.036  31.336  1.00  0.00    -0.063 NA
ATOM     18  N   UNL A   1      37.394  34.722  33.200  1.00  0.00    -0.191 NA
ATOM     19  O   UNL A   1      37.170  34.206  31.031  1.00  0.00    -0.333 OA
ENDBRANCH  13  14
ENDBRANCH   8  13
ENDBRANCH   4   7
ENDBRANCH   2   3
ENDBRANCH   1   2
BRANCH   1  20
ATOM     20  C   UNL A   1      34.605  32.337  29.247  1.00  0.00     0.118 C 
BRANCH  20  21
ATOM     21  N   UNL A   1      34.079  31.201  28.498  1.00  0.00    -0.352 N 
ATOM     22  C   UNL A   1      34.716  30.099  27.991  1.00  0.00     0.251 C 
ATOM     23  H   UNL A   1      33.110  31.232  28.329  1.00  0.00     0.163 HD
ATOM     24  O   UNL A   1      34.107  29.336  27.242  1.00  0.00    -0.269 OA
BRANCH  22  25
ATOM     25  C   UNL A   1      36.133  29.825  28.315  1.00  0.00     0.039 A 
ATOM     26  C   UNL A   1      36.448  29.326  29.582  1.00  0.00     0.014 A 
ATOM     27  C   UNL A   1      37.151  30.082  27.395  1.00  0.00     0.014 A 
ATOM     28  C   UNL A   1      37.774  29.020  29.901  1.00  0.00     0.010 A 
ATOM     29  C   UNL A   1      38.460  29.703  27.683  1.00  0.00     0.010 A 
ATOM     30  C   UNL A   1      38.787  29.169  28.940  1.00  0.00    -0.014 A 
BRANCH  30  31
ATOM     31  C   UNL A   1      40.190  28.774  29.225  1.00  0.00     0.031 A 
ATOM     32  C   UNL A   1      41.113  29.721  29.942  1.00  0.00     0.074 A 
ATOM     33  C   UNL A   1      40.657  27.591  28.779  1.00  0.00     0.049 A 
ATOM     34  N   UNL A   1      42.391  29.599  30.200  1.00  0.00    -0.248 NA
ATOM     35  C   UNL A   1      40.525  30.986  30.410  1.00  0.00     0.031 C 
ATOM     36  C   UNL A   1      39.874  26.598  28.042  1.00  0.00     0.029 A 
ATOM     37  N   UNL A   1      41.906  27.029  28.867  1.00  0.00    -0.354 N 
ATOM     38  C   UNL A   1      42.761  30.773  30.844  1.00  0.00     0.074 A 
ATOM     39  C   UNL A   1      41.587  31.618  30.887  1.00  0.00     0.031 C 
ATOM     40  C   UNL A   1      40.654  25.542  27.763  1.00  0.00     0.029 A 
ATOM     41  C   UNL A   1      42.003  25.801  28.257  1.00  0.00     0.049 A 
ATOM     42  H   UNL A   1      42.662  27.464  29.324  1.00  0.00     0.167 HD
ATOM     43  C   UNL A   1      43.963  31.107  31.372  1.00  0.00     0.037 A 
ATOM     44  C   UNL A   1      43.061  24.983  28.101  1.00  0.00     0.037 A 
ATOM     45  C   UNL A   1      45.126  30.257  31.338  1.00  0.00     0.049 A 
ATOM     46  C   UNL A   1      44.396  25.394  28.665  1.00  0.00     0.074 A 
ATOM     47  C   UNL A   1      46.376  30.485  31.885  1.00  0.00     0.029 A 
ATOM     48  N   UNL A   1      45.180  29.017  30.718  1.00  0.00    -0.354 N 
ATOM     49  N   UNL A   1      44.718  26.479  29.327  1.00  0.00    -0.248 NA
ATOM     50  C   UNL A   1      45.514  24.460  28.467  1.00  0.00     0.031 C 
ATOM     51  C   UNL A   1      47.204  29.411  31.546  1.00  0.00     0.029 A 
ATOM     52  C   UNL A   1      46.452  28.481  30.847  1.00  0.00     0.049 A 
ATOM     53  H   UNL A   1      44.428  28.583  30.254  1.00  0.00     0.167 HD
ATOM     54  C   UNL A   1      46.061  26.342  29.654  1.00  0.00     0.074 A 
ATOM     55  C   UNL A   1      46.491  25.063  29.128  1.00  0.00     0.031 C 
ATOM     56  C   UNL A   1      46.864  27.198  30.333  1.00  0.00     0.037 A 
BRANCH  43  57
ATOM     57  C   UNL A   1      44.085  32.454  32.027  1.00  0.00     0.064 A 
ATOM     58  C   UNL A   1      44.516  33.584  31.315  1.00  0.00     0.173 A 
ATOM     59  C   UNL A   1      43.732  32.625  33.374  1.00  0.00     0.173 A 
ATOM     60  F   UNL A   1      44.874  33.475  30.027  1.00  0.00    -0.203 F 
ATOM     61  C   UNL A   1      44.625  34.825  31.936  1.00  0.00     0.198 A 
ATOM     62  C   UNL A   1      43.808  33.877  33.982  1.00  0.00     0.198 A 
ATOM     63  F   UNL A   1      43.305  31.582  34.101  1.00  0.00    -0.203 F 
ATOM     64  F   UNL A   1      45.094  35.877  31.250  1.00  0.00    -0.200 F 
ATOM     65  C   UNL A   1      44.263  34.972  33.267  1.00  0.00     0.200 A 
ATOM     66  F   UNL A   1      43.441  34.019  35.263  1.00  0.00    -0.200 F 
ATOM     67  F   UNL A   1      44.360  36.170  33.861  1.00  0.00    -0.200 F 
ENDBRANCH  43  57
BRANCH  44  68
ATOM     68  C   UNL A   1      42.903  23.685  27.392  1.00  0.00     0.064 A 
ATOM     69  C   UNL A   1      43.290  23.547  26.052  1.00  0.00     0.173 A 
ATOM     70  C   UNL A   1      42.353  22.565  28.031  1.00  0.00     0.173 A 
ATOM     71  F   UNL A   1      43.802  24.595  25.391  1.00  0.00    -0.203 F 
ATOM     72  C   UNL A   1      43.108  22.344  25.370  1.00  0.00     0.198 A 
ATOM     73  C   UNL A   1      42.202  21.354  27.358  1.00  0.00     0.198 A 
ATOM     74  F   UNL A   1      41.971  22.641  29.314  1.00  0.00    -0.203 F 
ATOM     75  F   UNL A   1      43.437  22.257  24.075  1.00  0.00    -0.200 F 
ATOM     76  C   UNL A   1      42.569  21.248  26.025  1.00  0.00     0.200 A 
ATOM     77  F   UNL A   1      41.697  20.292  28.000  1.00  0.00    -0.200 F 
ATOM     78  F   UNL A   1      42.398  20.092  25.370  1.00  0.00    -0.200 F 
ENDBRANCH  44  68
BRANCH  56  79
ATOM     79  C   UNL A   1      48.277  26.762  30.598  1.00  0.00     0.064 A 
ATOM     80  C   UNL A   1      48.613  25.956  31.695  1.00  0.00     0.173 A 
ATOM     81  C   UNL A   1      49.304  27.121  29.710  1.00  0.00     0.173 A 
ATOM     82  F   UNL A   1      47.671  25.597  32.582  1.00  0.00    -0.203 F 
ATOM     83  C   UNL A   1      49.926  25.546  31.907  1.00  0.00     0.198 A 
ATOM     84  C   UNL A   1      50.610  26.681  29.905  1.00  0.00     0.198 A 
ATOM     85  F   UNL A   1      49.037  27.886  28.640  1.00  0.00    -0.203 F 
ATOM     86  F   UNL A   1      50.232  24.816  32.989  1.00  0.00    -0.200 F 
ATOM     87  C   UNL A   1      50.922  25.900  31.008  1.00  0.00     0.200 A 
ATOM     88  F   UNL A   1      51.565  27.010  29.026  1.00  0.00    -0.200 F 
ATOM     89  F   UNL A   1      52.183  25.493  31.207  1.00  0.00    -0.200 F 
ENDBRANCH  56  79
ENDBRANCH  30  31
ENDBRANCH  22  25
ENDBRANCH  20  21
ENDBRANCH   1  20
TORSDOF 12
ENDMDL
