MODEL 1
REMARK VINA RESULT:     -12.1      0.000      0.000
REMARK SMILES C[C@@H](C(=O)NCCCNC(=O)c1ccc(-c2c3nc(c(-c4c(F)c(F)c(F)c(F)c4F)c4ccc([nH]4)c(-c4c(F)c(F)c(F)c(F)c4F)c4nc(c(-c5c(F)c(F)c(F)c(F)c5F)c5ccc2[nH]5)C=C4)C=C3)cc1)c1ccc(-c2ccccc2)cc1
REMARK SMILES IDX 7 1 6 2 5 3 3 4 4 5 2 7 1 8 75 9 76 10 86 11 77 12 85 13
REMARK SMILES IDX 78 14 79 15 80 16 84 17 81 18 83 19 82 20 8 21 9 22 10 23
REMARK SMILES IDX 11 25 12 26 13 27 74 28 14 29 73 30 15 31 16 32 17 33 67 34
REMARK SMILES IDX 18 35 72 36 66 37 68 38 19 39 71 40 65 41 64 42 20 44 52 45
REMARK SMILES IDX 32 46 51 47 33 48 36 49 50 50 69 51 34 52 35 53 49 55 70 56
REMARK SMILES IDX 37 57 21 58 22 59 30 60 23 61 24 62 28 63 31 64 25 65 26 66
REMARK SMILES IDX 29 67 27 68 53 69 54 70 62 71 55 72 56 73 60 74 63 75 57 76
REMARK SMILES IDX 58 77 61 78 59 79 38 80 39 81 47 82 40 83 41 84 45 85 48 86
REMARK SMILES IDX 42 87 43 88 46 89 44 90
REMARK H PARENT 5 6 9 24 68 43 36 54
REMARK Flexibility Score: inf
ROOT
ATOM      1  C   UNL A   1      32.101  28.199  27.104  1.00  0.00     0.042 C 
ENDROOT
BRANCH   1   2
ATOM      2  C   UNL A   1      31.561  28.299  25.675  1.00  0.00     0.117 C 
BRANCH   2   3
ATOM      3  N   UNL A   1      30.845  27.095  25.295  1.00  0.00    -0.356 N 
ATOM      4  C   UNL A   1      31.013  26.257  24.229  1.00  0.00     0.227 C 
ATOM      5  O   UNL A   1      30.127  25.417  24.053  1.00  0.00    -0.274 OA
ATOM      6  H   UNL A   1      30.118  26.840  25.907  1.00  0.00     0.163 HD
BRANCH   4   7
ATOM      7  C   UNL A   1      32.265  26.376  23.335  1.00  0.00     0.105 C 
ATOM      8  C   UNL A   1      31.862  26.130  21.876  1.00  0.00     0.023 C 
BRANCH   7   9
ATOM      9  C   UNL A   1      33.431  25.486  23.794  1.00  0.00    -0.036 A 
ATOM     10  C   UNL A   1      33.908  24.454  22.968  1.00  0.00     0.005 A 
ATOM     11  C   UNL A   1      34.034  25.632  25.052  1.00  0.00     0.005 A 
ATOM     12  C   UNL A   1      34.987  23.650  23.358  1.00  0.00     0.009 A 
ATOM     13  C   UNL A   1      35.102  24.819  25.448  1.00  0.00     0.009 A 
ATOM     14  C   UNL A   1      35.607  23.826  24.602  1.00  0.00    -0.018 A 
BRANCH  14  15
ATOM     15  C   UNL A   1      36.759  23.014  25.012  1.00  0.00    -0.018 A 
ATOM     16  C   UNL A   1      37.742  23.537  25.868  1.00  0.00     0.009 A 
ATOM     17  C   UNL A   1      36.891  21.681  24.588  1.00  0.00     0.009 A 
ATOM     18  C   UNL A   1      38.820  22.754  26.287  1.00  0.00     0.001 A 
ATOM     19  C   UNL A   1      37.969  20.898  25.005  1.00  0.00     0.001 A 
ATOM     20  C   UNL A   1      38.933  21.434  25.855  1.00  0.00     0.000 A 
ENDBRANCH  14  15
ENDBRANCH   7   9
ENDBRANCH   4   7
ENDBRANCH   2   3
ENDBRANCH   1   2
BRANCH   1  21
ATOM     21  C   UNL A   1      33.540  28.680  27.269  1.00  0.00     0.118 C 
BRANCH  21  22
ATOM     22  N   UNL A   1      33.622  30.089  27.622  1.00  0.00    -0.352 N 
ATOM     23  C   UNL A   1      34.620  30.784  28.259  1.00  0.00     0.251 C 
ATOM     24  H   UNL A   1      32.841  30.629  27.364  1.00  0.00     0.163 HD
ATOM     25  O   UNL A   1      34.414  31.936  28.637  1.00  0.00    -0.269 OA
BRANCH  23  26
ATOM     26  C   UNL A   1      35.931  30.152  28.525  1.00  0.00     0.039 A 
ATOM     27  C   UNL A   1      36.908  30.189  27.527  1.00  0.00     0.014 A 
ATOM     28  C   UNL A   1      36.200  29.517  29.741  1.00  0.00     0.014 A 
ATOM     29  C   UNL A   1      38.183  29.677  27.781  1.00  0.00     0.010 A 
ATOM     30  C   UNL A   1      37.490  29.066  30.018  1.00  0.00     0.010 A 
ATOM     31  C   UNL A   1      38.501  29.162  29.049  1.00  0.00    -0.014 A 
BRANCH  31  32
ATOM     32  C   UNL A   1      39.896  28.792  29.402  1.00  0.00     0.031 A 
ATOM     33  C   UNL A   1      40.783  29.753  30.142  1.00  0.00     0.074 A 
ATOM     34  C   UNL A   1      40.391  27.615  28.965  1.00  0.00     0.049 A 
ATOM     35  N   UNL A   1      42.054  29.643  30.436  1.00  0.00    -0.248 NA
ATOM     36  C   UNL A   1      40.169  31.009  30.599  1.00  0.00     0.031 C 
ATOM     37  C   UNL A   1      39.642  26.616  28.199  1.00  0.00     0.029 A 
ATOM     38  N   UNL A   1      41.646  27.068  29.077  1.00  0.00    -0.354 N 
ATOM     39  C   UNL A   1      42.396  30.818  31.092  1.00  0.00     0.074 A 
ATOM     40  C   UNL A   1      41.206  31.641  31.131  1.00  0.00     0.031 C 
ATOM     41  C   UNL A   1      40.446  25.581  27.914  1.00  0.00     0.029 A 
ATOM     42  C   UNL A   1      41.782  25.863  28.430  1.00  0.00     0.049 A 
ATOM     43  H   UNL A   1      42.379  27.499  29.575  1.00  0.00     0.167 HD
ATOM     44  C   UNL A   1      43.592  31.169  31.620  1.00  0.00     0.037 A 
ATOM     45  C   UNL A   1      42.867  25.085  28.243  1.00  0.00     0.037 A 
ATOM     46  C   UNL A   1      44.764  30.331  31.607  1.00  0.00     0.049 A 
ATOM     47  C   UNL A   1      44.189  25.523  28.819  1.00  0.00     0.074 A 
ATOM     48  C   UNL A   1      45.989  30.559  32.207  1.00  0.00     0.029 A 
ATOM     49  N   UNL A   1      44.861  29.116  30.947  1.00  0.00    -0.354 N 
ATOM     50  N   UNL A   1      44.472  26.589  29.527  1.00  0.00    -0.248 NA
ATOM     51  C   UNL A   1      45.346  24.651  28.564  1.00  0.00     0.031 C 
ATOM     52  C   UNL A   1      46.850  29.516  31.855  1.00  0.00     0.029 A 
ATOM     53  C   UNL A   1      46.144  28.608  31.084  1.00  0.00     0.049 A 
ATOM     54  H   UNL A   1      44.129  28.679  30.455  1.00  0.00     0.167 HD
ATOM     55  C   UNL A   1      45.826  26.504  29.818  1.00  0.00     0.074 A 
ATOM     56  C   UNL A   1      46.305  25.270  29.235  1.00  0.00     0.031 C 
ATOM     57  C   UNL A   1      46.607  27.376  30.501  1.00  0.00     0.037 A 
BRANCH  44  58
ATOM     58  C   UNL A   1      43.720  32.518  32.265  1.00  0.00     0.064 A 
ATOM     59  C   UNL A   1      43.999  33.670  31.516  1.00  0.00     0.173 A 
ATOM     60  C   UNL A   1      43.450  32.672  33.634  1.00  0.00     0.173 A 
ATOM     61  F   UNL A   1      44.268  33.575  30.206  1.00  0.00    -0.203 F 
ATOM     62  C   UNL A   1      44.007  34.927  32.115  1.00  0.00     0.198 A 
ATOM     63  C   UNL A   1      43.434  33.933  34.223  1.00  0.00     0.198 A 
ATOM     64  F   UNL A   1      43.170  31.602  34.393  1.00  0.00    -0.203 F 
ATOM     65  F   UNL A   1      44.295  36.013  31.384  1.00  0.00    -0.200 F 
ATOM     66  C   UNL A   1      43.713  35.059  33.465  1.00  0.00     0.200 A 
ATOM     67  F   UNL A   1      43.132  34.060  35.524  1.00  0.00    -0.200 F 
ATOM     68  F   UNL A   1      43.696  36.273  34.032  1.00  0.00    -0.200 F 
ENDBRANCH  44  58
BRANCH  45  69
ATOM     69  C   UNL A   1      42.769  23.830  27.450  1.00  0.00     0.064 A 
ATOM     70  C   UNL A   1      42.361  22.628  28.046  1.00  0.00     0.173 A 
ATOM     71  C   UNL A   1      43.130  23.794  26.095  1.00  0.00     0.173 A 
ATOM     72  F   UNL A   1      42.026  22.604  29.344  1.00  0.00    -0.203 F 
ATOM     73  C   UNL A   1      42.353  21.433  27.327  1.00  0.00     0.198 A 
ATOM     74  C   UNL A   1      43.087  22.606  25.368  1.00  0.00     0.198 A 
ATOM     75  F   UNL A   1      43.524  24.915  25.473  1.00  0.00    -0.203 F 
ATOM     76  F   UNL A   1      42.026  20.288  27.941  1.00  0.00    -0.200 F 
ATOM     77  C   UNL A   1      42.714  21.424  25.988  1.00  0.00     0.200 A 
ATOM     78  F   UNL A   1      43.419  22.606  24.070  1.00  0.00    -0.200 F 
ATOM     79  F   UNL A   1      42.713  20.275  25.300  1.00  0.00    -0.200 F 
ENDBRANCH  45  69
BRANCH  57  80
ATOM     80  C   UNL A   1      48.056  27.024  30.667  1.00  0.00     0.064 A 
ATOM     81  C   UNL A   1      48.486  26.148  31.673  1.00  0.00     0.173 A 
ATOM     82  C   UNL A   1      49.020  27.527  29.778  1.00  0.00     0.173 A 
ATOM     83  F   UNL A   1      47.607  25.654  32.560  1.00  0.00    -0.203 F 
ATOM     84  C   UNL A   1      49.828  25.800  31.795  1.00  0.00     0.198 A 
ATOM     85  C   UNL A   1      50.355  27.152  29.883  1.00  0.00     0.198 A 
ATOM     86  F   UNL A   1      48.660  28.366  28.794  1.00  0.00    -0.203 F 
ATOM     87  F   UNL A   1      50.221  24.994  32.791  1.00  0.00    -0.200 F 
ATOM     88  C   UNL A   1      50.760  26.295  30.894  1.00  0.00     0.200 A 
ATOM     89  F   UNL A   1      51.251  27.618  29.002  1.00  0.00    -0.200 F 
ATOM     90  F   UNL A   1      52.049  25.948  31.004  1.00  0.00    -0.200 F 
ENDBRANCH  57  80
ENDBRANCH  31  32
ENDBRANCH  23  26
ENDBRANCH  21  22
ENDBRANCH   1  21
TORSDOF 12
ENDMDL
MODEL 2
REMARK VINA RESULT:     -12.0      2.872      5.859
REMARK SMILES C[C@@H](C(=O)NCCCNC(=O)c1ccc(-c2c3nc(c(-c4c(F)c(F)c(F)c(F)c4F)c4ccc([nH]4)c(-c4c(F)c(F)c(F)c(F)c4F)c4nc(c(-c5c(F)c(F)c(F)c(F)c5F)c5ccc2[nH]5)C=C4)C=C3)cc1)c1ccc(-c2ccccc2)cc1
REMARK SMILES IDX 7 1 6 2 5 3 3 4 4 5 2 7 1 8 75 9 76 10 86 11 77 12 85 13
REMARK SMILES IDX 78 14 79 15 80 16 84 17 81 18 83 19 82 20 8 21 9 22 10 23
REMARK SMILES IDX 11 25 12 26 13 27 74 28 14 29 73 30 15 31 16 32 17 33 67 34
REMARK SMILES IDX 18 35 72 36 66 37 68 38 19 39 71 40 65 41 64 42 20 44 52 45
REMARK SMILES IDX 32 46 51 47 33 48 36 49 50 50 69 51 34 52 35 53 49 55 70 56
REMARK SMILES IDX 37 57 21 58 22 59 30 60 23 61 24 62 28 63 31 64 25 65 26 66
REMARK SMILES IDX 29 67 27 68 53 69 54 70 62 71 55 72 56 73 60 74 63 75 57 76
REMARK SMILES IDX 58 77 61 78 59 79 38 80 39 81 47 82 40 83 41 84 45 85 48 86
REMARK SMILES IDX 42 87 43 88 46 89 44 90
REMARK H PARENT 5 6 9 24 68 43 36 54
REMARK Flexibility Score: inf
ROOT
ATOM      1  C   UNL A   1      34.827  34.641  28.145  1.00  0.00     0.042 C 
ENDROOT
BRANCH   1   2
ATOM      2  C   UNL A   1      33.473  34.988  28.769  1.00  0.00     0.117 C 
BRANCH   2   3
ATOM      3  N   UNL A   1      33.523  36.258  29.470  1.00  0.00    -0.356 N 
ATOM      4  C   UNL A   1      33.129  36.595  30.734  1.00  0.00     0.227 C 
ATOM      5  O   UNL A   1      33.110  37.801  30.994  1.00  0.00    -0.274 OA
ATOM      6  H   UNL A   1      33.905  37.000  28.948  1.00  0.00     0.163 HD
BRANCH   4   7
ATOM      7  C   UNL A   1      32.759  35.497  31.752  1.00  0.00     0.105 C 
ATOM      8  C   UNL A   1      31.930  36.122  32.882  1.00  0.00     0.023 C 
BRANCH   7   9
ATOM      9  C   UNL A   1      33.972  34.705  32.267  1.00  0.00    -0.036 A 
ATOM     10  C   UNL A   1      34.114  33.341  31.961  1.00  0.00     0.005 A 
ATOM     11  C   UNL A   1      34.952  35.285  33.087  1.00  0.00     0.005 A 
ATOM     12  C   UNL A   1      35.226  32.610  32.398  1.00  0.00     0.009 A 
ATOM     13  C   UNL A   1      36.054  34.550  33.536  1.00  0.00     0.009 A 
ATOM     14  C   UNL A   1      36.218  33.206  33.187  1.00  0.00    -0.018 A 
BRANCH  14  15
ATOM     15  C   UNL A   1      37.406  32.462  33.627  1.00  0.00    -0.018 A 
ATOM     16  C   UNL A   1      38.475  33.118  34.257  1.00  0.00     0.009 A 
ATOM     17  C   UNL A   1      37.488  31.070  33.460  1.00  0.00     0.009 A 
ATOM     18  C   UNL A   1      39.589  32.406  34.708  1.00  0.00     0.001 A 
ATOM     19  C   UNL A   1      38.602  30.357  33.909  1.00  0.00     0.001 A 
ATOM     20  C   UNL A   1      39.652  31.026  34.534  1.00  0.00     0.000 A 
ENDBRANCH  14  15
ENDBRANCH   7   9
ENDBRANCH   4   7
ENDBRANCH   2   3
ENDBRANCH   1   2
BRANCH   1  21
ATOM     21  C   UNL A   1      35.344  33.248  28.494  1.00  0.00     0.118 C 
BRANCH  21  22
ATOM     22  N   UNL A   1      34.378  32.202  28.195  1.00  0.00    -0.352 N 
ATOM     23  C   UNL A   1      34.558  30.849  28.044  1.00  0.00     0.251 C 
ATOM     24  H   UNL A   1      33.450  32.512  28.085  1.00  0.00     0.163 HD
ATOM     25  O   UNL A   1      33.642  30.159  27.601  1.00  0.00    -0.269 OA
BRANCH  23  26
ATOM     26  C   UNL A   1      35.853  30.218  28.378  1.00  0.00     0.039 A 
ATOM     27  C   UNL A   1      36.836  30.138  27.388  1.00  0.00     0.014 A 
ATOM     28  C   UNL A   1      36.103  29.697  29.651  1.00  0.00     0.014 A 
ATOM     29  C   UNL A   1      38.098  29.626  27.698  1.00  0.00     0.010 A 
ATOM     30  C   UNL A   1      37.381  29.247  29.979  1.00  0.00     0.010 A 
ATOM     31  C   UNL A   1      38.399  29.228  29.012  1.00  0.00    -0.014 A 
BRANCH  31  32
ATOM     32  C   UNL A   1      39.784  28.863  29.408  1.00  0.00     0.031 A 
ATOM     33  C   UNL A   1      40.639  29.823  30.187  1.00  0.00     0.074 A 
ATOM     34  C   UNL A   1      40.301  27.694  28.977  1.00  0.00     0.049 A 
ATOM     35  N   UNL A   1      41.900  29.719  30.522  1.00  0.00    -0.248 NA
ATOM     36  C   UNL A   1      40.000  31.071  30.634  1.00  0.00     0.031 C 
ATOM     37  C   UNL A   1      39.585  26.698  28.177  1.00  0.00     0.029 A 
ATOM     38  N   UNL A   1      41.556  27.155  29.127  1.00  0.00    -0.354 N 
ATOM     39  C   UNL A   1      42.211  30.890  31.200  1.00  0.00     0.074 A 
ATOM     40  C   UNL A   1      41.015  31.705  31.207  1.00  0.00     0.031 C 
ATOM     41  C   UNL A   1      40.406  25.671  27.911  1.00  0.00     0.029 A 
ATOM     42  C   UNL A   1      41.722  25.956  28.474  1.00  0.00     0.049 A 
ATOM     43  H   UNL A   1      42.268  27.585  29.653  1.00  0.00     0.167 HD
ATOM     44  C   UNL A   1      43.386  31.243  31.771  1.00  0.00     0.037 A 
ATOM     45  C   UNL A   1      42.818  25.188  28.316  1.00  0.00     0.037 A 
ATOM     46  C   UNL A   1      44.564  30.414  31.790  1.00  0.00     0.049 A 
ATOM     47  C   UNL A   1      44.116  25.629  28.940  1.00  0.00     0.074 A 
ATOM     48  C   UNL A   1      45.767  30.644  32.433  1.00  0.00     0.029 A 
ATOM     49  N   UNL A   1      44.691  29.205  31.122  1.00  0.00    -0.354 N 
ATOM     50  N   UNL A   1      44.368  26.689  29.667  1.00  0.00    -0.248 NA
ATOM     51  C   UNL A   1      45.287  24.766  28.716  1.00  0.00     0.031 C 
ATOM     52  C   UNL A   1      46.647  29.610  32.100  1.00  0.00     0.029 A 
ATOM     53  C   UNL A   1      45.972  28.705  31.298  1.00  0.00     0.049 A 
ATOM     54  H   UNL A   1      43.979  28.769  30.602  1.00  0.00     0.167 HD
ATOM     55  C   UNL A   1      45.712  26.611  30.003  1.00  0.00     0.074 A 
ATOM     56  C   UNL A   1      46.219  25.385  29.424  1.00  0.00     0.031 C 
ATOM     57  C   UNL A   1      46.463  27.482  30.719  1.00  0.00     0.037 A 
BRANCH  44  58
ATOM     58  C   UNL A   1      43.484  32.587  32.433  1.00  0.00     0.064 A 
ATOM     59  C   UNL A   1      43.792  33.746  31.706  1.00  0.00     0.173 A 
ATOM     60  C   UNL A   1      43.154  32.729  33.790  1.00  0.00     0.173 A 
ATOM     61  F   UNL A   1      44.118  33.663  30.408  1.00  0.00    -0.203 F 
ATOM     62  C   UNL A   1      43.772  34.999  32.316  1.00  0.00     0.198 A 
ATOM     63  C   UNL A   1      43.110  33.985  34.389  1.00  0.00     0.198 A 
ATOM     64  F   UNL A   1      42.844  31.653  34.527  1.00  0.00    -0.203 F 
ATOM     65  F   UNL A   1      44.088  36.091  31.607  1.00  0.00    -0.200 F 
ATOM     66  C   UNL A   1      43.419  35.118  33.653  1.00  0.00     0.200 A 
ATOM     67  F   UNL A   1      42.751  34.100  35.676  1.00  0.00    -0.200 F 
ATOM     68  F   UNL A   1      43.375  36.327  34.229  1.00  0.00    -0.200 F 
ENDBRANCH  44  58
BRANCH  45  69
ATOM     69  C   UNL A   1      42.755  23.939  27.508  1.00  0.00     0.064 A 
ATOM     70  C   UNL A   1      42.430  22.710  28.101  1.00  0.00     0.173 A 
ATOM     71  C   UNL A   1      43.067  23.939  26.141  1.00  0.00     0.173 A 
ATOM     72  F   UNL A   1      42.144  22.653  29.409  1.00  0.00    -0.203 F 
ATOM     73  C   UNL A   1      42.457  21.526  27.365  1.00  0.00     0.198 A 
ATOM     74  C   UNL A   1      43.059  22.761  25.398  1.00  0.00     0.198 A 
ATOM     75  F   UNL A   1      43.381  25.087  25.522  1.00  0.00    -0.203 F 
ATOM     76  F   UNL A   1      42.211  20.358  27.973  1.00  0.00    -0.200 F 
ATOM     77  C   UNL A   1      42.769  21.553  26.014  1.00  0.00     0.200 A 
ATOM     78  F   UNL A   1      43.343  22.794  24.089  1.00  0.00    -0.200 F 
ATOM     79  F   UNL A   1      42.802  20.414  25.310  1.00  0.00    -0.200 F 
ENDBRANCH  45  69
BRANCH  57  80
ATOM     80  C   UNL A   1      47.909  27.138  30.931  1.00  0.00     0.064 A 
ATOM     81  C   UNL A   1      48.311  26.261  31.948  1.00  0.00     0.173 A 
ATOM     82  C   UNL A   1      48.897  27.649  30.074  1.00  0.00     0.173 A 
ATOM     83  F   UNL A   1      47.407  25.759  32.804  1.00  0.00    -0.203 F 
ATOM     84  C   UNL A   1      49.651  25.920  32.112  1.00  0.00     0.198 A 
ATOM     85  C   UNL A   1      50.231  27.281  30.221  1.00  0.00     0.198 A 
ATOM     86  F   UNL A   1      48.565  28.488  29.082  1.00  0.00    -0.203 F 
ATOM     87  F   UNL A   1      50.017  25.114  33.118  1.00  0.00    -0.200 F 
ATOM     88  C   UNL A   1      50.608  26.423  31.243  1.00  0.00     0.200 A 
ATOM     89  F   UNL A   1      51.152  27.755  29.371  1.00  0.00    -0.200 F 
ATOM     90  F   UNL A   1      51.895  26.084  31.393  1.00  0.00    -0.200 F 
ENDBRANCH  57  80
ENDBRANCH  31  32
ENDBRANCH  23  26
ENDBRANCH  21  22
ENDBRANCH   1  21
TORSDOF 12
ENDMDL
MODEL 3
REMARK VINA RESULT:     -12.0      3.255      8.964
REMARK SMILES C[C@@H](C(=O)NCCCNC(=O)c1ccc(-c2c3nc(c(-c4c(F)c(F)c(F)c(F)c4F)c4ccc([nH]4)c(-c4c(F)c(F)c(F)c(F)c4F)c4nc(c(-c5c(F)c(F)c(F)c(F)c5F)c5ccc2[nH]5)C=C4)C=C3)cc1)c1ccc(-c2ccccc2)cc1
REMARK SMILES IDX 7 1 6 2 5 3 3 4 4 5 2 7 1 8 75 9 76 10 86 11 77 12 85 13
REMARK SMILES IDX 78 14 79 15 80 16 84 17 81 18 83 19 82 20 8 21 9 22 10 23
REMARK SMILES IDX 11 25 12 26 13 27 74 28 14 29 73 30 15 31 16 32 17 33 67 34
REMARK SMILES IDX 18 35 72 36 66 37 68 38 19 39 71 40 65 41 64 42 20 44 52 45
REMARK SMILES IDX 32 46 51 47 33 48 36 49 50 50 69 51 34 52 35 53 49 55 70 56
REMARK SMILES IDX 37 57 21 58 22 59 30 60 23 61 24 62 28 63 31 64 25 65 26 66
REMARK SMILES IDX 29 67 27 68 53 69 54 70 62 71 55 72 56 73 60 74 63 75 57 76
REMARK SMILES IDX 58 77 61 78 59 79 38 80 39 81 47 82 40 83 41 84 45 85 48 86
REMARK SMILES IDX 42 87 43 88 46 89 44 90
REMARK H PARENT 5 6 9 24 68 43 36 54
REMARK Flexibility Score: inf
ROOT
ATOM      1  C   UNL A   1      36.453  22.905  23.916  1.00  0.00     0.042 C 
ENDROOT
BRANCH   1   2
ATOM      2  C   UNL A   1      35.194  22.131  24.312  1.00  0.00     0.117 C 
BRANCH   2   3
ATOM      3  N   UNL A   1      34.055  22.525  23.503  1.00  0.00    -0.356 N 
ATOM      4  C   UNL A   1      32.783  22.873  23.863  1.00  0.00     0.227 C 
ATOM      5  O   UNL A   1      31.966  22.972  22.946  1.00  0.00    -0.274 OA
ATOM      6  H   UNL A   1      34.226  22.546  22.535  1.00  0.00     0.163 HD
BRANCH   4   7
ATOM      7  C   UNL A   1      32.440  23.141  25.343  1.00  0.00     0.105 C 
ATOM      8  C   UNL A   1      31.046  22.573  25.643  1.00  0.00     0.023 C 
BRANCH   7   9
ATOM      9  C   UNL A   1      32.587  24.615  25.750  1.00  0.00    -0.036 A 
ATOM     10  C   UNL A   1      33.841  25.248  25.699  1.00  0.00     0.005 A 
ATOM     11  C   UNL A   1      31.505  25.373  26.223  1.00  0.00     0.005 A 
ATOM     12  C   UNL A   1      33.988  26.598  26.041  1.00  0.00     0.009 A 
ATOM     13  C   UNL A   1      31.656  26.718  26.579  1.00  0.00     0.009 A 
ATOM     14  C   UNL A   1      32.896  27.357  26.478  1.00  0.00    -0.018 A 
BRANCH  14  15
ATOM     15  C   UNL A   1      33.028  28.782  26.809  1.00  0.00    -0.018 A 
ATOM     16  C   UNL A   1      34.244  29.301  27.283  1.00  0.00     0.009 A 
ATOM     17  C   UNL A   1      31.954  29.668  26.628  1.00  0.00     0.009 A 
ATOM     18  C   UNL A   1      34.382  30.662  27.565  1.00  0.00     0.001 A 
ATOM     19  C   UNL A   1      32.090  31.029  26.912  1.00  0.00     0.001 A 
ATOM     20  C   UNL A   1      33.304  31.525  27.379  1.00  0.00     0.000 A 
ENDBRANCH  14  15
ENDBRANCH   7   9
ENDBRANCH   4   7
ENDBRANCH   2   3
ENDBRANCH   1   2
BRANCH   1  21
ATOM     21  C   UNL A   1      37.221  23.503  25.091  1.00  0.00     0.118 C 
BRANCH  21  22
ATOM     22  N   UNL A   1      38.292  22.637  25.560  1.00  0.00    -0.352 N 
ATOM     23  C   UNL A   1      39.433  22.941  26.259  1.00  0.00     0.251 C 
ATOM     24  H   UNL A   1      38.182  21.683  25.341  1.00  0.00     0.163 HD
ATOM     25  O   UNL A   1      40.311  22.090  26.392  1.00  0.00    -0.269 OA
BRANCH  23  26
ATOM     26  C   UNL A   1      39.633  24.292  26.828  1.00  0.00     0.039 A 
ATOM     27  C   UNL A   1      39.180  24.547  28.125  1.00  0.00     0.014 A 
ATOM     28  C   UNL A   1      40.253  25.307  26.094  1.00  0.00     0.014 A 
ATOM     29  C   UNL A   1      39.432  25.786  28.720  1.00  0.00     0.010 A 
ATOM     30  C   UNL A   1      40.563  26.519  26.709  1.00  0.00     0.010 A 
ATOM     31  C   UNL A   1      40.176  26.763  28.036  1.00  0.00    -0.014 A 
BRANCH  31  32
ATOM     32  C   UNL A   1      40.621  28.008  28.716  1.00  0.00     0.031 A 
ATOM     33  C   UNL A   1      42.011  28.124  29.275  1.00  0.00     0.074 A 
ATOM     34  C   UNL A   1      39.729  29.001  28.910  1.00  0.00     0.049 A 
ATOM     35  N   UNL A   1      42.534  29.086  29.992  1.00  0.00    -0.248 NA
ATOM     36  C   UNL A   1      42.931  27.006  29.010  1.00  0.00     0.031 C 
ATOM     37  C   UNL A   1      38.338  28.988  28.453  1.00  0.00     0.029 A 
ATOM     38  N   UNL A   1      39.849  30.203  29.564  1.00  0.00    -0.354 N 
ATOM     39  C   UNL A   1      43.832  28.685  30.279  1.00  0.00     0.074 A 
ATOM     40  C   UNL A   1      44.011  27.378  29.683  1.00  0.00     0.031 C 
ATOM     41  C   UNL A   1      37.735  30.125  28.835  1.00  0.00     0.029 A 
ATOM     42  C   UNL A   1      38.679  30.925  29.609  1.00  0.00     0.049 A 
ATOM     43  H   UNL A   1      40.692  30.519  29.963  1.00  0.00     0.167 HD
ATOM     44  C   UNL A   1      44.785  29.353  30.969  1.00  0.00     0.037 A 
ATOM     45  C   UNL A   1      38.387  32.084  30.231  1.00  0.00     0.037 A 
ATOM     46  C   UNL A   1      44.610  30.668  31.532  1.00  0.00     0.049 A 
ATOM     47  C   UNL A   1      39.465  32.785  31.017  1.00  0.00     0.074 A 
ATOM     48  C   UNL A   1      45.552  31.466  32.157  1.00  0.00     0.029 A 
ATOM     49  N   UNL A   1      43.414  31.368  31.552  1.00  0.00    -0.354 N 
ATOM     50  N   UNL A   1      40.717  32.442  31.192  1.00  0.00    -0.248 NA
ATOM     51  C   UNL A   1      39.086  34.033  31.697  1.00  0.00     0.031 C 
ATOM     52  C   UNL A   1      44.910  32.620  32.618  1.00  0.00     0.029 A 
ATOM     53  C   UNL A   1      43.584  32.568  32.226  1.00  0.00     0.049 A 
ATOM     54  H   UNL A   1      42.571  31.060  31.149  1.00  0.00     0.167 HD
ATOM     55  C   UNL A   1      41.278  33.438  31.980  1.00  0.00     0.074 A 
ATOM     56  C   UNL A   1      40.239  34.413  32.227  1.00  0.00     0.031 C 
ATOM     57  C   UNL A   1      42.540  33.531  32.463  1.00  0.00     0.037 A 
BRANCH  44  58
ATOM     58  C   UNL A   1      46.117  28.693  31.170  1.00  0.00     0.064 A 
ATOM     59  C   UNL A   1      46.369  27.858  32.268  1.00  0.00     0.173 A 
ATOM     60  C   UNL A   1      47.116  28.811  30.190  1.00  0.00     0.173 A 
ATOM     61  F   UNL A   1      45.449  27.715  33.233  1.00  0.00    -0.203 F 
ATOM     62  C   UNL A   1      47.574  27.168  32.380  1.00  0.00     0.198 A 
ATOM     63  C   UNL A   1      48.308  28.100  30.293  1.00  0.00     0.198 A 
ATOM     64  F   UNL A   1      46.922  29.591  29.116  1.00  0.00    -0.203 F 
ATOM     65  F   UNL A   1      47.801  26.390  33.447  1.00  0.00    -0.200 F 
ATOM     66  C   UNL A   1      48.537  27.280  31.387  1.00  0.00     0.200 A 
ATOM     67  F   UNL A   1      49.230  28.195  29.324  1.00  0.00    -0.200 F 
ATOM     68  F   UNL A   1      49.685  26.595  31.486  1.00  0.00    -0.200 F 
ENDBRANCH  44  58
BRANCH  45  69
ATOM     69  C   UNL A   1      37.010  32.647  30.173  1.00  0.00     0.064 A 
ATOM     70  C   UNL A   1      36.616  33.485  29.120  1.00  0.00     0.173 A 
ATOM     71  C   UNL A   1      36.078  32.401  31.192  1.00  0.00     0.173 A 
ATOM     72  F   UNL A   1      37.476  33.768  28.132  1.00  0.00    -0.203 F 
ATOM     73  C   UNL A   1      35.357  34.084  29.109  1.00  0.00     0.198 A 
ATOM     74  C   UNL A   1      34.808  32.971  31.161  1.00  0.00     0.198 A 
ATOM     75  F   UNL A   1      36.401  31.604  32.222  1.00  0.00    -0.203 F 
ATOM     76  F   UNL A   1      35.033  34.935  28.127  1.00  0.00    -0.200 F 
ATOM     77  C   UNL A   1      34.454  33.824  30.127  1.00  0.00     0.200 A 
ATOM     78  F   UNL A   1      33.932  32.704  32.139  1.00  0.00    -0.200 F 
ATOM     79  F   UNL A   1      33.246  34.406  30.120  1.00  0.00    -0.200 F 
ENDBRANCH  45  69
BRANCH  57  80
ATOM     80  C   UNL A   1      42.874  34.733  33.298  1.00  0.00     0.064 A 
ATOM     81  C   UNL A   1      43.242  35.952  32.711  1.00  0.00     0.173 A 
ATOM     82  C   UNL A   1      42.775  34.681  34.697  1.00  0.00     0.173 A 
ATOM     83  F   UNL A   1      43.369  36.049  31.378  1.00  0.00    -0.203 F 
ATOM     84  C   UNL A   1      43.514  37.071  33.494  1.00  0.00     0.198 A 
ATOM     85  C   UNL A   1      43.016  35.809  35.474  1.00  0.00     0.198 A 
ATOM     86  F   UNL A   1      42.422  33.540  35.308  1.00  0.00    -0.203 F 
ATOM     87  F   UNL A   1      43.905  38.214  32.913  1.00  0.00    -0.200 F 
ATOM     88  C   UNL A   1      43.392  37.001  34.874  1.00  0.00     0.200 A 
ATOM     89  F   UNL A   1      42.882  35.744  36.806  1.00  0.00    -0.200 F 
ATOM     90  F   UNL A   1      43.640  38.082  35.625  1.00  0.00    -0.200 F 
ENDBRANCH  57  80
ENDBRANCH  31  32
ENDBRANCH  23  26
ENDBRANCH  21  22
ENDBRANCH   1  21
TORSDOF 12
ENDMDL
