MODEL 1
REMARK VINA RESULT:     -17.5      0.000      0.000
REMARK SMILES COc1cc([C@@H]2[NH2+][C@H](C(=O)NCCCNC(=O)c3ccc(-c4c5nc(c(-c6c(F)c(F)c(F)c(F)c6F)c6ccc([nH]6)c(-c6c(F)c(F)c(F)c(F)c6F)c6nc(c(-c7c(F)c(F)c(F)c(F)c7F)c7ccc4[nH]7)C=C6)C=C5)cc3)CS2)ccc1OCc1ccc(Cl)cc1
REMARK SMILES IDX 12 1 11 2 9 3 10 4 8 6 6 7 7 8 82 9 81 12 5 13 3 14 4 15
REMARK SMILES IDX 85 16 84 17 83 18 2 19 1 20 86 21 87 22 88 23 89 24 94 25
REMARK SMILES IDX 90 26 93 27 91 28 92 29 13 30 14 31 15 32 16 33 17 35 18 36
REMARK SMILES IDX 19 37 80 38 20 39 79 40 21 41 22 42 23 43 73 44 24 45 78 46
REMARK SMILES IDX 72 47 74 48 25 49 77 50 71 51 70 52 26 54 58 55 38 56 57 57
REMARK SMILES IDX 39 58 42 59 56 60 75 61 40 62 41 63 55 65 76 66 43 67 27 68
REMARK SMILES IDX 28 69 36 70 29 71 30 72 34 73 37 74 31 75 32 76 35 77 33 78
REMARK SMILES IDX 59 79 60 80 68 81 61 82 62 83 66 84 69 85 63 86 64 87 67 88
REMARK SMILES IDX 65 89 44 90 45 91 53 92 46 93 47 94 51 95 54 96 48 97 49 98
REMARK SMILES IDX 52 99 50 100
REMARK H PARENT 11 5 7 10 7 11 15 34 74 53 42 64
REMARK Flexibility Score: inf
ROOT
ATOM      1  C   UNL A   1      34.666  31.412  27.635  1.00  0.00     0.118 C 
ENDROOT
BRANCH   1   2
ATOM      2  N   UNL A   1      33.743  30.356  27.998  1.00  0.00    -0.351 N 
ATOM      3  C   UNL A   1      33.080  29.519  27.120  1.00  0.00     0.279 C 
ATOM      4  O   UNL A   1      32.481  28.557  27.627  1.00  0.00    -0.268 OA
ATOM      5  H   UNL A   1      33.571  30.222  28.958  1.00  0.00     0.163 HD
BRANCH   3   6
ATOM      6  C   UNL A   1      32.950  29.735  25.567  1.00  0.00     0.283 C 
ATOM      7  C   UNL A   1      32.984  27.977  23.869  1.00  0.00     0.274 C 
ATOM      8  N   UNL A   1      33.811  28.913  24.672  1.00  0.00    -0.321 N 
ATOM      9  S   UNL A   1      31.436  28.789  23.544  1.00  0.00    -0.088 SA
ATOM     10  H   UNL A   1      34.326  29.529  24.043  1.00  0.00     0.348 HD
ATOM     11  H   UNL A   1      34.458  28.372  25.244  1.00  0.00     0.348 HD
ATOM     12  C   UNL A   1      31.478  29.672  25.121  1.00  0.00     0.151 C 
BRANCH   7  13
ATOM     13  C   UNL A   1      32.930  26.581  24.550  1.00  0.00     0.024 A 
ATOM     14  C   UNL A   1      32.644  24.506  23.539  1.00  0.00     0.161 A 
ATOM     15  C   UNL A   1      32.059  25.706  23.887  1.00  0.00     0.061 A 
ATOM     16  C   UNL A   1      34.047  23.991  24.276  1.00  0.00     0.161 A 
ATOM     17  C   UNL A   1      34.591  24.774  25.273  1.00  0.00     0.051 A 
ATOM     18  C   UNL A   1      34.030  26.082  25.363  1.00  0.00     0.015 A 
BRANCH  14  19
ATOM     19  O   UNL A   1      32.528  24.514  22.058  1.00  0.00    -0.493 OA
ATOM     20  C   UNL A   1      32.904  25.478  21.058  1.00  0.00     0.278 C 
ENDBRANCH  14  19
BRANCH  16  21
ATOM     21  O   UNL A   1      34.987  22.525  23.898  1.00  0.00    -0.485 OA
BRANCH  21  22
ATOM     22  C   UNL A   1      35.067  20.960  25.028  1.00  0.00     0.265 C 
BRANCH  22  23
ATOM     23  C   UNL A   1      34.093  19.268  24.625  1.00  0.00    -0.011 A 
ATOM     24  C   UNL A   1      32.929  18.792  25.309  1.00  0.00     0.009 A 
ATOM     25  C   UNL A   1      34.737  17.941  24.246  1.00  0.00     0.009 A 
ATOM     26  C   UNL A   1      32.525  17.409  25.558  1.00  0.00     0.021 A 
ATOM     27  C   UNL A   1      34.320  16.584  24.356  1.00  0.00     0.021 A 
ATOM     28  C   UNL A   1      33.198  16.317  25.058  1.00  0.00     0.041 A 
ATOM     29  Cl  UNL A   1      32.752  14.705  25.422  1.00  0.00    -0.084 Cl
ENDBRANCH  22  23
ENDBRANCH  21  22
ENDBRANCH  16  21
ENDBRANCH   7  13
ENDBRANCH   3   6
ENDBRANCH   1   2
BRANCH   1  30
ATOM     30  C   UNL A   1      34.388  32.925  28.047  1.00  0.00     0.042 C 
BRANCH  30  31
ATOM     31  C   UNL A   1      35.280  33.945  29.401  1.00  0.00     0.118 C 
BRANCH  31  32
ATOM     32  N   UNL A   1      35.212  33.774  31.380  1.00  0.00    -0.352 N 
ATOM     33  C   UNL A   1      36.074  32.702  32.566  1.00  0.00     0.251 C 
ATOM     34  H   UNL A   1      34.582  34.399  31.805  1.00  0.00     0.163 HD
ATOM     35  O   UNL A   1      36.281  33.153  33.659  1.00  0.00    -0.269 OA
BRANCH  33  36
ATOM     36  C   UNL A   1      36.395  30.830  32.285  1.00  0.00     0.039 A 
ATOM     37  C   UNL A   1      36.148  30.170  31.042  1.00  0.00     0.014 A 
ATOM     38  C   UNL A   1      37.449  30.093  32.886  1.00  0.00     0.014 A 
ATOM     39  C   UNL A   1      37.209  29.571  30.221  1.00  0.00     0.010 A 
ATOM     40  C   UNL A   1      38.558  29.578  32.092  1.00  0.00     0.010 A 
ATOM     41  C   UNL A   1      38.511  29.414  30.693  1.00  0.00    -0.014 A 
BRANCH  41  42
ATOM     42  C   UNL A   1      39.690  28.830  29.868  1.00  0.00     0.031 A 
ATOM     43  C   UNL A   1      40.833  29.784  29.562  1.00  0.00     0.074 A 
ATOM     44  C   UNL A   1      39.842  27.573  29.340  1.00  0.00     0.049 A 
ATOM     45  N   UNL A   1      41.966  29.590  28.925  1.00  0.00    -0.248 NA
ATOM     46  C   UNL A   1      40.642  31.171  30.007  1.00  0.00     0.031 C 
ATOM     47  C   UNL A   1      38.887  26.470  29.398  1.00  0.00     0.029 A 
ATOM     48  N   UNL A   1      40.898  26.998  28.614  1.00  0.00    -0.354 N 
ATOM     49  C   UNL A   1      42.603  30.825  28.918  1.00  0.00     0.074 A 
ATOM     50  C   UNL A   1      41.670  31.784  29.456  1.00  0.00     0.031 C 
ATOM     51  C   UNL A   1      39.381  25.379  28.769  1.00  0.00     0.029 A 
ATOM     52  C   UNL A   1      40.723  25.665  28.256  1.00  0.00     0.049 A 
ATOM     53  H   UNL A   1      41.706  27.503  28.374  1.00  0.00     0.167 HD
ATOM     54  C   UNL A   1      43.874  31.157  28.594  1.00  0.00     0.037 A 
ATOM     55  C   UNL A   1      41.533  24.768  27.626  1.00  0.00     0.037 A 
ATOM     56  C   UNL A   1      44.860  30.259  28.074  1.00  0.00     0.049 A 
ATOM     57  C   UNL A   1      42.944  25.164  27.198  1.00  0.00     0.074 A 
ATOM     58  C   UNL A   1      46.185  30.520  27.774  1.00  0.00     0.029 A 
ATOM     59  N   UNL A   1      44.627  28.933  27.760  1.00  0.00    -0.354 N 
ATOM     60  N   UNL A   1      43.568  26.304  27.354  1.00  0.00    -0.248 NA
ATOM     61  C   UNL A   1      43.772  24.137  26.529  1.00  0.00     0.031 C 
ATOM     62  C   UNL A   1      46.739  29.365  27.215  1.00  0.00     0.029 A 
ATOM     63  C   UNL A   1      45.778  28.370  27.234  1.00  0.00     0.049 A 
ATOM     64  H   UNL A   1      43.772  28.461  27.889  1.00  0.00     0.167 HD
ATOM     65  C   UNL A   1      44.859  26.115  26.860  1.00  0.00     0.074 A 
ATOM     66  C   UNL A   1      44.940  24.752  26.398  1.00  0.00     0.031 C 
ATOM     67  C   UNL A   1      45.884  27.001  26.802  1.00  0.00     0.037 A 
BRANCH  54  68
ATOM     68  C   UNL A   1      44.270  32.583  28.845  1.00  0.00     0.064 A 
ATOM     69  C   UNL A   1      44.699  33.006  30.117  1.00  0.00     0.173 A 
ATOM     70  C   UNL A   1      44.180  33.542  27.828  1.00  0.00     0.173 A 
ATOM     71  F   UNL A   1      44.776  32.129  31.130  1.00  0.00    -0.203 F 
ATOM     72  C   UNL A   1      44.960  34.347  30.373  1.00  0.00     0.198 A 
ATOM     73  C   UNL A   1      44.487  34.875  28.078  1.00  0.00     0.198 A 
ATOM     74  F   UNL A   1      43.778  33.187  26.598  1.00  0.00    -0.203 F 
ATOM     75  F   UNL A   1      45.270  34.740  31.616  1.00  0.00    -0.200 F 
ATOM     76  C   UNL A   1      44.859  35.280  29.353  1.00  0.00     0.200 A 
ATOM     77  F   UNL A   1      44.399  35.776  27.091  1.00  0.00    -0.200 F 
ATOM     78  F   UNL A   1      45.103  36.573  29.603  1.00  0.00    -0.200 F 
ENDBRANCH  54  68
BRANCH  55  79
ATOM     79  C   UNL A   1      41.105  23.345  27.361  1.00  0.00     0.064 A 
ATOM     80  C   UNL A   1      41.820  22.253  27.895  1.00  0.00     0.173 A 
ATOM     81  C   UNL A   1      40.068  23.038  26.466  1.00  0.00     0.173 A 
ATOM     82  F   UNL A   1      42.865  22.472  28.705  1.00  0.00    -0.203 F 
ATOM     83  C   UNL A   1      41.530  20.932  27.531  1.00  0.00     0.198 A 
ATOM     84  C   UNL A   1      39.760  21.715  26.125  1.00  0.00     0.198 A 
ATOM     85  F   UNL A   1      39.367  24.025  25.889  1.00  0.00    -0.203 F 
ATOM     86  F   UNL A   1      42.281  19.926  28.002  1.00  0.00    -0.200 F 
ATOM     87  C   UNL A   1      40.496  20.664  26.650  1.00  0.00     0.200 A 
ATOM     88  F   UNL A   1      38.762  21.460  25.267  1.00  0.00    -0.200 F 
ATOM     89  F   UNL A   1      40.222  19.400  26.294  1.00  0.00    -0.200 F 
ENDBRANCH  55  79
BRANCH  67  90
ATOM     90  C   UNL A   1      47.219  26.546  26.278  1.00  0.00     0.064 A 
ATOM     91  C   UNL A   1      47.634  26.810  24.965  1.00  0.00     0.173 A 
ATOM     92  C   UNL A   1      48.143  25.931  27.141  1.00  0.00     0.173 A 
ATOM     93  F   UNL A   1      46.794  27.393  24.096  1.00  0.00    -0.203 F 
ATOM     94  C   UNL A   1      48.914  26.466  24.532  1.00  0.00     0.198 A 
ATOM     95  C   UNL A   1      49.431  25.619  26.716  1.00  0.00     0.198 A 
ATOM     96  F   UNL A   1      47.808  25.668  28.414  1.00  0.00    -0.203 F 
ATOM     97  F   UNL A   1      49.277  26.702  23.263  1.00  0.00    -0.200 F 
ATOM     98  C   UNL A   1      49.815  25.881  25.410  1.00  0.00     0.200 A 
ATOM     99  F   UNL A   1      50.307  25.077  27.574  1.00  0.00    -0.200 F 
ATOM    100  F   UNL A   1      51.053  25.574  24.999  1.00  0.00    -0.200 F 
ENDBRANCH  67  90
ENDBRANCH  41  42
ENDBRANCH  33  36
ENDBRANCH  31  32
ENDBRANCH  30  31
ENDBRANCH   1  30
TORSDOF 15
ENDMDL
MODEL 2
REMARK VINA RESULT:     -16.9      1.974      7.456
REMARK SMILES COc1cc([C@@H]2[NH2+][C@H](C(=O)NCCCNC(=O)c3ccc(-c4c5nc(c(-c6c(F)c(F)c(F)c(F)c6F)c6ccc([nH]6)c(-c6c(F)c(F)c(F)c(F)c6F)c6nc(c(-c7c(F)c(F)c(F)c(F)c7F)c7ccc4[nH]7)C=C6)C=C5)cc3)CS2)ccc1OCc1ccc(Cl)cc1
REMARK SMILES IDX 12 1 11 2 9 3 10 4 8 6 6 7 7 8 82 9 81 12 5 13 3 14 4 15
REMARK SMILES IDX 85 16 84 17 83 18 2 19 1 20 86 21 87 22 88 23 89 24 94 25
REMARK SMILES IDX 90 26 93 27 91 28 92 29 13 30 14 31 15 32 16 33 17 35 18 36
REMARK SMILES IDX 19 37 80 38 20 39 79 40 21 41 22 42 23 43 73 44 24 45 78 46
REMARK SMILES IDX 72 47 74 48 25 49 77 50 71 51 70 52 26 54 58 55 38 56 57 57
REMARK SMILES IDX 39 58 42 59 56 60 75 61 40 62 41 63 55 65 76 66 43 67 27 68
REMARK SMILES IDX 28 69 36 70 29 71 30 72 34 73 37 74 31 75 32 76 35 77 33 78
REMARK SMILES IDX 59 79 60 80 68 81 61 82 62 83 66 84 69 85 63 86 64 87 67 88
REMARK SMILES IDX 65 89 44 90 45 91 53 92 46 93 47 94 51 95 54 96 48 97 49 98
REMARK SMILES IDX 52 99 50 100
REMARK H PARENT 11 5 7 10 7 11 15 34 74 53 42 64
REMARK Flexibility Score: inf
ROOT
ATOM      1  C   UNL A   1      33.532  30.413  26.735  1.00  0.00     0.118 C 
ENDROOT
BRANCH   1   2
ATOM      2  N   UNL A   1      33.306  29.007  27.004  1.00  0.00    -0.351 N 
ATOM      3  C   UNL A   1      33.341  27.986  26.074  1.00  0.00     0.279 C 
ATOM      4  O   UNL A   1      33.311  26.831  26.527  1.00  0.00    -0.268 OA
ATOM      5  H   UNL A   1      33.109  28.755  27.935  1.00  0.00     0.163 HD
BRANCH   3   6
ATOM      6  C   UNL A   1      33.324  28.168  24.510  1.00  0.00     0.283 C 
ATOM      7  C   UNL A   1      31.896  26.951  22.944  1.00  0.00     0.274 C 
ATOM      8  N   UNL A   1      33.193  26.948  23.667  1.00  0.00    -0.321 N 
ATOM      9  S   UNL A   1      31.500  28.645  22.581  1.00  0.00    -0.088 SA
ATOM     10  H   UNL A   1      33.954  26.925  22.988  1.00  0.00     0.348 HD
ATOM     11  H   UNL A   1      33.232  26.125  24.268  1.00  0.00     0.348 HD
ATOM     12  C   UNL A   1      32.301  29.238  24.089  1.00  0.00     0.151 C 
BRANCH   7  13
ATOM     13  C   UNL A   1      30.840  26.120  23.725  1.00  0.00     0.024 A 
ATOM     14  C   UNL A   1      30.952  23.882  24.345  1.00  0.00     0.161 A 
ATOM     15  C   UNL A   1      30.810  24.782  23.309  1.00  0.00     0.061 A 
ATOM     16  C   UNL A   1      30.675  24.339  25.923  1.00  0.00     0.161 A 
ATOM     17  C   UNL A   1      30.260  25.631  26.169  1.00  0.00     0.051 A 
ATOM     18  C   UNL A   1      30.387  26.510  25.053  1.00  0.00     0.015 A 
BRANCH  14  19
ATOM     19  O   UNL A   1      32.200  23.166  23.975  1.00  0.00    -0.493 OA
ATOM     20  C   UNL A   1      32.686  22.638  22.727  1.00  0.00     0.278 C 
ENDBRANCH  14  19
BRANCH  16  21
ATOM     21  O   UNL A   1      30.891  23.347  27.387  1.00  0.00    -0.485 OA
BRANCH  21  22
ATOM     22  C   UNL A   1      32.571  22.567  27.937  1.00  0.00     0.265 C 
BRANCH  22  23
ATOM     23  C   UNL A   1      34.244  22.699  26.860  1.00  0.00    -0.011 A 
ATOM     24  C   UNL A   1      34.688  23.858  26.147  1.00  0.00     0.009 A 
ATOM     25  C   UNL A   1      34.811  21.606  25.964  1.00  0.00     0.009 A 
ATOM     26  C   UNL A   1      35.458  23.920  24.906  1.00  0.00     0.021 A 
ATOM     27  C   UNL A   1      35.666  21.619  24.825  1.00  0.00     0.021 A 
ATOM     28  C   UNL A   1      35.968  22.812  24.270  1.00  0.00     0.041 A 
ATOM     29  Cl  UNL A   1      36.804  22.900  22.778  1.00  0.00    -0.084 Cl
ENDBRANCH  22  23
ENDBRANCH  21  22
ENDBRANCH  16  21
ENDBRANCH   7  13
ENDBRANCH   3   6
ENDBRANCH   1   2
BRANCH   1  30
ATOM     30  C   UNL A   1      34.556  31.263  27.610  1.00  0.00     0.042 C 
BRANCH  30  31
ATOM     31  C   UNL A   1      34.139  32.507  29.006  1.00  0.00     0.118 C 
BRANCH  31  32
ATOM     32  N   UNL A   1      34.396  32.354  30.971  1.00  0.00    -0.352 N 
ATOM     33  C   UNL A   1      35.699  31.621  32.000  1.00  0.00     0.251 C 
ATOM     34  H   UNL A   1      33.666  32.758  31.493  1.00  0.00     0.163 HD
ATOM     35  O   UNL A   1      35.902  32.130  33.068  1.00  0.00    -0.269 OA
BRANCH  33  36
ATOM     36  C   UNL A   1      36.543  29.937  31.628  1.00  0.00     0.039 A 
ATOM     37  C   UNL A   1      36.662  29.394  30.312  1.00  0.00     0.014 A 
ATOM     38  C   UNL A   1      37.656  29.417  32.338  1.00  0.00     0.014 A 
ATOM     39  C   UNL A   1      37.951  29.184  29.638  1.00  0.00     0.010 A 
ATOM     40  C   UNL A   1      38.965  29.297  31.708  1.00  0.00     0.010 A 
ATOM     41  C   UNL A   1      39.166  29.300  30.312  1.00  0.00    -0.014 A 
BRANCH  41  42
ATOM     42  C   UNL A   1      40.564  29.134  29.656  1.00  0.00     0.031 A 
ATOM     43  C   UNL A   1      40.882  27.758  29.093  1.00  0.00     0.074 A 
ATOM     44  C   UNL A   1      41.581  30.046  29.535  1.00  0.00     0.049 A 
ATOM     45  N   UNL A   1      41.945  27.315  28.461  1.00  0.00    -0.248 NA
ATOM     46  C   UNL A   1      39.862  26.726  29.318  1.00  0.00     0.031 C 
ATOM     47  C   UNL A   1      41.603  31.415  30.045  1.00  0.00     0.029 A 
ATOM     48  N   UNL A   1      42.844  29.947  28.930  1.00  0.00    -0.354 N 
ATOM     49  C   UNL A   1      41.696  25.970  28.215  1.00  0.00     0.074 A 
ATOM     50  C   UNL A   1      40.474  25.635  28.904  1.00  0.00     0.031 C 
ATOM     51  C   UNL A   1      42.772  32.020  29.733  1.00  0.00     0.029 A 
ATOM     52  C   UNL A   1      43.620  31.101  28.970  1.00  0.00     0.049 A 
ATOM     53  H   UNL A   1      43.159  29.118  28.506  1.00  0.00     0.167 HD
ATOM     54  C   UNL A   1      42.342  25.087  27.419  1.00  0.00     0.037 A 
ATOM     55  C   UNL A   1      44.839  31.407  28.444  1.00  0.00     0.037 A 
ATOM     56  C   UNL A   1      43.545  25.352  26.690  1.00  0.00     0.049 A 
ATOM     57  C   UNL A   1      45.600  30.386  27.602  1.00  0.00     0.074 A 
ATOM     58  C   UNL A   1      44.223  24.516  25.822  1.00  0.00     0.029 A 
ATOM     59  N   UNL A   1      44.259  26.534  26.756  1.00  0.00    -0.354 N 
ATOM     60  N   UNL A   1      45.253  29.171  27.259  1.00  0.00    -0.248 NA
ATOM     61  C   UNL A   1      46.914  30.790  27.053  1.00  0.00     0.031 C 
ATOM     62  C   UNL A   1      45.388  25.170  25.411  1.00  0.00     0.029 A 
ATOM     63  C   UNL A   1      45.394  26.437  25.968  1.00  0.00     0.049 A 
ATOM     64  H   UNL A   1      44.000  27.325  27.283  1.00  0.00     0.167 HD
ATOM     65  C   UNL A   1      46.264  28.696  26.423  1.00  0.00     0.074 A 
ATOM     66  C   UNL A   1      47.243  29.748  26.302  1.00  0.00     0.031 C 
ATOM     67  C   UNL A   1      46.361  27.490  25.810  1.00  0.00     0.037 A 
BRANCH  54  68
ATOM     68  C   UNL A   1      41.704  23.735  27.275  1.00  0.00     0.064 A 
ATOM     69  C   UNL A   1      42.299  22.588  27.829  1.00  0.00     0.173 A 
ATOM     70  C   UNL A   1      40.520  23.576  26.544  1.00  0.00     0.173 A 
ATOM     71  F   UNL A   1      43.448  22.686  28.515  1.00  0.00    -0.203 F 
ATOM     72  C   UNL A   1      41.764  21.325  27.601  1.00  0.00     0.198 A 
ATOM     73  C   UNL A   1      39.964  22.315  26.357  1.00  0.00     0.198 A 
ATOM     74  F   UNL A   1      39.913  24.641  25.997  1.00  0.00    -0.203 F 
ATOM     75  F   UNL A   1      42.403  20.238  28.055  1.00  0.00    -0.200 F 
ATOM     76  C   UNL A   1      40.594  21.190  26.870  1.00  0.00     0.200 A 
ATOM     77  F   UNL A   1      38.827  22.184  25.660  1.00  0.00    -0.200 F 
ATOM     78  F   UNL A   1      40.083  19.972  26.644  1.00  0.00    -0.200 F 
ENDBRANCH  54  68
BRANCH  55  79
ATOM     79  C   UNL A   1      45.474  32.766  28.622  1.00  0.00     0.064 A 
ATOM     80  C   UNL A   1      45.239  33.811  27.704  1.00  0.00     0.173 A 
ATOM     81  C   UNL A   1      46.429  33.012  29.620  1.00  0.00     0.173 A 
ATOM     82  F   UNL A   1      44.390  33.625  26.684  1.00  0.00    -0.203 F 
ATOM     83  C   UNL A   1      45.941  35.020  27.767  1.00  0.00     0.198 A 
ATOM     84  C   UNL A   1      47.110  34.233  29.701  1.00  0.00     0.198 A 
ATOM     85  F   UNL A   1      46.733  32.052  30.507  1.00  0.00    -0.203 F 
ATOM     86  F   UNL A   1      45.744  35.961  26.832  1.00  0.00    -0.200 F 
ATOM     87  C   UNL A   1      46.872  35.233  28.771  1.00  0.00     0.200 A 
ATOM     88  F   UNL A   1      48.015  34.432  30.670  1.00  0.00    -0.200 F 
ATOM     89  F   UNL A   1      47.551  36.388  28.828  1.00  0.00    -0.200 F 
ENDBRANCH  55  79
BRANCH  67  90
ATOM     90  C   UNL A   1      47.526  27.224  24.894  1.00  0.00     0.064 A 
ATOM     91  C   UNL A   1      47.546  27.670  23.565  1.00  0.00     0.173 A 
ATOM     92  C   UNL A   1      48.688  26.609  25.393  1.00  0.00     0.173 A 
ATOM     93  F   UNL A   1      46.465  28.263  23.035  1.00  0.00    -0.203 F 
ATOM     94  C   UNL A   1      48.676  27.498  22.767  1.00  0.00     0.198 A 
ATOM     95  C   UNL A   1      49.826  26.469  24.602  1.00  0.00     0.198 A 
ATOM     96  F   UNL A   1      48.733  26.176  26.662  1.00  0.00    -0.203 F 
ATOM     97  F   UNL A   1      48.660  27.907  21.490  1.00  0.00    -0.200 F 
ATOM     98  C   UNL A   1      49.818  26.909  23.288  1.00  0.00     0.200 A 
ATOM     99  F   UNL A   1      50.935  25.922  25.118  1.00  0.00    -0.200 F 
ATOM    100  F   UNL A   1      50.911  26.768  22.526  1.00  0.00    -0.200 F 
ENDBRANCH  67  90
ENDBRANCH  41  42
ENDBRANCH  33  36
ENDBRANCH  31  32
ENDBRANCH  30  31
ENDBRANCH   1  30
TORSDOF 15
ENDMDL
MODEL 3
REMARK VINA RESULT:     -16.2      4.930      7.311
REMARK SMILES COc1cc([C@@H]2[NH2+][C@H](C(=O)NCCCNC(=O)c3ccc(-c4c5nc(c(-c6c(F)c(F)c(F)c(F)c6F)c6ccc([nH]6)c(-c6c(F)c(F)c(F)c(F)c6F)c6nc(c(-c7c(F)c(F)c(F)c(F)c7F)c7ccc4[nH]7)C=C6)C=C5)cc3)CS2)ccc1OCc1ccc(Cl)cc1
REMARK SMILES IDX 12 1 11 2 9 3 10 4 8 6 6 7 7 8 82 9 81 12 5 13 3 14 4 15
REMARK SMILES IDX 85 16 84 17 83 18 2 19 1 20 86 21 87 22 88 23 89 24 94 25
REMARK SMILES IDX 90 26 93 27 91 28 92 29 13 30 14 31 15 32 16 33 17 35 18 36
REMARK SMILES IDX 19 37 80 38 20 39 79 40 21 41 22 42 23 43 73 44 24 45 78 46
REMARK SMILES IDX 72 47 74 48 25 49 77 50 71 51 70 52 26 54 58 55 38 56 57 57
REMARK SMILES IDX 39 58 42 59 56 60 75 61 40 62 41 63 55 65 76 66 43 67 27 68
REMARK SMILES IDX 28 69 36 70 29 71 30 72 34 73 37 74 31 75 32 76 35 77 33 78
REMARK SMILES IDX 59 79 60 80 68 81 61 82 62 83 66 84 69 85 63 86 64 87 67 88
REMARK SMILES IDX 65 89 44 90 45 91 53 92 46 93 47 94 51 95 54 96 48 97 49 98
REMARK SMILES IDX 52 99 50 100
REMARK H PARENT 11 5 7 10 7 11 15 34 74 53 42 64
REMARK Flexibility Score: inf
ROOT
ATOM      1  C   UNL A   1      33.928  32.334  28.530  1.00  0.00     0.118 C 
ENDROOT
BRANCH   1   2
ATOM      2  N   UNL A   1      34.398  30.963  28.536  1.00  0.00    -0.351 N 
ATOM      3  C   UNL A   1      34.371  30.090  27.465  1.00  0.00     0.279 C 
ATOM      4  O   UNL A   1      34.990  29.024  27.611  1.00  0.00    -0.268 OA
ATOM      5  H   UNL A   1      34.771  30.621  29.381  1.00  0.00     0.163 HD
BRANCH   3   6
ATOM      6  C   UNL A   1      33.556  30.295  26.134  1.00  0.00     0.283 C 
ATOM      7  C   UNL A   1      32.594  28.519  24.758  1.00  0.00     0.274 C 
ATOM      8  N   UNL A   1      33.800  29.346  25.013  1.00  0.00    -0.321 N 
ATOM      9  S   UNL A   1      31.176  29.530  25.118  1.00  0.00    -0.088 SA
ATOM     10  H   UNL A   1      34.028  29.874  24.170  1.00  0.00     0.348 HD
ATOM     11  H   UNL A   1      34.573  28.731  25.263  1.00  0.00     0.348 HD
ATOM     12  C   UNL A   1      32.050  30.427  26.423  1.00  0.00     0.151 C 
BRANCH   7  13
ATOM     13  C   UNL A   1      32.706  27.156  25.496  1.00  0.00     0.024 A 
ATOM     14  C   UNL A   1      31.337  25.290  25.271  1.00  0.00     0.161 A 
ATOM     15  C   UNL A   1      31.450  26.583  25.737  1.00  0.00     0.061 A 
ATOM     16  C   UNL A   1      32.691  24.379  24.934  1.00  0.00     0.161 A 
ATOM     17  C   UNL A   1      33.932  24.933  25.170  1.00  0.00     0.051 A 
ATOM     18  C   UNL A   1      33.908  26.338  25.416  1.00  0.00     0.015 A 
BRANCH  14  19
ATOM     19  O   UNL A   1      30.238  25.404  24.278  1.00  0.00    -0.493 OA
ATOM     20  C   UNL A   1      29.391  26.500  23.886  1.00  0.00     0.278 C 
ENDBRANCH  14  19
BRANCH  16  21
ATOM     21  O   UNL A   1      32.741  22.735  24.247  1.00  0.00    -0.485 OA
BRANCH  21  22
ATOM     22  C   UNL A   1      34.146  21.453  24.587  1.00  0.00     0.265 C 
BRANCH  22  23
ATOM     23  C   UNL A   1      36.074  21.946  24.695  1.00  0.00    -0.011 A 
ATOM     24  C   UNL A   1      37.164  21.029  24.840  1.00  0.00     0.009 A 
ATOM     25  C   UNL A   1      36.643  23.149  25.436  1.00  0.00     0.009 A 
ATOM     26  C   UNL A   1      38.437  21.234  25.527  1.00  0.00     0.021 A 
ATOM     27  C   UNL A   1      37.916  23.435  26.006  1.00  0.00     0.021 A 
ATOM     28  C   UNL A   1      38.822  22.436  26.076  1.00  0.00     0.041 A 
ATOM     29  Cl  UNL A   1      40.286  22.636  26.941  1.00  0.00    -0.084 Cl
ENDBRANCH  22  23
ENDBRANCH  21  22
ENDBRANCH  16  21
ENDBRANCH   7  13
ENDBRANCH   3   6
ENDBRANCH   1   2
BRANCH   1  30
ATOM     30  C   UNL A   1      34.916  33.540  28.201  1.00  0.00     0.042 C 
BRANCH  30  31
ATOM     31  C   UNL A   1      34.486  35.405  28.121  1.00  0.00     0.118 C 
BRANCH  31  32
ATOM     32  N   UNL A   1      33.290  36.491  29.280  1.00  0.00    -0.352 N 
ATOM     33  C   UNL A   1      33.284  36.862  31.057  1.00  0.00     0.251 C 
ATOM     34  H   UNL A   1      32.549  36.913  28.790  1.00  0.00     0.163 HD
ATOM     35  O   UNL A   1      32.840  37.926  31.391  1.00  0.00    -0.269 OA
BRANCH  33  36
ATOM     36  C   UNL A   1      33.652  35.567  32.426  1.00  0.00     0.039 A 
ATOM     37  C   UNL A   1      33.609  34.157  32.203  1.00  0.00     0.014 A 
ATOM     38  C   UNL A   1      34.597  35.743  33.471  1.00  0.00     0.014 A 
ATOM     39  C   UNL A   1      34.791  33.288  32.301  1.00  0.00     0.010 A 
ATOM     40  C   UNL A   1      35.821  34.953  33.521  1.00  0.00     0.010 A 
ATOM     41  C   UNL A   1      36.001  33.740  32.827  1.00  0.00    -0.014 A 
BRANCH  41  42
ATOM     42  C   UNL A   1      37.299  32.892  32.921  1.00  0.00     0.031 A 
ATOM     43  C   UNL A   1      38.188  33.158  34.126  1.00  0.00     0.074 A 
ATOM     44  C   UNL A   1      37.786  31.949  32.052  1.00  0.00     0.049 A 
ATOM     45  N   UNL A   1      39.314  32.596  34.501  1.00  0.00    -0.248 NA
ATOM     46  C   UNL A   1      37.756  34.250  35.008  1.00  0.00     0.031 C 
ATOM     47  C   UNL A   1      37.201  31.537  30.779  1.00  0.00     0.029 A 
ATOM     48  N   UNL A   1      38.935  31.144  32.112  1.00  0.00    -0.354 N 
ATOM     49  C   UNL A   1      39.694  33.265  35.658  1.00  0.00     0.074 A 
ATOM     50  C   UNL A   1      38.782  34.369  35.826  1.00  0.00     0.031 C 
ATOM     51  C   UNL A   1      37.957  30.578  30.196  1.00  0.00     0.029 A 
ATOM     52  C   UNL A   1      39.103  30.260  31.051  1.00  0.00     0.049 A 
ATOM     53  H   UNL A   1      39.578  31.202  32.853  1.00  0.00     0.167 HD
ATOM     54  C   UNL A   1      40.644  32.967  36.575  1.00  0.00     0.037 A 
ATOM     55  C   UNL A   1      40.033  29.297  30.796  1.00  0.00     0.037 A 
ATOM     56  C   UNL A   1      41.570  31.879  36.487  1.00  0.00     0.049 A 
ATOM     57  C   UNL A   1      41.145  29.007  31.800  1.00  0.00     0.074 A 
ATOM     58  C   UNL A   1      42.525  31.489  37.408  1.00  0.00     0.029 A 
ATOM     59  N   UNL A   1      41.672  31.019  35.409  1.00  0.00    -0.354 N 
ATOM     60  N   UNL A   1      41.377  29.560  32.965  1.00  0.00    -0.248 NA
ATOM     61  C   UNL A   1      42.113  27.939  31.464  1.00  0.00     0.031 C 
ATOM     62  C   UNL A   1      43.251  30.429  36.859  1.00  0.00     0.029 A 
ATOM     63  C   UNL A   1      42.700  30.117  35.629  1.00  0.00     0.049 A 
ATOM     64  H   UNL A   1      41.100  31.043  34.608  1.00  0.00     0.167 HD
ATOM     65  C   UNL A   1      42.465  28.880  33.513  1.00  0.00     0.074 A 
ATOM     66  C   UNL A   1      42.854  27.868  32.562  1.00  0.00     0.031 C 
ATOM     67  C   UNL A   1      43.078  29.081  34.705  1.00  0.00     0.037 A 
BRANCH  54  68
ATOM     68  C   UNL A   1      40.684  33.842  37.794  1.00  0.00     0.064 A 
ATOM     69  C   UNL A   1      39.880  33.566  38.915  1.00  0.00     0.173 A 
ATOM     70  C   UNL A   1      41.494  34.984  37.830  1.00  0.00     0.173 A 
ATOM     71  F   UNL A   1      39.068  32.497  38.917  1.00  0.00    -0.203 F 
ATOM     72  C   UNL A   1      39.839  34.437  39.997  1.00  0.00     0.198 A 
ATOM     73  C   UNL A   1      41.483  35.829  38.935  1.00  0.00     0.198 A 
ATOM     74  F   UNL A   1      42.281  35.289  36.787  1.00  0.00    -0.203 F 
ATOM     75  F   UNL A   1      38.991  34.205  41.008  1.00  0.00    -0.200 F 
ATOM     76  C   UNL A   1      40.644  35.565  40.008  1.00  0.00     0.200 A 
ATOM     77  F   UNL A   1      42.269  36.914  38.952  1.00  0.00    -0.200 F 
ATOM     78  F   UNL A   1      40.599  36.409  41.049  1.00  0.00    -0.200 F 
ENDBRANCH  54  68
BRANCH  55  79
ATOM     79  C   UNL A   1      39.987  28.444  29.551  1.00  0.00     0.064 A 
ATOM     80  C   UNL A   1      39.364  27.179  29.551  1.00  0.00     0.173 A 
ATOM     81  C   UNL A   1      40.676  28.803  28.382  1.00  0.00     0.173 A 
ATOM     82  F   UNL A   1      38.743  26.741  30.655  1.00  0.00    -0.203 F 
ATOM     83  C   UNL A   1      39.451  26.314  28.453  1.00  0.00     0.198 A 
ATOM     84  C   UNL A   1      40.738  27.949  27.274  1.00  0.00     0.198 A 
ATOM     85  F   UNL A   1      41.325  29.976  28.321  1.00  0.00    -0.203 F 
ATOM     86  F   UNL A   1      38.909  25.089  28.519  1.00  0.00    -0.200 F 
ATOM     87  C   UNL A   1      40.133  26.703  27.313  1.00  0.00     0.200 A 
ATOM     88  F   UNL A   1      41.405  28.328  26.174  1.00  0.00    -0.200 F 
ATOM     89  F   UNL A   1      40.225  25.872  26.264  1.00  0.00    -0.200 F 
ENDBRANCH  55  79
BRANCH  67  90
ATOM     90  C   UNL A   1      44.205  28.171  35.114  1.00  0.00     0.064 A 
ATOM     91  C   UNL A   1      43.981  26.968  35.797  1.00  0.00     0.173 A 
ATOM     92  C   UNL A   1      45.522  28.458  34.714  1.00  0.00     0.173 A 
ATOM     93  F   UNL A   1      42.744  26.643  36.205  1.00  0.00    -0.203 F 
ATOM     94  C   UNL A   1      45.030  26.094  36.078  1.00  0.00     0.198 A 
ATOM     95  C   UNL A   1      46.563  27.567  34.967  1.00  0.00     0.198 A 
ATOM     96  F   UNL A   1      45.795  29.587  34.043  1.00  0.00    -0.203 F 
ATOM     97  F   UNL A   1      44.795  24.963  36.759  1.00  0.00    -0.200 F 
ATOM     98  C   UNL A   1      46.317  26.388  35.653  1.00  0.00     0.200 A 
ATOM     99  F   UNL A   1      47.800  27.843  34.532  1.00  0.00    -0.200 F 
ATOM    100  F   UNL A   1      47.320  25.535  35.901  1.00  0.00    -0.200 F 
ENDBRANCH  67  90
ENDBRANCH  41  42
ENDBRANCH  33  36
ENDBRANCH  31  32
ENDBRANCH  30  31
ENDBRANCH   1  30
TORSDOF 15
ENDMDL
