MODEL 1
REMARK VINA RESULT:     -12.6      0.000      0.000
REMARK SMILES O=C(Cc1cccc(-c2ccn(C(F)F)c(=O)c2)c1)NCCCNC(=O)c1ccc(-c2c3nc(c(-c4c(F)c(F)c(F)c(F)c4F)c4ccc([nH]4)c(-c4c(F)c(F)c(F)c(F)c4F)c4nc(c(-c5c(F)c(F)c(F)c(F)c5F)c5ccc2[nH]5)C=C4)C=C3)cc1
REMARK SMILES IDX 21 1 20 2 1 3 2 4 3 6 4 7 5 8 19 9 6 10 8 11 7 12 9 13 10 14
REMARK SMILES IDX 18 15 11 16 16 17 12 18 17 19 13 20 14 21 15 22 22 23 23 24
REMARK SMILES IDX 24 25 25 26 26 28 27 29 28 30 89 31 29 32 88 33 30 34 31 35
REMARK SMILES IDX 32 36 82 37 33 38 87 39 81 40 83 41 34 42 86 43 80 44 79 45
REMARK SMILES IDX 35 47 67 48 47 49 66 50 48 51 51 52 65 53 84 54 49 55 50 56
REMARK SMILES IDX 64 58 85 59 52 60 36 61 37 62 45 63 38 64 39 65 43 66 46 67
REMARK SMILES IDX 40 68 41 69 44 70 42 71 68 72 69 73 77 74 70 75 71 76 75 77
REMARK SMILES IDX 78 78 72 79 73 80 76 81 74 82 53 83 54 84 62 85 55 86 56 87
REMARK SMILES IDX 60 88 63 89 57 90 58 91 61 92 59 93
REMARK H PARENT 20 5 24 27 83 46 51 57
REMARK Flexibility Score: inf
ROOT
ATOM      1  C   UNL A   1      31.670  30.537  26.535  1.00  0.00     0.117 C 
ENDROOT
BRANCH   1   2
ATOM      2  N   UNL A   1      32.104  30.163  25.205  1.00  0.00    -0.356 N 
ATOM      3  O   UNL A   1      34.025  29.081  25.862  1.00  0.00    -0.275 OA
ATOM      4  C   UNL A   1      33.223  29.385  24.985  1.00  0.00     0.224 C 
ATOM      5  H   UNL A   1      31.583  30.475  24.430  1.00  0.00     0.163 HD
BRANCH   4   6
ATOM      6  C   UNL A   1      33.367  28.924  23.546  1.00  0.00     0.135 C 
BRANCH   6   7
ATOM      7  C   UNL A   1      32.868  27.523  23.253  1.00  0.00    -0.038 A 
ATOM      8  C   UNL A   1      31.632  27.241  22.652  1.00  0.00     0.004 A 
ATOM      9  C   UNL A   1      33.703  26.442  23.582  1.00  0.00     0.013 A 
ATOM     10  C   UNL A   1      31.247  25.928  22.377  1.00  0.00     0.001 A 
ATOM     11  C   UNL A   1      33.309  25.116  23.342  1.00  0.00    -0.018 A 
ATOM     12  C   UNL A   1      32.080  24.869  22.725  1.00  0.00     0.009 A 
BRANCH  11  13
ATOM     13  C   UNL A   1      34.154  24.006  23.819  1.00  0.00    -0.011 A 
ATOM     14  C   UNL A   1      33.784  22.620  23.600  1.00  0.00     0.027 A 
ATOM     15  C   UNL A   1      35.301  24.281  24.463  1.00  0.00     0.080 A 
ATOM     16  C   UNL A   1      34.568  21.628  24.030  1.00  0.00     0.095 A 
ATOM     17  C   UNL A   1      36.188  23.185  24.948  1.00  0.00     0.255 A 
ATOM     18  N   UNL A   1      35.751  21.895  24.693  1.00  0.00    -0.258 N 
ATOM     19  O   UNL A   1      37.226  23.487  25.527  1.00  0.00    -0.269 OA
BRANCH  18  20
ATOM     20  C   UNL A   1      36.584  20.817  25.158  1.00  0.00     0.451 C 
ATOM     21  F   UNL A   1      35.960  19.622  25.023  1.00  0.00    -0.185 F 
ATOM     22  F   UNL A   1      37.746  20.767  24.463  1.00  0.00    -0.185 F 
ENDBRANCH  18  20
ENDBRANCH  11  13
ENDBRANCH   6   7
ENDBRANCH   4   6
ENDBRANCH   1   2
BRANCH   1  23
ATOM     23  C   UNL A   1      31.474  32.037  26.681  1.00  0.00     0.042 C 
BRANCH  23  24
ATOM     24  C   UNL A   1      32.647  32.770  27.320  1.00  0.00     0.118 C 
BRANCH  24  25
ATOM     25  N   UNL A   1      32.358  34.158  27.652  1.00  0.00    -0.352 N 
ATOM     26  C   UNL A   1      32.961  34.980  28.576  1.00  0.00     0.251 C 
ATOM     27  H   UNL A   1      31.624  34.568  27.141  1.00  0.00     0.163 HD
ATOM     28  O   UNL A   1      32.495  36.093  28.801  1.00  0.00    -0.269 OA
BRANCH  26  29
ATOM     29  C   UNL A   1      34.147  34.514  29.327  1.00  0.00     0.039 A 
ATOM     30  C   UNL A   1      33.960  33.935  30.586  1.00  0.00     0.014 A 
ATOM     31  C   UNL A   1      35.432  34.629  28.794  1.00  0.00     0.014 A 
ATOM     32  C   UNL A   1      35.053  33.399  31.271  1.00  0.00     0.010 A 
ATOM     33  C   UNL A   1      36.507  34.022  29.439  1.00  0.00     0.010 A 
ATOM     34  C   UNL A   1      36.329  33.397  30.683  1.00  0.00    -0.014 A 
BRANCH  34  35
ATOM     35  C   UNL A   1      37.484  32.732  31.343  1.00  0.00     0.031 A 
ATOM     36  C   UNL A   1      38.158  31.558  30.689  1.00  0.00     0.074 A 
ATOM     37  C   UNL A   1      37.880  33.140  32.564  1.00  0.00     0.049 A 
ATOM     38  N   UNL A   1      39.120  30.795  31.144  1.00  0.00    -0.248 NA
ATOM     39  C   UNL A   1      37.668  31.173  29.356  1.00  0.00     0.031 C 
ATOM     40  C   UNL A   1      37.281  34.237  33.325  1.00  0.00     0.029 A 
ATOM     41  N   UNL A   1      38.871  32.668  33.390  1.00  0.00    -0.354 N 
ATOM     42  C   UNL A   1      39.340  29.837  30.163  1.00  0.00     0.074 A 
ATOM     43  C   UNL A   1      38.373  30.079  29.113  1.00  0.00     0.031 C 
ATOM     44  C   UNL A   1      37.928  34.368  34.493  1.00  0.00     0.029 A 
ATOM     45  C   UNL A   1      38.957  33.337  34.586  1.00  0.00     0.049 A 
ATOM     46  H   UNL A   1      39.464  31.920  33.147  1.00  0.00     0.167 HD
ATOM     47  C   UNL A   1      40.275  28.858  30.131  1.00  0.00     0.037 A 
ATOM     48  C   UNL A   1      39.765  33.135  35.645  1.00  0.00     0.037 A 
ATOM     49  C   UNL A   1      41.248  28.632  31.169  1.00  0.00     0.049 A 
ATOM     50  C   UNL A   1      40.782  32.026  35.594  1.00  0.00     0.074 A 
ATOM     51  C   UNL A   1      42.274  27.704  31.201  1.00  0.00     0.029 A 
ATOM     52  N   UNL A   1      41.310  29.339  32.361  1.00  0.00    -0.354 N 
ATOM     53  N   UNL A   1      41.026  31.170  34.631  1.00  0.00    -0.248 NA
ATOM     54  C   UNL A   1      41.640  31.858  36.775  1.00  0.00     0.031 C 
ATOM     55  C   UNL A   1      42.923  27.811  32.435  1.00  0.00     0.029 A 
ATOM     56  C   UNL A   1      42.341  28.848  33.148  1.00  0.00     0.049 A 
ATOM     57  H   UNL A   1      40.712  30.079  32.611  1.00  0.00     0.167 HD
ATOM     58  C   UNL A   1      42.082  30.385  35.075  1.00  0.00     0.074 A 
ATOM     59  C   UNL A   1      42.441  30.875  36.389  1.00  0.00     0.031 C 
ATOM     60  C   UNL A   1      42.697  29.351  34.451  1.00  0.00     0.037 A 
BRANCH  47  61
ATOM     61  C   UNL A   1      40.294  27.952  28.933  1.00  0.00     0.064 A 
ATOM     62  C   UNL A   1      41.034  28.267  27.782  1.00  0.00     0.173 A 
ATOM     63  C   UNL A   1      39.598  26.734  28.950  1.00  0.00     0.173 A 
ATOM     64  F   UNL A   1      41.709  29.423  27.708  1.00  0.00    -0.203 F 
ATOM     65  C   UNL A   1      41.048  27.412  26.683  1.00  0.00     0.198 A 
ATOM     66  C   UNL A   1      39.643  25.866  27.863  1.00  0.00     0.198 A 
ATOM     67  F   UNL A   1      38.881  26.380  30.028  1.00  0.00    -0.203 F 
ATOM     68  F   UNL A   1      41.719  27.759  25.576  1.00  0.00    -0.200 F 
ATOM     69  C   UNL A   1      40.361  26.209  26.728  1.00  0.00     0.200 A 
ATOM     70  F   UNL A   1      38.990  24.696  27.914  1.00  0.00    -0.200 F 
ATOM     71  F   UNL A   1      40.384  25.382  25.672  1.00  0.00    -0.200 F 
ENDBRANCH  47  61
BRANCH  48  72
ATOM     72  C   UNL A   1      39.658  34.011  36.842  1.00  0.00     0.064 A 
ATOM     73  C   UNL A   1      40.355  35.225  36.911  1.00  0.00     0.173 A 
ATOM     74  C   UNL A   1      38.868  33.650  37.943  1.00  0.00     0.173 A 
ATOM     75  F   UNL A   1      41.140  35.604  35.892  1.00  0.00    -0.203 F 
ATOM     76  C   UNL A   1      40.284  36.034  38.043  1.00  0.00     0.198 A 
ATOM     77  C   UNL A   1      38.773  34.475  39.063  1.00  0.00     0.198 A 
ATOM     78  F   UNL A   1      38.177  32.501  37.928  1.00  0.00    -0.203 F 
ATOM     79  F   UNL A   1      41.001  37.164  38.103  1.00  0.00    -0.200 F 
ATOM     80  C   UNL A   1      39.489  35.661  39.116  1.00  0.00     0.200 A 
ATOM     81  F   UNL A   1      37.991  34.117  40.091  1.00  0.00    -0.200 F 
ATOM     82  F   UNL A   1      39.419  36.440  40.204  1.00  0.00    -0.200 F 
ENDBRANCH  48  72
BRANCH  60  83
ATOM     83  C   UNL A   1      43.854  28.705  35.158  1.00  0.00     0.064 A 
ATOM     84  C   UNL A   1      43.672  27.630  36.041  1.00  0.00     0.173 A 
ATOM     85  C   UNL A   1      45.165  29.137  34.911  1.00  0.00     0.173 A 
ATOM     86  F   UNL A   1      42.438  27.187  36.322  1.00  0.00    -0.203 F 
ATOM     87  C   UNL A   1      44.760  27.029  36.669  1.00  0.00     0.198 A 
ATOM     88  C   UNL A   1      46.253  28.512  35.515  1.00  0.00     0.198 A 
ATOM     89  F   UNL A   1      45.395  30.157  34.069  1.00  0.00    -0.203 F 
ATOM     90  F   UNL A   1      44.560  26.035  37.546  1.00  0.00    -0.200 F 
ATOM     91  C   UNL A   1      46.049  27.464  36.399  1.00  0.00     0.200 A 
ATOM     92  F   UNL A   1      47.498  28.925  35.240  1.00  0.00    -0.200 F 
ATOM     93  F   UNL A   1      47.096  26.877  36.996  1.00  0.00    -0.200 F 
ENDBRANCH  60  83
ENDBRANCH  34  35
ENDBRANCH  26  29
ENDBRANCH  24  25
ENDBRANCH  23  24
ENDBRANCH   1  23
TORSDOF 13
ENDMDL
MODEL 2
REMARK VINA RESULT:     -12.5      3.918      6.804
REMARK SMILES O=C(Cc1cccc(-c2ccn(C(F)F)c(=O)c2)c1)NCCCNC(=O)c1ccc(-c2c3nc(c(-c4c(F)c(F)c(F)c(F)c4F)c4ccc([nH]4)c(-c4c(F)c(F)c(F)c(F)c4F)c4nc(c(-c5c(F)c(F)c(F)c(F)c5F)c5ccc2[nH]5)C=C4)C=C3)cc1
REMARK SMILES IDX 21 1 20 2 1 3 2 4 3 6 4 7 5 8 19 9 6 10 8 11 7 12 9 13 10 14
REMARK SMILES IDX 18 15 11 16 16 17 12 18 17 19 13 20 14 21 15 22 22 23 23 24
REMARK SMILES IDX 24 25 25 26 26 28 27 29 28 30 89 31 29 32 88 33 30 34 31 35
REMARK SMILES IDX 32 36 82 37 33 38 87 39 81 40 83 41 34 42 86 43 80 44 79 45
REMARK SMILES IDX 35 47 67 48 47 49 66 50 48 51 51 52 65 53 84 54 49 55 50 56
REMARK SMILES IDX 64 58 85 59 52 60 36 61 37 62 45 63 38 64 39 65 43 66 46 67
REMARK SMILES IDX 40 68 41 69 44 70 42 71 68 72 69 73 77 74 70 75 71 76 75 77
REMARK SMILES IDX 78 78 72 79 73 80 76 81 74 82 53 83 54 84 62 85 55 86 56 87
REMARK SMILES IDX 60 88 63 89 57 90 58 91 61 92 59 93
REMARK H PARENT 20 5 24 27 83 46 51 57
REMARK Flexibility Score: inf
ROOT
ATOM      1  C   UNL A   1      32.711  36.237  32.679  1.00  0.00     0.117 C 
ENDROOT
BRANCH   1   2
ATOM      2  N   UNL A   1      33.302  34.936  32.918  1.00  0.00    -0.356 N 
ATOM      3  O   UNL A   1      35.477  35.670  33.066  1.00  0.00    -0.275 OA
ATOM      4  C   UNL A   1      34.648  34.773  33.173  1.00  0.00     0.224 C 
ATOM      5  H   UNL A   1      32.722  34.141  32.896  1.00  0.00     0.163 HD
BRANCH   4   6
ATOM      6  C   UNL A   1      35.015  33.368  33.618  1.00  0.00     0.135 C 
BRANCH   6   7
ATOM      7  C   UNL A   1      36.296  33.247  34.420  1.00  0.00    -0.038 A 
ATOM      8  C   UNL A   1      36.730  34.201  35.351  1.00  0.00     0.004 A 
ATOM      9  C   UNL A   1      37.083  32.098  34.235  1.00  0.00     0.013 A 
ATOM     10  C   UNL A   1      37.903  34.010  36.083  1.00  0.00     0.001 A 
ATOM     11  C   UNL A   1      38.283  31.914  34.940  1.00  0.00    -0.018 A 
ATOM     12  C   UNL A   1      38.680  32.874  35.876  1.00  0.00     0.009 A 
BRANCH  11  13
ATOM     13  C   UNL A   1      39.147  30.762  34.625  1.00  0.00    -0.011 A 
ATOM     14  C   UNL A   1      40.372  30.508  35.358  1.00  0.00     0.027 A 
ATOM     15  C   UNL A   1      38.787  29.919  33.643  1.00  0.00     0.080 A 
ATOM     16  C   UNL A   1      41.136  29.451  35.065  1.00  0.00     0.095 A 
ATOM     17  C   UNL A   1      39.627  28.735  33.304  1.00  0.00     0.255 A 
ATOM     18  N   UNL A   1      40.779  28.575  34.058  1.00  0.00    -0.258 N 
ATOM     19  O   UNL A   1      39.255  27.993  32.401  1.00  0.00    -0.269 OA
BRANCH  18  20
ATOM     20  C   UNL A   1      41.614  27.444  33.747  1.00  0.00     0.451 C 
ATOM     21  F   UNL A   1      42.896  27.662  34.128  1.00  0.00    -0.185 F 
ATOM     22  F   UNL A   1      41.172  26.327  34.373  1.00  0.00    -0.185 F 
ENDBRANCH  18  20
ENDBRANCH  11  13
ENDBRANCH   6   7
ENDBRANCH   4   6
ENDBRANCH   1   2
BRANCH   1  23
ATOM     23  C   UNL A   1      32.148  36.370  31.274  1.00  0.00     0.042 C 
BRANCH  23  24
ATOM     24  C   UNL A   1      33.162  36.137  30.160  1.00  0.00     0.118 C 
BRANCH  24  25
ATOM     25  N   UNL A   1      32.730  35.159  29.171  1.00  0.00    -0.352 N 
ATOM     26  C   UNL A   1      33.407  34.076  28.659  1.00  0.00     0.251 C 
ATOM     27  H   UNL A   1      31.822  35.292  28.818  1.00  0.00     0.163 HD
ATOM     28  O   UNL A   1      32.920  33.431  27.735  1.00  0.00    -0.269 OA
BRANCH  26  29
ATOM     29  C   UNL A   1      34.736  33.708  29.193  1.00  0.00     0.039 A 
ATOM     30  C   UNL A   1      34.817  32.698  30.156  1.00  0.00     0.014 A 
ATOM     31  C   UNL A   1      35.898  34.338  28.740  1.00  0.00     0.014 A 
ATOM     32  C   UNL A   1      36.068  32.265  30.603  1.00  0.00     0.010 A 
ATOM     33  C   UNL A   1      37.144  33.850  29.124  1.00  0.00     0.010 A 
ATOM     34  C   UNL A   1      37.244  32.805  30.056  1.00  0.00    -0.014 A 
BRANCH  34  35
ATOM     35  C   UNL A   1      38.584  32.282  30.434  1.00  0.00     0.031 A 
ATOM     36  C   UNL A   1      39.078  30.982  29.862  1.00  0.00     0.074 A 
ATOM     37  C   UNL A   1      39.325  32.940  31.346  1.00  0.00     0.049 A 
ATOM     38  N   UNL A   1      40.176  30.321  30.134  1.00  0.00    -0.248 NA
ATOM     39  C   UNL A   1      38.211  30.323  28.874  1.00  0.00     0.031 C 
ATOM     40  C   UNL A   1      38.940  34.188  32.008  1.00  0.00     0.029 A 
ATOM     41  N   UNL A   1      40.552  32.644  31.887  1.00  0.00    -0.354 N 
ATOM     42  C   UNL A   1      40.124  29.168  29.362  1.00  0.00     0.074 A 
ATOM     43  C   UNL A   1      38.861  29.190  28.654  1.00  0.00     0.031 C 
ATOM     44  C   UNL A   1      39.917  34.560  32.848  1.00  0.00     0.029 A 
ATOM     45  C   UNL A   1      40.977  33.558  32.821  1.00  0.00     0.049 A 
ATOM     46  H   UNL A   1      41.077  31.852  31.631  1.00  0.00     0.167 HD
ATOM     47  C   UNL A   1      41.053  28.190  29.239  1.00  0.00     0.037 A 
ATOM     48  C   UNL A   1      42.091  33.579  33.580  1.00  0.00     0.037 A 
ATOM     49  C   UNL A   1      42.317  28.181  29.930  1.00  0.00     0.049 A 
ATOM     50  C   UNL A   1      43.097  32.468  33.440  1.00  0.00     0.074 A 
ATOM     51  C   UNL A   1      43.349  27.266  29.826  1.00  0.00     0.029 A 
ATOM     52  N   UNL A   1      42.716  29.131  30.859  1.00  0.00    -0.354 N 
ATOM     53  N   UNL A   1      43.069  31.418  32.655  1.00  0.00    -0.248 NA
ATOM     54  C   UNL A   1      44.295  32.549  34.288  1.00  0.00     0.031 C 
ATOM     55  C   UNL A   1      44.350  27.629  30.732  1.00  0.00     0.029 A 
ATOM     56  C   UNL A   1      43.969  28.806  31.356  1.00  0.00     0.049 A 
ATOM     57  H   UNL A   1      42.189  29.918  31.125  1.00  0.00     0.167 HD
ATOM     58  C   UNL A   1      44.253  30.732  32.891  1.00  0.00     0.074 A 
ATOM     59  C   UNL A   1      44.985  31.492  33.883  1.00  0.00     0.031 C 
ATOM     60  C   UNL A   1      44.693  29.577  32.336  1.00  0.00     0.037 A 
BRANCH  47  61
ATOM     61  C   UNL A   1      40.740  27.044  28.320  1.00  0.00     0.064 A 
ATOM     62  C   UNL A   1      39.780  26.074  28.651  1.00  0.00     0.173 A 
ATOM     63  C   UNL A   1      41.377  26.934  27.075  1.00  0.00     0.173 A 
ATOM     64  F   UNL A   1      39.148  26.125  29.834  1.00  0.00    -0.203 F 
ATOM     65  C   UNL A   1      39.494  25.023  27.785  1.00  0.00     0.198 A 
ATOM     66  C   UNL A   1      41.064  25.901  26.197  1.00  0.00     0.198 A 
ATOM     67  F   UNL A   1      42.298  27.837  26.705  1.00  0.00    -0.203 F 
ATOM     68  F   UNL A   1      38.611  24.081  28.146  1.00  0.00    -0.200 F 
ATOM     69  C   UNL A   1      40.129  24.942  26.555  1.00  0.00     0.200 A 
ATOM     70  F   UNL A   1      41.668  25.833  25.001  1.00  0.00    -0.200 F 
ATOM     71  F   UNL A   1      39.845  23.934  25.718  1.00  0.00    -0.200 F 
ENDBRANCH  47  61
BRANCH  48  72
ATOM     72  C   UNL A   1      42.322  34.698  34.532  1.00  0.00     0.064 A 
ATOM     73  C   UNL A   1      42.776  35.945  34.082  1.00  0.00     0.173 A 
ATOM     74  C   UNL A   1      42.105  34.542  35.909  1.00  0.00     0.173 A 
ATOM     75  F   UNL A   1      43.018  36.137  32.777  1.00  0.00    -0.203 F 
ATOM     76  C   UNL A   1      43.026  36.986  34.973  1.00  0.00     0.198 A 
ATOM     77  C   UNL A   1      42.325  35.593  36.797  1.00  0.00     0.198 A 
ATOM     78  F   UNL A   1      41.667  33.370  36.393  1.00  0.00    -0.203 F 
ATOM     79  F   UNL A   1      43.508  38.151  34.521  1.00  0.00    -0.200 F 
ATOM     80  C   UNL A   1      42.796  36.811  36.329  1.00  0.00     0.200 A 
ATOM     81  F   UNL A   1      42.087  35.424  38.104  1.00  0.00    -0.200 F 
ATOM     82  F   UNL A   1      43.033  37.813  37.186  1.00  0.00    -0.200 F 
ENDBRANCH  48  72
BRANCH  60  83
ATOM     83  C   UNL A   1      46.049  29.081  32.753  1.00  0.00     0.064 A 
ATOM     84  C   UNL A   1      46.235  28.342  33.930  1.00  0.00     0.173 A 
ATOM     85  C   UNL A   1      47.167  29.309  31.936  1.00  0.00     0.173 A 
ATOM     86  F   UNL A   1      45.202  28.108  34.752  1.00  0.00    -0.203 F 
ATOM     87  C   UNL A   1      47.497  27.872  34.287  1.00  0.00     0.198 A 
ATOM     88  C   UNL A   1      48.421  28.810  32.279  1.00  0.00     0.198 A 
ATOM     89  F   UNL A   1      47.042  30.005  30.795  1.00  0.00    -0.203 F 
ATOM     90  F   UNL A   1      47.661  27.210  35.440  1.00  0.00    -0.200 F 
ATOM     91  C   UNL A   1      48.586  28.098  33.458  1.00  0.00     0.200 A 
ATOM     92  F   UNL A   1      49.467  29.016  31.468  1.00  0.00    -0.200 F 
ATOM     93  F   UNL A   1      49.797  27.635  33.797  1.00  0.00    -0.200 F 
ENDBRANCH  60  83
ENDBRANCH  34  35
ENDBRANCH  26  29
ENDBRANCH  24  25
ENDBRANCH  23  24
ENDBRANCH   1  23
TORSDOF 13
ENDMDL
MODEL 3
REMARK VINA RESULT:     -12.5      2.269      3.338
REMARK SMILES O=C(Cc1cccc(-c2ccn(C(F)F)c(=O)c2)c1)NCCCNC(=O)c1ccc(-c2c3nc(c(-c4c(F)c(F)c(F)c(F)c4F)c4ccc([nH]4)c(-c4c(F)c(F)c(F)c(F)c4F)c4nc(c(-c5c(F)c(F)c(F)c(F)c5F)c5ccc2[nH]5)C=C4)C=C3)cc1
REMARK SMILES IDX 21 1 20 2 1 3 2 4 3 6 4 7 5 8 19 9 6 10 8 11 7 12 9 13 10 14
REMARK SMILES IDX 18 15 11 16 16 17 12 18 17 19 13 20 14 21 15 22 22 23 23 24
REMARK SMILES IDX 24 25 25 26 26 28 27 29 28 30 89 31 29 32 88 33 30 34 31 35
REMARK SMILES IDX 32 36 82 37 33 38 87 39 81 40 83 41 34 42 86 43 80 44 79 45
REMARK SMILES IDX 35 47 67 48 47 49 66 50 48 51 51 52 65 53 84 54 49 55 50 56
REMARK SMILES IDX 64 58 85 59 52 60 36 61 37 62 45 63 38 64 39 65 43 66 46 67
REMARK SMILES IDX 40 68 41 69 44 70 42 71 68 72 69 73 77 74 70 75 71 76 75 77
REMARK SMILES IDX 78 78 72 79 73 80 76 81 74 82 53 83 54 84 62 85 55 86 56 87
REMARK SMILES IDX 60 88 63 89 57 90 58 91 61 92 59 93
REMARK H PARENT 20 5 24 27 83 46 51 57
REMARK Flexibility Score: inf
ROOT
ATOM      1  C   UNL A   1      32.621  28.622  23.228  1.00  0.00     0.117 C 
ENDROOT
BRANCH   1   2
ATOM      2  N   UNL A   1      32.296  27.210  23.227  1.00  0.00    -0.356 N 
ATOM      3  O   UNL A   1      33.844  26.598  21.640  1.00  0.00    -0.275 OA
ATOM      4  C   UNL A   1      33.002  26.291  22.477  1.00  0.00     0.224 C 
ATOM      5  H   UNL A   1      31.544  26.896  23.780  1.00  0.00     0.163 HD
BRANCH   4   6
ATOM      6  C   UNL A   1      32.647  24.850  22.794  1.00  0.00     0.135 C 
BRANCH   6   7
ATOM      7  C   UNL A   1      33.544  24.160  23.804  1.00  0.00    -0.038 A 
ATOM      8  C   UNL A   1      34.420  24.838  24.665  1.00  0.00     0.004 A 
ATOM      9  C   UNL A   1      33.476  22.760  23.898  1.00  0.00     0.013 A 
ATOM     10  C   UNL A   1      35.193  24.144  25.597  1.00  0.00     0.001 A 
ATOM     11  C   UNL A   1      34.276  22.051  24.808  1.00  0.00    -0.018 A 
ATOM     12  C   UNL A   1      35.126  22.756  25.666  1.00  0.00     0.009 A 
BRANCH  11  13
ATOM     13  C   UNL A   1      34.274  20.577  24.788  1.00  0.00    -0.011 A 
ATOM     14  C   UNL A   1      35.506  19.816  24.710  1.00  0.00     0.027 A 
ATOM     15  C   UNL A   1      33.104  19.919  24.855  1.00  0.00     0.080 A 
ATOM     16  C   UNL A   1      35.483  18.480  24.705  1.00  0.00     0.095 A 
ATOM     17  C   UNL A   1      33.062  18.429  24.852  1.00  0.00     0.255 A 
ATOM     18  N   UNL A   1      34.288  17.790  24.774  1.00  0.00    -0.258 N 
ATOM     19  O   UNL A   1      31.969  17.875  24.917  1.00  0.00    -0.269 OA
BRANCH  18  20
ATOM     20  C   UNL A   1      34.277  16.350  24.760  1.00  0.00     0.451 C 
ATOM     21  F   UNL A   1      34.185  15.873  23.496  1.00  0.00    -0.185 F 
ATOM     22  F   UNL A   1      35.406  15.850  25.318  1.00  0.00    -0.185 F 
ENDBRANCH  18  20
ENDBRANCH  11  13
ENDBRANCH   6   7
ENDBRANCH   4   6
ENDBRANCH   1   2
BRANCH   1  23
ATOM     23  C   UNL A   1      33.534  29.006  24.380  1.00  0.00     0.042 C 
BRANCH  23  24
ATOM     24  C   UNL A   1      32.849  29.065  25.741  1.00  0.00     0.118 C 
BRANCH  24  25
ATOM     25  N   UNL A   1      32.456  30.409  26.139  1.00  0.00    -0.352 N 
ATOM     26  C   UNL A   1      33.074  31.280  27.007  1.00  0.00     0.251 C 
ATOM     27  H   UNL A   1      31.627  30.743  25.728  1.00  0.00     0.163 HD
ATOM     28  O   UNL A   1      32.523  32.333  27.313  1.00  0.00    -0.269 OA
BRANCH  26  29
ATOM     29  C   UNL A   1      34.384  30.935  27.601  1.00  0.00     0.039 A 
ATOM     30  C   UNL A   1      35.336  31.946  27.762  1.00  0.00     0.014 A 
ATOM     31  C   UNL A   1      34.671  29.632  28.013  1.00  0.00     0.014 A 
ATOM     32  C   UNL A   1      36.542  31.667  28.409  1.00  0.00     0.010 A 
ATOM     33  C   UNL A   1      35.837  29.374  28.731  1.00  0.00     0.010 A 
ATOM     34  C   UNL A   1      36.783  30.389  28.940  1.00  0.00    -0.014 A 
BRANCH  34  35
ATOM     35  C   UNL A   1      38.009  30.098  29.731  1.00  0.00     0.031 A 
ATOM     36  C   UNL A   1      39.055  29.162  29.192  1.00  0.00     0.074 A 
ATOM     37  C   UNL A   1      38.146  30.621  30.965  1.00  0.00     0.049 A 
ATOM     38  N   UNL A   1      40.146  28.719  29.765  1.00  0.00    -0.248 NA
ATOM     39  C   UNL A   1      38.832  28.633  27.838  1.00  0.00     0.031 C 
ATOM     40  C   UNL A   1      37.184  31.507  31.621  1.00  0.00     0.029 A 
ATOM     41  N   UNL A   1      39.144  30.469  31.897  1.00  0.00    -0.354 N 
ATOM     42  C   UNL A   1      40.728  27.852  28.850  1.00  0.00     0.074 A 
ATOM     43  C   UNL A   1      39.843  27.787  27.707  1.00  0.00     0.031 C 
ATOM     44  C   UNL A   1      37.646  31.837  32.837  1.00  0.00     0.029 A 
ATOM     45  C   UNL A   1      38.913  31.152  33.067  1.00  0.00     0.049 A 
ATOM     46  H   UNL A   1      39.948  29.924  31.741  1.00  0.00     0.167 HD
ATOM     47  C   UNL A   1      41.905  27.188  28.946  1.00  0.00     0.037 A 
ATOM     48  C   UNL A   1      39.636  31.208  34.203  1.00  0.00     0.037 A 
ATOM     49  C   UNL A   1      42.793  27.269  30.077  1.00  0.00     0.049 A 
ATOM     50  C   UNL A   1      40.928  30.442  34.292  1.00  0.00     0.074 A 
ATOM     51  C   UNL A   1      44.034  26.681  30.242  1.00  0.00     0.029 A 
ATOM     52  N   UNL A   1      42.529  27.981  31.238  1.00  0.00    -0.354 N 
ATOM     53  N   UNL A   1      41.504  29.681  33.393  1.00  0.00    -0.248 NA
ATOM     54  C   UNL A   1      41.676  30.549  35.553  1.00  0.00     0.031 C 
ATOM     55  C   UNL A   1      44.498  26.990  31.525  1.00  0.00     0.029 A 
ATOM     56  C   UNL A   1      43.574  27.822  32.136  1.00  0.00     0.049 A 
ATOM     57  H   UNL A   1      41.721  28.518  31.401  1.00  0.00     0.167 HD
ATOM     58  C   UNL A   1      42.691  29.244  33.965  1.00  0.00     0.074 A 
ATOM     59  C   UNL A   1      42.761  29.836  35.284  1.00  0.00     0.031 C 
ATOM     60  C   UNL A   1      43.637  28.425  33.444  1.00  0.00     0.037 A 
BRANCH  47  61
ATOM     61  C   UNL A   1      42.304  26.310  27.794  1.00  0.00     0.064 A 
ATOM     62  C   UNL A   1      43.223  26.739  26.823  1.00  0.00     0.173 A 
ATOM     63  C   UNL A   1      41.793  25.008  27.680  1.00  0.00     0.173 A 
ATOM     64  F   UNL A   1      43.734  27.978  26.878  1.00  0.00    -0.203 F 
ATOM     65  C   UNL A   1      43.590  25.909  25.766  1.00  0.00     0.198 A 
ATOM     66  C   UNL A   1      42.188  24.169  26.642  1.00  0.00     0.198 A 
ATOM     67  F   UNL A   1      40.917  24.544  28.585  1.00  0.00    -0.203 F 
ATOM     68  F   UNL A   1      44.429  26.360  24.824  1.00  0.00    -0.200 F 
ATOM     69  C   UNL A   1      43.079  24.623  25.682  1.00  0.00     0.200 A 
ATOM     70  F   UNL A   1      41.705  22.921  26.570  1.00  0.00    -0.200 F 
ATOM     71  F   UNL A   1      43.441  23.822  24.669  1.00  0.00    -0.200 F 
ENDBRANCH  47  61
BRANCH  48  72
ATOM     72  C   UNL A   1      39.161  32.032  35.347  1.00  0.00     0.064 A 
ATOM     73  C   UNL A   1      39.474  33.396  35.431  1.00  0.00     0.173 A 
ATOM     74  C   UNL A   1      38.396  31.474  36.382  1.00  0.00     0.173 A 
ATOM     75  F   UNL A   1      40.220  33.971  34.477  1.00  0.00    -0.203 F 
ATOM     76  C   UNL A   1      39.060  34.165  36.517  1.00  0.00     0.198 A 
ATOM     77  C   UNL A   1      37.956  32.251  37.452  1.00  0.00     0.198 A 
ATOM     78  F   UNL A   1      38.065  30.175  36.348  1.00  0.00    -0.203 F 
ATOM     79  F   UNL A   1      39.417  35.453  36.598  1.00  0.00    -0.200 F 
ATOM     80  C   UNL A   1      38.298  33.593  37.524  1.00  0.00     0.200 A 
ATOM     81  F   UNL A   1      37.207  31.698  38.415  1.00  0.00    -0.200 F 
ATOM     82  F   UNL A   1      37.897  34.333  38.567  1.00  0.00    -0.200 F 
ENDBRANCH  48  72
BRANCH  60  83
ATOM     83  C   UNL A   1      44.855  28.154  34.281  1.00  0.00     0.064 A 
ATOM     84  C   UNL A   1      44.909  27.076  35.177  1.00  0.00     0.173 A 
ATOM     85  C   UNL A   1      45.999  28.955  34.147  1.00  0.00     0.173 A 
ATOM     86  F   UNL A   1      43.838  26.288  35.353  1.00  0.00    -0.203 F 
ATOM     87  C   UNL A   1      46.056  26.827  35.928  1.00  0.00     0.198 A 
ATOM     88  C   UNL A   1      47.155  28.683  34.874  1.00  0.00     0.198 A 
ATOM     89  F   UNL A   1      46.003  29.994  33.298  1.00  0.00    -0.203 F 
ATOM     90  F   UNL A   1      46.069  25.822  36.814  1.00  0.00    -0.200 F 
ATOM     91  C   UNL A   1      47.180  27.624  35.769  1.00  0.00     0.200 A 
ATOM     92  F   UNL A   1      48.244  29.446  34.707  1.00  0.00    -0.200 F 
ATOM     93  F   UNL A   1      48.286  27.377  36.484  1.00  0.00    -0.200 F 
ENDBRANCH  60  83
ENDBRANCH  34  35
ENDBRANCH  26  29
ENDBRANCH  24  25
ENDBRANCH  23  24
ENDBRANCH   1  23
TORSDOF 13
ENDMDL
