MODEL 1
REMARK VINA RESULT:     -12.4      0.000      0.000
REMARK SMILES CCC[C@]1(C(=O)NCCCNC(=O)c2ccc(-c3c4nc(c(-c5c(F)c(F)c(F)c(F)c5F)c5ccc([nH]5)c(-c5c(F)c(F)c(F)c(F)c5F)c5nc(c(-c6c(F)c(F)c(F)c(F)c6F)c6ccc3[nH]6)C=C5)C=C4)cc2)CCCN(C(=O)N[C@H]2CCOC2)C1
REMARK SMILES IDX 9 1 8 2 7 3 5 4 6 5 4 7 77 8 89 9 78 10 80 11 79 12 3 13
REMARK SMILES IDX 2 14 1 15 81 16 82 17 83 18 84 20 85 21 88 22 86 23 87 24
REMARK SMILES IDX 10 25 11 26 12 27 13 29 14 30 15 31 76 32 16 33 75 34 17 35
REMARK SMILES IDX 18 36 19 37 69 38 20 39 74 40 68 41 70 42 21 43 73 44 67 45
REMARK SMILES IDX 66 46 22 48 54 49 34 50 53 51 35 52 38 53 52 54 71 55 36 56
REMARK SMILES IDX 37 57 51 59 72 60 39 61 23 62 24 63 32 64 25 65 26 66 30 67
REMARK SMILES IDX 33 68 27 69 28 70 31 71 29 72 55 73 56 74 64 75 57 76 58 77
REMARK SMILES IDX 62 78 65 79 59 80 60 81 63 82 61 83 40 84 41 85 49 86 42 87
REMARK SMILES IDX 43 88 47 89 50 90 44 91 45 92 48 93 46 94
REMARK H PARENT 7 6 83 19 11 28 70 47 38 58
REMARK Flexibility Score: inf
ROOT
ATOM      1  C   UNL A   1      38.035  19.512  25.001  1.00  0.00     0.042 C 
ENDROOT
BRANCH   1   2
ATOM      2  C   UNL A   1      36.887  20.498  24.835  1.00  0.00     0.117 C 
BRANCH   2   3
ATOM      3  N   UNL A   1      35.577  19.901  25.002  1.00  0.00    -0.355 N 
ATOM      4  C   UNL A   1      34.329  20.445  25.113  1.00  0.00     0.228 C 
ATOM      5  O   UNL A   1      33.407  19.623  25.120  1.00  0.00    -0.274 OA
ATOM      6  H   UNL A   1      35.588  18.917  25.042  1.00  0.00     0.163 HD
BRANCH   4   7
ATOM      7  C   UNL A   1      34.071  21.984  25.222  1.00  0.00     0.067 C 
ATOM      8  C   UNL A   1      34.221  22.608  23.808  1.00  0.00     0.020 C 
ATOM      9  C   UNL A   1      32.672  22.159  25.874  1.00  0.00     0.138 C 
ATOM     10  C   UNL A   1      33.227  23.706  23.427  1.00  0.00     0.023 C 
ATOM     11  N   UNL A   1      31.966  23.379  25.471  1.00  0.00    -0.324 N 
ATOM     12  C   UNL A   1      31.846  23.543  24.044  1.00  0.00     0.121 C 
BRANCH   7  13
ATOM     13  C   UNL A   1      35.183  22.542  26.194  1.00  0.00     0.018 C 
BRANCH  13  14
ATOM     14  C   UNL A   1      35.977  23.812  25.861  1.00  0.00    -0.002 C 
ATOM     15  C   UNL A   1      37.466  23.757  26.119  1.00  0.00     0.004 C 
ENDBRANCH  13  14
ENDBRANCH   7  13
BRANCH  11  16
ATOM     16  C   UNL A   1      31.300  24.079  26.427  1.00  0.00     0.317 C 
ATOM     17  O   UNL A   1      30.579  23.510  27.255  1.00  0.00    -0.249 OA
ATOM     18  N   UNL A   1      31.403  25.403  26.603  1.00  0.00    -0.333 N 
ATOM     19  H   UNL A   1      30.767  25.670  27.306  1.00  0.00     0.165 HD
BRANCH  18  20
ATOM     20  C   UNL A   1      32.109  26.603  26.139  1.00  0.00     0.112 C 
ATOM     21  C   UNL A   1      31.781  27.758  27.080  1.00  0.00     0.056 C 
ATOM     22  C   UNL A   1      33.625  26.731  26.124  1.00  0.00     0.185 C 
ATOM     23  C   UNL A   1      32.802  28.814  26.719  1.00  0.00     0.162 C 
ATOM     24  O   UNL A   1      33.943  28.130  26.200  1.00  0.00    -0.379 OA
ENDBRANCH  18  20
ENDBRANCH  11  16
ENDBRANCH   4   7
ENDBRANCH   2   3
ENDBRANCH   1   2
BRANCH   1  25
ATOM     25  C   UNL A   1      39.224  20.082  25.753  1.00  0.00     0.118 C 
BRANCH  25  26
ATOM     26  N   UNL A   1      40.275  19.093  25.949  1.00  0.00    -0.352 N 
ATOM     27  C   UNL A   1      41.624  19.262  26.124  1.00  0.00     0.251 C 
ATOM     28  H   UNL A   1      39.969  18.158  25.957  1.00  0.00     0.163 HD
ATOM     29  O   UNL A   1      42.374  18.288  26.040  1.00  0.00    -0.269 OA
BRANCH  27  30
ATOM     30  C   UNL A   1      42.187  20.601  26.393  1.00  0.00     0.039 A 
ATOM     31  C   UNL A   1      42.556  21.410  25.315  1.00  0.00     0.014 A 
ATOM     32  C   UNL A   1      42.376  21.054  27.701  1.00  0.00     0.014 A 
ATOM     33  C   UNL A   1      43.052  22.694  25.550  1.00  0.00     0.010 A 
ATOM     34  C   UNL A   1      42.774  22.366  27.930  1.00  0.00     0.010 A 
ATOM     35  C   UNL A   1      43.128  23.197  26.858  1.00  0.00    -0.014 A 
BRANCH  35  36
ATOM     36  C   UNL A   1      43.592  24.581  27.132  1.00  0.00     0.031 A 
ATOM     37  C   UNL A   1      42.625  25.609  27.653  1.00  0.00     0.074 A 
ATOM     38  C   UNL A   1      44.863  24.926  26.846  1.00  0.00     0.049 A 
ATOM     39  N   UNL A   1      42.816  26.885  27.879  1.00  0.00    -0.248 NA
ATOM     40  C   UNL A   1      41.253  25.153  27.928  1.00  0.00     0.031 C 
ATOM     41  C   UNL A   1      45.881  24.030  26.294  1.00  0.00     0.029 A 
ATOM     42  N   UNL A   1      45.515  26.127  26.973  1.00  0.00    -0.354 N 
ATOM     43  C   UNL A   1      41.588  27.383  28.296  1.00  0.00     0.074 A 
ATOM     44  C   UNL A   1      40.646  26.287  28.246  1.00  0.00     0.031 C 
ATOM     45  C   UNL A   1      47.034  24.703  26.156  1.00  0.00     0.029 A 
ATOM     46  C   UNL A   1      46.828  26.089  26.566  1.00  0.00     0.049 A 
ATOM     47  H   UNL A   1      45.084  26.940  27.322  1.00  0.00     0.167 HD
ATOM     48  C   UNL A   1      41.281  28.636  28.705  1.00  0.00     0.037 A 
ATOM     49  C   UNL A   1      47.754  27.064  26.522  1.00  0.00     0.037 A 
ATOM     50  C   UNL A   1      42.233  29.711  28.795  1.00  0.00     0.049 A 
ATOM     51  C   UNL A   1      47.379  28.450  26.980  1.00  0.00     0.074 A 
ATOM     52  C   UNL A   1      42.041  30.993  29.279  1.00  0.00     0.029 A 
ATOM     53  N   UNL A   1      43.557  29.629  28.391  1.00  0.00    -0.354 N 
ATOM     54  N   UNL A   1      46.237  28.885  27.455  1.00  0.00    -0.248 NA
ATOM     55  C   UNL A   1      48.426  29.478  26.900  1.00  0.00     0.031 C 
ATOM     56  C   UNL A   1      43.232  31.704  29.114  1.00  0.00     0.029 A 
ATOM     57  C   UNL A   1      44.185  30.848  28.585  1.00  0.00     0.049 A 
ATOM     58  H   UNL A   1      43.986  28.823  28.021  1.00  0.00     0.167 HD
ATOM     59  C   UNL A   1      46.439  30.223  27.766  1.00  0.00     0.074 A 
ATOM     60  C   UNL A   1      47.817  30.524  27.440  1.00  0.00     0.031 C 
ATOM     61  C   UNL A   1      45.563  31.123  28.275  1.00  0.00     0.037 A 
BRANCH  48  62
ATOM     62  C   UNL A   1      39.859  28.924  29.092  1.00  0.00     0.064 A 
ATOM     63  C   UNL A   1      38.909  29.352  28.152  1.00  0.00     0.173 A 
ATOM     64  C   UNL A   1      39.425  28.700  30.408  1.00  0.00     0.173 A 
ATOM     65  F   UNL A   1      39.273  29.591  26.884  1.00  0.00    -0.203 F 
ATOM     66  C   UNL A   1      37.582  29.562  28.520  1.00  0.00     0.198 A 
ATOM     67  C   UNL A   1      38.091  28.882  30.764  1.00  0.00     0.198 A 
ATOM     68  F   UNL A   1      40.292  28.287  31.345  1.00  0.00    -0.203 F 
ATOM     69  F   UNL A   1      36.700  30.007  27.614  1.00  0.00    -0.200 F 
ATOM     70  C   UNL A   1      37.172  29.316  29.822  1.00  0.00     0.200 A 
ATOM     71  F   UNL A   1      37.695  28.629  32.019  1.00  0.00    -0.200 F 
ATOM     72  F   UNL A   1      35.891  29.501  30.168  1.00  0.00    -0.200 F 
ENDBRANCH  48  62
BRANCH  49  73
ATOM     73  C   UNL A   1      49.133  26.776  26.042  1.00  0.00     0.064 A 
ATOM     74  C   UNL A   1      49.488  26.991  24.702  1.00  0.00     0.173 A 
ATOM     75  C   UNL A   1      50.110  26.244  26.896  1.00  0.00     0.173 A 
ATOM     76  F   UNL A   1      48.583  27.481  23.841  1.00  0.00    -0.203 F 
ATOM     77  C   UNL A   1      50.752  26.649  24.226  1.00  0.00     0.198 A 
ATOM     78  C   UNL A   1      51.385  25.934  26.426  1.00  0.00     0.198 A 
ATOM     79  F   UNL A   1      49.827  26.025  28.188  1.00  0.00    -0.203 F 
ATOM     80  F   UNL A   1      51.039  26.804  22.927  1.00  0.00    -0.200 F 
ATOM     81  C   UNL A   1      51.700  26.124  25.089  1.00  0.00     0.200 A 
ATOM     82  F   UNL A   1      52.305  25.441  27.267  1.00  0.00    -0.200 F 
ATOM     83  F   UNL A   1      52.914  25.789  24.630  1.00  0.00    -0.200 F 
ENDBRANCH  49  73
BRANCH  61  84
ATOM     84  C   UNL A   1      46.081  32.503  28.562  1.00  0.00     0.064 A 
ATOM     85  C   UNL A   1      46.669  32.831  29.793  1.00  0.00     0.173 A 
ATOM     86  C   UNL A   1      46.023  33.499  27.575  1.00  0.00     0.173 A 
ATOM     87  F   UNL A   1      46.736  31.918  30.774  1.00  0.00    -0.203 F 
ATOM     88  C   UNL A   1      47.153  34.114  30.034  1.00  0.00     0.198 A 
ATOM     89  C   UNL A   1      46.540  34.770  27.807  1.00  0.00     0.198 A 
ATOM     90  F   UNL A   1      45.478  33.234  26.378  1.00  0.00    -0.203 F 
ATOM     91  F   UNL A   1      47.662  34.420  31.235  1.00  0.00    -0.200 F 
ATOM     92  C   UNL A   1      47.096  35.079  29.039  1.00  0.00     0.200 A 
ATOM     93  F   UNL A   1      46.500  35.695  26.839  1.00  0.00    -0.200 F 
ATOM     94  F   UNL A   1      47.571  36.310  29.271  1.00  0.00    -0.200 F 
ENDBRANCH  61  84
ENDBRANCH  35  36
ENDBRANCH  27  30
ENDBRANCH  25  26
ENDBRANCH   1  25
TORSDOF 14
ENDMDL
MODEL 2
REMARK VINA RESULT:     -12.4      0.943      1.930
REMARK SMILES CCC[C@]1(C(=O)NCCCNC(=O)c2ccc(-c3c4nc(c(-c5c(F)c(F)c(F)c(F)c5F)c5ccc([nH]5)c(-c5c(F)c(F)c(F)c(F)c5F)c5nc(c(-c6c(F)c(F)c(F)c(F)c6F)c6ccc3[nH]6)C=C5)C=C4)cc2)CCCN(C(=O)N[C@H]2CCOC2)C1
REMARK SMILES IDX 9 1 8 2 7 3 5 4 6 5 4 7 77 8 89 9 78 10 80 11 79 12 3 13
REMARK SMILES IDX 2 14 1 15 81 16 82 17 83 18 84 20 85 21 88 22 86 23 87 24
REMARK SMILES IDX 10 25 11 26 12 27 13 29 14 30 15 31 76 32 16 33 75 34 17 35
REMARK SMILES IDX 18 36 19 37 69 38 20 39 74 40 68 41 70 42 21 43 73 44 67 45
REMARK SMILES IDX 66 46 22 48 54 49 34 50 53 51 35 52 38 53 52 54 71 55 36 56
REMARK SMILES IDX 37 57 51 59 72 60 39 61 23 62 24 63 32 64 25 65 26 66 30 67
REMARK SMILES IDX 33 68 27 69 28 70 31 71 29 72 55 73 56 74 64 75 57 76 58 77
REMARK SMILES IDX 62 78 65 79 59 80 60 81 63 82 61 83 40 84 41 85 49 86 42 87
REMARK SMILES IDX 43 88 47 89 50 90 44 91 45 92 48 93 46 94
REMARK H PARENT 7 6 83 19 11 28 70 47 38 58
REMARK Flexibility Score: inf
ROOT
ATOM      1  C   UNL A   1      37.906  19.475  25.005  1.00  0.00     0.042 C 
ENDROOT
BRANCH   1   2
ATOM      2  C   UNL A   1      36.752  20.464  24.906  1.00  0.00     0.117 C 
BRANCH   2   3
ATOM      3  N   UNL A   1      35.446  19.850  25.037  1.00  0.00    -0.355 N 
ATOM      4  C   UNL A   1      34.191  20.379  25.133  1.00  0.00     0.228 C 
ATOM      5  O   UNL A   1      33.277  19.547  25.108  1.00  0.00    -0.274 OA
ATOM      6  H   UNL A   1      35.467  18.866  25.061  1.00  0.00     0.163 HD
BRANCH   4   7
ATOM      7  C   UNL A   1      33.913  21.914  25.263  1.00  0.00     0.067 C 
ATOM      8  C   UNL A   1      34.073  22.561  23.862  1.00  0.00     0.020 C 
ATOM      9  C   UNL A   1      32.506  22.062  25.902  1.00  0.00     0.138 C 
ATOM     10  C   UNL A   1      33.072  23.654  23.486  1.00  0.00     0.023 C 
ATOM     11  N   UNL A   1      31.790  23.281  25.508  1.00  0.00    -0.324 N 
ATOM     12  C   UNL A   1      31.686  23.465  24.083  1.00  0.00     0.121 C 
BRANCH   7  13
ATOM     13  C   UNL A   1      35.008  22.468  26.257  1.00  0.00     0.018 C 
BRANCH  13  14
ATOM     14  C   UNL A   1      35.733  23.795  25.995  1.00  0.00    -0.002 C 
ATOM     15  C   UNL A   1      37.241  23.729  25.914  1.00  0.00     0.004 C 
ENDBRANCH  13  14
ENDBRANCH   7  13
BRANCH  11  16
ATOM     16  C   UNL A   1      31.105  23.958  26.468  1.00  0.00     0.317 C 
ATOM     17  O   UNL A   1      30.465  23.362  27.342  1.00  0.00    -0.249 OA
ATOM     18  N   UNL A   1      31.105  25.292  26.596  1.00  0.00    -0.333 N 
ATOM     19  H   UNL A   1      30.476  25.531  27.315  1.00  0.00     0.165 HD
BRANCH  18  20
ATOM     20  C   UNL A   1      31.692  26.528  26.066  1.00  0.00     0.112 C 
ATOM     21  C   UNL A   1      33.208  26.373  26.030  1.00  0.00     0.056 C 
ATOM     22  C   UNL A   1      31.469  27.018  24.642  1.00  0.00     0.185 C 
ATOM     23  C   UNL A   1      33.667  27.531  25.172  1.00  0.00     0.162 C 
ATOM     24  O   UNL A   1      32.589  27.847  24.290  1.00  0.00    -0.379 OA
ENDBRANCH  18  20
ENDBRANCH  11  16
ENDBRANCH   4   7
ENDBRANCH   2   3
ENDBRANCH   1   2
BRANCH   1  25
ATOM     25  C   UNL A   1      39.112  20.017  25.751  1.00  0.00     0.118 C 
BRANCH  25  26
ATOM     26  N   UNL A   1      40.171  19.027  25.876  1.00  0.00    -0.352 N 
ATOM     27  C   UNL A   1      41.515  19.195  26.087  1.00  0.00     0.251 C 
ATOM     28  H   UNL A   1      39.877  18.091  25.797  1.00  0.00     0.163 HD
ATOM     29  O   UNL A   1      42.278  18.240  25.930  1.00  0.00    -0.269 OA
BRANCH  27  30
ATOM     30  C   UNL A   1      42.058  20.511  26.482  1.00  0.00     0.039 A 
ATOM     31  C   UNL A   1      42.474  21.399  25.488  1.00  0.00     0.014 A 
ATOM     32  C   UNL A   1      42.180  20.865  27.829  1.00  0.00     0.014 A 
ATOM     33  C   UNL A   1      42.951  22.662  25.842  1.00  0.00     0.010 A 
ATOM     34  C   UNL A   1      42.559  22.157  28.175  1.00  0.00     0.010 A 
ATOM     35  C   UNL A   1      42.961  23.066  27.186  1.00  0.00    -0.014 A 
BRANCH  35  36
ATOM     36  C   UNL A   1      43.403  24.426  27.585  1.00  0.00     0.031 A 
ATOM     37  C   UNL A   1      42.385  25.469  27.959  1.00  0.00     0.074 A 
ATOM     38  C   UNL A   1      44.714  24.739  27.543  1.00  0.00     0.049 A 
ATOM     39  N   UNL A   1      42.565  26.731  28.258  1.00  0.00    -0.248 NA
ATOM     40  C   UNL A   1      40.975  25.049  27.968  1.00  0.00     0.031 C 
ATOM     41  C   UNL A   1      45.791  23.828  27.151  1.00  0.00     0.029 A 
ATOM     42  N   UNL A   1      45.363  25.916  27.825  1.00  0.00    -0.354 N 
ATOM     43  C   UNL A   1      41.295  27.256  28.465  1.00  0.00     0.074 A 
ATOM     44  C   UNL A   1      40.350  26.192  28.210  1.00  0.00     0.031 C 
ATOM     45  C   UNL A   1      46.967  24.468  27.245  1.00  0.00     0.029 A 
ATOM     46  C   UNL A   1      46.726  25.847  27.658  1.00  0.00     0.049 A 
ATOM     47  H   UNL A   1      44.897  26.731  28.118  1.00  0.00     0.167 HD
ATOM     48  C   UNL A   1      40.952  28.506  28.854  1.00  0.00     0.037 A 
ATOM     49  C   UNL A   1      47.670  26.794  27.813  1.00  0.00     0.037 A 
ATOM     50  C   UNL A   1      41.901  29.548  29.149  1.00  0.00     0.049 A 
ATOM     51  C   UNL A   1      47.254  28.177  28.243  1.00  0.00     0.074 A 
ATOM     52  C   UNL A   1      41.657  30.820  29.633  1.00  0.00     0.029 A 
ATOM     53  N   UNL A   1      43.272  29.435  28.986  1.00  0.00    -0.354 N 
ATOM     54  N   UNL A   1      46.058  28.635  28.520  1.00  0.00    -0.248 NA
ATOM     55  C   UNL A   1      48.325  29.174  28.387  1.00  0.00     0.031 C 
ATOM     56  C   UNL A   1      42.877  31.499  29.708  1.00  0.00     0.029 A 
ATOM     57  C   UNL A   1      43.887  30.628  29.330  1.00  0.00     0.049 A 
ATOM     58  H   UNL A   1      43.740  28.627  28.672  1.00  0.00     0.167 HD
ATOM     59  C   UNL A   1      46.235  29.956  28.908  1.00  0.00     0.074 A 
ATOM     60  C   UNL A   1      47.656  30.222  28.844  1.00  0.00     0.031 C 
ATOM     61  C   UNL A   1      45.305  30.869  29.281  1.00  0.00     0.037 A 
BRANCH  48  62
ATOM     62  C   UNL A   1      39.492  28.827  28.989  1.00  0.00     0.064 A 
ATOM     63  C   UNL A   1      38.825  28.731  30.220  1.00  0.00     0.173 A 
ATOM     64  C   UNL A   1      38.767  29.305  27.886  1.00  0.00     0.173 A 
ATOM     65  F   UNL A   1      39.468  28.269  31.302  1.00  0.00    -0.203 F 
ATOM     66  C   UNL A   1      37.483  29.084  30.337  1.00  0.00     0.198 A 
ATOM     67  C   UNL A   1      37.435  29.687  28.014  1.00  0.00     0.198 A 
ATOM     68  F   UNL A   1      39.358  29.420  26.687  1.00  0.00    -0.203 F 
ATOM     69  F   UNL A   1      36.856  28.949  31.514  1.00  0.00    -0.200 F 
ATOM     70  C   UNL A   1      36.792  29.572  29.237  1.00  0.00     0.200 A 
ATOM     71  F   UNL A   1      36.774  30.172  26.954  1.00  0.00    -0.200 F 
ATOM     72  F   UNL A   1      35.507  29.930  29.357  1.00  0.00    -0.200 F 
ENDBRANCH  48  62
BRANCH  49  73
ATOM     73  C   UNL A   1      49.105  26.477  27.579  1.00  0.00     0.064 A 
ATOM     74  C   UNL A   1      49.967  26.211  28.653  1.00  0.00     0.173 A 
ATOM     75  C   UNL A   1      49.654  26.470  26.289  1.00  0.00     0.173 A 
ATOM     76  F   UNL A   1      49.494  26.224  29.909  1.00  0.00    -0.203 F 
ATOM     77  C   UNL A   1      51.328  25.992  28.450  1.00  0.00     0.198 A 
ATOM     78  C   UNL A   1      51.009  26.217  26.084  1.00  0.00     0.198 A 
ATOM     79  F   UNL A   1      48.874  26.710  25.224  1.00  0.00    -0.203 F 
ATOM     80  F   UNL A   1      52.138  25.808  29.502  1.00  0.00    -0.200 F 
ATOM     81  C   UNL A   1      51.847  25.992  27.166  1.00  0.00     0.200 A 
ATOM     82  F   UNL A   1      51.505  26.202  24.839  1.00  0.00    -0.200 F 
ATOM     83  F   UNL A   1      53.157  25.788  26.970  1.00  0.00    -0.200 F 
ENDBRANCH  49  73
BRANCH  61  84
ATOM     84  C   UNL A   1      45.798  32.223  29.703  1.00  0.00     0.064 A 
ATOM     85  C   UNL A   1      46.179  32.492  31.025  1.00  0.00     0.173 A 
ATOM     86  C   UNL A   1      45.928  33.253  28.758  1.00  0.00     0.173 A 
ATOM     87  F   UNL A   1      46.060  31.545  31.969  1.00  0.00    -0.203 F 
ATOM     88  C   UNL A   1      46.645  33.752  31.392  1.00  0.00     0.198 A 
ATOM     89  C   UNL A   1      46.427  34.500  29.121  1.00  0.00     0.198 A 
ATOM     90  F   UNL A   1      45.586  33.044  27.478  1.00  0.00    -0.203 F 
ATOM     91  F   UNL A   1      46.952  34.004  32.672  1.00  0.00    -0.200 F 
ATOM     92  C   UNL A   1      46.777  34.751  30.439  1.00  0.00     0.200 A 
ATOM     93  F   UNL A   1      46.571  35.458  28.195  1.00  0.00    -0.200 F 
ATOM     94  F   UNL A   1      47.233  35.960  30.793  1.00  0.00    -0.200 F 
ENDBRANCH  61  84
ENDBRANCH  35  36
ENDBRANCH  27  30
ENDBRANCH  25  26
ENDBRANCH   1  25
TORSDOF 14
ENDMDL
MODEL 3
REMARK VINA RESULT:     -12.3      5.609     11.295
REMARK SMILES CCC[C@]1(C(=O)NCCCNC(=O)c2ccc(-c3c4nc(c(-c5c(F)c(F)c(F)c(F)c5F)c5ccc([nH]5)c(-c5c(F)c(F)c(F)c(F)c5F)c5nc(c(-c6c(F)c(F)c(F)c(F)c6F)c6ccc3[nH]6)C=C5)C=C4)cc2)CCCN(C(=O)N[C@H]2CCOC2)C1
REMARK SMILES IDX 9 1 8 2 7 3 5 4 6 5 4 7 77 8 89 9 78 10 80 11 79 12 3 13
REMARK SMILES IDX 2 14 1 15 81 16 82 17 83 18 84 20 85 21 88 22 86 23 87 24
REMARK SMILES IDX 10 25 11 26 12 27 13 29 14 30 15 31 76 32 16 33 75 34 17 35
REMARK SMILES IDX 18 36 19 37 69 38 20 39 74 40 68 41 70 42 21 43 73 44 67 45
REMARK SMILES IDX 66 46 22 48 54 49 34 50 53 51 35 52 38 53 52 54 71 55 36 56
REMARK SMILES IDX 37 57 51 59 72 60 39 61 23 62 24 63 32 64 25 65 26 66 30 67
REMARK SMILES IDX 33 68 27 69 28 70 31 71 29 72 55 73 56 74 64 75 57 76 58 77
REMARK SMILES IDX 62 78 65 79 59 80 60 81 63 82 61 83 40 84 41 85 49 86 42 87
REMARK SMILES IDX 43 88 47 89 50 90 44 91 45 92 48 93 46 94
REMARK H PARENT 7 6 83 19 11 28 70 47 38 58
REMARK Flexibility Score: inf
ROOT
ATOM      1  C   UNL A   1      31.378  32.260  26.713  1.00  0.00     0.042 C 
ENDROOT
BRANCH   1   2
ATOM      2  C   UNL A   1      31.538  30.801  26.306  1.00  0.00     0.117 C 
BRANCH   2   3
ATOM      3  N   UNL A   1      31.019  30.504  24.986  1.00  0.00    -0.355 N 
ATOM      4  C   UNL A   1      31.125  29.403  24.186  1.00  0.00     0.228 C 
ATOM      5  O   UNL A   1      30.443  29.445  23.157  1.00  0.00    -0.274 OA
ATOM      6  H   UNL A   1      30.488  31.234  24.591  1.00  0.00     0.163 HD
BRANCH   4   7
ATOM      7  C   UNL A   1      32.034  28.176  24.530  1.00  0.00     0.067 C 
ATOM      8  C   UNL A   1      31.361  27.376  25.678  1.00  0.00     0.020 C 
ATOM      9  C   UNL A   1      32.240  27.387  23.209  1.00  0.00     0.138 C 
ATOM     10  C   UNL A   1      31.432  25.850  25.592  1.00  0.00     0.023 C 
ATOM     11  N   UNL A   1      32.446  25.946  23.393  1.00  0.00    -0.324 N 
ATOM     12  C   UNL A   1      31.419  25.302  24.174  1.00  0.00     0.121 C 
BRANCH   7  13
ATOM     13  C   UNL A   1      33.412  28.779  25.010  1.00  0.00     0.018 C 
BRANCH  13  14
ATOM     14  C   UNL A   1      34.150  28.223  26.235  1.00  0.00    -0.002 C 
ATOM     15  C   UNL A   1      34.719  29.244  27.194  1.00  0.00     0.004 C 
ENDBRANCH  13  14
ENDBRANCH   7  13
BRANCH  11  16
ATOM     16  C   UNL A   1      33.397  25.334  22.638  1.00  0.00     0.317 C 
ATOM     17  O   UNL A   1      33.613  25.682  21.472  1.00  0.00    -0.249 OA
ATOM     18  N   UNL A   1      34.209  24.367  23.085  1.00  0.00    -0.333 N 
ATOM     19  H   UNL A   1      34.748  24.044  22.328  1.00  0.00     0.165 HD
BRANCH  18  20
ATOM     20  C   UNL A   1      34.595  23.611  24.282  1.00  0.00     0.112 C 
ATOM     21  C   UNL A   1      35.898  22.874  23.996  1.00  0.00     0.056 C 
ATOM     22  C   UNL A   1      34.977  24.267  25.602  1.00  0.00     0.185 C 
ATOM     23  C   UNL A   1      36.364  22.426  25.363  1.00  0.00     0.162 C 
ATOM     24  O   UNL A   1      35.829  23.351  26.310  1.00  0.00    -0.379 OA
ENDBRANCH  18  20
ENDBRANCH  11  16
ENDBRANCH   4   7
ENDBRANCH   2   3
ENDBRANCH   1   2
BRANCH   1  25
ATOM     25  C   UNL A   1      32.663  32.898  27.210  1.00  0.00     0.118 C 
BRANCH  25  26
ATOM     26  N   UNL A   1      32.463  34.277  27.633  1.00  0.00    -0.352 N 
ATOM     27  C   UNL A   1      33.030  34.972  28.669  1.00  0.00     0.251 C 
ATOM     28  H   UNL A   1      31.822  34.789  27.090  1.00  0.00     0.163 HD
ATOM     29  O   UNL A   1      32.555  36.060  29.002  1.00  0.00    -0.269 OA
BRANCH  27  30
ATOM     30  C   UNL A   1      34.190  34.424  29.400  1.00  0.00     0.039 A 
ATOM     31  C   UNL A   1      33.974  33.740  30.599  1.00  0.00     0.014 A 
ATOM     32  C   UNL A   1      35.491  34.599  28.923  1.00  0.00     0.014 A 
ATOM     33  C   UNL A   1      35.055  33.180  31.283  1.00  0.00     0.010 A 
ATOM     34  C   UNL A   1      36.553  33.956  29.549  1.00  0.00     0.010 A 
ATOM     35  C   UNL A   1      36.348  33.250  30.743  1.00  0.00    -0.014 A 
BRANCH  35  36
ATOM     36  C   UNL A   1      37.506  32.608  31.416  1.00  0.00     0.031 A 
ATOM     37  C   UNL A   1      38.220  31.460  30.755  1.00  0.00     0.074 A 
ATOM     38  C   UNL A   1      37.868  33.014  32.650  1.00  0.00     0.049 A 
ATOM     39  N   UNL A   1      39.198  30.719  31.213  1.00  0.00    -0.248 NA
ATOM     40  C   UNL A   1      37.755  31.071  29.413  1.00  0.00     0.031 C 
ATOM     41  C   UNL A   1      37.223  34.084  33.412  1.00  0.00     0.029 A 
ATOM     42  N   UNL A   1      38.863  32.567  33.484  1.00  0.00    -0.354 N 
ATOM     43  C   UNL A   1      39.444  29.768  30.231  1.00  0.00     0.074 A 
ATOM     44  C   UNL A   1      38.484  29.991  29.173  1.00  0.00     0.031 C 
ATOM     45  C   UNL A   1      37.855  34.231  34.588  1.00  0.00     0.029 A 
ATOM     46  C   UNL A   1      38.919  33.237  34.683  1.00  0.00     0.049 A 
ATOM     47  H   UNL A   1      39.477  31.836  33.246  1.00  0.00     0.167 HD
ATOM     48  C   UNL A   1      40.399  28.809  30.206  1.00  0.00     0.037 A 
ATOM     49  C   UNL A   1      39.733  33.059  35.740  1.00  0.00     0.037 A 
ATOM     50  C   UNL A   1      41.380  28.621  31.241  1.00  0.00     0.049 A 
ATOM     51  C   UNL A   1      40.784  31.981  35.682  1.00  0.00     0.074 A 
ATOM     52  C   UNL A   1      42.443  27.736  31.269  1.00  0.00     0.029 A 
ATOM     53  N   UNL A   1      41.417  29.330  32.432  1.00  0.00    -0.354 N 
ATOM     54  N   UNL A   1      41.062  31.147  34.710  1.00  0.00    -0.248 NA
ATOM     55  C   UNL A   1      41.637  31.826  36.868  1.00  0.00     0.031 C 
ATOM     56  C   UNL A   1      43.088  27.868  32.502  1.00  0.00     0.029 A 
ATOM     57  C   UNL A   1      42.466  28.879  33.217  1.00  0.00     0.049 A 
ATOM     58  H   UNL A   1      40.790  30.047  32.683  1.00  0.00     0.167 HD
ATOM     59  C   UNL A   1      42.144  30.396  35.150  1.00  0.00     0.074 A 
ATOM     60  C   UNL A   1      42.481  30.884  36.471  1.00  0.00     0.031 C 
ATOM     61  C   UNL A   1      42.800  29.391  34.520  1.00  0.00     0.037 A 
BRANCH  48  62
ATOM     62  C   UNL A   1      40.442  27.887  29.022  1.00  0.00     0.064 A 
ATOM     63  C   UNL A   1      39.667  26.718  28.967  1.00  0.00     0.173 A 
ATOM     64  C   UNL A   1      41.216  28.214  27.898  1.00  0.00     0.173 A 
ATOM     65  F   UNL A   1      38.918  26.354  30.018  1.00  0.00    -0.203 F 
ATOM     66  C   UNL A   1      39.680  25.903  27.838  1.00  0.00     0.198 A 
ATOM     67  C   UNL A   1      41.202  27.412  26.759  1.00  0.00     0.198 A 
ATOM     68  F   UNL A   1      41.973  29.322  27.897  1.00  0.00    -0.203 F 
ATOM     69  F   UNL A   1      38.960  24.772  27.822  1.00  0.00    -0.200 F 
ATOM     70  C   UNL A   1      40.438  26.256  26.731  1.00  0.00     0.200 A 
ATOM     71  F   UNL A   1      41.924  27.763  25.686  1.00  0.00    -0.200 F 
ATOM     72  F   UNL A   1      40.434  25.480  25.640  1.00  0.00    -0.200 F 
ENDBRANCH  48  62
BRANCH  49  73
ATOM     73  C   UNL A   1      39.608  33.926  36.944  1.00  0.00     0.064 A 
ATOM     74  C   UNL A   1      38.822  33.529  38.037  1.00  0.00     0.173 A 
ATOM     75  C   UNL A   1      40.232  35.180  37.014  1.00  0.00     0.173 A 
ATOM     76  F   UNL A   1      38.189  32.347  38.011  1.00  0.00    -0.203 F 
ATOM     77  C   UNL A   1      38.634  34.368  39.133  1.00  0.00     0.198 A 
ATOM     78  C   UNL A   1      40.071  36.004  38.125  1.00  0.00     0.198 A 
ATOM     79  F   UNL A   1      41.001  35.605  36.000  1.00  0.00    -0.203 F 
ATOM     80  F   UNL A   1      37.825  33.990  40.131  1.00  0.00    -0.200 F 
ATOM     81  C   UNL A   1      39.261  35.603  39.178  1.00  0.00     0.200 A 
ATOM     82  F   UNL A   1      40.691  37.190  38.173  1.00  0.00    -0.200 F 
ATOM     83  F   UNL A   1      39.076  36.413  40.229  1.00  0.00    -0.200 F 
ENDBRANCH  49  73
BRANCH  61  84
ATOM     84  C   UNL A   1      43.981  28.789  35.224  1.00  0.00     0.064 A 
ATOM     85  C   UNL A   1      45.284  29.269  35.025  1.00  0.00     0.173 A 
ATOM     86  C   UNL A   1      43.798  27.744  36.143  1.00  0.00     0.173 A 
ATOM     87  F   UNL A   1      45.513  30.257  34.147  1.00  0.00    -0.203 F 
ATOM     88  C   UNL A   1      46.364  28.703  35.698  1.00  0.00     0.198 A 
ATOM     89  C   UNL A   1      44.875  27.205  36.840  1.00  0.00     0.198 A 
ATOM     90  F   UNL A   1      42.570  27.255  36.376  1.00  0.00    -0.203 F 
ATOM     91  F   UNL A   1      47.606  29.140  35.452  1.00  0.00    -0.200 F 
ATOM     92  C   UNL A   1      46.158  27.679  36.610  1.00  0.00     0.200 A 
ATOM     93  F   UNL A   1      44.671  26.228  37.734  1.00  0.00    -0.200 F 
ATOM     94  F   UNL A   1      47.198  27.143  37.263  1.00  0.00    -0.200 F 
ENDBRANCH  61  84
ENDBRANCH  35  36
ENDBRANCH  27  30
ENDBRANCH  25  26
ENDBRANCH   1  25
TORSDOF 14
ENDMDL
