MODEL 1
REMARK VINA RESULT:     -12.3      0.000      0.000
REMARK SMILES Cc1cc(F)c(C(=O)NCCCNC(=O)c2ccc(-c3c4nc(c(-c5c(F)c(F)c(F)c(F)c5F)c5ccc([nH]5)c(-c5c(F)c(F)c(F)c(F)c5F)c5nc(c(-c6c(F)c(F)c(F)c(F)c6F)c6ccc3[nH]6)C=C5)C=C4)cc2)cc1F
REMARK SMILES IDX 12 1 11 2 10 3 9 4 7 5 8 6 6 8 1 9 2 10 3 11 80 12 4 13
REMARK SMILES IDX 79 14 81 15 5 16 13 17 14 18 15 20 16 21 17 22 78 23 18 24
REMARK SMILES IDX 77 25 19 26 20 27 21 28 71 29 22 30 76 31 70 32 72 33 23 34
REMARK SMILES IDX 75 35 69 36 68 37 24 39 56 40 36 41 55 42 37 43 40 44 54 45
REMARK SMILES IDX 73 46 38 47 39 48 53 50 74 51 41 52 25 53 26 54 34 55 27 56
REMARK SMILES IDX 28 57 32 58 35 59 29 60 30 61 33 62 31 63 57 64 58 65 66 66
REMARK SMILES IDX 59 67 60 68 64 69 67 70 61 71 62 72 65 73 63 74 42 75 43 76
REMARK SMILES IDX 51 77 44 78 45 79 49 80 52 81 46 82 47 83 50 84 48 85
REMARK H PARENT 9 7 13 19 72 38 40 49
REMARK Flexibility Score: inf
ROOT
ATOM      1  C   UNL A   1      32.597  32.812  27.235  1.00  0.00     0.118 C 
ENDROOT
BRANCH   1   2
ATOM      2  C   UNL A   1      31.406  32.189  26.519  1.00  0.00     0.042 C 
BRANCH   2   3
ATOM      3  C   UNL A   1      31.560  30.709  26.196  1.00  0.00     0.118 C 
BRANCH   3   4
ATOM      4  N   UNL A   1      31.029  30.340  24.892  1.00  0.00    -0.352 N 
ATOM      5  C   UNL A   1      31.032  29.176  24.162  1.00  0.00     0.254 C 
ATOM      6  O   UNL A   1      30.492  29.205  23.058  1.00  0.00    -0.269 OA
ATOM      7  H   UNL A   1      30.570  31.082  24.436  1.00  0.00     0.163 HD
BRANCH   5   8
ATOM      8  C   UNL A   1      31.653  27.922  24.644  1.00  0.00     0.078 A 
ATOM      9  C   UNL A   1      33.615  24.370  26.126  1.00  0.00     0.047 C 
ATOM     10  C   UNL A   1      32.944  25.595  25.588  1.00  0.00    -0.012 A 
ATOM     11  C   UNL A   1      33.654  26.547  24.852  1.00  0.00     0.046 A 
ATOM     12  C   UNL A   1      31.574  25.787  25.771  1.00  0.00     0.127 A 
ATOM     13  C   UNL A   1      33.014  27.704  24.399  1.00  0.00     0.136 A 
ATOM     14  C   UNL A   1      30.922  26.915  25.278  1.00  0.00     0.056 A 
ATOM     15  F   UNL A   1      30.858  24.876  26.443  1.00  0.00    -0.207 F 
ATOM     16  F   UNL A   1      33.757  28.602  23.738  1.00  0.00    -0.206 F 
ENDBRANCH   5   8
ENDBRANCH   3   4
ENDBRANCH   2   3
ENDBRANCH   1   2
BRANCH   1  17
ATOM     17  N   UNL A   1      32.380  34.200  27.627  1.00  0.00    -0.352 N 
ATOM     18  C   UNL A   1      32.998  35.001  28.562  1.00  0.00     0.251 C 
ATOM     19  H   UNL A   1      31.659  34.650  27.129  1.00  0.00     0.163 HD
ATOM     20  O   UNL A   1      32.528  36.103  28.813  1.00  0.00    -0.269 OA
BRANCH  18  21
ATOM     21  C   UNL A   1      34.192  34.532  29.304  1.00  0.00     0.039 A 
ATOM     22  C   UNL A   1      35.476  34.683  28.787  1.00  0.00     0.014 A 
ATOM     23  C   UNL A   1      34.024  33.942  30.562  1.00  0.00     0.014 A 
ATOM     24  C   UNL A   1      36.548  34.046  29.399  1.00  0.00     0.010 A 
ATOM     25  C   UNL A   1      35.125  33.407  31.240  1.00  0.00     0.010 A 
ATOM     26  C   UNL A   1      36.389  33.394  30.632  1.00  0.00    -0.014 A 
BRANCH  26  27
ATOM     27  C   UNL A   1      37.553  32.699  31.245  1.00  0.00     0.031 A 
ATOM     28  C   UNL A   1      37.987  33.018  32.651  1.00  0.00     0.074 A 
ATOM     29  C   UNL A   1      38.169  31.713  30.565  1.00  0.00     0.049 A 
ATOM     30  N   UNL A   1      38.952  32.486  33.362  1.00  0.00    -0.248 NA
ATOM     31  C   UNL A   1      37.246  34.076  33.357  1.00  0.00     0.031 C 
ATOM     32  C   UNL A   1      37.827  31.291  29.205  1.00  0.00     0.029 A 
ATOM     33  N   UNL A   1      39.176  30.857  30.934  1.00  0.00    -0.354 N 
ATOM     34  C   UNL A   1      38.942  33.151  34.581  1.00  0.00     0.074 A 
ATOM     35  C   UNL A   1      37.902  34.154  34.505  1.00  0.00     0.031 C 
ATOM     36  C   UNL A   1      38.548  30.207  28.887  1.00  0.00     0.029 A 
ATOM     37  C   UNL A   1      39.459  29.903  29.986  1.00  0.00     0.049 A 
ATOM     38  H   UNL A   1      39.651  30.920  31.794  1.00  0.00     0.167 HD
ATOM     39  C   UNL A   1      39.716  32.935  35.672  1.00  0.00     0.037 A 
ATOM     40  C   UNL A   1      40.354  28.898  29.995  1.00  0.00     0.037 A 
ATOM     41  C   UNL A   1      40.740  31.925  35.754  1.00  0.00     0.049 A 
ATOM     42  C   UNL A   1      41.245  28.722  31.188  1.00  0.00     0.074 A 
ATOM     43  C   UNL A   1      41.579  31.629  36.814  1.00  0.00     0.029 A 
ATOM     44  N   UNL A   1      41.059  31.039  34.734  1.00  0.00    -0.354 N 
ATOM     45  N   UNL A   1      41.242  29.373  32.324  1.00  0.00    -0.248 NA
ATOM     46  C   UNL A   1      42.279  27.682  31.092  1.00  0.00     0.031 C 
ATOM     47  C   UNL A   1      42.433  30.594  36.422  1.00  0.00     0.029 A 
ATOM     48  C   UNL A   1      42.097  30.211  35.133  1.00  0.00     0.049 A 
ATOM     49  H   UNL A   1      40.615  31.004  33.856  1.00  0.00     0.167 HD
ATOM     50  C   UNL A   1      42.266  28.824  33.082  1.00  0.00     0.074 A 
ATOM     51  C   UNL A   1      42.855  27.768  32.284  1.00  0.00     0.031 C 
ATOM     52  C   UNL A   1      42.680  29.169  34.325  1.00  0.00     0.037 A 
BRANCH  39  53
ATOM     53  C   UNL A   1      39.495  33.819  36.866  1.00  0.00     0.064 A 
ATOM     54  C   UNL A   1      38.718  33.400  37.957  1.00  0.00     0.173 A 
ATOM     55  C   UNL A   1      40.093  35.087  36.936  1.00  0.00     0.173 A 
ATOM     56  F   UNL A   1      38.113  32.203  37.935  1.00  0.00    -0.203 F 
ATOM     57  C   UNL A   1      38.525  34.229  39.060  1.00  0.00     0.198 A 
ATOM     58  C   UNL A   1      39.921  35.901  38.054  1.00  0.00     0.198 A 
ATOM     59  F   UNL A   1      40.852  35.534  35.924  1.00  0.00    -0.203 F 
ATOM     60  F   UNL A   1      37.739  33.827  40.069  1.00  0.00    -0.200 F 
ATOM     61  C   UNL A   1      39.132  35.475  39.110  1.00  0.00     0.200 A 
ATOM     62  F   UNL A   1      40.519  37.099  38.105  1.00  0.00    -0.200 F 
ATOM     63  F   UNL A   1      38.949  36.269  40.175  1.00  0.00    -0.200 F 
ENDBRANCH  39  53
BRANCH  40  64
ATOM     64  C   UNL A   1      40.426  27.979  28.829  1.00  0.00     0.064 A 
ATOM     65  C   UNL A   1      39.678  26.795  28.805  1.00  0.00     0.173 A 
ATOM     66  C   UNL A   1      41.190  28.295  27.696  1.00  0.00     0.173 A 
ATOM     67  F   UNL A   1      38.948  26.443  29.874  1.00  0.00    -0.203 F 
ATOM     68  C   UNL A   1      39.682  25.967  27.687  1.00  0.00     0.198 A 
ATOM     69  C   UNL A   1      41.172  27.478  26.568  1.00  0.00     0.198 A 
ATOM     70  F   UNL A   1      41.922  29.418  27.671  1.00  0.00    -0.203 F 
ATOM     71  F   UNL A   1      38.968  24.832  27.692  1.00  0.00    -0.200 F 
ATOM     72  C   UNL A   1      40.419  26.315  26.564  1.00  0.00     0.200 A 
ATOM     73  F   UNL A   1      41.872  27.830  25.480  1.00  0.00    -0.200 F 
ATOM     74  F   UNL A   1      40.402  25.530  25.478  1.00  0.00    -0.200 F 
ENDBRANCH  40  64
BRANCH  52  75
ATOM     75  C   UNL A   1      43.827  28.397  34.907  1.00  0.00     0.064 A 
ATOM     76  C   UNL A   1      45.147  28.853  34.791  1.00  0.00     0.173 A 
ATOM     77  C   UNL A   1      43.596  27.223  35.639  1.00  0.00     0.173 A 
ATOM     78  F   UNL A   1      45.419  29.963  34.089  1.00  0.00    -0.203 F 
ATOM     79  C   UNL A   1      46.200  28.151  35.376  1.00  0.00     0.198 A 
ATOM     80  C   UNL A   1      44.647  26.539  36.244  1.00  0.00     0.198 A 
ATOM     81  F   UNL A   1      42.349  26.750  35.783  1.00  0.00    -0.203 F 
ATOM     82  F   UNL A   1      47.458  28.585  35.223  1.00  0.00    -0.200 F 
ATOM     83  C   UNL A   1      45.947  27.001  36.108  1.00  0.00     0.200 A 
ATOM     84  F   UNL A   1      44.400  25.434  36.962  1.00  0.00    -0.200 F 
ATOM     85  F   UNL A   1      46.959  26.335  36.680  1.00  0.00    -0.200 F 
ENDBRANCH  52  75
ENDBRANCH  26  27
ENDBRANCH  18  21
ENDBRANCH   1  17
TORSDOF 10
ENDMDL
MODEL 2
REMARK VINA RESULT:     -12.3      0.146      1.190
REMARK SMILES Cc1cc(F)c(C(=O)NCCCNC(=O)c2ccc(-c3c4nc(c(-c5c(F)c(F)c(F)c(F)c5F)c5ccc([nH]5)c(-c5c(F)c(F)c(F)c(F)c5F)c5nc(c(-c6c(F)c(F)c(F)c(F)c6F)c6ccc3[nH]6)C=C5)C=C4)cc2)cc1F
REMARK SMILES IDX 12 1 11 2 10 3 9 4 7 5 8 6 6 8 1 9 2 10 3 11 80 12 4 13
REMARK SMILES IDX 79 14 81 15 5 16 13 17 14 18 15 20 16 21 17 22 78 23 18 24
REMARK SMILES IDX 77 25 19 26 20 27 21 28 71 29 22 30 76 31 70 32 72 33 23 34
REMARK SMILES IDX 75 35 69 36 68 37 24 39 56 40 36 41 55 42 37 43 40 44 54 45
REMARK SMILES IDX 73 46 38 47 39 48 53 50 74 51 41 52 25 53 26 54 34 55 27 56
REMARK SMILES IDX 28 57 32 58 35 59 29 60 30 61 33 62 31 63 57 64 58 65 66 66
REMARK SMILES IDX 59 67 60 68 64 69 67 70 61 71 62 72 65 73 63 74 42 75 43 76
REMARK SMILES IDX 51 77 44 78 45 79 49 80 52 81 46 82 47 83 50 84 48 85
REMARK H PARENT 9 7 13 19 72 38 40 49
REMARK Flexibility Score: inf
ROOT
ATOM      1  C   UNL A   1      32.650  32.788  27.259  1.00  0.00     0.118 C 
ENDROOT
BRANCH   1   2
ATOM      2  C   UNL A   1      31.461  32.138  26.568  1.00  0.00     0.042 C 
BRANCH   2   3
ATOM      3  C   UNL A   1      31.646  30.663  26.235  1.00  0.00     0.118 C 
BRANCH   3   4
ATOM      4  N   UNL A   1      31.160  30.300  24.912  1.00  0.00    -0.352 N 
ATOM      5  C   UNL A   1      31.192  29.140  24.176  1.00  0.00     0.254 C 
ATOM      6  O   UNL A   1      30.689  29.173  23.055  1.00  0.00    -0.269 OA
ATOM      7  H   UNL A   1      30.713  31.043  24.446  1.00  0.00     0.163 HD
BRANCH   5   8
ATOM      8  C   UNL A   1      31.801  27.885  24.671  1.00  0.00     0.078 A 
ATOM      9  C   UNL A   1      33.730  24.331  26.192  1.00  0.00     0.047 C 
ATOM     10  C   UNL A   1      33.071  25.557  25.641  1.00  0.00    -0.012 A 
ATOM     11  C   UNL A   1      33.791  26.497  24.900  1.00  0.00     0.046 A 
ATOM     12  C   UNL A   1      31.701  25.761  25.815  1.00  0.00     0.127 A 
ATOM     13  C   UNL A   1      33.162  27.655  24.434  1.00  0.00     0.136 A 
ATOM     14  C   UNL A   1      31.060  26.889  25.309  1.00  0.00     0.056 A 
ATOM     15  F   UNL A   1      30.975  24.860  26.491  1.00  0.00    -0.207 F 
ATOM     16  F   UNL A   1      33.915  28.543  23.770  1.00  0.00    -0.206 F 
ENDBRANCH   5   8
ENDBRANCH   3   4
ENDBRANCH   2   3
ENDBRANCH   1   2
BRANCH   1  17
ATOM     17  N   UNL A   1      32.400  34.164  27.677  1.00  0.00    -0.352 N 
ATOM     18  C   UNL A   1      32.998  34.960  28.629  1.00  0.00     0.251 C 
ATOM     19  H   UNL A   1      31.669  34.606  27.187  1.00  0.00     0.163 HD
ATOM     20  O   UNL A   1      32.501  36.046  28.901  1.00  0.00    -0.269 OA
BRANCH  18  21
ATOM     21  C   UNL A   1      34.200  34.505  29.365  1.00  0.00     0.039 A 
ATOM     22  C   UNL A   1      35.483  34.726  28.870  1.00  0.00     0.014 A 
ATOM     23  C   UNL A   1      34.041  33.857  30.595  1.00  0.00     0.014 A 
ATOM     24  C   UNL A   1      36.572  34.103  29.468  1.00  0.00     0.010 A 
ATOM     25  C   UNL A   1      35.155  33.335  31.264  1.00  0.00     0.010 A 
ATOM     26  C   UNL A   1      36.424  33.394  30.671  1.00  0.00    -0.014 A 
BRANCH  26  27
ATOM     27  C   UNL A   1      37.608  32.718  31.268  1.00  0.00     0.031 A 
ATOM     28  C   UNL A   1      38.061  33.051  32.665  1.00  0.00     0.074 A 
ATOM     29  C   UNL A   1      38.225  31.736  30.583  1.00  0.00     0.049 A 
ATOM     30  N   UNL A   1      39.044  32.535  33.362  1.00  0.00    -0.248 NA
ATOM     31  C   UNL A   1      37.317  34.102  33.377  1.00  0.00     0.031 C 
ATOM     32  C   UNL A   1      37.866  31.302  29.232  1.00  0.00     0.029 A 
ATOM     33  N   UNL A   1      39.249  30.895  30.940  1.00  0.00    -0.354 N 
ATOM     34  C   UNL A   1      39.045  33.206  34.578  1.00  0.00     0.074 A 
ATOM     35  C   UNL A   1      37.991  34.195  34.514  1.00  0.00     0.031 C 
ATOM     36  C   UNL A   1      38.595  30.226  28.908  1.00  0.00     0.029 A 
ATOM     37  C   UNL A   1      39.528  29.940  29.992  1.00  0.00     0.049 A 
ATOM     38  H   UNL A   1      39.737  30.969  31.791  1.00  0.00     0.167 HD
ATOM     39  C   UNL A   1      39.840  33.006  35.657  1.00  0.00     0.037 A 
ATOM     40  C   UNL A   1      40.437  28.947  29.992  1.00  0.00     0.037 A 
ATOM     41  C   UNL A   1      40.878  32.010  35.727  1.00  0.00     0.049 A 
ATOM     42  C   UNL A   1      41.350  28.788  31.171  1.00  0.00     0.074 A 
ATOM     43  C   UNL A   1      41.738  31.731  36.775  1.00  0.00     0.029 A 
ATOM     44  N   UNL A   1      41.192  31.123  34.707  1.00  0.00    -0.354 N 
ATOM     45  N   UNL A   1      41.357  29.446  32.303  1.00  0.00    -0.248 NA
ATOM     46  C   UNL A   1      42.396  27.762  31.063  1.00  0.00     0.031 C 
ATOM     47  C   UNL A   1      42.599  30.705  36.374  1.00  0.00     0.029 A 
ATOM     48  C   UNL A   1      42.246  30.311  35.094  1.00  0.00     0.049 A 
ATOM     49  H   UNL A   1      40.734  31.077  33.837  1.00  0.00     0.167 HD
ATOM     50  C   UNL A   1      42.400  28.914  33.048  1.00  0.00     0.074 A 
ATOM     51  C   UNL A   1      42.990  27.861  32.245  1.00  0.00     0.031 C 
ATOM     52  C   UNL A   1      42.830  29.271  34.282  1.00  0.00     0.037 A 
BRANCH  39  53
ATOM     53  C   UNL A   1      39.627  33.894  36.850  1.00  0.00     0.064 A 
ATOM     54  C   UNL A   1      40.183  35.181  36.919  1.00  0.00     0.173 A 
ATOM     55  C   UNL A   1      38.832  33.466  37.924  1.00  0.00     0.173 A 
ATOM     56  F   UNL A   1      40.962  35.633  35.924  1.00  0.00    -0.203 F 
ATOM     57  C   UNL A   1      39.973  35.994  38.029  1.00  0.00     0.198 A 
ATOM     58  C   UNL A   1      38.601  34.294  39.021  1.00  0.00     0.198 A 
ATOM     59  F   UNL A   1      38.271  32.248  37.908  1.00  0.00    -0.203 F 
ATOM     60  F   UNL A   1      40.555  37.200  38.094  1.00  0.00    -0.200 F 
ATOM     61  C   UNL A   1      39.177  35.553  39.076  1.00  0.00     0.200 A 
ATOM     62  F   UNL A   1      37.822  33.870  40.026  1.00  0.00    -0.200 F 
ATOM     63  F   UNL A   1      38.974  36.340  40.142  1.00  0.00    -0.200 F 
ENDBRANCH  39  53
BRANCH  40  64
ATOM     64  C   UNL A   1      40.501  28.022  28.830  1.00  0.00     0.064 A 
ATOM     65  C   UNL A   1      39.765  26.831  28.823  1.00  0.00     0.173 A 
ATOM     66  C   UNL A   1      41.245  28.340  27.684  1.00  0.00     0.173 A 
ATOM     67  F   UNL A   1      39.055  26.476  29.905  1.00  0.00    -0.203 F 
ATOM     68  C   UNL A   1      39.762  25.996  27.709  1.00  0.00     0.198 A 
ATOM     69  C   UNL A   1      41.220  27.517  26.561  1.00  0.00     0.198 A 
ATOM     70  F   UNL A   1      41.965  29.471  27.643  1.00  0.00    -0.203 F 
ATOM     71  F   UNL A   1      39.061  24.854  27.731  1.00  0.00    -0.200 F 
ATOM     72  C   UNL A   1      40.479  26.346  26.574  1.00  0.00     0.200 A 
ATOM     73  F   UNL A   1      41.899  27.870  25.460  1.00  0.00    -0.200 F 
ATOM     74  F   UNL A   1      40.455  25.556  25.493  1.00  0.00    -0.200 F 
ENDBRANCH  40  64
BRANCH  52  75
ATOM     75  C   UNL A   1      43.996  28.518  34.849  1.00  0.00     0.064 A 
ATOM     76  C   UNL A   1      45.309  28.989  34.707  1.00  0.00     0.173 A 
ATOM     77  C   UNL A   1      43.793  27.345  35.591  1.00  0.00     0.173 A 
ATOM     78  F   UNL A   1      45.555  30.098  33.994  1.00  0.00    -0.203 F 
ATOM     79  C   UNL A   1      46.379  28.304  35.279  1.00  0.00     0.198 A 
ATOM     80  C   UNL A   1      44.862  26.678  36.182  1.00  0.00     0.198 A 
ATOM     81  F   UNL A   1      42.555  26.857  35.760  1.00  0.00    -0.203 F 
ATOM     82  F   UNL A   1      47.630  28.753  35.102  1.00  0.00    -0.200 F 
ATOM     83  C   UNL A   1      46.154  27.155  36.022  1.00  0.00     0.200 A 
ATOM     84  F   UNL A   1      44.642  25.575  36.911  1.00  0.00    -0.200 F 
ATOM     85  F   UNL A   1      47.184  26.506  36.580  1.00  0.00    -0.200 F 
ENDBRANCH  52  75
ENDBRANCH  26  27
ENDBRANCH  18  21
ENDBRANCH   1  17
TORSDOF 10
ENDMDL
MODEL 3
REMARK VINA RESULT:     -12.3      2.163      3.530
REMARK SMILES Cc1cc(F)c(C(=O)NCCCNC(=O)c2ccc(-c3c4nc(c(-c5c(F)c(F)c(F)c(F)c5F)c5ccc([nH]5)c(-c5c(F)c(F)c(F)c(F)c5F)c5nc(c(-c6c(F)c(F)c(F)c(F)c6F)c6ccc3[nH]6)C=C5)C=C4)cc2)cc1F
REMARK SMILES IDX 12 1 11 2 10 3 9 4 7 5 8 6 6 8 1 9 2 10 3 11 80 12 4 13
REMARK SMILES IDX 79 14 81 15 5 16 13 17 14 18 15 20 16 21 17 22 78 23 18 24
REMARK SMILES IDX 77 25 19 26 20 27 21 28 71 29 22 30 76 31 70 32 72 33 23 34
REMARK SMILES IDX 75 35 69 36 68 37 24 39 56 40 36 41 55 42 37 43 40 44 54 45
REMARK SMILES IDX 73 46 38 47 39 48 53 50 74 51 41 52 25 53 26 54 34 55 27 56
REMARK SMILES IDX 28 57 32 58 35 59 29 60 30 61 33 62 31 63 57 64 58 65 66 66
REMARK SMILES IDX 59 67 60 68 64 69 67 70 61 71 62 72 65 73 63 74 42 75 43 76
REMARK SMILES IDX 51 77 44 78 45 79 49 80 52 81 46 82 47 83 50 84 48 85
REMARK H PARENT 9 7 13 19 72 38 40 49
REMARK Flexibility Score: inf
ROOT
ATOM      1  C   UNL A   1      32.773  29.503  25.917  1.00  0.00     0.118 C 
ENDROOT
BRANCH   1   2
ATOM      2  C   UNL A   1      31.857  28.470  26.558  1.00  0.00     0.042 C 
BRANCH   2   3
ATOM      3  C   UNL A   1      31.547  27.263  25.682  1.00  0.00     0.118 C 
BRANCH   3   4
ATOM      4  N   UNL A   1      31.138  26.088  26.437  1.00  0.00    -0.352 N 
ATOM      5  C   UNL A   1      31.598  24.794  26.500  1.00  0.00     0.254 C 
ATOM      6  O   UNL A   1      31.004  24.023  27.251  1.00  0.00    -0.269 OA
ATOM      7  H   UNL A   1      30.368  26.254  27.028  1.00  0.00     0.163 HD
BRANCH   5   8
ATOM      8  C   UNL A   1      32.753  24.309  25.711  1.00  0.00     0.078 A 
ATOM      9  C   UNL A   1      36.030  22.953  23.243  1.00  0.00     0.047 C 
ATOM     10  C   UNL A   1      34.886  23.398  24.100  1.00  0.00    -0.012 A 
ATOM     11  C   UNL A   1      33.567  23.067  23.779  1.00  0.00     0.046 A 
ATOM     12  C   UNL A   1      35.120  24.115  25.274  1.00  0.00     0.127 A 
ATOM     13  C   UNL A   1      32.514  23.532  24.571  1.00  0.00     0.136 A 
ATOM     14  C   UNL A   1      34.076  24.537  26.094  1.00  0.00     0.056 A 
ATOM     15  F   UNL A   1      36.376  24.418  25.630  1.00  0.00    -0.207 F 
ATOM     16  F   UNL A   1      31.268  23.222  24.186  1.00  0.00    -0.206 F 
ENDBRANCH   5   8
ENDBRANCH   3   4
ENDBRANCH   2   3
ENDBRANCH   1   2
BRANCH   1  17
ATOM     17  N   UNL A   1      32.547  30.861  26.399  1.00  0.00    -0.352 N 
ATOM     18  C   UNL A   1      33.267  31.668  27.252  1.00  0.00     0.251 C 
ATOM     19  H   UNL A   1      31.728  31.280  26.048  1.00  0.00     0.163 HD
ATOM     20  O   UNL A   1      32.784  32.729  27.625  1.00  0.00    -0.269 OA
BRANCH  18  21
ATOM     21  C   UNL A   1      34.594  31.251  27.764  1.00  0.00     0.039 A 
ATOM     22  C   UNL A   1      34.878  29.917  28.046  1.00  0.00     0.014 A 
ATOM     23  C   UNL A   1      35.587  32.219  27.949  1.00  0.00     0.014 A 
ATOM     24  C   UNL A   1      36.045  29.587  28.724  1.00  0.00     0.010 A 
ATOM     25  C   UNL A   1      36.816  31.864  28.520  1.00  0.00     0.010 A 
ATOM     26  C   UNL A   1      37.030  30.556  28.975  1.00  0.00    -0.014 A 
BRANCH  26  27
ATOM     27  C   UNL A   1      38.256  30.171  29.727  1.00  0.00     0.031 A 
ATOM     28  C   UNL A   1      38.466  30.632  31.145  1.00  0.00     0.074 A 
ATOM     29  C   UNL A   1      39.142  29.329  29.161  1.00  0.00     0.049 A 
ATOM     30  N   UNL A   1      39.451  30.363  31.966  1.00  0.00    -0.248 NA
ATOM     31  C   UNL A   1      37.438  31.514  31.721  1.00  0.00     0.031 C 
ATOM     32  C   UNL A   1      39.039  28.791  27.803  1.00  0.00     0.029 A 
ATOM     33  N   UNL A   1      40.276  28.743  29.665  1.00  0.00    -0.354 N 
ATOM     34  C   UNL A   1      39.171  31.051  33.139  1.00  0.00     0.074 A 
ATOM     35  C   UNL A   1      37.944  31.783  32.915  1.00  0.00     0.031 C 
ATOM     36  C   UNL A   1      40.015  27.892  27.612  1.00  0.00     0.029 A 
ATOM     37  C   UNL A   1      40.858  27.847  28.802  1.00  0.00     0.049 A 
ATOM     38  H   UNL A   1      40.637  28.945  30.558  1.00  0.00     0.167 HD
ATOM     39  C   UNL A   1      39.864  31.059  34.304  1.00  0.00     0.037 A 
ATOM     40  C   UNL A   1      41.953  27.077  28.946  1.00  0.00     0.037 A 
ATOM     41  C   UNL A   1      41.076  30.316  34.533  1.00  0.00     0.049 A 
ATOM     42  C   UNL A   1      42.739  27.154  30.221  1.00  0.00     0.074 A 
ATOM     43  C   UNL A   1      41.852  30.261  35.678  1.00  0.00     0.029 A 
ATOM     44  N   UNL A   1      41.686  29.492  33.598  1.00  0.00    -0.354 N 
ATOM     45  N   UNL A   1      42.477  27.828  31.313  1.00  0.00    -0.248 NA
ATOM     46  C   UNL A   1      43.986  26.378  30.276  1.00  0.00     0.031 C 
ATOM     47  C   UNL A   1      42.953  29.437  35.422  1.00  0.00     0.029 A 
ATOM     48  C   UNL A   1      42.840  28.941  34.133  1.00  0.00     0.049 A 
ATOM     49  H   UNL A   1      41.350  29.324  32.688  1.00  0.00     0.167 HD
ATOM     50  C   UNL A   1      43.519  27.557  32.188  1.00  0.00     0.074 A 
ATOM     51  C   UNL A   1      44.408  26.637  31.506  1.00  0.00     0.031 C 
ATOM     52  C   UNL A   1      43.721  28.033  33.441  1.00  0.00     0.037 A 
BRANCH  39  53
ATOM     53  C   UNL A   1      39.332  31.910  35.422  1.00  0.00     0.064 A 
ATOM     54  C   UNL A   1      39.662  33.270  35.532  1.00  0.00     0.173 A 
ATOM     55  C   UNL A   1      38.457  31.370  36.376  1.00  0.00     0.173 A 
ATOM     56  F   UNL A   1      40.505  33.834  34.653  1.00  0.00    -0.203 F 
ATOM     57  C   UNL A   1      39.158  34.049  36.571  1.00  0.00     0.198 A 
ATOM     58  C   UNL A   1      37.932  32.159  37.397  1.00  0.00     0.198 A 
ATOM     59  F   UNL A   1      38.103  30.078  36.314  1.00  0.00    -0.203 F 
ATOM     60  F   UNL A   1      39.526  35.333  36.684  1.00  0.00    -0.200 F 
ATOM     61  C   UNL A   1      38.288  33.494  37.498  1.00  0.00     0.200 A 
ATOM     62  F   UNL A   1      37.082  31.624  38.285  1.00  0.00    -0.200 F 
ATOM     63  F   UNL A   1      37.801  34.247  38.495  1.00  0.00    -0.200 F 
ENDBRANCH  39  53
BRANCH  40  64
ATOM     64  C   UNL A   1      42.345  26.158  27.847  1.00  0.00     0.064 A 
ATOM     65  C   UNL A   1      41.731  24.907  27.707  1.00  0.00     0.173 A 
ATOM     66  C   UNL A   1      43.290  26.535  26.882  1.00  0.00     0.173 A 
ATOM     67  F   UNL A   1      40.835  24.495  28.618  1.00  0.00    -0.203 F 
ATOM     68  C   UNL A   1      42.039  24.071  26.637  1.00  0.00     0.198 A 
ATOM     69  C   UNL A   1      43.578  25.710  25.797  1.00  0.00     0.198 A 
ATOM     70  F   UNL A   1      43.904  27.724  26.972  1.00  0.00    -0.203 F 
ATOM     71  F   UNL A   1      41.448  22.873  26.532  1.00  0.00    -0.200 F 
ATOM     72  C   UNL A   1      42.953  24.479  25.676  1.00  0.00     0.200 A 
ATOM     73  F   UNL A   1      44.448  26.117  24.862  1.00  0.00    -0.200 F 
ATOM     74  F   UNL A   1      43.230  23.686  24.632  1.00  0.00    -0.200 F 
ENDBRANCH  40  64
BRANCH  52  75
ATOM     75  C   UNL A   1      44.950  27.568  34.164  1.00  0.00     0.064 A 
ATOM     76  C   UNL A   1      44.945  26.394  34.930  1.00  0.00     0.173 A 
ATOM     77  C   UNL A   1      46.158  28.271  34.041  1.00  0.00     0.173 A 
ATOM     78  F   UNL A   1      43.811  25.696  35.090  1.00  0.00    -0.203 F 
ATOM     79  C   UNL A   1      46.105  25.947  35.560  1.00  0.00     0.198 A 
ATOM     80  C   UNL A   1      47.320  27.807  34.650  1.00  0.00     0.198 A 
ATOM     81  F   UNL A   1      46.214  29.396  33.313  1.00  0.00    -0.203 F 
ATOM     82  F   UNL A   1      46.070  24.842  36.316  1.00  0.00    -0.200 F 
ATOM     83  C   UNL A   1      47.292  26.649  35.412  1.00  0.00     0.200 A 
ATOM     84  F   UNL A   1      48.470  28.479  34.495  1.00  0.00    -0.200 F 
ATOM     85  F   UNL A   1      48.408  26.210  36.008  1.00  0.00    -0.200 F 
ENDBRANCH  52  75
ENDBRANCH  26  27
ENDBRANCH  18  21
ENDBRANCH   1  17
TORSDOF 10
ENDMDL
