MODEL 1
REMARK VINA RESULT:     -12.0      0.000      0.000
REMARK SMILES CCc1ccc(C(=O)NC[C@@H](CC(C)C)C(=O)NCCCNC(=O)c2ccc(-c3c4nc(c(-c5c(F)c(F)c(F)c(F)c5F)c5ccc([nH]5)c(-c5c(F)c(F)c(F)c(F)c5F)c5nc(c(-c6c(F)c(F)c(F)c(F)c6F)c6ccc3[nH]6)C=C5)C=C4)cc2)s1
REMARK SMILES IDX 19 1 18 2 16 3 17 4 11 6 10 7 9 8 7 9 8 10 6 12 3 13 4 14
REMARK SMILES IDX 88 15 5 16 2 17 1 18 12 19 13 20 14 21 15 22 20 23 21 24
REMARK SMILES IDX 22 25 23 26 24 28 25 29 26 30 87 31 27 32 86 33 28 34 29 35
REMARK SMILES IDX 30 36 80 37 31 38 85 39 79 40 81 41 32 42 84 43 78 44 77 45
REMARK SMILES IDX 33 47 65 48 45 49 64 50 46 51 49 52 63 53 82 54 47 55 48 56
REMARK SMILES IDX 62 58 83 59 50 60 34 61 35 62 43 63 36 64 37 65 41 66 44 67
REMARK SMILES IDX 38 68 39 69 42 70 40 71 66 72 67 73 75 74 68 75 69 76 73 77
REMARK SMILES IDX 76 78 70 79 71 80 74 81 72 82 51 83 52 84 60 85 53 86 54 87
REMARK SMILES IDX 58 88 61 89 55 90 56 91 59 92 57 93
REMARK H PARENT 18 5 9 11 22 27 81 46 49 57
REMARK Flexibility Score: inf
ROOT
ATOM      1  C   UNL A   1      32.206  27.517  26.656  1.00  0.00     0.117 C 
ENDROOT
BRANCH   1   2
ATOM      2  N   UNL A   1      31.102  26.589  26.829  1.00  0.00    -0.356 N 
ATOM      3  C   UNL A   1      30.281  25.975  25.942  1.00  0.00     0.224 C 
ATOM      4  O   UNL A   1      29.538  25.100  26.398  1.00  0.00    -0.275 OA
ATOM      5  H   UNL A   1      30.915  26.362  27.769  1.00  0.00     0.163 HD
BRANCH   3   6
ATOM      6  C   UNL A   1      30.244  26.303  24.457  1.00  0.00     0.098 C 
BRANCH   6   7
ATOM      7  C   UNL A   1      30.732  25.154  23.563  1.00  0.00     0.129 C 
BRANCH   7   8
ATOM      8  N   UNL A   1      31.661  25.601  22.540  1.00  0.00    -0.351 N 
ATOM      9  C   UNL A   1      33.010  25.397  22.362  1.00  0.00     0.261 C 
ATOM     10  O   UNL A   1      33.438  25.762  21.263  1.00  0.00    -0.268 OA
ATOM     11  H   UNL A   1      31.246  26.155  21.840  1.00  0.00     0.163 HD
BRANCH   9  12
ATOM     12  C   UNL A   1      33.856  24.802  23.392  1.00  0.00     0.092 A 
ATOM     13  C   UNL A   1      35.407  23.200  24.515  1.00  0.00     0.005 A 
ATOM     14  C   UNL A   1      35.220  24.350  25.249  1.00  0.00     0.016 A 
ATOM     15  S   UNL A   1      34.463  23.213  23.093  1.00  0.00    -0.135 S 
ATOM     16  C   UNL A   1      34.355  25.279  24.590  1.00  0.00     0.026 A 
BRANCH  13  17
ATOM     17  C   UNL A   1      36.314  22.042  24.815  1.00  0.00     0.043 C 
ATOM     18  C   UNL A   1      35.516  20.768  25.071  1.00  0.00     0.010 C 
ENDBRANCH  13  17
ENDBRANCH   9  12
ENDBRANCH   7   8
ENDBRANCH   6   7
BRANCH   6  19
ATOM     19  C   UNL A   1      28.940  26.993  23.987  1.00  0.00     0.018 C 
BRANCH  19  20
ATOM     20  C   UNL A   1      29.054  28.185  23.015  1.00  0.00    -0.017 C 
ATOM     21  C   UNL A   1      27.722  28.931  22.856  1.00  0.00     0.007 C 
ATOM     22  C   UNL A   1      30.108  29.189  23.497  1.00  0.00     0.007 C 
ENDBRANCH  19  20
ENDBRANCH   6  19
ENDBRANCH   3   6
ENDBRANCH   1   2
BRANCH   1  23
ATOM     23  C   UNL A   1      31.794  28.962  26.877  1.00  0.00     0.042 C 
BRANCH  23  24
ATOM     24  C   UNL A   1      32.684  29.952  26.137  1.00  0.00     0.118 C 
BRANCH  24  25
ATOM     25  N   UNL A   1      32.474  31.334  26.558  1.00  0.00    -0.352 N 
ATOM     26  C   UNL A   1      33.224  32.155  27.366  1.00  0.00     0.251 C 
ATOM     27  H   UNL A   1      31.656  31.748  26.201  1.00  0.00     0.163 HD
ATOM     28  O   UNL A   1      32.761  33.227  27.747  1.00  0.00    -0.269 OA
BRANCH  26  29
ATOM     29  C   UNL A   1      34.566  31.734  27.818  1.00  0.00     0.039 A 
ATOM     30  C   UNL A   1      35.556  32.700  28.017  1.00  0.00     0.014 A 
ATOM     31  C   UNL A   1      34.844  30.392  28.073  1.00  0.00     0.014 A 
ATOM     32  C   UNL A   1      36.776  32.332  28.590  1.00  0.00     0.010 A 
ATOM     33  C   UNL A   1      36.005  30.046  28.750  1.00  0.00     0.010 A 
ATOM     34  C   UNL A   1      36.979  31.015  29.031  1.00  0.00    -0.014 A 
BRANCH  34  35
ATOM     35  C   UNL A   1      38.175  30.624  29.822  1.00  0.00     0.031 A 
ATOM     36  C   UNL A   1      39.166  29.641  29.259  1.00  0.00     0.074 A 
ATOM     37  C   UNL A   1      38.299  31.053  31.093  1.00  0.00     0.049 A 
ATOM     38  N   UNL A   1      40.172  29.048  29.850  1.00  0.00    -0.248 NA
ATOM     39  C   UNL A   1      38.972  29.235  27.857  1.00  0.00     0.031 C 
ATOM     40  C   UNL A   1      37.367  31.948  31.782  1.00  0.00     0.029 A 
ATOM     41  N   UNL A   1      39.248  30.774  32.046  1.00  0.00    -0.354 N 
ATOM     42  C   UNL A   1      40.703  28.177  28.907  1.00  0.00     0.074 A 
ATOM     43  C   UNL A   1      39.882  28.281  27.722  1.00  0.00     0.031 C 
ATOM     44  C   UNL A   1      37.799  32.162  33.035  1.00  0.00     0.029 A 
ATOM     45  C   UNL A   1      39.013  31.384  33.255  1.00  0.00     0.049 A 
ATOM     46  H   UNL A   1      40.024  30.192  31.878  1.00  0.00     0.167 HD
ATOM     47  C   UNL A   1      41.793  27.381  29.015  1.00  0.00     0.037 A 
ATOM     48  C   UNL A   1      39.689  31.310  34.417  1.00  0.00     0.037 A 
ATOM     49  C   UNL A   1      42.642  27.326  30.174  1.00  0.00     0.049 A 
ATOM     50  C   UNL A   1      40.916  30.445  34.496  1.00  0.00     0.074 A 
ATOM     51  C   UNL A   1      43.828  26.634  30.342  1.00  0.00     0.029 A 
ATOM     52  N   UNL A   1      42.395  27.995  31.364  1.00  0.00    -0.354 N 
ATOM     53  N   UNL A   1      41.453  29.686  33.572  1.00  0.00    -0.248 NA
ATOM     54  C   UNL A   1      41.631  30.425  35.780  1.00  0.00     0.031 C 
ATOM     55  C   UNL A   1      44.281  26.854  31.647  1.00  0.00     0.029 A 
ATOM     56  C   UNL A   1      43.396  27.713  32.280  1.00  0.00     0.049 A 
ATOM     57  H   UNL A   1      41.624  28.582  31.533  1.00  0.00     0.167 HD
ATOM     58  C   UNL A   1      42.573  29.112  34.155  1.00  0.00     0.074 A 
ATOM     59  C   UNL A   1      42.652  29.626  35.507  1.00  0.00     0.031 C 
ATOM     60  C   UNL A   1      43.456  28.234  33.620  1.00  0.00     0.037 A 
BRANCH  47  61
ATOM     61  C   UNL A   1      42.140  26.512  27.841  1.00  0.00     0.064 A 
ATOM     62  C   UNL A   1      43.072  26.921  26.874  1.00  0.00     0.173 A 
ATOM     63  C   UNL A   1      41.568  25.240  27.704  1.00  0.00     0.173 A 
ATOM     64  F   UNL A   1      43.639  28.134  26.953  1.00  0.00    -0.203 F 
ATOM     65  C   UNL A   1      43.395  26.098  25.799  1.00  0.00     0.198 A 
ATOM     66  C   UNL A   1      41.915  24.407  26.643  1.00  0.00     0.198 A 
ATOM     67  F   UNL A   1      40.675  24.798  28.604  1.00  0.00    -0.203 F 
ATOM     68  F   UNL A   1      44.252  26.529  24.862  1.00  0.00    -0.200 F 
ATOM     69  C   UNL A   1      42.823  24.840  25.687  1.00  0.00     0.200 A 
ATOM     70  F   UNL A   1      41.370  23.187  26.543  1.00  0.00    -0.200 F 
ATOM     71  F   UNL A   1      43.142  24.046  24.656  1.00  0.00    -0.200 F 
ENDBRANCH  47  61
BRANCH  48  72
ATOM     72  C   UNL A   1      39.227  32.089  35.595  1.00  0.00     0.064 A 
ATOM     73  C   UNL A   1      38.407  31.500  36.567  1.00  0.00     0.173 A 
ATOM     74  C   UNL A   1      39.592  33.431  35.774  1.00  0.00     0.173 A 
ATOM     75  F   UNL A   1      38.015  30.225  36.428  1.00  0.00    -0.203 F 
ATOM     76  C   UNL A   1      37.954  32.229  37.664  1.00  0.00     0.198 A 
ATOM     77  C   UNL A   1      39.160  34.151  36.886  1.00  0.00     0.198 A 
ATOM     78  F   UNL A   1      40.382  34.038  34.876  1.00  0.00    -0.203 F 
ATOM     79  F   UNL A   1      37.137  31.653  38.557  1.00  0.00    -0.200 F 
ATOM     80  C   UNL A   1      38.335  33.552  37.826  1.00  0.00     0.200 A 
ATOM     81  F   UNL A   1      39.543  35.426  37.046  1.00  0.00    -0.200 F 
ATOM     82  F   UNL A   1      37.902  34.252  38.884  1.00  0.00    -0.200 F 
ENDBRANCH  48  72
BRANCH  60  83
ATOM     83  C   UNL A   1      44.589  27.785  34.493  1.00  0.00     0.064 A 
ATOM     84  C   UNL A   1      45.784  28.515  34.571  1.00  0.00     0.173 A 
ATOM     85  C   UNL A   1      44.461  26.640  35.293  1.00  0.00     0.173 A 
ATOM     86  F   UNL A   1      45.959  29.606  33.811  1.00  0.00    -0.203 F 
ATOM     87  C   UNL A   1      46.818  28.104  35.407  1.00  0.00     0.198 A 
ATOM     88  C   UNL A   1      45.486  26.248  36.148  1.00  0.00     0.198 A 
ATOM     89  F   UNL A   1      43.334  25.912  35.257  1.00  0.00    -0.203 F 
ATOM     90  F   UNL A   1      47.967  28.793  35.437  1.00  0.00    -0.200 F 
ATOM     91  C   UNL A   1      46.665  26.976  36.200  1.00  0.00     0.200 A 
ATOM     92  F   UNL A   1      45.333  25.165  36.923  1.00  0.00    -0.200 F 
ATOM     93  F   UNL A   1      47.659  26.587  37.011  1.00  0.00    -0.200 F 
ENDBRANCH  60  83
ENDBRANCH  34  35
ENDBRANCH  26  29
ENDBRANCH  24  25
ENDBRANCH  23  24
ENDBRANCH   1  23
TORSDOF 16
ENDMDL
MODEL 2
REMARK VINA RESULT:     -12.0      2.099      3.740
REMARK SMILES CCc1ccc(C(=O)NC[C@@H](CC(C)C)C(=O)NCCCNC(=O)c2ccc(-c3c4nc(c(-c5c(F)c(F)c(F)c(F)c5F)c5ccc([nH]5)c(-c5c(F)c(F)c(F)c(F)c5F)c5nc(c(-c6c(F)c(F)c(F)c(F)c6F)c6ccc3[nH]6)C=C5)C=C4)cc2)s1
REMARK SMILES IDX 19 1 18 2 16 3 17 4 11 6 10 7 9 8 7 9 8 10 6 12 3 13 4 14
REMARK SMILES IDX 88 15 5 16 2 17 1 18 12 19 13 20 14 21 15 22 20 23 21 24
REMARK SMILES IDX 22 25 23 26 24 28 25 29 26 30 87 31 27 32 86 33 28 34 29 35
REMARK SMILES IDX 30 36 80 37 31 38 85 39 79 40 81 41 32 42 84 43 78 44 77 45
REMARK SMILES IDX 33 47 65 48 45 49 64 50 46 51 49 52 63 53 82 54 47 55 48 56
REMARK SMILES IDX 62 58 83 59 50 60 34 61 35 62 43 63 36 64 37 65 41 66 44 67
REMARK SMILES IDX 38 68 39 69 42 70 40 71 66 72 67 73 75 74 68 75 69 76 73 77
REMARK SMILES IDX 76 78 70 79 71 80 74 81 72 82 51 83 52 84 60 85 53 86 54 87
REMARK SMILES IDX 58 88 61 89 55 90 56 91 59 92 57 93
REMARK H PARENT 18 5 9 11 22 27 81 46 49 57
REMARK Flexibility Score: inf
ROOT
ATOM      1  C   UNL A   1      31.779  30.260  26.988  1.00  0.00     0.117 C 
ENDROOT
BRANCH   1   2
ATOM      2  N   UNL A   1      33.122  29.811  27.311  1.00  0.00    -0.356 N 
ATOM      3  C   UNL A   1      33.944  28.905  26.728  1.00  0.00     0.224 C 
ATOM      4  O   UNL A   1      35.105  28.870  27.147  1.00  0.00    -0.275 OA
ATOM      5  H   UNL A   1      33.509  30.249  28.104  1.00  0.00     0.163 HD
BRANCH   3   6
ATOM      6  C   UNL A   1      33.512  27.967  25.610  1.00  0.00     0.098 C 
BRANCH   6   7
ATOM      7  C   UNL A   1      33.607  28.594  24.213  1.00  0.00     0.129 C 
BRANCH   7   8
ATOM      8  N   UNL A   1      33.495  27.608  23.152  1.00  0.00    -0.351 N 
ATOM      9  C   UNL A   1      32.416  27.122  22.449  1.00  0.00     0.261 C 
ATOM     10  O   UNL A   1      32.716  26.432  21.471  1.00  0.00    -0.268 OA
ATOM     11  H   UNL A   1      34.355  27.212  22.884  1.00  0.00     0.163 HD
BRANCH   9  12
ATOM     12  C   UNL A   1      31.037  27.404  22.837  1.00  0.00     0.092 A 
ATOM     13  C   UNL A   1      28.835  28.571  22.987  1.00  0.00     0.005 A 
ATOM     14  C   UNL A   1      28.807  27.322  23.566  1.00  0.00     0.016 A 
ATOM     15  S   UNL A   1      30.395  28.947  22.404  1.00  0.00    -0.135 S 
ATOM     16  C   UNL A   1      30.060  26.642  23.452  1.00  0.00     0.026 A 
BRANCH  13  17
ATOM     17  C   UNL A   1      27.704  29.542  22.813  1.00  0.00     0.043 C 
ATOM     18  C   UNL A   1      28.034  30.892  23.438  1.00  0.00     0.010 C 
ENDBRANCH  13  17
ENDBRANCH   9  12
ENDBRANCH   7   8
ENDBRANCH   6   7
BRANCH   6  19
ATOM     19  C   UNL A   1      34.081  26.531  25.726  1.00  0.00     0.018 C 
BRANCH  19  20
ATOM     20  C   UNL A   1      33.108  25.388  26.082  1.00  0.00    -0.017 C 
ATOM     21  C   UNL A   1      31.699  25.907  26.399  1.00  0.00     0.007 C 
ATOM     22  C   UNL A   1      32.997  24.381  24.931  1.00  0.00     0.007 C 
ENDBRANCH  19  20
ENDBRANCH   6  19
ENDBRANCH   3   6
ENDBRANCH   1   2
BRANCH   1  23
ATOM     23  C   UNL A   1      31.704  31.757  26.748  1.00  0.00     0.042 C 
BRANCH  23  24
ATOM     24  C   UNL A   1      32.820  32.525  27.444  1.00  0.00     0.118 C 
BRANCH  24  25
ATOM     25  N   UNL A   1      32.498  33.933  27.655  1.00  0.00    -0.352 N 
ATOM     26  C   UNL A   1      33.017  34.856  28.532  1.00  0.00     0.251 C 
ATOM     27  H   UNL A   1      31.789  34.282  27.067  1.00  0.00     0.163 HD
ATOM     28  O   UNL A   1      32.462  35.943  28.674  1.00  0.00    -0.269 OA
BRANCH  26  29
ATOM     29  C   UNL A   1      34.209  34.529  29.340  1.00  0.00     0.039 A 
ATOM     30  C   UNL A   1      34.043  34.055  30.644  1.00  0.00     0.014 A 
ATOM     31  C   UNL A   1      35.490  34.665  28.808  1.00  0.00     0.014 A 
ATOM     32  C   UNL A   1      35.153  33.598  31.360  1.00  0.00     0.010 A 
ATOM     33  C   UNL A   1      36.573  34.103  29.470  1.00  0.00     0.010 A 
ATOM     34  C   UNL A   1      36.415  33.549  30.749  1.00  0.00    -0.014 A 
BRANCH  34  35
ATOM     35  C   UNL A   1      37.580  32.891  31.396  1.00  0.00     0.031 A 
ATOM     36  C   UNL A   1      38.245  31.713  30.738  1.00  0.00     0.074 A 
ATOM     37  C   UNL A   1      37.955  33.274  32.633  1.00  0.00     0.049 A 
ATOM     38  N   UNL A   1      39.157  30.903  31.215  1.00  0.00    -0.248 NA
ATOM     39  C   UNL A   1      37.792  31.370  29.380  1.00  0.00     0.031 C 
ATOM     40  C   UNL A   1      37.342  34.354  33.410  1.00  0.00     0.029 A 
ATOM     41  N   UNL A   1      38.927  32.781  33.468  1.00  0.00    -0.354 N 
ATOM     42  C   UNL A   1      39.356  29.940  30.235  1.00  0.00     0.074 A 
ATOM     43  C   UNL A   1      38.438  30.235  29.157  1.00  0.00     0.031 C 
ATOM     44  C   UNL A   1      37.964  34.456  34.595  1.00  0.00     0.029 A 
ATOM     45  C   UNL A   1      38.988  33.421  34.682  1.00  0.00     0.049 A 
ATOM     46  H   UNL A   1      39.524  32.039  33.219  1.00  0.00     0.167 HD
ATOM     47  C   UNL A   1      40.242  28.916  30.227  1.00  0.00     0.037 A 
ATOM     48  C   UNL A   1      39.768  33.189  35.755  1.00  0.00     0.037 A 
ATOM     49  C   UNL A   1      41.193  28.663  31.274  1.00  0.00     0.049 A 
ATOM     50  C   UNL A   1      40.768  32.068  35.703  1.00  0.00     0.074 A 
ATOM     51  C   UNL A   1      42.204  27.718  31.312  1.00  0.00     0.029 A 
ATOM     52  N   UNL A   1      41.254  29.363  32.470  1.00  0.00    -0.354 N 
ATOM     53  N   UNL A   1      41.000  31.212  34.738  1.00  0.00    -0.248 NA
ATOM     54  C   UNL A   1      41.613  31.879  36.890  1.00  0.00     0.031 C 
ATOM     55  C   UNL A   1      42.853  27.822  32.547  1.00  0.00     0.029 A 
ATOM     56  C   UNL A   1      42.271  28.856  33.263  1.00  0.00     0.049 A 
ATOM     57  H   UNL A   1      40.663  30.110  32.718  1.00  0.00     0.167 HD
ATOM     58  C   UNL A   1      42.025  30.395  35.193  1.00  0.00     0.074 A 
ATOM     59  C   UNL A   1      42.385  30.870  36.512  1.00  0.00     0.031 C 
ATOM     60  C   UNL A   1      42.613  29.343  34.574  1.00  0.00     0.037 A 
BRANCH  47  61
ATOM     61  C   UNL A   1      40.235  27.998  29.039  1.00  0.00     0.064 A 
ATOM     62  C   UNL A   1      40.954  28.300  27.872  1.00  0.00     0.173 A 
ATOM     63  C   UNL A   1      39.537  26.783  29.084  1.00  0.00     0.173 A 
ATOM     64  F   UNL A   1      41.628  29.455  27.775  1.00  0.00    -0.203 F 
ATOM     65  C   UNL A   1      40.950  27.432  26.784  1.00  0.00     0.198 A 
ATOM     66  C   UNL A   1      39.559  25.903  28.005  1.00  0.00     0.198 A 
ATOM     67  F   UNL A   1      38.838  26.443  30.178  1.00  0.00    -0.203 F 
ATOM     68  F   UNL A   1      41.605  27.763  25.663  1.00  0.00    -0.200 F 
ATOM     69  C   UNL A   1      40.260  26.231  26.853  1.00  0.00     0.200 A 
ATOM     70  F   UNL A   1      38.901  24.737  28.078  1.00  0.00    -0.200 F 
ATOM     71  F   UNL A   1      40.265  25.392  25.808  1.00  0.00    -0.200 F 
ENDBRANCH  47  61
BRANCH  48  72
ATOM     72  C   UNL A   1      39.645  34.047  36.962  1.00  0.00     0.064 A 
ATOM     73  C   UNL A   1      38.847  33.649  38.045  1.00  0.00     0.173 A 
ATOM     74  C   UNL A   1      40.316  35.274  37.062  1.00  0.00     0.173 A 
ATOM     75  F   UNL A   1      38.170  32.493  37.987  1.00  0.00    -0.203 F 
ATOM     76  C   UNL A   1      38.711  34.456  39.172  1.00  0.00     0.198 A 
ATOM     77  C   UNL A   1      40.199  36.067  38.201  1.00  0.00     0.198 A 
ATOM     78  F   UNL A   1      41.097  35.695  36.056  1.00  0.00    -0.203 F 
ATOM     79  F   UNL A   1      37.909  34.071  40.175  1.00  0.00    -0.200 F 
ATOM     80  C   UNL A   1      39.391  35.661  39.252  1.00  0.00     0.200 A 
ATOM     81  F   UNL A   1      40.871  37.224  38.280  1.00  0.00    -0.200 F 
ATOM     82  F   UNL A   1      39.262  36.435  40.339  1.00  0.00    -0.200 F 
ENDBRANCH  48  72
BRANCH  60  83
ATOM     83  C   UNL A   1      43.714  28.642  35.311  1.00  0.00     0.064 A 
ATOM     84  C   UNL A   1      45.054  29.032  35.164  1.00  0.00     0.173 A 
ATOM     85  C   UNL A   1      43.423  27.604  36.208  1.00  0.00     0.173 A 
ATOM     86  F   UNL A   1      45.382  30.009  34.306  1.00  0.00    -0.203 F 
ATOM     87  C   UNL A   1      46.065  28.394  35.877  1.00  0.00     0.198 A 
ATOM     88  C   UNL A   1      44.434  26.986  36.938  1.00  0.00     0.198 A 
ATOM     89  F   UNL A   1      42.156  27.199  36.386  1.00  0.00    -0.203 F 
ATOM     90  F   UNL A   1      47.342  28.755  35.693  1.00  0.00    -0.200 F 
ATOM     91  C   UNL A   1      45.753  27.378  36.769  1.00  0.00     0.200 A 
ATOM     92  F   UNL A   1      44.130  26.013  37.808  1.00  0.00    -0.200 F 
ATOM     93  F   UNL A   1      46.727  26.770  37.461  1.00  0.00    -0.200 F 
ENDBRANCH  60  83
ENDBRANCH  34  35
ENDBRANCH  26  29
ENDBRANCH  24  25
ENDBRANCH  23  24
ENDBRANCH   1  23
TORSDOF 16
ENDMDL
MODEL 3
REMARK VINA RESULT:     -11.9      2.086      4.493
REMARK SMILES CCc1ccc(C(=O)NC[C@@H](CC(C)C)C(=O)NCCCNC(=O)c2ccc(-c3c4nc(c(-c5c(F)c(F)c(F)c(F)c5F)c5ccc([nH]5)c(-c5c(F)c(F)c(F)c(F)c5F)c5nc(c(-c6c(F)c(F)c(F)c(F)c6F)c6ccc3[nH]6)C=C5)C=C4)cc2)s1
REMARK SMILES IDX 19 1 18 2 16 3 17 4 11 6 10 7 9 8 7 9 8 10 6 12 3 13 4 14
REMARK SMILES IDX 88 15 5 16 2 17 1 18 12 19 13 20 14 21 15 22 20 23 21 24
REMARK SMILES IDX 22 25 23 26 24 28 25 29 26 30 87 31 27 32 86 33 28 34 29 35
REMARK SMILES IDX 30 36 80 37 31 38 85 39 79 40 81 41 32 42 84 43 78 44 77 45
REMARK SMILES IDX 33 47 65 48 45 49 64 50 46 51 49 52 63 53 82 54 47 55 48 56
REMARK SMILES IDX 62 58 83 59 50 60 34 61 35 62 43 63 36 64 37 65 41 66 44 67
REMARK SMILES IDX 38 68 39 69 42 70 40 71 66 72 67 73 75 74 68 75 69 76 73 77
REMARK SMILES IDX 76 78 70 79 71 80 74 81 72 82 51 83 52 84 60 85 53 86 54 87
REMARK SMILES IDX 58 88 61 89 55 90 56 91 59 92 57 93
REMARK H PARENT 18 5 9 11 22 27 81 46 49 57
REMARK Flexibility Score: inf
ROOT
ATOM      1  C   UNL A   1      31.967  30.282  26.707  1.00  0.00     0.117 C 
ENDROOT
BRANCH   1   2
ATOM      2  N   UNL A   1      32.775  29.813  25.595  1.00  0.00    -0.356 N 
ATOM      3  C   UNL A   1      32.994  28.574  25.088  1.00  0.00     0.224 C 
ATOM      4  O   UNL A   1      33.608  28.522  24.018  1.00  0.00    -0.275 OA
ATOM      5  H   UNL A   1      33.253  30.530  25.118  1.00  0.00     0.163 HD
BRANCH   3   6
ATOM      6  C   UNL A   1      32.524  27.291  25.756  1.00  0.00     0.098 C 
BRANCH   6   7
ATOM      7  C   UNL A   1      31.224  26.732  25.164  1.00  0.00     0.129 C 
BRANCH   7   8
ATOM      8  N   UNL A   1      31.276  26.615  23.717  1.00  0.00    -0.351 N 
ATOM      9  C   UNL A   1      30.615  27.279  22.710  1.00  0.00     0.261 C 
ATOM     10  O   UNL A   1      31.059  27.058  21.579  1.00  0.00    -0.268 OA
ATOM     11  H   UNL A   1      31.906  25.930  23.396  1.00  0.00     0.163 HD
BRANCH   9  12
ATOM     12  C   UNL A   1      29.484  28.167  22.966  1.00  0.00     0.092 A 
ATOM     13  C   UNL A   1      28.171  30.272  23.240  1.00  0.00     0.005 A 
ATOM     14  C   UNL A   1      27.372  29.150  23.257  1.00  0.00     0.016 A 
ATOM     15  S   UNL A   1      29.820  29.855  23.099  1.00  0.00    -0.135 S 
ATOM     16  C   UNL A   1      28.123  27.947  23.070  1.00  0.00     0.026 A 
BRANCH  13  17
ATOM     17  C   UNL A   1      27.754  31.712  23.302  1.00  0.00     0.043 C 
ATOM     18  C   UNL A   1      28.444  32.534  22.220  1.00  0.00     0.010 C 
ENDBRANCH  13  17
ENDBRANCH   9  12
ENDBRANCH   7   8
ENDBRANCH   6   7
BRANCH   6  19
ATOM     19  C   UNL A   1      33.643  26.245  25.989  1.00  0.00     0.018 C 
BRANCH  19  20
ATOM     20  C   UNL A   1      33.476  24.847  25.359  1.00  0.00    -0.017 C 
ATOM     21  C   UNL A   1      34.349  24.670  24.108  1.00  0.00     0.007 C 
ATOM     22  C   UNL A   1      33.846  23.745  26.358  1.00  0.00     0.007 C 
ENDBRANCH  19  20
ENDBRANCH   6  19
ENDBRANCH   3   6
ENDBRANCH   1   2
BRANCH   1  23
ATOM     23  C   UNL A   1      31.756  31.785  26.683  1.00  0.00     0.042 C 
BRANCH  23  24
ATOM     24  C   UNL A   1      32.842  32.548  27.428  1.00  0.00     0.118 C 
BRANCH  24  25
ATOM     25  N   UNL A   1      32.508  33.952  27.645  1.00  0.00    -0.352 N 
ATOM     26  C   UNL A   1      33.014  34.874  28.531  1.00  0.00     0.251 C 
ATOM     27  H   UNL A   1      31.798  34.298  27.057  1.00  0.00     0.163 HD
ATOM     28  O   UNL A   1      32.449  35.955  28.677  1.00  0.00    -0.269 OA
BRANCH  26  29
ATOM     29  C   UNL A   1      34.204  34.553  29.343  1.00  0.00     0.039 A 
ATOM     30  C   UNL A   1      34.037  34.107  30.657  1.00  0.00     0.014 A 
ATOM     31  C   UNL A   1      35.486  34.665  28.806  1.00  0.00     0.014 A 
ATOM     32  C   UNL A   1      35.144  33.655  31.381  1.00  0.00     0.010 A 
ATOM     33  C   UNL A   1      36.565  34.106  29.477  1.00  0.00     0.010 A 
ATOM     34  C   UNL A   1      36.405  33.580  30.767  1.00  0.00    -0.014 A 
BRANCH  34  35
ATOM     35  C   UNL A   1      37.565  32.925  31.425  1.00  0.00     0.031 A 
ATOM     36  C   UNL A   1      38.246  31.755  30.768  1.00  0.00     0.074 A 
ATOM     37  C   UNL A   1      37.921  33.301  32.670  1.00  0.00     0.049 A 
ATOM     38  N   UNL A   1      39.156  30.948  31.252  1.00  0.00    -0.248 NA
ATOM     39  C   UNL A   1      37.813  31.419  29.402  1.00  0.00     0.031 C 
ATOM     40  C   UNL A   1      37.290  34.371  33.446  1.00  0.00     0.029 A 
ATOM     41  N   UNL A   1      38.884  32.808  33.514  1.00  0.00    -0.354 N 
ATOM     42  C   UNL A   1      39.373  29.993  30.268  1.00  0.00     0.074 A 
ATOM     43  C   UNL A   1      38.469  30.290  29.179  1.00  0.00     0.031 C 
ATOM     44  C   UNL A   1      37.896  34.469  34.640  1.00  0.00     0.029 A 
ATOM     45  C   UNL A   1      38.925  33.440  34.734  1.00  0.00     0.049 A 
ATOM     46  H   UNL A   1      39.489  32.071  33.269  1.00  0.00     0.167 HD
ATOM     47  C   UNL A   1      40.266  28.974  30.264  1.00  0.00     0.037 A 
ATOM     48  C   UNL A   1      39.692  33.205  35.816  1.00  0.00     0.037 A 
ATOM     49  C   UNL A   1      41.205  28.719  31.323  1.00  0.00     0.049 A 
ATOM     50  C   UNL A   1      40.699  32.090  35.769  1.00  0.00     0.074 A 
ATOM     51  C   UNL A   1      42.221  27.780  31.367  1.00  0.00     0.029 A 
ATOM     52  N   UNL A   1      41.245  29.411  32.524  1.00  0.00    -0.354 N 
ATOM     53  N   UNL A   1      40.950  31.242  34.801  1.00  0.00    -0.248 NA
ATOM     54  C   UNL A   1      41.529  31.897  36.966  1.00  0.00     0.031 C 
ATOM     55  C   UNL A   1      42.852  27.879  32.611  1.00  0.00     0.029 A 
ATOM     56  C   UNL A   1      42.255  28.905  33.327  1.00  0.00     0.049 A 
ATOM     57  H   UNL A   1      40.646  30.153  32.770  1.00  0.00     0.167 HD
ATOM     58  C   UNL A   1      41.973  30.428  35.264  1.00  0.00     0.074 A 
ATOM     59  C   UNL A   1      42.313  30.896  36.592  1.00  0.00     0.031 C 
ATOM     60  C   UNL A   1      42.576  29.383  34.645  1.00  0.00     0.037 A 
BRANCH  47  61
ATOM     61  C   UNL A   1      40.281  28.065  29.070  1.00  0.00     0.064 A 
ATOM     62  C   UNL A   1      39.550  26.866  29.049  1.00  0.00     0.173 A 
ATOM     63  C   UNL A   1      41.000  28.414  27.918  1.00  0.00     0.173 A 
ATOM     64  F   UNL A   1      38.855  26.481  30.129  1.00  0.00    -0.203 F 
ATOM     65  C   UNL A   1      39.562  26.040  27.929  1.00  0.00     0.198 A 
ATOM     66  C   UNL A   1      40.986  27.600  26.789  1.00  0.00     0.198 A 
ATOM     67  F   UNL A   1      41.711  29.552  27.883  1.00  0.00    -0.203 F 
ATOM     68  F   UNL A   1      38.894  24.878  27.949  1.00  0.00    -0.200 F 
ATOM     69  C   UNL A   1      40.273  26.410  26.797  1.00  0.00     0.200 A 
ATOM     70  F   UNL A   1      41.664  27.965  25.692  1.00  0.00    -0.200 F 
ATOM     71  F   UNL A   1      40.276  25.618  25.717  1.00  0.00    -0.200 F 
ENDBRANCH  47  61
BRANCH  48  72
ATOM     72  C   UNL A   1      39.547  34.052  37.027  1.00  0.00     0.064 A 
ATOM     73  C   UNL A   1      40.209  35.285  37.123  1.00  0.00     0.173 A 
ATOM     74  C   UNL A   1      38.751  33.654  38.110  1.00  0.00     0.173 A 
ATOM     75  F   UNL A   1      40.998  35.699  36.121  1.00  0.00    -0.203 F 
ATOM     76  C   UNL A   1      40.093  36.076  38.263  1.00  0.00     0.198 A 
ATOM     77  C   UNL A   1      38.615  34.459  39.238  1.00  0.00     0.198 A 
ATOM     78  F   UNL A   1      38.091  32.486  38.064  1.00  0.00    -0.203 F 
ATOM     79  F   UNL A   1      40.770  37.231  38.345  1.00  0.00    -0.200 F 
ATOM     80  C   UNL A   1      39.293  35.666  39.317  1.00  0.00     0.200 A 
ATOM     81  F   UNL A   1      37.828  34.066  40.249  1.00  0.00    -0.200 F 
ATOM     82  F   UNL A   1      39.179  36.431  40.412  1.00  0.00    -0.200 F 
ENDBRANCH  48  72
BRANCH  60  83
ATOM     83  C   UNL A   1      43.671  28.685  35.393  1.00  0.00     0.064 A 
ATOM     84  C   UNL A   1      43.397  27.612  36.254  1.00  0.00     0.173 A 
ATOM     85  C   UNL A   1      45.010  29.060  35.211  1.00  0.00     0.173 A 
ATOM     86  F   UNL A   1      42.131  27.228  36.473  1.00  0.00    -0.203 F 
ATOM     87  C   UNL A   1      44.425  26.951  36.920  1.00  0.00     0.198 A 
ATOM     88  C   UNL A   1      46.037  28.380  35.859  1.00  0.00     0.198 A 
ATOM     89  F   UNL A   1      45.322  30.077  34.394  1.00  0.00    -0.203 F 
ATOM     90  F   UNL A   1      44.139  25.955  37.769  1.00  0.00    -0.200 F 
ATOM     91  C   UNL A   1      45.744  27.331  36.716  1.00  0.00     0.200 A 
ATOM     92  F   UNL A   1      47.312  28.740  35.651  1.00  0.00    -0.200 F 
ATOM     93  F   UNL A   1      46.733  26.688  37.352  1.00  0.00    -0.200 F 
ENDBRANCH  60  83
ENDBRANCH  34  35
ENDBRANCH  26  29
ENDBRANCH  24  25
ENDBRANCH  23  24
ENDBRANCH   1  23
TORSDOF 16
ENDMDL
