MODEL 1
REMARK VINA RESULT:     -12.6      0.000      0.000
REMARK SMILES O=C(NCCCNC(=O)[C@@H]1[C@H]2C=C[C@H]3C=C[C@@H]1[C@H]32)c1ccc(-c2c3nc(c(-c4c(F)c(F)c(F)c(F)c4F)c4ccc([nH]4)c(-c4c(F)c(F)c(F)c(F)c4F)c4nc(c(-c5c(F)c(F)c(F)c(F)c5F)c5ccc2[nH]5)C=C4)C=C3)cc1
REMARK SMILES IDX 4 1 3 2 1 3 2 4 19 6 20 7 81 8 21 9 80 10 22 11 23 12 24 13
REMARK SMILES IDX 74 14 25 15 79 16 73 17 75 18 26 19 78 20 72 21 71 22 27 24
REMARK SMILES IDX 59 25 39 26 58 27 40 28 43 29 57 30 76 31 41 32 42 33 56 35
REMARK SMILES IDX 77 36 44 37 28 38 29 39 37 40 30 41 31 42 35 43 38 44 32 45
REMARK SMILES IDX 33 46 36 47 34 48 60 49 61 50 69 51 62 52 63 53 67 54 70 55
REMARK SMILES IDX 64 56 65 57 68 58 66 59 45 60 46 61 54 62 47 63 48 64 52 65
REMARK SMILES IDX 55 66 49 67 50 68 53 69 51 70 5 71 6 72 7 73 8 74 9 76 10 77
REMARK SMILES IDX 17 78 11 79 16 80 18 81 12 82 15 83 14 84 13 85
REMARK H PARENT 3 5 75 23 43 34 7 75
REMARK Flexibility Score: inf
ROOT
ATOM      1  C   UNL A   1      32.802  32.499  27.179  1.00  0.00     0.118 C 
ENDROOT
BRANCH   1   2
ATOM      2  N   UNL A   1      32.463  33.859  27.575  1.00  0.00    -0.352 N 
ATOM      3  O   UNL A   1      32.528  35.771  28.767  1.00  0.00    -0.269 OA
ATOM      4  C   UNL A   1      33.032  34.681  28.523  1.00  0.00     0.251 C 
ATOM      5  H   UNL A   1      31.705  34.254  27.087  1.00  0.00     0.163 HD
BRANCH   4   6
ATOM      6  C   UNL A   1      34.221  34.236  29.288  1.00  0.00     0.039 A 
ATOM      7  C   UNL A   1      35.512  34.553  28.867  1.00  0.00     0.014 A 
ATOM      8  C   UNL A   1      34.039  33.468  30.442  1.00  0.00     0.014 A 
ATOM      9  C   UNL A   1      36.604  33.928  29.458  1.00  0.00     0.010 A 
ATOM     10  C   UNL A   1      35.146  32.930  31.106  1.00  0.00     0.010 A 
ATOM     11  C   UNL A   1      36.437  33.100  30.581  1.00  0.00    -0.014 A 
BRANCH  11  12
ATOM     12  C   UNL A   1      37.626  32.434  31.176  1.00  0.00     0.031 A 
ATOM     13  C   UNL A   1      38.069  32.745  32.582  1.00  0.00     0.074 A 
ATOM     14  C   UNL A   1      38.275  31.493  30.464  1.00  0.00     0.049 A 
ATOM     15  N   UNL A   1      39.046  32.214  33.278  1.00  0.00    -0.248 NA
ATOM     16  C   UNL A   1      37.331  33.794  33.303  1.00  0.00     0.031 C 
ATOM     17  C   UNL A   1      37.953  31.109  29.088  1.00  0.00     0.029 A 
ATOM     18  N   UNL A   1      39.316  30.666  30.803  1.00  0.00    -0.354 N 
ATOM     19  C   UNL A   1      39.059  32.882  34.495  1.00  0.00     0.074 A 
ATOM     20  C   UNL A   1      38.007  33.874  34.440  1.00  0.00     0.031 C 
ATOM     21  C   UNL A   1      38.732  30.080  28.724  1.00  0.00     0.029 A 
ATOM     22  C   UNL A   1      39.647  29.771  29.816  1.00  0.00     0.049 A 
ATOM     23  H   UNL A   1      39.781  30.713  31.670  1.00  0.00     0.167 HD
ATOM     24  C   UNL A   1      39.869  32.683  35.563  1.00  0.00     0.037 A 
ATOM     25  C   UNL A   1      40.584  28.805  29.792  1.00  0.00     0.037 A 
ATOM     26  C   UNL A   1      40.889  31.668  35.634  1.00  0.00     0.049 A 
ATOM     27  C   UNL A   1      41.456  28.595  30.996  1.00  0.00     0.074 A 
ATOM     28  C   UNL A   1      41.729  31.360  36.692  1.00  0.00     0.029 A 
ATOM     29  N   UNL A   1      41.207  30.794  34.607  1.00  0.00    -0.354 N 
ATOM     30  N   UNL A   1      41.433  29.214  32.150  1.00  0.00    -0.248 NA
ATOM     31  C   UNL A   1      42.484  27.551  30.892  1.00  0.00     0.031 C 
ATOM     32  C   UNL A   1      42.578  30.324  36.291  1.00  0.00     0.029 A 
ATOM     33  C   UNL A   1      42.239  29.956  34.999  1.00  0.00     0.049 A 
ATOM     34  H   UNL A   1      40.764  30.771  33.728  1.00  0.00     0.167 HD
ATOM     35  C   UNL A   1      42.427  28.624  32.917  1.00  0.00     0.074 A 
ATOM     36  C   UNL A   1      43.021  27.584  32.102  1.00  0.00     0.031 C 
ATOM     37  C   UNL A   1      42.813  28.918  34.182  1.00  0.00     0.037 A 
BRANCH  24  38
ATOM     38  C   UNL A   1      39.700  33.592  36.747  1.00  0.00     0.064 A 
ATOM     39  C   UNL A   1      40.355  34.829  36.829  1.00  0.00     0.173 A 
ATOM     40  C   UNL A   1      38.832  33.238  37.792  1.00  0.00     0.173 A 
ATOM     41  F   UNL A   1      41.203  35.210  35.861  1.00  0.00    -0.203 F 
ATOM     42  C   UNL A   1      40.166  35.669  37.925  1.00  0.00     0.198 A 
ATOM     43  C   UNL A   1      38.626  34.090  38.874  1.00  0.00     0.198 A 
ATOM     44  F   UNL A   1      38.176  32.068  37.760  1.00  0.00    -0.203 F 
ATOM     45  F   UNL A   1      40.834  36.828  38.002  1.00  0.00    -0.200 F 
ATOM     46  C   UNL A   1      39.298  35.301  38.943  1.00  0.00     0.200 A 
ATOM     47  F   UNL A   1      37.778  33.739  39.851  1.00  0.00    -0.200 F 
ATOM     48  F   UNL A   1      39.112  36.113  39.993  1.00  0.00    -0.200 F 
ENDBRANCH  24  38
BRANCH  25  49
ATOM     49  C   UNL A   1      40.727  27.950  28.585  1.00  0.00     0.064 A 
ATOM     50  C   UNL A   1      40.045  26.729  28.486  1.00  0.00     0.173 A 
ATOM     51  C   UNL A   1      41.531  28.341  27.506  1.00  0.00     0.173 A 
ATOM     52  F   UNL A   1      39.279  26.305  29.501  1.00  0.00    -0.203 F 
ATOM     53  C   UNL A   1      40.175  25.926  27.356  1.00  0.00     0.198 A 
ATOM     54  C   UNL A   1      41.637  27.550  26.365  1.00  0.00     0.198 A 
ATOM     55  F   UNL A   1      42.199  29.504  27.553  1.00  0.00    -0.203 F 
ATOM     56  F   UNL A   1      39.542  24.745  27.300  1.00  0.00    -0.200 F 
ATOM     57  C   UNL A   1      40.964  26.340  26.293  1.00  0.00     0.200 A 
ATOM     58  F   UNL A   1      42.388  27.961  25.335  1.00  0.00    -0.200 F 
ATOM     59  F   UNL A   1      41.080  25.570  25.203  1.00  0.00    -0.200 F 
ENDBRANCH  25  49
BRANCH  37  60
ATOM     60  C   UNL A   1      43.905  28.079  34.775  1.00  0.00     0.064 A 
ATOM     61  C   UNL A   1      45.254  28.450  34.675  1.00  0.00     0.173 A 
ATOM     62  C   UNL A   1      43.594  26.898  35.464  1.00  0.00     0.173 A 
ATOM     63  F   UNL A   1      45.601  29.562  34.010  1.00  0.00    -0.203 F 
ATOM     64  C   UNL A   1      46.256  27.652  35.222  1.00  0.00     0.198 A 
ATOM     65  C   UNL A   1      44.597  26.117  36.032  1.00  0.00     0.198 A 
ATOM     66  F   UNL A   1      42.318  26.503  35.590  1.00  0.00    -0.203 F 
ATOM     67  F   UNL A   1      47.541  27.999  35.072  1.00  0.00    -0.200 F 
ATOM     68  C   UNL A   1      45.926  26.489  35.903  1.00  0.00     0.200 A 
ATOM     69  F   UNL A   1      44.277  24.998  36.698  1.00  0.00    -0.200 F 
ATOM     70  F   UNL A   1      46.892  25.723  36.427  1.00  0.00    -0.200 F 
ENDBRANCH  37  60
ENDBRANCH  11  12
ENDBRANCH   4   6
ENDBRANCH   1   2
BRANCH   1  71
ATOM     71  C   UNL A   1      31.613  31.672  26.709  1.00  0.00     0.042 C 
BRANCH  71  72
ATOM     72  C   UNL A   1      31.798  30.166  26.804  1.00  0.00     0.117 C 
BRANCH  72  73
ATOM     73  N   UNL A   1      32.380  29.585  25.613  1.00  0.00    -0.356 N 
ATOM     74  C   UNL A   1      31.797  29.316  24.398  1.00  0.00     0.224 C 
ATOM     75  H   UNL A   1      33.332  29.347  25.683  1.00  0.00     0.163 HD
ATOM     76  O   UNL A   1      32.557  28.858  23.534  1.00  0.00    -0.275 OA
BRANCH  74  77
ATOM     77  C   UNL A   1      30.288  29.560  24.157  1.00  0.00     0.093 C 
ATOM     78  C   UNL A   1      29.788  30.773  23.311  1.00  0.00     0.029 C 
ATOM     79  C   UNL A   1      29.651  28.597  23.093  1.00  0.00     0.029 C 
ATOM     80  C   UNL A   1      28.644  31.536  23.875  1.00  0.00    -0.026 C 
ATOM     81  C   UNL A   1      29.178  29.813  22.281  1.00  0.00     0.015 C 
ATOM     82  C   UNL A   1      28.415  27.876  23.480  1.00  0.00    -0.026 C 
ATOM     83  C   UNL A   1      27.484  31.052  23.408  1.00  0.00    -0.023 C 
ATOM     84  C   UNL A   1      27.653  29.891  22.470  1.00  0.00     0.038 C 
ATOM     85  C   UNL A   1      27.330  28.579  23.126  1.00  0.00    -0.023 C 
ENDBRANCH  74  77
ENDBRANCH  72  73
ENDBRANCH  71  72
ENDBRANCH   1  71
TORSDOF 10
ENDMDL
MODEL 2
REMARK VINA RESULT:     -12.5      0.166      1.192
REMARK SMILES O=C(NCCCNC(=O)[C@@H]1[C@H]2C=C[C@H]3C=C[C@@H]1[C@H]32)c1ccc(-c2c3nc(c(-c4c(F)c(F)c(F)c(F)c4F)c4ccc([nH]4)c(-c4c(F)c(F)c(F)c(F)c4F)c4nc(c(-c5c(F)c(F)c(F)c(F)c5F)c5ccc2[nH]5)C=C4)C=C3)cc1
REMARK SMILES IDX 4 1 3 2 1 3 2 4 19 6 20 7 81 8 21 9 80 10 22 11 23 12 24 13
REMARK SMILES IDX 74 14 25 15 79 16 73 17 75 18 26 19 78 20 72 21 71 22 27 24
REMARK SMILES IDX 59 25 39 26 58 27 40 28 43 29 57 30 76 31 41 32 42 33 56 35
REMARK SMILES IDX 77 36 44 37 28 38 29 39 37 40 30 41 31 42 35 43 38 44 32 45
REMARK SMILES IDX 33 46 36 47 34 48 60 49 61 50 69 51 62 52 63 53 67 54 70 55
REMARK SMILES IDX 64 56 65 57 68 58 66 59 45 60 46 61 54 62 47 63 48 64 52 65
REMARK SMILES IDX 55 66 49 67 50 68 53 69 51 70 5 71 6 72 7 73 8 74 9 76 10 77
REMARK SMILES IDX 17 78 11 79 16 80 18 81 12 82 15 83 14 84 13 85
REMARK H PARENT 3 5 75 23 43 34 7 75
REMARK Flexibility Score: inf
ROOT
ATOM      1  C   UNL A   1      32.819  32.525  27.193  1.00  0.00     0.118 C 
ENDROOT
BRANCH   1   2
ATOM      2  N   UNL A   1      32.465  33.883  27.584  1.00  0.00    -0.352 N 
ATOM      3  O   UNL A   1      32.514  35.802  28.766  1.00  0.00    -0.269 OA
ATOM      4  C   UNL A   1      33.030  34.717  28.524  1.00  0.00     0.251 C 
ATOM      5  H   UNL A   1      31.700  34.266  27.099  1.00  0.00     0.163 HD
BRANCH   4   6
ATOM      6  C   UNL A   1      34.229  34.292  29.283  1.00  0.00     0.039 A 
ATOM      7  C   UNL A   1      35.515  34.585  28.830  1.00  0.00     0.014 A 
ATOM      8  C   UNL A   1      34.062  33.566  30.466  1.00  0.00     0.014 A 
ATOM      9  C   UNL A   1      36.613  33.974  29.424  1.00  0.00     0.010 A 
ATOM     10  C   UNL A   1      35.178  33.043  31.130  1.00  0.00     0.010 A 
ATOM     11  C   UNL A   1      36.460  33.187  30.578  1.00  0.00    -0.014 A 
BRANCH  11  12
ATOM     12  C   UNL A   1      37.656  32.534  31.175  1.00  0.00     0.031 A 
ATOM     13  C   UNL A   1      38.108  32.870  32.573  1.00  0.00     0.074 A 
ATOM     14  C   UNL A   1      38.303  31.583  30.474  1.00  0.00     0.049 A 
ATOM     15  N   UNL A   1      39.092  32.353  33.270  1.00  0.00    -0.248 NA
ATOM     16  C   UNL A   1      37.373  33.929  33.280  1.00  0.00     0.031 C 
ATOM     17  C   UNL A   1      37.971  31.175  29.107  1.00  0.00     0.029 A 
ATOM     18  N   UNL A   1      39.348  30.765  30.820  1.00  0.00    -0.354 N 
ATOM     19  C   UNL A   1      39.112  33.043  34.475  1.00  0.00     0.074 A 
ATOM     20  C   UNL A   1      38.057  34.030  34.412  1.00  0.00     0.031 C 
ATOM     21  C   UNL A   1      38.750  30.142  28.755  1.00  0.00     0.029 A 
ATOM     22  C   UNL A   1      39.675  29.853  29.846  1.00  0.00     0.049 A 
ATOM     23  H   UNL A   1      39.819  30.827  31.682  1.00  0.00     0.167 HD
ATOM     24  C   UNL A   1      39.930  32.863  35.541  1.00  0.00     0.037 A 
ATOM     25  C   UNL A   1      40.614  28.890  29.831  1.00  0.00     0.037 A 
ATOM     26  C   UNL A   1      40.954  31.853  35.622  1.00  0.00     0.049 A 
ATOM     27  C   UNL A   1      41.495  28.703  31.032  1.00  0.00     0.074 A 
ATOM     28  C   UNL A   1      41.801  31.564  36.678  1.00  0.00     0.029 A 
ATOM     29  N   UNL A   1      41.266  30.962  34.607  1.00  0.00    -0.354 N 
ATOM     30  N   UNL A   1      41.479  29.341  32.176  1.00  0.00    -0.248 NA
ATOM     31  C   UNL A   1      42.525  27.660  30.938  1.00  0.00     0.031 C 
ATOM     32  C   UNL A   1      42.651  30.524  36.289  1.00  0.00     0.029 A 
ATOM     33  C   UNL A   1      42.304  30.133  35.006  1.00  0.00     0.049 A 
ATOM     34  H   UNL A   1      40.817  30.922  33.732  1.00  0.00     0.167 HD
ATOM     35  C   UNL A   1      42.480  28.766  32.945  1.00  0.00     0.074 A 
ATOM     36  C   UNL A   1      43.071  27.714  32.144  1.00  0.00     0.031 C 
ATOM     37  C   UNL A   1      42.874  29.084  34.202  1.00  0.00     0.037 A 
BRANCH  24  38
ATOM     38  C   UNL A   1      39.767  33.791  36.710  1.00  0.00     0.064 A 
ATOM     39  C   UNL A   1      38.945  33.470  37.800  1.00  0.00     0.173 A 
ATOM     40  C   UNL A   1      40.480  34.999  36.759  1.00  0.00     0.173 A 
ATOM     41  F   UNL A   1      38.233  32.333  37.797  1.00  0.00    -0.203 F 
ATOM     42  C   UNL A   1      38.826  34.335  38.887  1.00  0.00     0.198 A 
ATOM     43  C   UNL A   1      40.378  35.849  37.858  1.00  0.00     0.198 A 
ATOM     44  F   UNL A   1      41.285  35.352  35.746  1.00  0.00    -0.203 F 
ATOM     45  F   UNL A   1      38.003  34.027  39.899  1.00  0.00    -0.200 F 
ATOM     46  C   UNL A   1      39.546  35.520  38.917  1.00  0.00     0.200 A 
ATOM     47  F   UNL A   1      41.085  36.988  37.891  1.00  0.00    -0.200 F 
ATOM     48  F   UNL A   1      39.436  36.346  39.966  1.00  0.00    -0.200 F 
ENDBRANCH  24  38
BRANCH  25  49
ATOM     49  C   UNL A   1      40.750  28.015  28.638  1.00  0.00     0.064 A 
ATOM     50  C   UNL A   1      40.067  26.793  28.562  1.00  0.00     0.173 A 
ATOM     51  C   UNL A   1      41.550  28.387  27.548  1.00  0.00     0.173 A 
ATOM     52  F   UNL A   1      39.305  26.387  29.588  1.00  0.00    -0.203 F 
ATOM     53  C   UNL A   1      40.190  25.971  27.444  1.00  0.00     0.198 A 
ATOM     54  C   UNL A   1      41.649  27.577  26.421  1.00  0.00     0.198 A 
ATOM     55  F   UNL A   1      42.218  29.550  27.573  1.00  0.00    -0.203 F 
ATOM     56  F   UNL A   1      39.556  24.790  27.411  1.00  0.00    -0.200 F 
ATOM     57  C   UNL A   1      40.975  26.367  26.372  1.00  0.00     0.200 A 
ATOM     58  F   UNL A   1      42.396  27.971  25.380  1.00  0.00    -0.200 F 
ATOM     59  F   UNL A   1      41.085  25.579  25.294  1.00  0.00    -0.200 F 
ENDBRANCH  25  49
BRANCH  37  60
ATOM     60  C   UNL A   1      43.973  28.257  34.801  1.00  0.00     0.064 A 
ATOM     61  C   UNL A   1      45.320  28.631  34.687  1.00  0.00     0.173 A 
ATOM     62  C   UNL A   1      43.670  27.085  35.510  1.00  0.00     0.173 A 
ATOM     63  F   UNL A   1      45.658  29.735  34.004  1.00  0.00    -0.203 F 
ATOM     64  C   UNL A   1      46.328  27.846  35.240  1.00  0.00     0.198 A 
ATOM     65  C   UNL A   1      44.680  26.316  36.083  1.00  0.00     0.198 A 
ATOM     66  F   UNL A   1      42.397  26.688  35.649  1.00  0.00    -0.203 F 
ATOM     67  F   UNL A   1      47.611  28.195  35.078  1.00  0.00    -0.200 F 
ATOM     68  C   UNL A   1      46.006  26.692  35.941  1.00  0.00     0.200 A 
ATOM     69  F   UNL A   1      44.367  25.207  36.768  1.00  0.00    -0.200 F 
ATOM     70  F   UNL A   1      46.978  25.937  36.471  1.00  0.00    -0.200 F 
ENDBRANCH  37  60
ENDBRANCH  11  12
ENDBRANCH   4   6
ENDBRANCH   1   2
BRANCH   1  71
ATOM     71  C   UNL A   1      31.654  31.710  26.650  1.00  0.00     0.042 C 
BRANCH  71  72
ATOM     72  C   UNL A   1      31.833  30.202  26.725  1.00  0.00     0.117 C 
BRANCH  72  73
ATOM     73  N   UNL A   1      32.416  29.635  25.528  1.00  0.00    -0.356 N 
ATOM     74  C   UNL A   1      31.828  29.354  24.318  1.00  0.00     0.224 C 
ATOM     75  H   UNL A   1      33.374  29.419  25.589  1.00  0.00     0.163 HD
ATOM     76  O   UNL A   1      32.590  28.914  23.446  1.00  0.00    -0.275 OA
BRANCH  74  77
ATOM     77  C   UNL A   1      30.311  29.564  24.091  1.00  0.00     0.093 C 
ATOM     78  C   UNL A   1      29.775  30.782  23.275  1.00  0.00     0.029 C 
ATOM     79  C   UNL A   1      29.693  28.609  23.011  1.00  0.00     0.029 C 
ATOM     80  C   UNL A   1      28.615  31.503  23.863  1.00  0.00    -0.026 C 
ATOM     81  C   UNL A   1      29.183  29.829  22.228  1.00  0.00     0.015 C 
ATOM     82  C   UNL A   1      28.478  27.847  23.389  1.00  0.00    -0.026 C 
ATOM     83  C   UNL A   1      27.465  30.999  23.392  1.00  0.00    -0.023 C 
ATOM     84  C   UNL A   1      27.657  29.863  22.428  1.00  0.00     0.038 C 
ATOM     85  C   UNL A   1      27.373  28.529  23.057  1.00  0.00    -0.023 C 
ENDBRANCH  74  77
ENDBRANCH  72  73
ENDBRANCH  71  72
ENDBRANCH   1  71
TORSDOF 10
ENDMDL
MODEL 3
REMARK VINA RESULT:     -12.5      3.196      5.562
REMARK SMILES O=C(NCCCNC(=O)[C@@H]1[C@H]2C=C[C@H]3C=C[C@@H]1[C@H]32)c1ccc(-c2c3nc(c(-c4c(F)c(F)c(F)c(F)c4F)c4ccc([nH]4)c(-c4c(F)c(F)c(F)c(F)c4F)c4nc(c(-c5c(F)c(F)c(F)c(F)c5F)c5ccc2[nH]5)C=C4)C=C3)cc1
REMARK SMILES IDX 4 1 3 2 1 3 2 4 19 6 20 7 81 8 21 9 80 10 22 11 23 12 24 13
REMARK SMILES IDX 74 14 25 15 79 16 73 17 75 18 26 19 78 20 72 21 71 22 27 24
REMARK SMILES IDX 59 25 39 26 58 27 40 28 43 29 57 30 76 31 41 32 42 33 56 35
REMARK SMILES IDX 77 36 44 37 28 38 29 39 37 40 30 41 31 42 35 43 38 44 32 45
REMARK SMILES IDX 33 46 36 47 34 48 60 49 61 50 69 51 62 52 63 53 67 54 70 55
REMARK SMILES IDX 64 56 65 57 68 58 66 59 45 60 46 61 54 62 47 63 48 64 52 65
REMARK SMILES IDX 55 66 49 67 50 68 53 69 51 70 5 71 6 72 7 73 8 74 9 76 10 77
REMARK SMILES IDX 17 78 11 79 16 80 18 81 12 82 15 83 14 84 13 85
REMARK H PARENT 3 5 75 23 43 34 7 75
REMARK Flexibility Score: inf
ROOT
ATOM      1  C   UNL A   1      34.778  34.588  27.927  1.00  0.00     0.118 C 
ENDROOT
BRANCH   1   2
ATOM      2  N   UNL A   1      33.834  33.504  27.688  1.00  0.00    -0.352 N 
ATOM      3  O   UNL A   1      33.098  31.393  27.399  1.00  0.00    -0.269 OA
ATOM      4  C   UNL A   1      34.013  32.139  27.729  1.00  0.00     0.251 C 
ATOM      5  H   UNL A   1      32.921  33.794  27.461  1.00  0.00     0.163 HD
BRANCH   4   6
ATOM      6  C   UNL A   1      35.321  31.563  28.120  1.00  0.00     0.039 A 
ATOM      7  C   UNL A   1      35.467  30.199  28.369  1.00  0.00     0.014 A 
ATOM      8  C   UNL A   1      36.423  32.413  28.258  1.00  0.00     0.014 A 
ATOM      9  C   UNL A   1      36.631  29.726  28.963  1.00  0.00     0.010 A 
ATOM     10  C   UNL A   1      37.634  31.913  28.751  1.00  0.00     0.010 A 
ATOM     11  C   UNL A   1      37.729  30.577  29.170  1.00  0.00    -0.014 A 
BRANCH  11  12
ATOM     12  C   UNL A   1      38.952  30.040  29.824  1.00  0.00     0.031 A 
ATOM     13  C   UNL A   1      39.354  30.484  31.206  1.00  0.00     0.074 A 
ATOM     14  C   UNL A   1      39.673  29.095  29.189  1.00  0.00     0.049 A 
ATOM     15  N   UNL A   1      40.355  30.074  31.948  1.00  0.00    -0.248 NA
ATOM     16  C   UNL A   1      38.538  31.531  31.839  1.00  0.00     0.031 C 
ATOM     17  C   UNL A   1      39.396  28.588  27.844  1.00  0.00     0.029 A 
ATOM     18  N   UNL A   1      40.762  28.368  29.599  1.00  0.00    -0.354 N 
ATOM     19  C   UNL A   1      40.307  30.830  33.112  1.00  0.00     0.074 A 
ATOM     20  C   UNL A   1      39.191  31.741  32.974  1.00  0.00     0.031 C 
ATOM     21  C   UNL A   1      40.247  27.591  27.565  1.00  0.00     0.029 A 
ATOM     22  C   UNL A   1      41.167  27.426  28.685  1.00  0.00     0.049 A 
ATOM     23  H   UNL A   1      41.211  28.511  30.464  1.00  0.00     0.167 HD
ATOM     24  C   UNL A   1      41.113  30.767  34.199  1.00  0.00     0.037 A 
ATOM     25  C   UNL A   1      42.166  26.528  28.742  1.00  0.00     0.037 A 
ATOM     26  C   UNL A   1      42.198  29.832  34.355  1.00  0.00     0.049 A 
ATOM     27  C   UNL A   1      43.034  26.468  29.966  1.00  0.00     0.074 A 
ATOM     28  C   UNL A   1      43.042  29.661  35.440  1.00  0.00     0.029 A 
ATOM     29  N   UNL A   1      42.588  28.907  33.399  1.00  0.00    -0.354 N 
ATOM     30  N   UNL A   1      42.954  27.168  31.070  1.00  0.00    -0.248 NA
ATOM     31  C   UNL A   1      44.131  25.491  29.949  1.00  0.00     0.031 C 
ATOM     32  C   UNL A   1      43.964  28.658  35.126  1.00  0.00     0.029 A 
ATOM     33  C   UNL A   1      43.669  28.172  33.862  1.00  0.00     0.049 A 
ATOM     34  H   UNL A   1      42.160  28.788  32.520  1.00  0.00     0.167 HD
ATOM     35  C   UNL A   1      43.974  26.705  31.888  1.00  0.00     0.074 A 
ATOM     36  C   UNL A   1      44.648  25.650  31.159  1.00  0.00     0.031 C 
ATOM     37  C   UNL A   1      44.322  27.119  33.130  1.00  0.00     0.037 A 
BRANCH  24  38
ATOM     38  C   UNL A   1      40.867  31.747  35.309  1.00  0.00     0.064 A 
ATOM     39  C   UNL A   1      41.639  32.909  35.455  1.00  0.00     0.173 A 
ATOM     40  C   UNL A   1      39.812  31.542  36.213  1.00  0.00     0.173 A 
ATOM     41  F   UNL A   1      42.665  33.146  34.624  1.00  0.00    -0.203 F 
ATOM     42  C   UNL A   1      41.379  33.819  36.478  1.00  0.00     0.198 A 
ATOM     43  C   UNL A   1      39.540  32.466  37.219  1.00  0.00     0.198 A 
ATOM     44  F   UNL A   1      39.040  30.451  36.115  1.00  0.00    -0.203 F 
ATOM     45  F   UNL A   1      42.155  34.901  36.623  1.00  0.00    -0.200 F 
ATOM     46  C   UNL A   1      40.327  33.600  37.355  1.00  0.00     0.200 A 
ATOM     47  F   UNL A   1      38.515  32.259  38.058  1.00  0.00    -0.200 F 
ATOM     48  F   UNL A   1      40.074  34.479  38.334  1.00  0.00    -0.200 F 
ENDBRANCH  24  38
BRANCH  25  49
ATOM     49  C   UNL A   1      42.383  25.597  27.604  1.00  0.00     0.064 A 
ATOM     50  C   UNL A   1      43.355  25.867  26.631  1.00  0.00     0.173 A 
ATOM     51  C   UNL A   1      41.636  24.418  27.474  1.00  0.00     0.173 A 
ATOM     52  F   UNL A   1      44.080  26.992  26.703  1.00  0.00    -0.203 F 
ATOM     53  C   UNL A   1      43.562  24.996  25.564  1.00  0.00     0.198 A 
ATOM     54  C   UNL A   1      41.864  23.535  26.423  1.00  0.00     0.198 A 
ATOM     55  F   UNL A   1      40.698  24.115  28.384  1.00  0.00    -0.203 F 
ATOM     56  F   UNL A   1      44.473  25.295  24.626  1.00  0.00    -0.200 F 
ATOM     57  C   UNL A   1      42.822  23.827  25.465  1.00  0.00     0.200 A 
ATOM     58  F   UNL A   1      41.157  22.400  26.339  1.00  0.00    -0.200 F 
ATOM     59  F   UNL A   1      43.030  22.986  24.443  1.00  0.00    -0.200 F 
ENDBRANCH  25  49
BRANCH  37  60
ATOM     60  C   UNL A   1      45.460  26.402  33.794  1.00  0.00     0.064 A 
ATOM     61  C   UNL A   1      46.782  26.857  33.680  1.00  0.00     0.173 A 
ATOM     62  C   UNL A   1      45.220  25.255  34.565  1.00  0.00     0.173 A 
ATOM     63  F   UNL A   1      47.062  27.939  32.939  1.00  0.00    -0.203 F 
ATOM     64  C   UNL A   1      47.827  26.172  34.294  1.00  0.00     0.198 A 
ATOM     65  C   UNL A   1      46.265  24.588  35.198  1.00  0.00     0.198 A 
ATOM     66  F   UNL A   1      43.972  24.783  34.706  1.00  0.00    -0.203 F 
ATOM     67  F   UNL A   1      49.088  26.595  34.133  1.00  0.00    -0.200 F 
ATOM     68  C   UNL A   1      47.568  25.042  35.056  1.00  0.00     0.200 A 
ATOM     69  F   UNL A   1      46.012  23.502  35.942  1.00  0.00    -0.200 F 
ATOM     70  F   UNL A   1      48.576  24.384  35.644  1.00  0.00    -0.200 F 
ENDBRANCH  37  60
ENDBRANCH  11  12
ENDBRANCH   4   6
ENDBRANCH   1   2
BRANCH   1  71
ATOM     71  C   UNL A   1      34.124  35.920  28.268  1.00  0.00     0.042 C 
BRANCH  71  72
ATOM     72  C   UNL A   1      32.904  35.826  29.170  1.00  0.00     0.117 C 
BRANCH  72  73
ATOM     73  N   UNL A   1      32.869  36.852  30.191  1.00  0.00    -0.356 N 
ATOM     74  C   UNL A   1      33.276  36.795  31.501  1.00  0.00     0.224 C 
ATOM     75  H   UNL A   1      32.496  37.717  29.904  1.00  0.00     0.163 HD
ATOM     76  O   UNL A   1      33.172  37.853  32.137  1.00  0.00    -0.275 OA
BRANCH  74  77
ATOM     77  C   UNL A   1      33.810  35.481  32.123  1.00  0.00     0.093 C 
ATOM     78  C   UNL A   1      34.774  34.543  31.331  1.00  0.00     0.029 C 
ATOM     79  C   UNL A   1      34.944  35.697  33.186  1.00  0.00     0.029 C 
ATOM     80  C   UNL A   1      34.464  33.090  31.386  1.00  0.00    -0.026 C 
ATOM     81  C   UNL A   1      35.871  34.773  32.380  1.00  0.00     0.015 C 
ATOM     82  C   UNL A   1      34.778  35.037  34.503  1.00  0.00    -0.026 C 
ATOM     83  C   UNL A   1      35.129  32.509  32.395  1.00  0.00    -0.023 C 
ATOM     84  C   UNL A   1      35.979  33.464  33.183  1.00  0.00     0.038 C 
ATOM     85  C   UNL A   1      35.356  33.828  34.500  1.00  0.00    -0.023 C 
ENDBRANCH  74  77
ENDBRANCH  72  73
ENDBRANCH  71  72
ENDBRANCH   1  71
TORSDOF 10
ENDMDL
