MODEL 1
REMARK VINA RESULT:     -12.9      0.000      0.000
REMARK SMILES CC(C)(C)c1ccc(C(=O)N/C(=C/c2ccc(O)cc2)C(=O)NCCCNC(=O)c2ccc(-c3c4nc(c(-c5c(F)c(F)c(F)c(F)c5F)c5ccc([nH]5)c(-c5c(F)c(F)c(F)c(F)c5F)c5nc(c(-c6c(F)c(F)c(F)c(F)c6F)c6ccc3[nH]6)C=C5)C=C4)cc2)cc1
REMARK SMILES IDX 24 1 23 2 21 3 22 4 12 6 13 7 11 8 9 9 10 10 8 12 5 13 6 14
REMARK SMILES IDX 94 15 7 16 93 17 2 18 1 19 3 20 4 21 14 22 15 23 20 24 16 25
REMARK SMILES IDX 19 26 17 27 18 28 25 30 26 31 27 32 28 33 29 35 30 36 31 37
REMARK SMILES IDX 92 38 32 39 91 40 33 41 34 42 35 43 85 44 36 45 90 46 84 47
REMARK SMILES IDX 86 48 37 49 89 50 83 51 82 52 38 54 70 55 50 56 69 57 51 58
REMARK SMILES IDX 54 59 68 60 87 61 52 62 53 63 67 65 88 66 55 67 39 68 40 69
REMARK SMILES IDX 48 70 41 71 42 72 46 73 49 74 43 75 44 76 47 77 45 78 71 79
REMARK SMILES IDX 72 80 80 81 73 82 74 83 78 84 81 85 75 86 76 87 79 88 77 89
REMARK SMILES IDX 56 90 57 91 65 92 58 93 59 94 63 95 66 96 60 97 61 98 64 99
REMARK SMILES IDX 62 100
REMARK H PARENT 23 5 11 11 18 29 27 34 86 53 54 64
REMARK Flexibility Score: inf
ROOT
ATOM      1  C   UNL A   1      33.021  26.550  25.209  1.00  0.00     0.118 C 
ENDROOT
BRANCH   1   2
ATOM      2  N   UNL A   1      32.352  26.376  26.465  1.00  0.00    -0.351 N 
ATOM      3  C   UNL A   1      31.011  26.511  26.660  1.00  0.00     0.267 C 
ATOM      4  O   UNL A   1      30.669  27.204  27.624  1.00  0.00    -0.268 OA
ATOM      5  H   UNL A   1      32.903  26.141  27.246  1.00  0.00     0.163 HD
BRANCH   3   6
ATOM      6  C   UNL A   1      29.948  25.717  25.890  1.00  0.00     0.107 C 
ATOM      7  C   UNL A   1      29.275  25.985  24.744  1.00  0.00     0.040 C 
BRANCH   6   8
ATOM      8  N   UNL A   1      29.571  24.520  26.504  1.00  0.00    -0.317 N 
ATOM      9  C   UNL A   1      30.310  23.408  26.876  1.00  0.00     0.255 C 
ATOM     10  O   UNL A   1      29.793  22.579  27.627  1.00  0.00    -0.269 OA
ATOM     11  H   UNL A   1      28.611  24.454  26.709  1.00  0.00     0.170 HD
BRANCH   9  12
ATOM     12  C   UNL A   1      31.657  23.118  26.306  1.00  0.00     0.040 A 
ATOM     13  C   UNL A   1      34.291  22.752  25.303  1.00  0.00    -0.043 A 
ATOM     14  C   UNL A   1      34.024  22.737  26.684  1.00  0.00     0.005 A 
ATOM     15  C   UNL A   1      33.184  22.825  24.440  1.00  0.00     0.005 A 
ATOM     16  C   UNL A   1      32.727  22.928  27.181  1.00  0.00     0.014 A 
ATOM     17  C   UNL A   1      31.881  22.982  24.934  1.00  0.00     0.014 A 
BRANCH  13  18
ATOM     18  C   UNL A   1      35.733  22.668  24.767  1.00  0.00    -0.013 C 
ATOM     19  C   UNL A   1      36.356  21.271  25.006  1.00  0.00     0.016 C 
ATOM     20  C   UNL A   1      36.683  23.680  25.451  1.00  0.00     0.016 C 
ATOM     21  C   UNL A   1      35.721  22.954  23.255  1.00  0.00     0.016 C 
ENDBRANCH  13  18
ENDBRANCH   9  12
ENDBRANCH   6   8
BRANCH   7  22
ATOM     22  C   UNL A   1      29.489  26.982  23.691  1.00  0.00    -0.023 A 
ATOM     23  C   UNL A   1      28.593  28.027  23.432  1.00  0.00     0.012 A 
ATOM     24  C   UNL A   1      30.696  26.918  22.973  1.00  0.00     0.012 A 
ATOM     25  C   UNL A   1      28.983  29.080  22.592  1.00  0.00     0.047 A 
ATOM     26  C   UNL A   1      31.081  27.967  22.135  1.00  0.00     0.047 A 
ATOM     27  C   UNL A   1      30.244  29.067  22.000  1.00  0.00     0.115 A 
BRANCH  27  28
ATOM     28  O   UNL A   1      30.654  30.184  21.334  1.00  0.00    -0.508 OA
ATOM     29  H   UNL A   1      30.392  30.323  20.446  1.00  0.00     0.293 HD
ENDBRANCH  27  28
ENDBRANCH   7  22
ENDBRANCH   3   6
ENDBRANCH   1   2
BRANCH   1  30
ATOM     30  C   UNL A   1      33.711  27.889  25.053  1.00  0.00     0.042 C 
BRANCH  30  31
ATOM     31  C   UNL A   1      34.354  28.348  26.345  1.00  0.00     0.118 C 
BRANCH  31  32
ATOM     32  N   UNL A   1      34.043  29.746  26.648  1.00  0.00    -0.352 N 
ATOM     33  C   UNL A   1      34.570  30.610  27.585  1.00  0.00     0.251 C 
ATOM     34  H   UNL A   1      33.336  30.137  26.086  1.00  0.00     0.163 HD
ATOM     35  O   UNL A   1      33.931  31.608  27.902  1.00  0.00    -0.269 OA
BRANCH  33  36
ATOM     36  C   UNL A   1      35.868  30.308  28.238  1.00  0.00     0.039 A 
ATOM     37  C   UNL A   1      35.900  29.675  29.483  1.00  0.00     0.014 A 
ATOM     38  C   UNL A   1      37.068  30.635  27.614  1.00  0.00     0.014 A 
ATOM     39  C   UNL A   1      37.124  29.266  30.026  1.00  0.00     0.010 A 
ATOM     40  C   UNL A   1      38.256  30.078  28.061  1.00  0.00     0.010 A 
ATOM     41  C   UNL A   1      38.309  29.399  29.283  1.00  0.00    -0.014 A 
BRANCH  41  42
ATOM     42  C   UNL A   1      39.623  28.876  29.750  1.00  0.00     0.031 A 
ATOM     43  C   UNL A   1      40.435  29.673  30.742  1.00  0.00     0.074 A 
ATOM     44  C   UNL A   1      40.139  27.756  29.206  1.00  0.00     0.049 A 
ATOM     45  N   UNL A   1      41.670  29.499  31.139  1.00  0.00    -0.248 NA
ATOM     46  C   UNL A   1      39.788  30.862  31.323  1.00  0.00     0.031 C 
ATOM     47  C   UNL A   1      39.489  26.925  28.190  1.00  0.00     0.029 A 
ATOM     48  N   UNL A   1      41.342  27.129  29.419  1.00  0.00    -0.354 N 
ATOM     49  C   UNL A   1      41.951  30.568  31.981  1.00  0.00     0.074 A 
ATOM     50  C   UNL A   1      40.792  31.432  31.971  1.00  0.00     0.031 C 
ATOM     51  C   UNL A   1      40.280  25.878  27.902  1.00  0.00     0.029 A 
ATOM     52  C   UNL A   1      41.516  25.992  28.667  1.00  0.00     0.049 A 
ATOM     53  H   UNL A   1      42.018  27.463  30.053  1.00  0.00     0.167 HD
ATOM     54  C   UNL A   1      43.055  30.793  32.731  1.00  0.00     0.037 A 
ATOM     55  C   UNL A   1      42.560  25.144  28.598  1.00  0.00     0.037 A 
ATOM     56  C   UNL A   1      44.184  29.904  32.783  1.00  0.00     0.049 A 
ATOM     57  C   UNL A   1      43.775  25.411  29.446  1.00  0.00     0.074 A 
ATOM     58  C   UNL A   1      45.328  30.003  33.552  1.00  0.00     0.029 A 
ATOM     59  N   UNL A   1      44.300  28.739  32.037  1.00  0.00    -0.354 N 
ATOM     60  N   UNL A   1      44.002  26.394  30.283  1.00  0.00    -0.248 NA
ATOM     61  C   UNL A   1      44.879  24.447  29.342  1.00  0.00     0.031 C 
ATOM     62  C   UNL A   1      46.156  28.918  33.244  1.00  0.00     0.029 A 
ATOM     63  C   UNL A   1      45.502  28.116  32.323  1.00  0.00     0.049 A 
ATOM     64  H   UNL A   1      43.626  28.406  31.400  1.00  0.00     0.167 HD
ATOM     65  C   UNL A   1      45.253  26.146  30.833  1.00  0.00     0.074 A 
ATOM     66  C   UNL A   1      45.731  24.914  30.244  1.00  0.00     0.031 C 
ATOM     67  C   UNL A   1      45.945  26.873  31.744  1.00  0.00     0.037 A 
BRANCH  54  68
ATOM     68  C   UNL A   1      43.081  32.034  33.579  1.00  0.00     0.064 A 
ATOM     69  C   UNL A   1      43.625  33.238  33.102  1.00  0.00     0.173 A 
ATOM     70  C   UNL A   1      42.537  32.031  34.871  1.00  0.00     0.173 A 
ATOM     71  F   UNL A   1      44.172  33.295  31.877  1.00  0.00    -0.203 F 
ATOM     72  C   UNL A   1      43.658  34.378  33.901  1.00  0.00     0.198 A 
ATOM     73  C   UNL A   1      42.538  33.184  35.654  1.00  0.00     0.198 A 
ATOM     74  F   UNL A   1      41.999  30.911  35.377  1.00  0.00    -0.203 F 
ATOM     75  F   UNL A   1      44.240  35.495  33.444  1.00  0.00    -0.200 F 
ATOM     76  C   UNL A   1      43.107  34.352  35.172  1.00  0.00     0.200 A 
ATOM     77  F   UNL A   1      41.993  33.162  36.878  1.00  0.00    -0.200 F 
ATOM     78  F   UNL A   1      43.134  35.452  35.937  1.00  0.00    -0.200 F 
ENDBRANCH  54  68
BRANCH  55  79
ATOM     79  C   UNL A   1      42.495  23.940  27.724  1.00  0.00     0.064 A 
ATOM     80  C   UNL A   1      42.142  22.690  28.254  1.00  0.00     0.173 A 
ATOM     81  C   UNL A   1      42.806  24.002  26.359  1.00  0.00     0.173 A 
ATOM     82  F   UNL A   1      41.854  22.574  29.559  1.00  0.00    -0.203 F 
ATOM     83  C   UNL A   1      42.134  21.545  27.460  1.00  0.00     0.198 A 
ATOM     84  C   UNL A   1      42.767  22.861  25.557  1.00  0.00     0.198 A 
ATOM     85  F   UNL A   1      43.144  25.173  25.798  1.00  0.00    -0.203 F 
ATOM     86  F   UNL A   1      41.851  20.355  28.007  1.00  0.00    -0.200 F 
ATOM     87  C   UNL A   1      42.443  21.632  26.112  1.00  0.00     0.200 A 
ATOM     88  F   UNL A   1      43.050  22.952  24.251  1.00  0.00    -0.200 F 
ATOM     89  F   UNL A   1      42.438  20.531  25.348  1.00  0.00    -0.200 F 
ENDBRANCH  55  79
BRANCH  67  90
ATOM     90  C   UNL A   1      47.264  26.327  32.205  1.00  0.00     0.064 A 
ATOM     91  C   UNL A   1      47.358  25.429  33.277  1.00  0.00     0.173 A 
ATOM     92  C   UNL A   1      48.444  26.670  31.527  1.00  0.00     0.173 A 
ATOM     93  F   UNL A   1      46.260  25.082  33.966  1.00  0.00    -0.203 F 
ATOM     94  C   UNL A   1      48.590  24.912  33.670  1.00  0.00     0.198 A 
ATOM     95  C   UNL A   1      49.669  26.126  31.902  1.00  0.00     0.198 A 
ATOM     96  F   UNL A   1      48.407  27.519  30.489  1.00  0.00    -0.203 F 
ATOM     97  F   UNL A   1      48.664  24.092  34.727  1.00  0.00    -0.200 F 
ATOM     98  C   UNL A   1      49.743  25.255  32.978  1.00  0.00     0.200 A 
ATOM     99  F   UNL A   1      50.778  26.445  31.221  1.00  0.00    -0.200 F 
ATOM    100  F   UNL A   1      50.925  24.747  33.350  1.00  0.00    -0.200 F 
ENDBRANCH  67  90
ENDBRANCH  41  42
ENDBRANCH  33  36
ENDBRANCH  31  32
ENDBRANCH  30  31
ENDBRANCH   1  30
TORSDOF 15
ENDMDL
MODEL 2
REMARK VINA RESULT:     -12.7      2.091      3.770
REMARK SMILES CC(C)(C)c1ccc(C(=O)N/C(=C/c2ccc(O)cc2)C(=O)NCCCNC(=O)c2ccc(-c3c4nc(c(-c5c(F)c(F)c(F)c(F)c5F)c5ccc([nH]5)c(-c5c(F)c(F)c(F)c(F)c5F)c5nc(c(-c6c(F)c(F)c(F)c(F)c6F)c6ccc3[nH]6)C=C5)C=C4)cc2)cc1
REMARK SMILES IDX 24 1 23 2 21 3 22 4 12 6 13 7 11 8 9 9 10 10 8 12 5 13 6 14
REMARK SMILES IDX 94 15 7 16 93 17 2 18 1 19 3 20 4 21 14 22 15 23 20 24 16 25
REMARK SMILES IDX 19 26 17 27 18 28 25 30 26 31 27 32 28 33 29 35 30 36 31 37
REMARK SMILES IDX 92 38 32 39 91 40 33 41 34 42 35 43 85 44 36 45 90 46 84 47
REMARK SMILES IDX 86 48 37 49 89 50 83 51 82 52 38 54 70 55 50 56 69 57 51 58
REMARK SMILES IDX 54 59 68 60 87 61 52 62 53 63 67 65 88 66 55 67 39 68 40 69
REMARK SMILES IDX 48 70 41 71 42 72 46 73 49 74 43 75 44 76 47 77 45 78 71 79
REMARK SMILES IDX 72 80 80 81 73 82 74 83 78 84 81 85 75 86 76 87 79 88 77 89
REMARK SMILES IDX 56 90 57 91 65 92 58 93 59 94 63 95 66 96 60 97 61 98 64 99
REMARK SMILES IDX 62 100
REMARK H PARENT 23 5 11 11 18 29 27 34 86 53 54 64
REMARK Flexibility Score: inf
ROOT
ATOM      1  C   UNL A   1      33.552  27.309  25.235  1.00  0.00     0.118 C 
ENDROOT
BRANCH   1   2
ATOM      2  N   UNL A   1      33.896  26.176  26.044  1.00  0.00    -0.351 N 
ATOM      3  C   UNL A   1      33.442  24.908  25.845  1.00  0.00     0.267 C 
ATOM      4  O   UNL A   1      33.007  24.324  26.843  1.00  0.00    -0.268 OA
ATOM      5  H   UNL A   1      34.509  26.326  26.800  1.00  0.00     0.163 HD
BRANCH   3   6
ATOM      6  C   UNL A   1      33.616  24.129  24.535  1.00  0.00     0.107 C 
ATOM      7  C   UNL A   1      34.699  23.538  23.975  1.00  0.00     0.040 C 
BRANCH   6   8
ATOM      8  N   UNL A   1      32.460  24.053  23.755  1.00  0.00    -0.317 N 
ATOM      9  C   UNL A   1      31.604  22.998  23.485  1.00  0.00     0.255 C 
ATOM     10  O   UNL A   1      30.512  23.239  22.968  1.00  0.00    -0.269 OA
ATOM     11  H   UNL A   1      32.207  24.900  23.321  1.00  0.00     0.170 HD
BRANCH   9  12
ATOM     12  C   UNL A   1      32.004  21.575  23.684  1.00  0.00     0.040 A 
ATOM     13  C   UNL A   1      32.958  18.936  24.136  1.00  0.00    -0.043 A 
ATOM     14  C   UNL A   1      32.712  19.819  25.203  1.00  0.00     0.005 A 
ATOM     15  C   UNL A   1      32.589  19.370  22.851  1.00  0.00     0.005 A 
ATOM     16  C   UNL A   1      32.253  21.125  24.982  1.00  0.00     0.014 A 
ATOM     17  C   UNL A   1      32.096  20.663  22.630  1.00  0.00     0.014 A 
BRANCH  13  18
ATOM     18  C   UNL A   1      33.582  17.547  24.375  1.00  0.00    -0.013 C 
ATOM     19  C   UNL A   1      33.390  16.612  23.157  1.00  0.00     0.016 C 
ATOM     20  C   UNL A   1      32.950  16.811  25.581  1.00  0.00     0.016 C 
ATOM     21  C   UNL A   1      35.088  17.716  24.640  1.00  0.00     0.016 C 
ENDBRANCH  13  18
ENDBRANCH   9  12
ENDBRANCH   6   8
BRANCH   7  22
ATOM     22  C   UNL A   1      36.019  23.195  24.513  1.00  0.00    -0.023 A 
ATOM     23  C   UNL A   1      36.772  24.070  25.308  1.00  0.00     0.012 A 
ATOM     24  C   UNL A   1      36.497  21.894  24.280  1.00  0.00     0.012 A 
ATOM     25  C   UNL A   1      37.896  23.586  25.994  1.00  0.00     0.047 A 
ATOM     26  C   UNL A   1      37.619  21.416  24.962  1.00  0.00     0.047 A 
ATOM     27  C   UNL A   1      38.272  22.252  25.859  1.00  0.00     0.115 A 
BRANCH  27  28
ATOM     28  O   UNL A   1      39.259  21.776  26.671  1.00  0.00    -0.508 OA
ATOM     29  H   UNL A   1      39.188  21.872  27.599  1.00  0.00     0.293 HD
ENDBRANCH  27  28
ENDBRANCH   7  22
ENDBRANCH   3   6
ENDBRANCH   1   2
BRANCH   1  30
ATOM     30  C   UNL A   1      34.017  28.637  25.794  1.00  0.00     0.042 C 
BRANCH  30  31
ATOM     31  C   UNL A   1      33.627  28.805  27.248  1.00  0.00     0.118 C 
BRANCH  31  32
ATOM     32  N   UNL A   1      33.782  30.189  27.702  1.00  0.00    -0.352 N 
ATOM     33  C   UNL A   1      34.781  30.797  28.434  1.00  0.00     0.251 C 
ATOM     34  H   UNL A   1      33.048  30.789  27.439  1.00  0.00     0.163 HD
ATOM     35  O   UNL A   1      34.545  31.860  28.997  1.00  0.00    -0.269 OA
BRANCH  33  36
ATOM     36  C   UNL A   1      36.108  30.146  28.579  1.00  0.00     0.039 A 
ATOM     37  C   UNL A   1      37.045  30.219  27.546  1.00  0.00     0.014 A 
ATOM     38  C   UNL A   1      36.442  29.473  29.750  1.00  0.00     0.014 A 
ATOM     39  C   UNL A   1      38.342  29.728  27.745  1.00  0.00     0.010 A 
ATOM     40  C   UNL A   1      37.764  29.149  30.010  1.00  0.00     0.010 A 
ATOM     41  C   UNL A   1      38.734  29.254  29.007  1.00  0.00    -0.014 A 
BRANCH  41  42
ATOM     42  C   UNL A   1      40.127  28.832  29.318  1.00  0.00     0.031 A 
ATOM     43  C   UNL A   1      41.029  29.751  30.106  1.00  0.00     0.074 A 
ATOM     44  C   UNL A   1      40.621  27.688  28.803  1.00  0.00     0.049 A 
ATOM     45  N   UNL A   1      42.316  29.666  30.330  1.00  0.00    -0.248 NA
ATOM     46  C   UNL A   1      40.409  30.962  30.671  1.00  0.00     0.031 C 
ATOM     47  C   UNL A   1      39.878  26.738  27.971  1.00  0.00     0.029 A 
ATOM     48  N   UNL A   1      41.875  27.133  28.890  1.00  0.00    -0.354 N 
ATOM     49  C   UNL A   1      42.656  30.821  31.025  1.00  0.00     0.074 A 
ATOM     50  C   UNL A   1      41.463  31.630  31.111  1.00  0.00     0.031 C 
ATOM     51  C   UNL A   1      40.676  25.703  27.661  1.00  0.00     0.029 A 
ATOM     52  C   UNL A   1      42.001  25.939  28.221  1.00  0.00     0.049 A 
ATOM     53  H   UNL A   1      42.615  27.554  29.386  1.00  0.00     0.167 HD
ATOM     54  C   UNL A   1      43.843  31.160  31.580  1.00  0.00     0.037 A 
ATOM     55  C   UNL A   1      43.068  25.132  28.073  1.00  0.00     0.037 A 
ATOM     56  C   UNL A   1      45.014  30.327  31.542  1.00  0.00     0.049 A 
ATOM     57  C   UNL A   1      44.377  25.528  28.706  1.00  0.00     0.074 A 
ATOM     58  C   UNL A   1      46.250  30.545  32.122  1.00  0.00     0.029 A 
ATOM     59  N   UNL A   1      45.085  29.103  30.891  1.00  0.00    -0.354 N 
ATOM     60  N   UNL A   1      44.667  26.594  29.411  1.00  0.00    -0.248 NA
ATOM     61  C   UNL A   1      45.505  24.604  28.523  1.00  0.00     0.031 C 
ATOM     62  C   UNL A   1      47.082  29.471  31.790  1.00  0.00     0.029 A 
ATOM     63  C   UNL A   1      46.348  28.560  31.049  1.00  0.00     0.049 A 
ATOM     64  H   UNL A   1      44.346  28.684  30.392  1.00  0.00     0.167 HD
ATOM     65  C   UNL A   1      45.995  26.451  29.789  1.00  0.00     0.074 A 
ATOM     66  C   UNL A   1      46.451  25.189  29.245  1.00  0.00     0.031 C 
ATOM     67  C   UNL A   1      46.771  27.288  30.521  1.00  0.00     0.037 A 
BRANCH  54  68
ATOM     68  C   UNL A   1      43.922  32.475  32.304  1.00  0.00     0.064 A 
ATOM     69  C   UNL A   1      43.599  32.584  33.667  1.00  0.00     0.173 A 
ATOM     70  C   UNL A   1      44.346  33.635  31.639  1.00  0.00     0.173 A 
ATOM     71  F   UNL A   1      43.175  31.509  34.349  1.00  0.00    -0.203 F 
ATOM     72  C   UNL A   1      43.661  33.810  34.325  1.00  0.00     0.198 A 
ATOM     73  C   UNL A   1      44.442  34.852  32.310  1.00  0.00     0.198 A 
ATOM     74  F   UNL A   1      44.672  33.590  30.339  1.00  0.00    -0.203 F 
ATOM     75  F   UNL A   1      43.287  33.897  35.608  1.00  0.00    -0.200 F 
ATOM     76  C   UNL A   1      44.090  34.941  33.649  1.00  0.00     0.200 A 
ATOM     77  F   UNL A   1      44.871  35.943  31.659  1.00  0.00    -0.200 F 
ATOM     78  F   UNL A   1      44.156  36.118  34.285  1.00  0.00    -0.200 F 
ENDBRANCH  54  68
BRANCH  55  79
ATOM     79  C   UNL A   1      42.945  23.850  27.326  1.00  0.00     0.064 A 
ATOM     80  C   UNL A   1      42.507  22.685  27.974  1.00  0.00     0.173 A 
ATOM     81  C   UNL A   1      43.281  23.751  25.969  1.00  0.00     0.173 A 
ATOM     82  F   UNL A   1      42.191  22.722  29.277  1.00  0.00    -0.203 F 
ATOM     83  C   UNL A   1      42.442  21.466  27.302  1.00  0.00     0.198 A 
ATOM     84  C   UNL A   1      43.186  22.538  25.289  1.00  0.00     0.198 A 
ATOM     85  F   UNL A   1      43.699  24.835  25.299  1.00  0.00    -0.203 F 
ATOM     86  F   UNL A   1      42.078  20.358  27.962  1.00  0.00    -0.200 F 
ATOM     87  C   UNL A   1      42.778  21.394  25.959  1.00  0.00     0.200 A 
ATOM     88  F   UNL A   1      43.496  22.475  23.987  1.00  0.00    -0.200 F 
ATOM     89  F   UNL A   1      42.718  20.221  25.313  1.00  0.00    -0.200 F 
ENDBRANCH  55  79
BRANCH  67  90
ATOM     90  C   UNL A   1      48.170  26.842  30.828  1.00  0.00     0.064 A 
ATOM     91  C   UNL A   1      48.454  25.979  31.894  1.00  0.00     0.173 A 
ATOM     92  C   UNL A   1      49.234  27.247  30.006  1.00  0.00     0.173 A 
ATOM     93  F   UNL A   1      47.473  25.576  32.716  1.00  0.00    -0.203 F 
ATOM     94  C   UNL A   1      49.757  25.556  32.143  1.00  0.00     0.198 A 
ATOM     95  C   UNL A   1      50.529  26.796  30.238  1.00  0.00     0.198 A 
ATOM     96  F   UNL A   1      49.013  28.067  28.967  1.00  0.00    -0.203 F 
ATOM     97  F   UNL A   1      50.013  24.768  33.197  1.00  0.00    -0.200 F 
ATOM     98  C   UNL A   1      50.792  25.957  31.311  1.00  0.00     0.200 A 
ATOM     99  F   UNL A   1      51.524  27.171  29.423  1.00  0.00    -0.200 F 
ATOM    100  F   UNL A   1      52.043  25.539  31.545  1.00  0.00    -0.200 F 
ENDBRANCH  67  90
ENDBRANCH  41  42
ENDBRANCH  33  36
ENDBRANCH  31  32
ENDBRANCH  30  31
ENDBRANCH   1  30
TORSDOF 15
ENDMDL
MODEL 3
REMARK VINA RESULT:     -12.7      3.629      8.795
REMARK SMILES CC(C)(C)c1ccc(C(=O)N/C(=C/c2ccc(O)cc2)C(=O)NCCCNC(=O)c2ccc(-c3c4nc(c(-c5c(F)c(F)c(F)c(F)c5F)c5ccc([nH]5)c(-c5c(F)c(F)c(F)c(F)c5F)c5nc(c(-c6c(F)c(F)c(F)c(F)c6F)c6ccc3[nH]6)C=C5)C=C4)cc2)cc1
REMARK SMILES IDX 24 1 23 2 21 3 22 4 12 6 13 7 11 8 9 9 10 10 8 12 5 13 6 14
REMARK SMILES IDX 94 15 7 16 93 17 2 18 1 19 3 20 4 21 14 22 15 23 20 24 16 25
REMARK SMILES IDX 19 26 17 27 18 28 25 30 26 31 27 32 28 33 29 35 30 36 31 37
REMARK SMILES IDX 92 38 32 39 91 40 33 41 34 42 35 43 85 44 36 45 90 46 84 47
REMARK SMILES IDX 86 48 37 49 89 50 83 51 82 52 38 54 70 55 50 56 69 57 51 58
REMARK SMILES IDX 54 59 68 60 87 61 52 62 53 63 67 65 88 66 55 67 39 68 40 69
REMARK SMILES IDX 48 70 41 71 42 72 46 73 49 74 43 75 44 76 47 77 45 78 71 79
REMARK SMILES IDX 72 80 80 81 73 82 74 83 78 84 81 85 75 86 76 87 79 88 77 89
REMARK SMILES IDX 56 90 57 91 65 92 58 93 59 94 63 95 66 96 60 97 61 98 64 99
REMARK SMILES IDX 62 100
REMARK H PARENT 23 5 11 11 18 29 27 34 86 53 54 64
REMARK Flexibility Score: inf
ROOT
ATOM      1  C   UNL A   1      34.058  23.989  25.138  1.00  0.00     0.118 C 
ENDROOT
BRANCH   1   2
ATOM      2  N   UNL A   1      34.752  24.170  23.896  1.00  0.00    -0.351 N 
ATOM      3  C   UNL A   1      34.672  23.331  22.828  1.00  0.00     0.267 C 
ATOM      4  O   UNL A   1      35.746  22.998  22.317  1.00  0.00    -0.268 OA
ATOM      5  H   UNL A   1      35.331  24.962  23.811  1.00  0.00     0.163 HD
BRANCH   3   6
ATOM      6  C   UNL A   1      33.359  22.952  22.132  1.00  0.00     0.107 C 
ATOM      7  C   UNL A   1      32.502  21.919  22.322  1.00  0.00     0.040 C 
BRANCH   6   8
ATOM      8  N   UNL A   1      33.002  23.799  21.080  1.00  0.00    -0.317 N 
ATOM      9  C   UNL A   1      32.844  25.175  21.024  1.00  0.00     0.255 C 
ATOM     10  O   UNL A   1      32.767  25.717  19.920  1.00  0.00    -0.269 OA
ATOM     11  H   UNL A   1      32.834  23.338  20.227  1.00  0.00     0.170 HD
BRANCH   9  12
ATOM     12  C   UNL A   1      32.642  26.005  22.246  1.00  0.00     0.040 A 
ATOM     13  C   UNL A   1      32.448  27.513  24.648  1.00  0.00    -0.043 A 
ATOM     14  C   UNL A   1      33.430  27.797  23.681  1.00  0.00     0.005 A 
ATOM     15  C   UNL A   1      31.490  26.540  24.316  1.00  0.00     0.005 A 
ATOM     16  C   UNL A   1      33.535  27.048  22.501  1.00  0.00     0.014 A 
ATOM     17  C   UNL A   1      31.571  25.812  23.121  1.00  0.00     0.014 A 
BRANCH  13  18
ATOM     18  C   UNL A   1      32.416  28.256  25.997  1.00  0.00    -0.013 C 
ATOM     19  C   UNL A   1      31.982  29.732  25.832  1.00  0.00     0.016 C 
ATOM     20  C   UNL A   1      33.800  28.294  26.689  1.00  0.00     0.016 C 
ATOM     21  C   UNL A   1      31.421  27.548  26.933  1.00  0.00     0.016 C 
ENDBRANCH  13  18
ENDBRANCH   9  12
ENDBRANCH   6   8
BRANCH   7  22
ATOM     22  C   UNL A   1      32.366  20.945  23.409  1.00  0.00    -0.023 A 
ATOM     23  C   UNL A   1      32.386  19.559  23.203  1.00  0.00     0.012 A 
ATOM     24  C   UNL A   1      32.296  21.443  24.722  1.00  0.00     0.012 A 
ATOM     25  C   UNL A   1      32.508  18.698  24.303  1.00  0.00     0.047 A 
ATOM     26  C   UNL A   1      32.416  20.583  25.816  1.00  0.00     0.047 A 
ATOM     27  C   UNL A   1      32.580  19.222  25.592  1.00  0.00     0.115 A 
BRANCH  27  28
ATOM     28  O   UNL A   1      32.873  18.372  26.617  1.00  0.00    -0.508 OA
ATOM     29  H   UNL A   1      33.294  18.696  27.388  1.00  0.00     0.293 HD
ENDBRANCH  27  28
ENDBRANCH   7  22
ENDBRANCH   3   6
ENDBRANCH   1   2
BRANCH   1  30
ATOM     30  C   UNL A   1      34.933  23.501  26.274  1.00  0.00     0.042 C 
BRANCH  30  31
ATOM     31  C   UNL A   1      36.356  24.006  26.148  1.00  0.00     0.118 C 
BRANCH  31  32
ATOM     32  N   UNL A   1      37.333  22.919  26.225  1.00  0.00    -0.352 N 
ATOM     33  C   UNL A   1      38.701  22.940  26.405  1.00  0.00     0.251 C 
ATOM     34  H   UNL A   1      36.949  22.017  26.134  1.00  0.00     0.163 HD
ATOM     35  O   UNL A   1      39.360  21.955  26.089  1.00  0.00    -0.269 OA
BRANCH  33  36
ATOM     36  C   UNL A   1      39.371  24.158  26.925  1.00  0.00     0.039 A 
ATOM     37  C   UNL A   1      40.015  25.036  26.049  1.00  0.00     0.014 A 
ATOM     38  C   UNL A   1      39.352  24.451  28.285  1.00  0.00     0.014 A 
ATOM     39  C   UNL A   1      40.520  26.252  26.527  1.00  0.00     0.010 A 
ATOM     40  C   UNL A   1      39.690  25.721  28.725  1.00  0.00     0.010 A 
ATOM     41  C   UNL A   1      40.296  26.638  27.859  1.00  0.00    -0.014 A 
BRANCH  41  42
ATOM     42  C   UNL A   1      40.699  27.966  28.398  1.00  0.00     0.031 A 
ATOM     43  C   UNL A   1      42.144  28.222  28.752  1.00  0.00     0.074 A 
ATOM     44  C   UNL A   1      39.765  28.897  28.677  1.00  0.00     0.049 A 
ATOM     45  N   UNL A   1      42.679  29.229  29.397  1.00  0.00    -0.248 NA
ATOM     46  C   UNL A   1      43.112  27.176  28.379  1.00  0.00     0.031 C 
ATOM     47  C   UNL A   1      38.325  28.755  28.446  1.00  0.00     0.029 A 
ATOM     48  N   UNL A   1      39.884  30.147  29.234  1.00  0.00    -0.354 N 
ATOM     49  C   UNL A   1      44.026  28.916  29.533  1.00  0.00     0.074 A 
ATOM     50  C   UNL A   1      44.213  27.593  28.984  1.00  0.00     0.031 C 
ATOM     51  C   UNL A   1      37.703  29.886  28.818  1.00  0.00     0.029 A 
ATOM     52  C   UNL A   1      38.688  30.811  29.366  1.00  0.00     0.049 A 
ATOM     53  H   UNL A   1      40.747  30.530  29.514  1.00  0.00     0.167 HD
ATOM     54  C   UNL A   1      45.029  29.678  30.031  1.00  0.00     0.037 A 
ATOM     55  C   UNL A   1      38.418  32.027  29.878  1.00  0.00     0.037 A 
ATOM     56  C   UNL A   1      44.850  31.015  30.526  1.00  0.00     0.049 A 
ATOM     57  C   UNL A   1      39.551  32.858  30.421  1.00  0.00     0.074 A 
ATOM     58  C   UNL A   1      45.804  31.898  30.998  1.00  0.00     0.029 A 
ATOM     59  N   UNL A   1      43.627  31.668  30.599  1.00  0.00    -0.354 N 
ATOM     60  N   UNL A   1      40.829  32.575  30.488  1.00  0.00    -0.248 NA
ATOM     61  C   UNL A   1      39.202  34.182  30.956  1.00  0.00     0.031 C 
ATOM     62  C   UNL A   1      45.155  33.072  31.393  1.00  0.00     0.029 A 
ATOM     63  C   UNL A   1      43.803  32.939  31.118  1.00  0.00     0.049 A 
ATOM     64  H   UNL A   1      42.763  31.284  30.323  1.00  0.00     0.167 HD
ATOM     65  C   UNL A   1      41.441  33.695  31.034  1.00  0.00     0.074 A 
ATOM     66  C   UNL A   1      40.395  34.669  31.269  1.00  0.00     0.031 C 
ATOM     67  C   UNL A   1      42.750  33.902  31.316  1.00  0.00     0.037 A 
BRANCH  54  68
ATOM     68  C   UNL A   1      46.412  29.091  30.035  1.00  0.00     0.064 A 
ATOM     69  C   UNL A   1      47.272  29.229  28.933  1.00  0.00     0.173 A 
ATOM     70  C   UNL A   1      46.896  28.403  31.158  1.00  0.00     0.173 A 
ATOM     71  F   UNL A   1      46.857  29.866  27.828  1.00  0.00    -0.203 F 
ATOM     72  C   UNL A   1      48.547  28.669  28.941  1.00  0.00     0.198 A 
ATOM     73  C   UNL A   1      48.186  27.876  31.176  1.00  0.00     0.198 A 
ATOM     74  F   UNL A   1      46.121  28.244  32.241  1.00  0.00    -0.203 F 
ATOM     75  F   UNL A   1      49.323  28.761  27.852  1.00  0.00    -0.200 F 
ATOM     76  C   UNL A   1      49.006  28.000  30.064  1.00  0.00     0.200 A 
ATOM     77  F   UNL A   1      48.634  27.241  32.268  1.00  0.00    -0.200 F 
ATOM     78  F   UNL A   1      50.235  27.467  30.073  1.00  0.00    -0.200 F 
ENDBRANCH  54  68
BRANCH  55  79
ATOM     79  C   UNL A   1      37.026  32.555  29.872  1.00  0.00     0.064 A 
ATOM     80  C   UNL A   1      36.536  33.265  28.766  1.00  0.00     0.173 A 
ATOM     81  C   UNL A   1      36.169  32.387  30.969  1.00  0.00     0.173 A 
ATOM     82  F   UNL A   1      37.323  33.470  27.699  1.00  0.00    -0.203 F 
ATOM     83  C   UNL A   1      35.255  33.814  28.772  1.00  0.00     0.198 A 
ATOM     84  C   UNL A   1      34.876  32.910  30.961  1.00  0.00     0.198 A 
ATOM     85  F   UNL A   1      36.584  31.711  32.050  1.00  0.00    -0.203 F 
ATOM     86  F   UNL A   1      34.835  34.539  27.725  1.00  0.00    -0.200 F 
ATOM     87  C   UNL A   1      34.425  33.633  29.867  1.00  0.00     0.200 A 
ATOM     88  F   UNL A   1      34.071  32.719  32.014  1.00  0.00    -0.200 F 
ATOM     89  F   UNL A   1      33.194  34.164  29.873  1.00  0.00    -0.200 F 
ENDBRANCH  55  79
BRANCH  67  90
ATOM     90  C   UNL A   1      43.137  35.248  31.854  1.00  0.00     0.064 A 
ATOM     91  C   UNL A   1      43.056  35.550  33.220  1.00  0.00     0.173 A 
ATOM     92  C   UNL A   1      43.645  36.232  30.991  1.00  0.00     0.173 A 
ATOM     93  F   UNL A   1      42.563  34.648  34.083  1.00  0.00    -0.203 F 
ATOM     94  C   UNL A   1      43.447  36.797  33.701  1.00  0.00     0.198 A 
ATOM     95  C   UNL A   1      44.066  37.465  31.479  1.00  0.00     0.198 A 
ATOM     96  F   UNL A   1      43.751  35.990  29.675  1.00  0.00    -0.203 F 
ATOM     97  F   UNL A   1      43.316  37.081  35.004  1.00  0.00    -0.200 F 
ATOM     98  C   UNL A   1      43.958  37.750  32.832  1.00  0.00     0.200 A 
ATOM     99  F   UNL A   1      44.576  38.377  30.641  1.00  0.00    -0.200 F 
ATOM    100  F   UNL A   1      44.346  38.945  33.298  1.00  0.00    -0.200 F 
ENDBRANCH  67  90
ENDBRANCH  41  42
ENDBRANCH  33  36
ENDBRANCH  31  32
ENDBRANCH  30  31
ENDBRANCH   1  30
TORSDOF 15
ENDMDL
