MODEL 1
REMARK VINA RESULT:     -11.6      0.000      0.000
REMARK SMILES O=C(C[C@@H]1[NH2+]CCc2c(Br)cccc21)NCCCNC(=O)c1ccc(-c2c3nc(c(-c4c(F)c(F)c(F)c(F)c4F)c4ccc([nH]4)c(-c4c(F)c(F)c(F)c(F)c4F)c4nc(c(-c5c(F)c(F)c(F)c(F)c5F)c5ccc2[nH]5)C=C4)C=C3)cc1
REMARK SMILES IDX 17 1 16 2 15 3 1 4 2 5 3 7 4 8 5 9 14 10 6 11 8 14 13 15
REMARK SMILES IDX 7 16 9 17 12 18 10 19 11 20 18 21 19 22 20 23 21 25 22 26
REMARK SMILES IDX 23 27 84 28 24 29 83 30 25 31 26 32 27 33 77 34 28 35 82 36
REMARK SMILES IDX 76 37 78 38 29 39 81 40 75 41 74 42 30 44 62 45 42 46 61 47
REMARK SMILES IDX 43 48 46 49 60 50 79 51 44 52 45 53 59 55 80 56 47 57 31 58
REMARK SMILES IDX 32 59 40 60 33 61 34 62 38 63 41 64 35 65 36 66 39 67 37 68
REMARK SMILES IDX 63 69 64 70 72 71 65 72 66 73 70 74 73 75 67 76 68 77 71 78
REMARK SMILES IDX 69 79 48 80 49 81 57 82 50 83 51 84 55 85 58 86 52 87 53 88
REMARK SMILES IDX 56 89 54 90
REMARK H PARENT 15 6 5 12 5 13 19 24 78 43 46 54
REMARK Flexibility Score: inf
ROOT
ATOM      1  C   UNL A   1      36.228  23.212  24.119  1.00  0.00     0.042 C 
ENDROOT
BRANCH   1   2
ATOM      2  C   UNL A   1      34.708  23.327  24.111  1.00  0.00     0.117 C 
BRANCH   2   3
ATOM      3  N   UNL A   1      34.280  24.705  24.253  1.00  0.00    -0.356 N 
ATOM      4  O   UNL A   1      33.876  25.101  22.029  1.00  0.00    -0.275 OA
ATOM      5  C   UNL A   1      33.911  25.496  23.189  1.00  0.00     0.226 C 
ATOM      6  H   UNL A   1      34.253  25.095  25.156  1.00  0.00     0.163 HD
BRANCH   5   7
ATOM      7  C   UNL A   1      33.619  26.936  23.557  1.00  0.00     0.170 C 
BRANCH   7   8
ATOM      8  C   UNL A   1      32.560  27.061  24.673  1.00  0.00     0.223 C 
ATOM      9  N   UNL A   1      31.186  27.129  24.145  1.00  0.00    -0.339 N 
ATOM     10  C   UNL A   1      32.895  28.218  25.613  1.00  0.00     0.014 A 
ATOM     11  C   UNL A   1      30.867  28.458  23.631  1.00  0.00     0.265 C 
ATOM     12  H   UNL A   1      30.533  26.899  24.894  1.00  0.00     0.346 HD
ATOM     13  H   UNL A   1      31.110  26.464  23.375  1.00  0.00     0.346 HD
ATOM     14  C   UNL A   1      32.148  29.415  25.609  1.00  0.00    -0.019 A 
ATOM     15  C   UNL A   1      33.989  28.092  26.494  1.00  0.00     0.010 A 
ATOM     16  C   UNL A   1      30.920  29.516  24.734  1.00  0.00     0.098 C 
ATOM     17  C   UNL A   1      32.516  30.452  26.488  1.00  0.00     0.021 A 
ATOM     18  C   UNL A   1      34.348  29.132  27.346  1.00  0.00     0.002 A 
ATOM     19  Br  UNL A   1      31.550  32.086  26.592  1.00  0.00    -0.051 Br
ATOM     20  C   UNL A   1      33.615  30.313  27.339  1.00  0.00     0.016 A 
ENDBRANCH   7   8
ENDBRANCH   5   7
ENDBRANCH   2   3
ENDBRANCH   1   2
BRANCH   1  21
ATOM     21  C   UNL A   1      36.871  23.483  25.477  1.00  0.00     0.118 C 
BRANCH  21  22
ATOM     22  N   UNL A   1      37.926  22.536  25.808  1.00  0.00    -0.352 N 
ATOM     23  C   UNL A   1      39.145  22.769  26.398  1.00  0.00     0.251 C 
ATOM     24  H   UNL A   1      37.740  21.598  25.579  1.00  0.00     0.163 HD
ATOM     25  O   UNL A   1      39.979  21.873  26.479  1.00  0.00    -0.269 OA
BRANCH  23  26
ATOM     26  C   UNL A   1      39.460  24.116  26.912  1.00  0.00     0.039 A 
ATOM     27  C   UNL A   1      39.132  24.425  28.234  1.00  0.00     0.014 A 
ATOM     28  C   UNL A   1      40.086  25.062  26.096  1.00  0.00     0.014 A 
ATOM     29  C   UNL A   1      39.494  25.665  28.761  1.00  0.00     0.010 A 
ATOM     30  C   UNL A   1      40.493  26.279  26.637  1.00  0.00     0.010 A 
ATOM     31  C   UNL A   1      40.202  26.588  27.975  1.00  0.00    -0.014 A 
BRANCH  31  32
ATOM     32  C   UNL A   1      40.637  27.887  28.541  1.00  0.00     0.031 A 
ATOM     33  C   UNL A   1      42.081  28.116  28.873  1.00  0.00     0.074 A 
ATOM     34  C   UNL A   1      39.724  28.846  28.784  1.00  0.00     0.049 A 
ATOM     35  N   UNL A   1      42.654  29.182  29.371  1.00  0.00    -0.248 NA
ATOM     36  C   UNL A   1      43.003  26.997  28.627  1.00  0.00     0.031 C 
ATOM     37  C   UNL A   1      38.286  28.725  28.536  1.00  0.00     0.029 A 
ATOM     38  N   UNL A   1      39.868  30.112  29.294  1.00  0.00    -0.354 N 
ATOM     39  C   UNL A   1      43.999  28.865  29.491  1.00  0.00     0.074 A 
ATOM     40  C   UNL A   1      44.151  27.489  29.069  1.00  0.00     0.031 C 
ATOM     41  C   UNL A   1      37.685  29.878  28.872  1.00  0.00     0.029 A 
ATOM     42  C   UNL A   1      38.690  30.810  29.379  1.00  0.00     0.049 A 
ATOM     43  H   UNL A   1      40.736  30.483  29.574  1.00  0.00     0.167 HD
ATOM     44  C   UNL A   1      45.020  29.661  29.885  1.00  0.00     0.037 A 
ATOM     45  C   UNL A   1      38.449  32.062  29.811  1.00  0.00     0.037 A 
ATOM     46  C   UNL A   1      44.870  31.033  30.287  1.00  0.00     0.049 A 
ATOM     47  C   UNL A   1      39.596  32.913  30.284  1.00  0.00     0.074 A 
ATOM     48  C   UNL A   1      45.853  31.938  30.648  1.00  0.00     0.029 A 
ATOM     49  N   UNL A   1      43.657  31.697  30.384  1.00  0.00    -0.354 N 
ATOM     50  N   UNL A   1      40.874  32.626  30.324  1.00  0.00    -0.248 NA
ATOM     51  C   UNL A   1      39.268  34.261  30.770  1.00  0.00     0.031 C 
ATOM     52  C   UNL A   1      45.232  33.139  30.999  1.00  0.00     0.029 A 
ATOM     53  C   UNL A   1      43.864  32.994  30.823  1.00  0.00     0.049 A 
ATOM     54  H   UNL A   1      42.779  31.306  30.171  1.00  0.00     0.167 HD
ATOM     55  C   UNL A   1      41.505  33.760  30.817  1.00  0.00     0.074 A 
ATOM     56  C   UNL A   1      40.470  34.745  31.055  1.00  0.00     0.031 C 
ATOM     57  C   UNL A   1      42.824  33.963  31.052  1.00  0.00     0.037 A 
BRANCH  44  58
ATOM     58  C   UNL A   1      46.399  29.073  29.879  1.00  0.00     0.064 A 
ATOM     59  C   UNL A   1      46.925  28.446  31.018  1.00  0.00     0.173 A 
ATOM     60  C   UNL A   1      47.179  29.088  28.715  1.00  0.00     0.173 A 
ATOM     61  F   UNL A   1      46.219  28.417  32.159  1.00  0.00    -0.203 F 
ATOM     62  C   UNL A   1      48.193  27.872  30.997  1.00  0.00     0.198 A 
ATOM     63  C   UNL A   1      48.438  28.492  28.690  1.00  0.00     0.198 A 
ATOM     64  F   UNL A   1      46.719  29.672  27.598  1.00  0.00    -0.203 F 
ATOM     65  F   UNL A   1      48.690  27.310  32.107  1.00  0.00    -0.200 F 
ATOM     66  C   UNL A   1      48.945  27.889  29.832  1.00  0.00     0.200 A 
ATOM     67  F   UNL A   1      49.160  28.501  27.561  1.00  0.00    -0.200 F 
ATOM     68  F   UNL A   1      50.161  27.328  29.811  1.00  0.00    -0.200 F 
ENDBRANCH  44  58
BRANCH  45  69
ATOM     69  C   UNL A   1      37.066  32.601  29.776  1.00  0.00     0.064 A 
ATOM     70  C   UNL A   1      36.219  32.469  30.885  1.00  0.00     0.173 A 
ATOM     71  C   UNL A   1      36.569  33.269  28.648  1.00  0.00     0.173 A 
ATOM     72  F   UNL A   1      36.645  31.820  31.978  1.00  0.00    -0.203 F 
ATOM     73  C   UNL A   1      34.923  32.977  30.864  1.00  0.00     0.198 A 
ATOM     74  C   UNL A   1      35.278  33.796  28.636  1.00  0.00     0.198 A 
ATOM     75  F   UNL A   1      37.341  33.423  27.563  1.00  0.00    -0.203 F 
ATOM     76  F   UNL A   1      34.124  32.812  31.927  1.00  0.00    -0.200 F 
ATOM     77  C   UNL A   1      34.455  33.645  29.742  1.00  0.00     0.200 A 
ATOM     78  F   UNL A   1      34.834  34.449  27.554  1.00  0.00    -0.200 F 
ATOM     79  F   UNL A   1      33.210  34.141  29.725  1.00  0.00    -0.200 F 
ENDBRANCH  45  69
BRANCH  57  80
ATOM     80  C   UNL A   1      43.238  35.301  31.584  1.00  0.00     0.064 A 
ATOM     81  C   UNL A   1      43.639  36.333  30.725  1.00  0.00     0.173 A 
ATOM     82  C   UNL A   1      43.143  35.581  32.956  1.00  0.00     0.173 A 
ATOM     83  F   UNL A   1      43.757  36.106  29.408  1.00  0.00    -0.203 F 
ATOM     84  C   UNL A   1      43.930  37.600  31.220  1.00  0.00     0.198 A 
ATOM     85  C   UNL A   1      43.412  36.856  33.445  1.00  0.00     0.198 A 
ATOM     86  F   UNL A   1      42.757  34.627  33.817  1.00  0.00    -0.203 F 
ATOM     87  F   UNL A   1      44.328  38.569  30.383  1.00  0.00    -0.200 F 
ATOM     88  C   UNL A   1      43.806  37.864  32.576  1.00  0.00     0.200 A 
ATOM     89  F   UNL A   1      43.279  37.113  34.753  1.00  0.00    -0.200 F 
ATOM     90  F   UNL A   1      44.065  39.091  33.048  1.00  0.00    -0.200 F 
ENDBRANCH  57  80
ENDBRANCH  31  32
ENDBRANCH  23  26
ENDBRANCH  21  22
ENDBRANCH   1  21
TORSDOF 11
ENDMDL
MODEL 2
REMARK VINA RESULT:     -11.5      4.492     10.131
REMARK SMILES O=C(C[C@@H]1[NH2+]CCc2c(Br)cccc21)NCCCNC(=O)c1ccc(-c2c3nc(c(-c4c(F)c(F)c(F)c(F)c4F)c4ccc([nH]4)c(-c4c(F)c(F)c(F)c(F)c4F)c4nc(c(-c5c(F)c(F)c(F)c(F)c5F)c5ccc2[nH]5)C=C4)C=C3)cc1
REMARK SMILES IDX 17 1 16 2 15 3 1 4 2 5 3 7 4 8 5 9 14 10 6 11 8 14 13 15
REMARK SMILES IDX 7 16 9 17 12 18 10 19 11 20 18 21 19 22 20 23 21 25 22 26
REMARK SMILES IDX 23 27 84 28 24 29 83 30 25 31 26 32 27 33 77 34 28 35 82 36
REMARK SMILES IDX 76 37 78 38 29 39 81 40 75 41 74 42 30 44 62 45 42 46 61 47
REMARK SMILES IDX 43 48 46 49 60 50 79 51 44 52 45 53 59 55 80 56 47 57 31 58
REMARK SMILES IDX 32 59 40 60 33 61 34 62 38 63 41 64 35 65 36 66 39 67 37 68
REMARK SMILES IDX 63 69 64 70 72 71 65 72 66 73 70 74 73 75 67 76 68 77 71 78
REMARK SMILES IDX 69 79 48 80 49 81 57 82 50 83 51 84 55 85 58 86 52 87 53 88
REMARK SMILES IDX 56 89 54 90
REMARK H PARENT 15 6 5 12 5 13 19 24 78 43 46 54
REMARK Flexibility Score: inf
ROOT
ATOM      1  C   UNL A   1      33.765  33.988  28.279  1.00  0.00     0.042 C 
ENDROOT
BRANCH   1   2
ATOM      2  C   UNL A   1      33.352  34.834  29.479  1.00  0.00     0.117 C 
BRANCH   2   3
ATOM      3  N   UNL A   1      34.439  34.975  30.427  1.00  0.00    -0.356 N 
ATOM      4  O   UNL A   1      33.298  34.221  32.270  1.00  0.00    -0.275 OA
ATOM      5  C   UNL A   1      34.320  34.671  31.764  1.00  0.00     0.226 C 
ATOM      6  H   UNL A   1      35.306  35.305  30.098  1.00  0.00     0.163 HD
BRANCH   5   7
ATOM      7  C   UNL A   1      35.544  35.010  32.589  1.00  0.00     0.170 C 
BRANCH   7   8
ATOM      8  C   UNL A   1      36.497  33.808  32.761  1.00  0.00     0.223 C 
ATOM      9  N   UNL A   1      36.941  33.633  34.155  1.00  0.00    -0.339 N 
ATOM     10  C   UNL A   1      37.657  33.888  31.770  1.00  0.00     0.014 A 
ATOM     11  C   UNL A   1      37.997  34.578  34.511  1.00  0.00     0.265 C 
ATOM     12  H   UNL A   1      37.296  32.684  34.271  1.00  0.00     0.346 HD
ATOM     13  H   UNL A   1      36.143  33.805  34.766  1.00  0.00     0.346 HD
ATOM     14  C   UNL A   1      38.968  34.206  32.189  1.00  0.00    -0.019 A 
ATOM     15  C   UNL A   1      37.410  33.654  30.402  1.00  0.00     0.010 A 
ATOM     16  C   UNL A   1      39.253  34.365  33.665  1.00  0.00     0.098 C 
ATOM     17  C   UNL A   1      39.992  34.281  31.226  1.00  0.00     0.021 A 
ATOM     18  C   UNL A   1      38.431  33.746  29.462  1.00  0.00     0.002 A 
ATOM     19  Br  UNL A   1      41.796  34.659  31.691  1.00  0.00    -0.051 Br
ATOM     20  C   UNL A   1      39.720  34.064  29.872  1.00  0.00     0.016 A 
ENDBRANCH   7   8
ENDBRANCH   5   7
ENDBRANCH   2   3
ENDBRANCH   1   2
BRANCH   1  21
ATOM     21  C   UNL A   1      34.344  32.622  28.642  1.00  0.00     0.118 C 
BRANCH  21  22
ATOM     22  N   UNL A   1      33.888  31.557  27.761  1.00  0.00    -0.352 N 
ATOM     23  C   UNL A   1      34.537  30.406  27.388  1.00  0.00     0.251 C 
ATOM     24  H   UNL A   1      32.990  31.678  27.380  1.00  0.00     0.163 HD
ATOM     25  O   UNL A   1      34.065  29.677  26.521  1.00  0.00    -0.269 OA
BRANCH  23  26
ATOM     26  C   UNL A   1      35.827  30.059  28.017  1.00  0.00     0.039 A 
ATOM     27  C   UNL A   1      35.820  29.461  29.279  1.00  0.00     0.014 A 
ATOM     28  C   UNL A   1      37.032  30.313  27.358  1.00  0.00     0.014 A 
ATOM     29  C   UNL A   1      37.025  29.055  29.855  1.00  0.00     0.010 A 
ATOM     30  C   UNL A   1      38.229  29.861  27.909  1.00  0.00     0.010 A 
ATOM     31  C   UNL A   1      38.233  29.226  29.160  1.00  0.00    -0.014 A 
BRANCH  31  32
ATOM     32  C   UNL A   1      39.511  28.750  29.739  1.00  0.00     0.031 A 
ATOM     33  C   UNL A   1      40.094  29.435  30.939  1.00  0.00     0.074 A 
ATOM     34  C   UNL A   1      40.161  27.721  29.163  1.00  0.00     0.049 A 
ATOM     35  N   UNL A   1      41.198  29.166  31.589  1.00  0.00    -0.248 NA
ATOM     36  C   UNL A   1      39.348  30.585  31.472  1.00  0.00     0.031 C 
ATOM     37  C   UNL A   1      39.711  27.000  27.972  1.00  0.00     0.029 A 
ATOM     38  N   UNL A   1      41.339  27.104  29.502  1.00  0.00    -0.354 N 
ATOM     39  C   UNL A   1      41.274  30.104  32.607  1.00  0.00     0.074 A 
ATOM     40  C   UNL A   1      40.137  30.988  32.458  1.00  0.00     0.031 C 
ATOM     41  C   UNL A   1      40.589  26.022  27.694  1.00  0.00     0.029 A 
ATOM     42  C   UNL A   1      41.674  26.062  28.672  1.00  0.00     0.049 A 
ATOM     43  H   UNL A   1      41.892  27.382  30.267  1.00  0.00     0.167 HD
ATOM     44  C   UNL A   1      42.190  30.199  33.599  1.00  0.00     0.037 A 
ATOM     45  C   UNL A   1      42.733  25.232  28.701  1.00  0.00     0.037 A 
ATOM     46  C   UNL A   1      43.309  29.310  33.757  1.00  0.00     0.049 A 
ATOM     47  C   UNL A   1      43.761  25.385  29.789  1.00  0.00     0.074 A 
ATOM     48  C   UNL A   1      44.259  29.290  34.762  1.00  0.00     0.029 A 
ATOM     49  N   UNL A   1      43.628  28.283  32.882  1.00  0.00    -0.354 N 
ATOM     50  N   UNL A   1      43.782  26.230  30.790  1.00  0.00    -0.248 NA
ATOM     51  C   UNL A   1      44.909  24.467  29.754  1.00  0.00     0.031 C 
ATOM     52  C   UNL A   1      45.175  28.275  34.476  1.00  0.00     0.029 A 
ATOM     53  C   UNL A   1      44.776  27.639  33.311  1.00  0.00     0.049 A 
ATOM     54  H   UNL A   1      43.115  28.046  32.075  1.00  0.00     0.167 HD
ATOM     55  C   UNL A   1      44.930  25.936  31.514  1.00  0.00     0.074 A 
ATOM     56  C   UNL A   1      45.575  24.827  30.843  1.00  0.00     0.031 C 
ATOM     57  C   UNL A   1      45.404  26.534  32.633  1.00  0.00     0.037 A 
BRANCH  44  58
ATOM     58  C   UNL A   1      42.008  31.293  34.607  1.00  0.00     0.064 A 
ATOM     59  C   UNL A   1      42.768  32.470  34.544  1.00  0.00     0.173 A 
ATOM     60  C   UNL A   1      41.036  31.188  35.611  1.00  0.00     0.173 A 
ATOM     61  F   UNL A   1      43.719  32.612  33.608  1.00  0.00    -0.203 F 
ATOM     62  C   UNL A   1      42.572  33.498  35.464  1.00  0.00     0.198 A 
ATOM     63  C   UNL A   1      40.826  32.227  36.514  1.00  0.00     0.198 A 
ATOM     64  F   UNL A   1      40.281  30.083  35.710  1.00  0.00    -0.203 F 
ATOM     65  F   UNL A   1      43.333  34.599  35.406  1.00  0.00    -0.200 F 
ATOM     66  C   UNL A   1      41.597  33.378  36.442  1.00  0.00     0.200 A 
ATOM     67  F   UNL A   1      39.878  32.115  37.455  1.00  0.00    -0.200 F 
ATOM     68  F   UNL A   1      41.404  34.371  37.321  1.00  0.00    -0.200 F 
ENDBRANCH  44  58
BRANCH  45  69
ATOM     69  C   UNL A   1      42.852  24.153  27.689  1.00  0.00     0.064 A 
ATOM     70  C   UNL A   1      42.407  22.854  27.974  1.00  0.00     0.173 A 
ATOM     71  C   UNL A   1      43.393  24.396  26.419  1.00  0.00     0.173 A 
ATOM     72  F   UNL A   1      41.901  22.570  29.182  1.00  0.00    -0.203 F 
ATOM     73  C   UNL A   1      42.508  21.837  27.027  1.00  0.00     0.198 A 
ATOM     74  C   UNL A   1      43.474  23.382  25.466  1.00  0.00     0.198 A 
ATOM     75  F   UNL A   1      43.830  25.623  26.098  1.00  0.00    -0.203 F 
ATOM     76  F   UNL A   1      42.102  20.597  27.335  1.00  0.00    -0.200 F 
ATOM     77  C   UNL A   1      43.036  22.103  25.773  1.00  0.00     0.200 A 
ATOM     78  F   UNL A   1      43.975  23.645  24.252  1.00  0.00    -0.200 F 
ATOM     79  F   UNL A   1      43.125  21.125  24.860  1.00  0.00    -0.200 F 
ENDBRANCH  45  69
BRANCH  57  80
ATOM     80  C   UNL A   1      46.676  26.004  33.220  1.00  0.00     0.064 A 
ATOM     81  C   UNL A   1      46.677  24.891  34.071  1.00  0.00     0.173 A 
ATOM     82  C   UNL A   1      47.913  26.556  32.852  1.00  0.00     0.173 A 
ATOM     83  F   UNL A   1      45.517  24.339  34.460  1.00  0.00    -0.203 F 
ATOM     84  C   UNL A   1      47.870  24.347  34.535  1.00  0.00     0.198 A 
ATOM     85  C   UNL A   1      49.106  25.996  33.299  1.00  0.00     0.198 A 
ATOM     86  F   UNL A   1      47.964  27.618  32.035  1.00  0.00    -0.203 F 
ATOM     87  F   UNL A   1      47.848  23.292  35.362  1.00  0.00    -0.200 F 
ATOM     88  C   UNL A   1      49.083  24.892  34.140  1.00  0.00     0.200 A 
ATOM     89  F   UNL A   1      50.278  26.514  32.907  1.00  0.00    -0.200 F 
ATOM     90  F   UNL A   1      50.233  24.353  34.569  1.00  0.00    -0.200 F 
ENDBRANCH  57  80
ENDBRANCH  31  32
ENDBRANCH  23  26
ENDBRANCH  21  22
ENDBRANCH   1  21
TORSDOF 11
ENDMDL
MODEL 3
REMARK VINA RESULT:     -11.5      3.654      9.123
REMARK SMILES O=C(C[C@@H]1[NH2+]CCc2c(Br)cccc21)NCCCNC(=O)c1ccc(-c2c3nc(c(-c4c(F)c(F)c(F)c(F)c4F)c4ccc([nH]4)c(-c4c(F)c(F)c(F)c(F)c4F)c4nc(c(-c5c(F)c(F)c(F)c(F)c5F)c5ccc2[nH]5)C=C4)C=C3)cc1
REMARK SMILES IDX 17 1 16 2 15 3 1 4 2 5 3 7 4 8 5 9 14 10 6 11 8 14 13 15
REMARK SMILES IDX 7 16 9 17 12 18 10 19 11 20 18 21 19 22 20 23 21 25 22 26
REMARK SMILES IDX 23 27 84 28 24 29 83 30 25 31 26 32 27 33 77 34 28 35 82 36
REMARK SMILES IDX 76 37 78 38 29 39 81 40 75 41 74 42 30 44 62 45 42 46 61 47
REMARK SMILES IDX 43 48 46 49 60 50 79 51 44 52 45 53 59 55 80 56 47 57 31 58
REMARK SMILES IDX 32 59 40 60 33 61 34 62 38 63 41 64 35 65 36 66 39 67 37 68
REMARK SMILES IDX 63 69 64 70 72 71 65 72 66 73 70 74 73 75 67 76 68 77 71 78
REMARK SMILES IDX 69 79 48 80 49 81 57 82 50 83 51 84 55 85 58 86 52 87 53 88
REMARK SMILES IDX 56 89 54 90
REMARK H PARENT 15 6 5 12 5 13 19 24 78 43 46 54
REMARK Flexibility Score: inf
ROOT
ATOM      1  C   UNL A   1      33.756  28.031  25.852  1.00  0.00     0.042 C 
ENDROOT
BRANCH   1   2
ATOM      2  C   UNL A   1      32.761  27.010  25.312  1.00  0.00     0.117 C 
BRANCH   2   3
ATOM      3  N   UNL A   1      33.261  25.657  25.451  1.00  0.00    -0.356 N 
ATOM      4  O   UNL A   1      31.730  24.953  27.008  1.00  0.00    -0.275 OA
ATOM      5  C   UNL A   1      32.712  24.732  26.309  1.00  0.00     0.226 C 
ATOM      6  H   UNL A   1      34.034  25.386  24.904  1.00  0.00     0.163 HD
BRANCH   5   7
ATOM      7  C   UNL A   1      33.472  23.423  26.379  1.00  0.00     0.170 C 
BRANCH   7   8
ATOM      8  C   UNL A   1      34.208  23.092  25.063  1.00  0.00     0.223 C 
ATOM      9  N   UNL A   1      33.576  21.986  24.323  1.00  0.00    -0.339 N 
ATOM     10  C   UNL A   1      35.698  22.864  25.317  1.00  0.00     0.014 A 
ATOM     11  C   UNL A   1      33.916  20.685  24.895  1.00  0.00     0.265 C 
ATOM     12  H   UNL A   1      33.893  22.013  23.354  1.00  0.00     0.346 HD
ATOM     13  H   UNL A   1      32.565  22.103  24.383  1.00  0.00     0.346 HD
ATOM     14  C   UNL A   1      36.272  21.576  25.251  1.00  0.00    -0.019 A 
ATOM     15  C   UNL A   1      36.515  23.966  25.642  1.00  0.00     0.010 A 
ATOM     16  C   UNL A   1      35.418  20.409  24.812  1.00  0.00     0.098 C 
ATOM     17  C   UNL A   1      37.648  21.429  25.512  1.00  0.00     0.021 A 
ATOM     18  C   UNL A   1      37.870  23.800  25.911  1.00  0.00     0.002 A 
ATOM     19  Br  UNL A   1      38.526  19.746  25.405  1.00  0.00    -0.051 Br
ATOM     20  C   UNL A   1      38.436  22.532  25.850  1.00  0.00     0.016 A 
ENDBRANCH   7   8
ENDBRANCH   5   7
ENDBRANCH   2   3
ENDBRANCH   1   2
BRANCH   1  21
ATOM     21  C   UNL A   1      33.536  28.410  27.314  1.00  0.00     0.118 C 
BRANCH  21  22
ATOM     22  N   UNL A   1      33.480  29.849  27.528  1.00  0.00    -0.352 N 
ATOM     23  C   UNL A   1      34.433  30.682  28.063  1.00  0.00     0.251 C 
ATOM     24  H   UNL A   1      32.644  30.287  27.251  1.00  0.00     0.163 HD
ATOM     25  O   UNL A   1      34.170  31.856  28.303  1.00  0.00    -0.269 OA
BRANCH  23  26
ATOM     26  C   UNL A   1      35.774  30.150  28.375  1.00  0.00     0.039 A 
ATOM     27  C   UNL A   1      36.763  30.200  27.390  1.00  0.00     0.014 A 
ATOM     28  C   UNL A   1      36.053  29.617  29.636  1.00  0.00     0.014 A 
ATOM     29  C   UNL A   1      38.057  29.775  27.693  1.00  0.00     0.010 A 
ATOM     30  C   UNL A   1      37.356  29.242  29.954  1.00  0.00     0.010 A 
ATOM     31  C   UNL A   1      38.369  29.321  28.984  1.00  0.00    -0.014 A 
BRANCH  31  32
ATOM     32  C   UNL A   1      39.751  28.917  29.331  1.00  0.00     0.031 A 
ATOM     33  C   UNL A   1      40.597  29.798  30.200  1.00  0.00     0.074 A 
ATOM     34  C   UNL A   1      40.254  27.770  28.834  1.00  0.00     0.049 A 
ATOM     35  N   UNL A   1      41.825  29.616  30.614  1.00  0.00    -0.248 NA
ATOM     36  C   UNL A   1      39.990  31.058  30.655  1.00  0.00     0.031 C 
ATOM     37  C   UNL A   1      39.540  26.850  27.949  1.00  0.00     0.029 A 
ATOM     38  N   UNL A   1      41.483  27.184  29.003  1.00  0.00    -0.354 N 
ATOM     39  C   UNL A   1      42.133  30.731  31.380  1.00  0.00     0.074 A 
ATOM     40  C   UNL A   1      40.987  31.613  31.328  1.00  0.00     0.031 C 
ATOM     41  C   UNL A   1      40.334  25.803  27.672  1.00  0.00     0.029 A 
ATOM     42  C   UNL A   1      41.620  25.989  28.341  1.00  0.00     0.049 A 
ATOM     43  H   UNL A   1      42.200  27.583  29.547  1.00  0.00     0.167 HD
ATOM     44  C   UNL A   1      43.257  30.980  32.090  1.00  0.00     0.037 A 
ATOM     45  C   UNL A   1      42.662  25.139  28.286  1.00  0.00     0.037 A 
ATOM     46  C   UNL A   1      44.389  30.095  32.155  1.00  0.00     0.049 A 
ATOM     47  C   UNL A   1      43.917  25.459  29.051  1.00  0.00     0.074 A 
ATOM     48  C   UNL A   1      45.550  30.233  32.894  1.00  0.00     0.029 A 
ATOM     49  N   UNL A   1      44.499  28.906  31.451  1.00  0.00    -0.354 N 
ATOM     50  N   UNL A   1      44.169  26.482  29.830  1.00  0.00    -0.248 NA
ATOM     51  C   UNL A   1      45.032  24.508  28.930  1.00  0.00     0.031 C 
ATOM     52  C   UNL A   1      46.381  29.147  32.608  1.00  0.00     0.029 A 
ATOM     53  C   UNL A   1      45.721  28.313  31.719  1.00  0.00     0.049 A 
ATOM     54  H   UNL A   1      43.811  28.537  30.851  1.00  0.00     0.167 HD
ATOM     55  C   UNL A   1      45.458  26.289  30.309  1.00  0.00     0.074 A 
ATOM     56  C   UNL A   1      45.935  25.045  29.739  1.00  0.00     0.031 C 
ATOM     57  C   UNL A   1      46.179  27.073  31.146  1.00  0.00     0.037 A 
BRANCH  44  58
ATOM     58  C   UNL A   1      43.312  32.256  32.876  1.00  0.00     0.064 A 
ATOM     59  C   UNL A   1      43.813  33.436  32.308  1.00  0.00     0.173 A 
ATOM     60  C   UNL A   1      42.814  32.312  34.185  1.00  0.00     0.173 A 
ATOM     61  F   UNL A   1      44.312  33.428  31.063  1.00  0.00    -0.203 F 
ATOM     62  C   UNL A   1      43.831  34.626  33.032  1.00  0.00     0.198 A 
ATOM     63  C   UNL A   1      42.811  33.509  34.897  1.00  0.00     0.198 A 
ATOM     64  F   UNL A   1      42.320  31.211  34.770  1.00  0.00    -0.203 F 
ATOM     65  F   UNL A   1      44.347  35.733  32.482  1.00  0.00    -0.200 F 
ATOM     66  C   UNL A   1      43.323  34.663  34.321  1.00  0.00     0.200 A 
ATOM     67  F   UNL A   1      42.312  33.547  36.140  1.00  0.00    -0.200 F 
ATOM     68  F   UNL A   1      43.332  35.810  35.013  1.00  0.00    -0.200 F 
ENDBRANCH  44  58
BRANCH  45  69
ATOM     69  C   UNL A   1      42.546  23.880  27.508  1.00  0.00     0.064 A 
ATOM     70  C   UNL A   1      42.917  23.838  26.157  1.00  0.00     0.173 A 
ATOM     71  C   UNL A   1      42.080  22.696  28.097  1.00  0.00     0.173 A 
ATOM     72  F   UNL A   1      43.349  24.950  25.547  1.00  0.00    -0.203 F 
ATOM     73  C   UNL A   1      42.817  22.659  25.421  1.00  0.00     0.198 A 
ATOM     74  C   UNL A   1      42.001  21.512  27.365  1.00  0.00     0.198 A 
ATOM     75  F   UNL A   1      41.715  22.685  29.387  1.00  0.00    -0.203 F 
ATOM     76  F   UNL A   1      43.152  22.652  24.123  1.00  0.00    -0.200 F 
ATOM     77  C   UNL A   1      42.366  21.496  26.027  1.00  0.00     0.200 A 
ATOM     78  F   UNL A   1      41.574  20.389  27.956  1.00  0.00    -0.200 F 
ATOM     79  F   UNL A   1      42.278  20.361  25.320  1.00  0.00    -0.200 F 
ENDBRANCH  45  69
BRANCH  57  80
ATOM     80  C   UNL A   1      47.559  26.618  31.511  1.00  0.00     0.064 A 
ATOM     81  C   UNL A   1      47.776  25.752  32.592  1.00  0.00     0.173 A 
ATOM     82  C   UNL A   1      48.660  26.974  30.717  1.00  0.00     0.173 A 
ATOM     83  F   UNL A   1      46.755  25.396  33.386  1.00  0.00    -0.203 F 
ATOM     84  C   UNL A   1      49.047  25.258  32.866  1.00  0.00     0.198 A 
ATOM     85  C   UNL A   1      49.926  26.459  30.980  1.00  0.00     0.198 A 
ATOM     86  F   UNL A   1      48.500  27.794  29.668  1.00  0.00    -0.203 F 
ATOM     87  F   UNL A   1      49.237  24.445  33.914  1.00  0.00    -0.200 F 
ATOM     88  C   UNL A   1      50.118  25.603  32.054  1.00  0.00     0.200 A 
ATOM     89  F   UNL A   1      50.957  26.782  30.187  1.00  0.00    -0.200 F 
ATOM     90  F   UNL A   1      51.338  25.108  32.306  1.00  0.00    -0.200 F 
ENDBRANCH  57  80
ENDBRANCH  31  32
ENDBRANCH  23  26
ENDBRANCH  21  22
ENDBRANCH   1  21
TORSDOF 11
ENDMDL
