MODEL 1
REMARK VINA RESULT:     -11.9      0.000      0.000
REMARK SMILES O=C(NCCCNC(=O)c1cncc(Nc2ccc(Cl)cc2C(F)(F)F)n1)c1ccc(-c2c3nc(c(-c4c(F)c(F)c(F)c(F)c4F)c4ccc([nH]4)c(-c4c(F)c(F)c(F)c(F)c4F)c4nc(c(-c5c(F)c(F)c(F)c(F)c5F)c5ccc2[nH]5)C=C4)C=C3)cc1
REMARK SMILES IDX 5 1 4 2 3 3 1 4 2 5 28 7 29 8 90 9 30 10 89 11 31 12 32 13
REMARK SMILES IDX 33 14 83 15 34 16 88 17 82 18 84 19 35 20 87 21 81 22 80 23
REMARK SMILES IDX 36 25 68 26 48 27 67 28 49 29 52 30 66 31 85 32 50 33 51 34
REMARK SMILES IDX 65 36 86 37 53 38 37 39 38 40 46 41 39 42 40 43 44 44 47 45
REMARK SMILES IDX 41 46 42 47 45 48 43 49 69 50 70 51 78 52 71 53 72 54 76 55
REMARK SMILES IDX 79 56 73 57 74 58 77 59 75 60 54 61 55 62 63 63 56 64 57 65
REMARK SMILES IDX 61 66 64 67 58 68 59 69 62 70 60 71 6 72 7 73 8 74 9 76
REMARK SMILES IDX 10 77 11 78 27 79 12 80 14 81 13 82 15 83 16 85 17 86 22 87
REMARK SMILES IDX 18 88 21 89 19 90 20 91 23 92 24 93 25 94 26 95
REMARK H PARENT 3 6 84 24 52 35 7 75 15 84
REMARK Flexibility Score: inf
ROOT
ATOM      1  C   UNL A   1      35.242  33.353  28.109  1.00  0.00     0.042 C 
ENDROOT
BRANCH   1   2
ATOM      2  C   UNL A   1      34.345  32.396  28.876  1.00  0.00     0.118 C 
BRANCH   2   3
ATOM      3  N   UNL A   1      33.833  31.312  28.046  1.00  0.00    -0.352 N 
ATOM      4  O   UNL A   1      33.917  29.491  26.720  1.00  0.00    -0.269 OA
ATOM      5  C   UNL A   1      34.477  30.206  27.548  1.00  0.00     0.251 C 
ATOM      6  H   UNL A   1      32.881  31.384  27.808  1.00  0.00     0.163 HD
BRANCH   5   7
ATOM      7  C   UNL A   1      35.849  29.884  27.993  1.00  0.00     0.039 A 
ATOM      8  C   UNL A   1      36.941  30.136  27.163  1.00  0.00     0.014 A 
ATOM      9  C   UNL A   1      36.050  29.347  29.269  1.00  0.00     0.014 A 
ATOM     10  C   UNL A   1      38.207  29.707  27.534  1.00  0.00     0.010 A 
ATOM     11  C   UNL A   1      37.343  29.020  29.689  1.00  0.00     0.010 A 
ATOM     12  C   UNL A   1      38.430  29.181  28.816  1.00  0.00    -0.014 A 
BRANCH  12  13
ATOM     13  C   UNL A   1      39.826  28.926  29.247  1.00  0.00     0.031 A 
ATOM     14  C   UNL A   1      40.582  27.712  28.792  1.00  0.00     0.074 A 
ATOM     15  C   UNL A   1      40.413  29.836  30.050  1.00  0.00     0.049 A 
ATOM     16  N   UNL A   1      41.810  27.355  29.078  1.00  0.00    -0.248 NA
ATOM     17  C   UNL A   1      39.876  26.769  27.910  1.00  0.00     0.031 C 
ATOM     18  C   UNL A   1      39.762  31.043  30.567  1.00  0.00     0.029 A 
ATOM     19  N   UNL A   1      41.683  29.902  30.562  1.00  0.00    -0.354 N 
ATOM     20  C   UNL A   1      42.018  26.144  28.430  1.00  0.00     0.074 A 
ATOM     21  C   UNL A   1      40.784  25.814  27.749  1.00  0.00     0.031 C 
ATOM     22  C   UNL A   1      40.647  31.752  31.282  1.00  0.00     0.029 A 
ATOM     23  C   UNL A   1      41.900  31.013  31.341  1.00  0.00     0.049 A 
ATOM     24  H   UNL A   1      42.372  29.221  30.388  1.00  0.00     0.167 HD
ATOM     25  C   UNL A   1      43.141  25.387  28.410  1.00  0.00     0.037 A 
ATOM     26  C   UNL A   1      42.980  31.381  32.054  1.00  0.00     0.037 A 
ATOM     27  C   UNL A   1      44.370  25.740  29.076  1.00  0.00     0.049 A 
ATOM     28  C   UNL A   1      44.196  30.500  32.029  1.00  0.00     0.074 A 
ATOM     29  C   UNL A   1      45.579  25.066  29.063  1.00  0.00     0.029 A 
ATOM     30  N   UNL A   1      44.544  26.856  29.882  1.00  0.00    -0.354 N 
ATOM     31  N   UNL A   1      44.396  29.388  31.367  1.00  0.00    -0.248 NA
ATOM     32  C   UNL A   1      45.332  30.924  32.856  1.00  0.00     0.031 C 
ATOM     33  C   UNL A   1      46.466  25.741  29.907  1.00  0.00     0.029 A 
ATOM     34  C   UNL A   1      45.829  26.869  30.400  1.00  0.00     0.049 A 
ATOM     35  H   UNL A   1      43.857  27.538  30.058  1.00  0.00     0.167 HD
ATOM     36  C   UNL A   1      45.684  28.985  31.685  1.00  0.00     0.074 A 
ATOM     37  C   UNL A   1      46.229  29.991  32.573  1.00  0.00     0.031 C 
ATOM     38  C   UNL A   1      46.354  27.878  31.284  1.00  0.00     0.037 A 
BRANCH  25  39
ATOM     39  C   UNL A   1      43.109  24.088  27.660  1.00  0.00     0.064 A 
ATOM     40  C   UNL A   1      42.687  22.895  28.264  1.00  0.00     0.173 A 
ATOM     41  C   UNL A   1      43.404  24.058  26.287  1.00  0.00     0.173 A 
ATOM     42  F   UNL A   1      42.399  22.866  29.574  1.00  0.00    -0.203 F 
ATOM     43  C   UNL A   1      42.569  21.719  27.524  1.00  0.00     0.198 A 
ATOM     44  C   UNL A   1      43.260  22.888  25.546  1.00  0.00     0.198 A 
ATOM     45  F   UNL A   1      43.805  25.173  25.658  1.00  0.00    -0.203 F 
ATOM     46  F   UNL A   1      42.183  20.586  28.127  1.00  0.00    -0.200 F 
ATOM     47  C   UNL A   1      42.843  21.720  26.164  1.00  0.00     0.200 A 
ATOM     48  F   UNL A   1      43.512  22.896  24.230  1.00  0.00    -0.200 F 
ATOM     49  F   UNL A   1      42.706  20.595  25.450  1.00  0.00    -0.200 F 
ENDBRANCH  25  39
BRANCH  26  50
ATOM     50  C   UNL A   1      42.942  32.618  32.878  1.00  0.00     0.064 A 
ATOM     51  C   UNL A   1      42.671  32.567  34.251  1.00  0.00     0.173 A 
ATOM     52  C   UNL A   1      43.158  33.880  32.302  1.00  0.00     0.173 A 
ATOM     53  F   UNL A   1      42.441  31.386  34.845  1.00  0.00    -0.203 F 
ATOM     54  C   UNL A   1      42.586  33.732  35.010  1.00  0.00     0.198 A 
ATOM     55  C   UNL A   1      43.111  35.040  33.070  1.00  0.00     0.198 A 
ATOM     56  F   UNL A   1      43.429  33.985  30.993  1.00  0.00    -0.203 F 
ATOM     57  F   UNL A   1      42.264  33.659  36.310  1.00  0.00    -0.200 F 
ATOM     58  C   UNL A   1      42.811  34.967  34.420  1.00  0.00     0.200 A 
ATOM     59  F   UNL A   1      43.349  36.229  32.498  1.00  0.00    -0.200 F 
ATOM     60  F   UNL A   1      42.728  36.086  35.152  1.00  0.00    -0.200 F 
ENDBRANCH  26  50
BRANCH  38  61
ATOM     61  C   UNL A   1      47.757  27.712  31.791  1.00  0.00     0.064 A 
ATOM     62  C   UNL A   1      48.031  27.007  32.972  1.00  0.00     0.173 A 
ATOM     63  C   UNL A   1      48.839  28.250  31.078  1.00  0.00     0.173 A 
ATOM     64  F   UNL A   1      47.029  26.490  33.699  1.00  0.00    -0.203 F 
ATOM     65  C   UNL A   1      49.337  26.872  33.437  1.00  0.00     0.198 A 
ATOM     66  C   UNL A   1      50.145  28.084  31.528  1.00  0.00     0.198 A 
ATOM     67  F   UNL A   1      48.630  28.928  29.940  1.00  0.00    -0.203 F 
ATOM     68  F   UNL A   1      49.571  26.245  34.598  1.00  0.00    -0.200 F 
ATOM     69  C   UNL A   1      50.392  27.405  32.711  1.00  0.00     0.200 A 
ATOM     70  F   UNL A   1      51.164  28.587  30.819  1.00  0.00    -0.200 F 
ATOM     71  F   UNL A   1      51.648  27.271  33.158  1.00  0.00    -0.200 F 
ENDBRANCH  38  61
ENDBRANCH  12  13
ENDBRANCH   5   7
ENDBRANCH   2   3
ENDBRANCH   1   2
BRANCH   1  72
ATOM     72  C   UNL A   1      35.223  34.776  28.643  1.00  0.00     0.118 C 
BRANCH  72  73
ATOM     73  N   UNL A   1      33.961  35.450  28.372  1.00  0.00    -0.351 N 
ATOM     74  C   UNL A   1      33.035  35.970  29.249  1.00  0.00     0.271 C 
ATOM     75  H   UNL A   1      33.736  35.548  27.419  1.00  0.00     0.163 HD
ATOM     76  O   UNL A   1      31.949  36.344  28.816  1.00  0.00    -0.267 OA
BRANCH  74  77
ATOM     77  C   UNL A   1      33.363  36.099  30.689  1.00  0.00     0.148 A 
ATOM     78  C   UNL A   1      33.372  37.351  31.284  1.00  0.00     0.145 A 
ATOM     79  N   UNL A   1      33.630  34.955  31.373  1.00  0.00    -0.222 NA
ATOM     80  N   UNL A   1      33.730  37.530  32.572  1.00  0.00    -0.258 NA
ATOM     81  C   UNL A   1      33.934  35.104  32.678  1.00  0.00     0.149 A 
ATOM     82  C   UNL A   1      34.015  36.384  33.240  1.00  0.00     0.158 A 
BRANCH  81  83
ATOM     83  N   UNL A   1      34.194  33.933  33.392  1.00  0.00    -0.338 N 
ATOM     84  H   UNL A   1      33.441  33.299  33.418  1.00  0.00     0.168 HD
BRANCH  83  85
ATOM     85  C   UNL A   1      35.337  33.498  34.078  1.00  0.00     0.052 A 
ATOM     86  C   UNL A   1      35.697  34.088  35.304  1.00  0.00     0.028 A 
ATOM     87  C   UNL A   1      36.198  32.535  33.518  1.00  0.00     0.080 A 
ATOM     88  C   UNL A   1      36.905  33.788  35.935  1.00  0.00     0.022 A 
ATOM     89  C   UNL A   1      37.424  32.248  34.158  1.00  0.00     0.035 A 
ATOM     90  C   UNL A   1      37.775  32.881  35.348  1.00  0.00     0.041 A 
ATOM     91  Cl  UNL A   1      39.288  32.543  36.087  1.00  0.00    -0.084 Cl
BRANCH  87  92
ATOM     92  C   UNL A   1      35.905  31.825  32.219  1.00  0.00     0.418 C 
ATOM     93  F   UNL A   1      36.655  32.301  31.188  1.00  0.00    -0.166 F 
ATOM     94  F   UNL A   1      36.178  30.491  32.292  1.00  0.00    -0.166 F 
ATOM     95  F   UNL A   1      34.608  31.905  31.810  1.00  0.00    -0.166 F 
ENDBRANCH  87  92
ENDBRANCH  83  85
ENDBRANCH  81  83
ENDBRANCH  74  77
ENDBRANCH  72  73
ENDBRANCH   1  72
TORSDOF 13
ENDMDL
MODEL 2
REMARK VINA RESULT:     -11.9      0.513      7.373
REMARK SMILES O=C(NCCCNC(=O)c1cncc(Nc2ccc(Cl)cc2C(F)(F)F)n1)c1ccc(-c2c3nc(c(-c4c(F)c(F)c(F)c(F)c4F)c4ccc([nH]4)c(-c4c(F)c(F)c(F)c(F)c4F)c4nc(c(-c5c(F)c(F)c(F)c(F)c5F)c5ccc2[nH]5)C=C4)C=C3)cc1
REMARK SMILES IDX 5 1 4 2 3 3 1 4 2 5 28 7 29 8 90 9 30 10 89 11 31 12 32 13
REMARK SMILES IDX 33 14 83 15 34 16 88 17 82 18 84 19 35 20 87 21 81 22 80 23
REMARK SMILES IDX 36 25 68 26 48 27 67 28 49 29 52 30 66 31 85 32 50 33 51 34
REMARK SMILES IDX 65 36 86 37 53 38 37 39 38 40 46 41 39 42 40 43 44 44 47 45
REMARK SMILES IDX 41 46 42 47 45 48 43 49 69 50 70 51 78 52 71 53 72 54 76 55
REMARK SMILES IDX 79 56 73 57 74 58 77 59 75 60 54 61 55 62 63 63 56 64 57 65
REMARK SMILES IDX 61 66 64 67 58 68 59 69 62 70 60 71 6 72 7 73 8 74 9 76
REMARK SMILES IDX 10 77 11 78 27 79 12 80 14 81 13 82 15 83 16 85 17 86 22 87
REMARK SMILES IDX 18 88 21 89 19 90 20 91 23 92 24 93 25 94 26 95
REMARK H PARENT 3 6 84 24 52 35 7 75 15 84
REMARK Flexibility Score: inf
ROOT
ATOM      1  C   UNL A   1      35.248  33.403  28.052  1.00  0.00     0.042 C 
ENDROOT
BRANCH   1   2
ATOM      2  C   UNL A   1      34.413  32.461  28.903  1.00  0.00     0.118 C 
BRANCH   2   3
ATOM      3  N   UNL A   1      33.849  31.356  28.138  1.00  0.00    -0.352 N 
ATOM      4  O   UNL A   1      33.847  29.487  26.878  1.00  0.00    -0.269 OA
ATOM      5  C   UNL A   1      34.454  30.222  27.652  1.00  0.00     0.251 C 
ATOM      6  H   UNL A   1      32.888  31.434  27.939  1.00  0.00     0.163 HD
BRANCH   5   7
ATOM      7  C   UNL A   1      35.839  29.895  28.048  1.00  0.00     0.039 A 
ATOM      8  C   UNL A   1      36.904  30.161  27.186  1.00  0.00     0.014 A 
ATOM      9  C   UNL A   1      36.082  29.339  29.308  1.00  0.00     0.014 A 
ATOM     10  C   UNL A   1      38.182  29.727  27.510  1.00  0.00     0.010 A 
ATOM     11  C   UNL A   1      37.389  29.007  29.681  1.00  0.00     0.010 A 
ATOM     12  C   UNL A   1      38.446  29.182  28.776  1.00  0.00    -0.014 A 
BRANCH  12  13
ATOM     13  C   UNL A   1      39.856  28.922  29.157  1.00  0.00     0.031 A 
ATOM     14  C   UNL A   1      40.631  29.880  30.013  1.00  0.00     0.074 A 
ATOM     15  C   UNL A   1      40.422  27.775  28.729  1.00  0.00     0.049 A 
ATOM     16  N   UNL A   1      41.868  29.787  30.436  1.00  0.00    -0.248 NA
ATOM     17  C   UNL A   1      39.941  31.105  30.448  1.00  0.00     0.031 C 
ATOM     18  C   UNL A   1      39.764  26.781  27.877  1.00  0.00     0.029 A 
ATOM     19  N   UNL A   1      41.664  27.243  28.957  1.00  0.00    -0.354 N 
ATOM     20  C   UNL A   1      42.110  30.942  31.168  1.00  0.00     0.074 A 
ATOM     21  C   UNL A   1      40.899  31.734  31.118  1.00  0.00     0.031 C 
ATOM     22  C   UNL A   1      40.588  25.741  27.691  1.00  0.00     0.029 A 
ATOM     23  C   UNL A   1      41.858  26.028  28.344  1.00  0.00     0.049 A 
ATOM     24  H   UNL A   1      42.349  27.685  29.508  1.00  0.00     0.167 HD
ATOM     25  C   UNL A   1      43.243  31.299  31.819  1.00  0.00     0.037 A 
ATOM     26  C   UNL A   1      42.951  25.245  28.283  1.00  0.00     0.037 A 
ATOM     27  C   UNL A   1      44.435  30.490  31.878  1.00  0.00     0.049 A 
ATOM     28  C   UNL A   1      44.196  25.689  28.994  1.00  0.00     0.074 A 
ATOM     29  C   UNL A   1      45.611  30.740  32.563  1.00  0.00     0.029 A 
ATOM     30  N   UNL A   1      44.606  29.281  31.218  1.00  0.00    -0.354 N 
ATOM     31  N   UNL A   1      44.392  26.757  29.729  1.00  0.00    -0.248 NA
ATOM     32  C   UNL A   1      45.373  24.822  28.864  1.00  0.00     0.031 C 
ATOM     33  C   UNL A   1      46.515  29.713  32.272  1.00  0.00     0.029 A 
ATOM     34  C   UNL A   1      45.882  28.792  31.452  1.00  0.00     0.049 A 
ATOM     35  H   UNL A   1      43.923  28.836  30.667  1.00  0.00     0.167 HD
ATOM     36  C   UNL A   1      45.708  26.683  30.159  1.00  0.00     0.074 A 
ATOM     37  C   UNL A   1      46.252  25.449  29.631  1.00  0.00     0.031 C 
ATOM     38  C   UNL A   1      46.407  27.563  30.917  1.00  0.00     0.037 A 
BRANCH  25  39
ATOM     39  C   UNL A   1      43.274  32.627  32.517  1.00  0.00     0.064 A 
ATOM     40  C   UNL A   1      43.647  33.804  31.851  1.00  0.00     0.173 A 
ATOM     41  C   UNL A   1      42.821  32.739  33.842  1.00  0.00     0.173 A 
ATOM     42  F   UNL A   1      44.093  33.753  30.587  1.00  0.00    -0.203 F 
ATOM     43  C   UNL A   1      43.573  35.042  32.489  1.00  0.00     0.198 A 
ATOM     44  C   UNL A   1      42.724  33.980  34.466  1.00  0.00     0.198 A 
ATOM     45  F   UNL A   1      42.445  31.646  34.521  1.00  0.00    -0.203 F 
ATOM     46  F   UNL A   1      43.954  36.151  31.840  1.00  0.00    -0.200 F 
ATOM     47  C   UNL A   1      43.101  35.129  33.790  1.00  0.00     0.200 A 
ATOM     48  F   UNL A   1      42.254  34.063  35.718  1.00  0.00    -0.200 F 
ATOM     49  F   UNL A   1      43.007  36.323  34.392  1.00  0.00    -0.200 F 
ENDBRANCH  25  39
BRANCH  26  50
ATOM     50  C   UNL A   1      42.924  23.988  27.490  1.00  0.00     0.064 A 
ATOM     51  C   UNL A   1      42.538  22.773  28.069  1.00  0.00     0.173 A 
ATOM     52  C   UNL A   1      43.303  23.975  26.138  1.00  0.00     0.173 A 
ATOM     53  F   UNL A   1      42.183  22.730  29.362  1.00  0.00    -0.203 F 
ATOM     54  C   UNL A   1      42.563  21.588  27.337  1.00  0.00     0.198 A 
ATOM     55  C   UNL A   1      43.290  22.797  25.397  1.00  0.00     0.198 A 
ATOM     56  F   UNL A   1      43.674  25.114  25.533  1.00  0.00    -0.203 F 
ATOM     57  F   UNL A   1      42.248  20.429  27.933  1.00  0.00    -0.200 F 
ATOM     58  C   UNL A   1      42.934  21.602  26.000  1.00  0.00     0.200 A 
ATOM     59  F   UNL A   1      43.631  22.821  24.101  1.00  0.00    -0.200 F 
ATOM     60  F   UNL A   1      42.958  20.462  25.298  1.00  0.00    -0.200 F 
ENDBRANCH  26  50
BRANCH  38  61
ATOM     61  C   UNL A   1      47.830  27.206  31.232  1.00  0.00     0.064 A 
ATOM     62  C   UNL A   1      48.893  27.657  30.436  1.00  0.00     0.173 A 
ATOM     63  C   UNL A   1      48.135  26.418  32.353  1.00  0.00     0.173 A 
ATOM     64  F   UNL A   1      48.653  28.396  29.343  1.00  0.00    -0.203 F 
ATOM     65  C   UNL A   1      50.208  27.307  30.734  1.00  0.00     0.198 A 
ATOM     66  C   UNL A   1      49.451  26.099  32.667  1.00  0.00     0.198 A 
ATOM     67  F   UNL A   1      47.154  25.966  33.149  1.00  0.00    -0.203 F 
ATOM     68  F   UNL A   1      51.202  27.700  29.927  1.00  0.00    -0.200 F 
ATOM     69  C   UNL A   1      50.485  26.535  31.852  1.00  0.00     0.200 A 
ATOM     70  F   UNL A   1      49.720  25.365  33.755  1.00  0.00    -0.200 F 
ATOM     71  F   UNL A   1      51.751  26.202  32.139  1.00  0.00    -0.200 F 
ENDBRANCH  38  61
ENDBRANCH  12  13
ENDBRANCH   5   7
ENDBRANCH   2   3
ENDBRANCH   1   2
BRANCH   1  72
ATOM     72  C   UNL A   1      35.250  34.840  28.546  1.00  0.00     0.118 C 
BRANCH  72  73
ATOM     73  N   UNL A   1      33.971  35.502  28.325  1.00  0.00    -0.351 N 
ATOM     74  C   UNL A   1      33.053  35.969  29.238  1.00  0.00     0.271 C 
ATOM     75  H   UNL A   1      33.727  35.634  27.381  1.00  0.00     0.163 HD
ATOM     76  O   UNL A   1      31.953  36.340  28.841  1.00  0.00    -0.267 OA
BRANCH  74  77
ATOM     77  C   UNL A   1      33.406  36.045  30.676  1.00  0.00     0.148 A 
ATOM     78  C   UNL A   1      33.367  37.266  31.331  1.00  0.00     0.145 A 
ATOM     79  N   UNL A   1      33.742  34.884  31.299  1.00  0.00    -0.222 NA
ATOM     80  N   UNL A   1      33.743  37.401  32.619  1.00  0.00    -0.258 NA
ATOM     81  C   UNL A   1      34.066  34.986  32.604  1.00  0.00     0.149 A 
ATOM     82  C   UNL A   1      34.097  36.240  33.225  1.00  0.00     0.158 A 
BRANCH  81  83
ATOM     83  N   UNL A   1      34.398  33.796  33.254  1.00  0.00    -0.338 N 
ATOM     84  H   UNL A   1      33.733  33.079  33.150  1.00  0.00     0.168 HD
BRANCH  83  85
ATOM     85  C   UNL A   1      35.511  33.441  34.030  1.00  0.00     0.052 A 
ATOM     86  C   UNL A   1      35.706  34.021  35.298  1.00  0.00     0.028 A 
ATOM     87  C   UNL A   1      36.501  32.576  33.528  1.00  0.00     0.080 A 
ATOM     88  C   UNL A   1      36.877  33.808  36.029  1.00  0.00     0.022 A 
ATOM     89  C   UNL A   1      37.686  32.377  34.270  1.00  0.00     0.035 A 
ATOM     90  C   UNL A   1      37.873  33.000  35.501  1.00  0.00     0.041 A 
ATOM     91  Cl  UNL A   1      39.340  32.772  36.366  1.00  0.00    -0.084 Cl
BRANCH  87  92
ATOM     92  C   UNL A   1      36.389  31.884  32.192  1.00  0.00     0.418 C 
ATOM     93  F   UNL A   1      36.709  32.707  31.155  1.00  0.00    -0.166 F 
ATOM     94  F   UNL A   1      37.233  30.818  32.093  1.00  0.00    -0.166 F 
ATOM     95  F   UNL A   1      35.150  31.390  31.912  1.00  0.00    -0.166 F 
ENDBRANCH  87  92
ENDBRANCH  83  85
ENDBRANCH  81  83
ENDBRANCH  74  77
ENDBRANCH  72  73
ENDBRANCH   1  72
TORSDOF 13
ENDMDL
MODEL 3
REMARK VINA RESULT:     -11.7      3.584     11.006
REMARK SMILES O=C(NCCCNC(=O)c1cncc(Nc2ccc(Cl)cc2C(F)(F)F)n1)c1ccc(-c2c3nc(c(-c4c(F)c(F)c(F)c(F)c4F)c4ccc([nH]4)c(-c4c(F)c(F)c(F)c(F)c4F)c4nc(c(-c5c(F)c(F)c(F)c(F)c5F)c5ccc2[nH]5)C=C4)C=C3)cc1
REMARK SMILES IDX 5 1 4 2 3 3 1 4 2 5 28 7 29 8 90 9 30 10 89 11 31 12 32 13
REMARK SMILES IDX 33 14 83 15 34 16 88 17 82 18 84 19 35 20 87 21 81 22 80 23
REMARK SMILES IDX 36 25 68 26 48 27 67 28 49 29 52 30 66 31 85 32 50 33 51 34
REMARK SMILES IDX 65 36 86 37 53 38 37 39 38 40 46 41 39 42 40 43 44 44 47 45
REMARK SMILES IDX 41 46 42 47 45 48 43 49 69 50 70 51 78 52 71 53 72 54 76 55
REMARK SMILES IDX 79 56 73 57 74 58 77 59 75 60 54 61 55 62 63 63 56 64 57 65
REMARK SMILES IDX 61 66 64 67 58 68 59 69 62 70 60 71 6 72 7 73 8 74 9 76
REMARK SMILES IDX 10 77 11 78 27 79 12 80 14 81 13 82 15 83 16 85 17 86 22 87
REMARK SMILES IDX 18 88 21 89 19 90 20 91 23 92 24 93 25 94 26 95
REMARK H PARENT 3 6 84 24 52 35 7 75 15 84
REMARK Flexibility Score: inf
ROOT
ATOM      1  C   UNL A   1      40.923  21.176  27.515  1.00  0.00     0.042 C 
ENDROOT
BRANCH   1   2
ATOM      2  C   UNL A   1      40.799  21.921  26.197  1.00  0.00     0.118 C 
BRANCH   2   3
ATOM      3  N   UNL A   1      39.415  22.134  25.793  1.00  0.00    -0.352 N 
ATOM      4  O   UNL A   1      37.361  23.065  25.819  1.00  0.00    -0.269 OA
ATOM      5  C   UNL A   1      38.549  23.150  26.120  1.00  0.00     0.251 C 
ATOM      6  H   UNL A   1      39.044  21.446  25.196  1.00  0.00     0.163 HD
BRANCH   5   7
ATOM      7  C   UNL A   1      39.043  24.339  26.846  1.00  0.00     0.039 A 
ATOM      8  C   UNL A   1      38.864  24.451  28.225  1.00  0.00     0.014 A 
ATOM      9  C   UNL A   1      39.717  25.343  26.145  1.00  0.00     0.014 A 
ATOM     10  C   UNL A   1      39.209  25.628  28.875  1.00  0.00     0.010 A 
ATOM     11  C   UNL A   1      40.168  26.481  26.822  1.00  0.00     0.010 A 
ATOM     12  C   UNL A   1      39.900  26.639  28.190  1.00  0.00    -0.014 A 
BRANCH  12  13
ATOM     13  C   UNL A   1      40.430  27.788  28.964  1.00  0.00     0.031 A 
ATOM     14  C   UNL A   1      41.853  27.829  29.439  1.00  0.00     0.074 A 
ATOM     15  C   UNL A   1      39.596  28.818  29.213  1.00  0.00     0.049 A 
ATOM     16  N   UNL A   1      42.464  28.768  30.120  1.00  0.00    -0.248 NA
ATOM     17  C   UNL A   1      42.704  26.672  29.121  1.00  0.00     0.031 C 
ATOM     18  C   UNL A   1      38.187  28.873  28.812  1.00  0.00     0.029 A 
ATOM     19  N   UNL A   1      39.805  30.016  29.844  1.00  0.00    -0.354 N 
ATOM     20  C   UNL A   1      43.759  28.309  30.327  1.00  0.00     0.074 A 
ATOM     21  C   UNL A   1      43.844  27.000  29.717  1.00  0.00     0.031 C 
ATOM     22  C   UNL A   1      37.672  30.058  29.165  1.00  0.00     0.029 A 
ATOM     23  C   UNL A   1      38.688  30.814  29.885  1.00  0.00     0.049 A 
ATOM     24  H   UNL A   1      40.672  30.280  30.230  1.00  0.00     0.167 HD
ATOM     25  C   UNL A   1      44.776  28.934  30.968  1.00  0.00     0.037 A 
ATOM     26  C   UNL A   1      38.489  32.010  30.468  1.00  0.00     0.037 A 
ATOM     27  C   UNL A   1      44.682  30.248  31.553  1.00  0.00     0.049 A 
ATOM     28  C   UNL A   1      39.634  32.657  31.194  1.00  0.00     0.074 A 
ATOM     29  C   UNL A   1      45.676  30.988  32.170  1.00  0.00     0.029 A 
ATOM     30  N   UNL A   1      43.525  31.013  31.603  1.00  0.00    -0.354 N 
ATOM     31  N   UNL A   1      40.867  32.237  31.332  1.00  0.00    -0.248 NA
ATOM     32  C   UNL A   1      39.356  33.941  31.848  1.00  0.00     0.031 C 
ATOM     33  C   UNL A   1      45.108  32.174  32.645  1.00  0.00     0.029 A 
ATOM     34  C   UNL A   1      43.774  32.201  32.273  1.00  0.00     0.049 A 
ATOM     35  H   UNL A   1      42.658  30.752  31.219  1.00  0.00     0.167 HD
ATOM     36  C   UNL A   1      41.517  33.210  32.077  1.00  0.00     0.074 A 
ATOM     37  C   UNL A   1      40.549  34.257  32.331  1.00  0.00     0.031 C 
ATOM     38  C   UNL A   1      42.797  33.231  32.518  1.00  0.00     0.037 A 
BRANCH  25  39
ATOM     39  C   UNL A   1      46.086  28.213  31.094  1.00  0.00     0.064 A 
ATOM     40  C   UNL A   1      46.354  27.348  32.166  1.00  0.00     0.173 A 
ATOM     41  C   UNL A   1      47.045  28.307  30.073  1.00  0.00     0.173 A 
ATOM     42  F   UNL A   1      45.475  27.226  33.171  1.00  0.00    -0.203 F 
ATOM     43  C   UNL A   1      47.536  26.611  32.212  1.00  0.00     0.198 A 
ATOM     44  C   UNL A   1      48.213  27.550  30.110  1.00  0.00     0.198 A 
ATOM     45  F   UNL A   1      46.835  29.114  29.022  1.00  0.00    -0.203 F 
ATOM     46  F   UNL A   1      47.780  25.806  33.256  1.00  0.00    -0.200 F 
ATOM     47  C   UNL A   1      48.458  26.703  31.180  1.00  0.00     0.200 A 
ATOM     48  F   UNL A   1      49.094  27.630  29.104  1.00  0.00    -0.200 F 
ATOM     49  F   UNL A   1      49.583  25.975  31.215  1.00  0.00    -0.200 F 
ENDBRANCH  25  39
BRANCH  26  50
ATOM     50  C   UNL A   1      37.148  32.649  30.422  1.00  0.00     0.064 A 
ATOM     51  C   UNL A   1      36.202  32.423  31.429  1.00  0.00     0.173 A 
ATOM     52  C   UNL A   1      36.778  33.485  29.356  1.00  0.00     0.173 A 
ATOM     53  F   UNL A   1      36.500  31.618  32.460  1.00  0.00    -0.203 F 
ATOM     54  C   UNL A   1      34.927  32.982  31.357  1.00  0.00     0.198 A 
ATOM     55  C   UNL A   1      35.519  34.074  29.304  1.00  0.00     0.198 A 
ATOM     56  F   UNL A   1      37.650  33.741  28.369  1.00  0.00    -0.203 F 
ATOM     57  F   UNL A   1      34.021  32.699  32.303  1.00  0.00    -0.200 F 
ATOM     58  C   UNL A   1      34.589  33.811  30.297  1.00  0.00     0.200 A 
ATOM     59  F   UNL A   1      35.204  34.890  28.289  1.00  0.00    -0.200 F 
ATOM     60  F   UNL A   1      33.364  34.347  30.229  1.00  0.00    -0.200 F 
ENDBRANCH  26  50
BRANCH  38  61
ATOM     61  C   UNL A   1      43.225  34.437  33.304  1.00  0.00     0.064 A 
ATOM     62  C   UNL A   1      43.638  35.618  32.669  1.00  0.00     0.173 A 
ATOM     63  C   UNL A   1      43.205  34.415  34.706  1.00  0.00     0.173 A 
ATOM     64  F   UNL A   1      43.692  35.682  31.330  1.00  0.00    -0.203 F 
ATOM     65  C   UNL A   1      44.044  36.723  33.411  1.00  0.00     0.198 A 
ATOM     66  C   UNL A   1      43.579  35.533  35.444  1.00  0.00     0.198 A 
ATOM     67  F   UNL A   1      42.814  33.312  35.361  1.00  0.00    -0.203 F 
ATOM     68  F   UNL A   1      44.489  37.821  32.784  1.00  0.00    -0.200 F 
ATOM     69  C   UNL A   1      44.007  36.682  34.796  1.00  0.00     0.200 A 
ATOM     70  F   UNL A   1      43.531  35.497  36.782  1.00  0.00    -0.200 F 
ATOM     71  F   UNL A   1      44.395  37.749  35.509  1.00  0.00    -0.200 F 
ENDBRANCH  38  61
ENDBRANCH  12  13
ENDBRANCH   5   7
ENDBRANCH   2   3
ENDBRANCH   1   2
BRANCH   1  72
ATOM     72  C   UNL A   1      42.241  20.438  27.684  1.00  0.00     0.118 C 
BRANCH  72  73
ATOM     73  N   UNL A   1      42.184  19.079  27.164  1.00  0.00    -0.351 N 
ATOM     74  C   UNL A   1      42.910  18.494  26.151  1.00  0.00     0.271 C 
ATOM     75  H   UNL A   1      41.526  18.492  27.601  1.00  0.00     0.163 HD
ATOM     76  O   UNL A   1      42.584  17.381  25.750  1.00  0.00    -0.267 OA
BRANCH  74  77
ATOM     77  C   UNL A   1      44.085  19.192  25.578  1.00  0.00     0.148 A 
ATOM     78  C   UNL A   1      45.290  18.519  25.444  1.00  0.00     0.145 A 
ATOM     79  N   UNL A   1      43.916  20.484  25.188  1.00  0.00    -0.222 NA
ATOM     80  N   UNL A   1      46.405  19.127  24.993  1.00  0.00    -0.258 NA
ATOM     81  C   UNL A   1      45.003  21.096  24.679  1.00  0.00     0.149 A 
ATOM     82  C   UNL A   1      46.230  20.422  24.627  1.00  0.00     0.158 A 
BRANCH  81  83
ATOM     83  N   UNL A   1      44.833  22.417  24.262  1.00  0.00    -0.338 N 
ATOM     84  H   UNL A   1      44.094  22.549  23.626  1.00  0.00     0.168 HD
BRANCH  83  85
ATOM     85  C   UNL A   1      45.528  23.591  24.588  1.00  0.00     0.052 A 
ATOM     86  C   UNL A   1      46.874  23.748  24.207  1.00  0.00     0.028 A 
ATOM     87  C   UNL A   1      44.934  24.592  25.379  1.00  0.00     0.080 A 
ATOM     88  C   UNL A   1      47.638  24.831  24.644  1.00  0.00     0.022 A 
ATOM     89  C   UNL A   1      45.719  25.677  25.827  1.00  0.00     0.035 A 
ATOM     90  C   UNL A   1      47.061  25.784  25.471  1.00  0.00     0.041 A 
ATOM     91  Cl  UNL A   1      48.005  27.092  26.060  1.00  0.00    -0.084 Cl
BRANCH  87  92
ATOM     92  C   UNL A   1      43.495  24.537  25.831  1.00  0.00     0.418 C 
ATOM     93  F   UNL A   1      43.039  25.748  26.253  1.00  0.00    -0.166 F 
ATOM     94  F   UNL A   1      42.656  24.155  24.826  1.00  0.00    -0.166 F 
ATOM     95  F   UNL A   1      43.254  23.667  26.851  1.00  0.00    -0.166 F 
ENDBRANCH  87  92
ENDBRANCH  83  85
ENDBRANCH  81  83
ENDBRANCH  74  77
ENDBRANCH  72  73
ENDBRANCH   1  72
TORSDOF 13
ENDMDL
