MODEL 1
REMARK VINA RESULT:     -12.9      0.000      0.000
REMARK SMILES C=C1c2ccccc2C(=O)N1[C@](C)(C(=O)NCCCNC(=O)c1ccc(-c2c3nc(c(-c4c(F)c(F)c(F)c(F)c4F)c4ccc([nH]4)c(-c4c(F)c(F)c(F)c(F)c4F)c4nc(c(-c5c(F)c(F)c(F)c(F)c5F)c5ccc2[nH]5)C=C4)C=C3)cc1)C(F)(F)F
REMARK SMILES IDX 18 1 17 2 16 3 14 4 15 5 12 7 13 8 11 9 1 10 2 11 3 12 4 13
REMARK SMILES IDX 8 14 9 15 5 16 7 17 10 18 6 19 86 20 87 21 88 22 89 23 19 24
REMARK SMILES IDX 20 25 21 26 22 28 23 29 24 30 85 31 25 32 84 33 26 34 27 35
REMARK SMILES IDX 28 36 78 37 29 38 83 39 77 40 79 41 30 42 82 43 76 44 75 45
REMARK SMILES IDX 31 47 63 48 43 49 62 50 44 51 47 52 61 53 80 54 45 55 46 56
REMARK SMILES IDX 60 58 81 59 48 60 32 61 33 62 41 63 34 64 35 65 39 66 42 67
REMARK SMILES IDX 36 68 37 69 40 70 38 71 64 72 65 73 73 74 66 75 67 76 71 77
REMARK SMILES IDX 74 78 68 79 69 80 72 81 70 82 49 83 50 84 58 85 51 86 52 87
REMARK SMILES IDX 56 88 59 89 53 90 54 91 57 92 55 93
REMARK H PARENT 16 6 20 27 79 46 47 57
REMARK Flexibility Score: inf
ROOT
ATOM      1  C   UNL A   1      31.520  29.049  26.303  1.00  0.00     0.042 C 
ENDROOT
BRANCH   1   2
ATOM      2  C   UNL A   1      32.055  27.688  26.712  1.00  0.00     0.117 C 
BRANCH   2   3
ATOM      3  N   UNL A   1      31.046  26.645  26.793  1.00  0.00    -0.354 N 
ATOM      4  C   UNL A   1      30.781  25.574  25.991  1.00  0.00     0.255 C 
ATOM      5  O   UNL A   1      30.238  24.641  26.599  1.00  0.00    -0.272 OA
ATOM      6  H   UNL A   1      30.444  26.726  27.568  1.00  0.00     0.163 HD
BRANCH   4   7
ATOM      7  C   UNL A   1      31.189  25.432  24.492  1.00  0.00     0.219 C 
ATOM      8  C   UNL A   1      30.775  24.092  23.842  1.00  0.00     0.056 C 
BRANCH   7   9
ATOM      9  N   UNL A   1      30.636  26.612  23.741  1.00  0.00    -0.285 N 
ATOM     10  C   UNL A   1      32.535  27.669  22.523  1.00  0.00     0.038 C 
ATOM     11  C   UNL A   1      31.278  27.582  22.964  1.00  0.00     0.046 C 
ATOM     12  C   UNL A   1      30.269  28.591  22.597  1.00  0.00     0.010 A 
ATOM     13  C   UNL A   1      30.317  29.789  21.902  1.00  0.00     0.011 A 
ATOM     14  C   UNL A   1      29.054  28.169  23.111  1.00  0.00     0.049 A 
ATOM     15  C   UNL A   1      29.266  26.891  23.769  1.00  0.00     0.260 C 
ATOM     16  C   UNL A   1      29.137  30.537  21.761  1.00  0.00     0.001 A 
ATOM     17  C   UNL A   1      27.873  28.885  23.000  1.00  0.00     0.014 A 
ATOM     18  O   UNL A   1      28.329  26.247  24.208  1.00  0.00    -0.269 OA
ATOM     19  C   UNL A   1      27.924  30.092  22.313  1.00  0.00     0.001 A 
ENDBRANCH   7   9
BRANCH   7  20
ATOM     20  C   UNL A   1      32.735  25.312  24.632  1.00  0.00     0.420 C 
ATOM     21  F   UNL A   1      33.070  24.502  25.674  1.00  0.00    -0.168 F 
ATOM     22  F   UNL A   1      33.282  24.723  23.534  1.00  0.00    -0.168 F 
ATOM     23  F   UNL A   1      33.394  26.475  24.813  1.00  0.00    -0.168 F 
ENDBRANCH   7  20
ENDBRANCH   4   7
ENDBRANCH   2   3
ENDBRANCH   1   2
BRANCH   1  24
ATOM     24  C   UNL A   1      32.583  30.009  25.793  1.00  0.00     0.118 C 
BRANCH  24  25
ATOM     25  N   UNL A   1      32.453  31.364  26.317  1.00  0.00    -0.352 N 
ATOM     26  C   UNL A   1      33.191  32.076  27.233  1.00  0.00     0.251 C 
ATOM     27  H   UNL A   1      31.691  31.864  25.944  1.00  0.00     0.163 HD
ATOM     28  O   UNL A   1      32.789  33.178  27.600  1.00  0.00    -0.269 OA
BRANCH  26  29
ATOM     29  C   UNL A   1      34.436  31.530  27.821  1.00  0.00     0.039 A 
ATOM     30  C   UNL A   1      35.527  32.387  28.010  1.00  0.00     0.014 A 
ATOM     31  C   UNL A   1      34.561  30.185  28.159  1.00  0.00     0.014 A 
ATOM     32  C   UNL A   1      36.692  31.916  28.624  1.00  0.00     0.010 A 
ATOM     33  C   UNL A   1      35.667  29.746  28.878  1.00  0.00     0.010 A 
ATOM     34  C   UNL A   1      36.750  30.604  29.117  1.00  0.00    -0.014 A 
BRANCH  34  35
ATOM     35  C   UNL A   1      37.928  30.087  29.864  1.00  0.00     0.031 A 
ATOM     36  C   UNL A   1      38.174  30.536  31.281  1.00  0.00     0.074 A 
ATOM     37  C   UNL A   1      38.827  29.298  29.244  1.00  0.00     0.049 A 
ATOM     38  N   UNL A   1      39.224  30.351  32.041  1.00  0.00    -0.248 NA
ATOM     39  C   UNL A   1      37.115  31.340  31.913  1.00  0.00     0.031 C 
ATOM     40  C   UNL A   1      38.738  28.833  27.858  1.00  0.00     0.029 A 
ATOM     41  N   UNL A   1      40.008  28.760  29.696  1.00  0.00    -0.354 N 
ATOM     42  C   UNL A   1      38.969  31.049  33.215  1.00  0.00     0.074 A 
ATOM     43  C   UNL A   1      37.688  31.699  33.051  1.00  0.00     0.031 C 
ATOM     44  C   UNL A   1      39.802  28.059  27.583  1.00  0.00     0.029 A 
ATOM     45  C   UNL A   1      40.670  28.011  28.754  1.00  0.00     0.049 A 
ATOM     46  H   UNL A   1      40.348  28.900  30.610  1.00  0.00     0.167 HD
ATOM     47  C   UNL A   1      39.722  31.121  34.338  1.00  0.00     0.037 A 
ATOM     48  C   UNL A   1      41.849  27.365  28.825  1.00  0.00     0.037 A 
ATOM     49  C   UNL A   1      40.963  30.419  34.526  1.00  0.00     0.049 A 
ATOM     50  C   UNL A   1      42.641  27.420  30.103  1.00  0.00     0.074 A 
ATOM     51  C   UNL A   1      41.770  30.376  35.649  1.00  0.00     0.029 A 
ATOM     52  N   UNL A   1      41.566  29.616  33.568  1.00  0.00    -0.354 N 
ATOM     53  N   UNL A   1      42.370  28.054  31.217  1.00  0.00    -0.248 NA
ATOM     54  C   UNL A   1      43.902  26.664  30.133  1.00  0.00     0.031 C 
ATOM     55  C   UNL A   1      42.872  29.562  35.365  1.00  0.00     0.029 A 
ATOM     56  C   UNL A   1      42.733  29.073  34.076  1.00  0.00     0.049 A 
ATOM     57  H   UNL A   1      41.215  29.457  32.662  1.00  0.00     0.167 HD
ATOM     58  C   UNL A   1      43.408  27.754  32.088  1.00  0.00     0.074 A 
ATOM     59  C   UNL A   1      44.308  26.869  31.378  1.00  0.00     0.031 C 
ATOM     60  C   UNL A   1      43.601  28.175  33.361  1.00  0.00     0.037 A 
BRANCH  47  61
ATOM     61  C   UNL A   1      39.211  31.971  35.464  1.00  0.00     0.064 A 
ATOM     62  C   UNL A   1      38.413  31.432  36.484  1.00  0.00     0.173 A 
ATOM     63  C   UNL A   1      39.554  33.328  35.545  1.00  0.00     0.173 A 
ATOM     64  F   UNL A   1      38.047  30.143  36.444  1.00  0.00    -0.203 F 
ATOM     65  C   UNL A   1      37.955  32.228  37.531  1.00  0.00     0.198 A 
ATOM     66  C   UNL A   1      39.118  34.115  36.608  1.00  0.00     0.198 A 
ATOM     67  F   UNL A   1      40.321  33.891  34.599  1.00  0.00    -0.203 F 
ATOM     68  F   UNL A   1      37.156  31.703  38.469  1.00  0.00    -0.200 F 
ATOM     69  C   UNL A   1      38.313  33.566  37.596  1.00  0.00     0.200 A 
ATOM     70  F   UNL A   1      39.474  35.405  36.677  1.00  0.00    -0.200 F 
ATOM     71  F   UNL A   1      37.877  34.329  38.608  1.00  0.00    -0.200 F 
ENDBRANCH  47  61
BRANCH  48  72
ATOM     72  C   UNL A   1      42.344  26.585  27.662  1.00  0.00     0.064 A 
ATOM     73  C   UNL A   1      41.890  25.278  27.435  1.00  0.00     0.173 A 
ATOM     74  C   UNL A   1      43.284  27.115  26.768  1.00  0.00     0.173 A 
ATOM     75  F   UNL A   1      41.006  24.722  28.277  1.00  0.00    -0.203 F 
ATOM     76  C   UNL A   1      42.376  24.521  26.371  1.00  0.00     0.198 A 
ATOM     77  C   UNL A   1      43.751  26.366  25.688  1.00  0.00     0.198 A 
ATOM     78  F   UNL A   1      43.746  28.362  26.939  1.00  0.00    -0.203 F 
ATOM     79  F   UNL A   1      41.961  23.258  26.205  1.00  0.00    -0.200 F 
ATOM     80  C   UNL A   1      43.303  25.067  25.497  1.00  0.00     0.200 A 
ATOM     81  F   UNL A   1      44.639  26.900  24.839  1.00  0.00    -0.200 F 
ATOM     82  F   UNL A   1      43.772  24.338  24.475  1.00  0.00    -0.200 F 
ENDBRANCH  48  72
BRANCH  60  83
ATOM     83  C   UNL A   1      44.805  27.651  34.082  1.00  0.00     0.064 A 
ATOM     84  C   UNL A   1      46.030  28.331  34.054  1.00  0.00     0.173 A 
ATOM     85  C   UNL A   1      44.717  26.477  34.845  1.00  0.00     0.173 A 
ATOM     86  F   UNL A   1      46.165  29.450  33.326  1.00  0.00    -0.203 F 
ATOM     87  C   UNL A   1      47.132  27.843  34.750  1.00  0.00     0.198 A 
ATOM     88  C   UNL A   1      45.815  26.006  35.559  1.00  0.00     0.198 A 
ATOM     89  F   UNL A   1      43.563  25.795  34.905  1.00  0.00    -0.203 F 
ATOM     90  F   UNL A   1      48.306  28.488  34.680  1.00  0.00    -0.200 F 
ATOM     91  C   UNL A   1      47.022  26.686  35.507  1.00  0.00     0.200 A 
ATOM     92  F   UNL A   1      45.704  24.893  36.297  1.00  0.00    -0.200 F 
ATOM     93  F   UNL A   1      48.083  26.221  36.181  1.00  0.00    -0.200 F 
ENDBRANCH  60  83
ENDBRANCH  34  35
ENDBRANCH  26  29
ENDBRANCH  24  25
ENDBRANCH   1  24
TORSDOF 12
ENDMDL
MODEL 2
REMARK VINA RESULT:     -12.9      0.404      7.403
REMARK SMILES C=C1c2ccccc2C(=O)N1[C@](C)(C(=O)NCCCNC(=O)c1ccc(-c2c3nc(c(-c4c(F)c(F)c(F)c(F)c4F)c4ccc([nH]4)c(-c4c(F)c(F)c(F)c(F)c4F)c4nc(c(-c5c(F)c(F)c(F)c(F)c5F)c5ccc2[nH]5)C=C4)C=C3)cc1)C(F)(F)F
REMARK SMILES IDX 18 1 17 2 16 3 14 4 15 5 12 7 13 8 11 9 1 10 2 11 3 12 4 13
REMARK SMILES IDX 8 14 9 15 5 16 7 17 10 18 6 19 86 20 87 21 88 22 89 23 19 24
REMARK SMILES IDX 20 25 21 26 22 28 23 29 24 30 85 31 25 32 84 33 26 34 27 35
REMARK SMILES IDX 28 36 78 37 29 38 83 39 77 40 79 41 30 42 82 43 76 44 75 45
REMARK SMILES IDX 31 47 63 48 43 49 62 50 44 51 47 52 61 53 80 54 45 55 46 56
REMARK SMILES IDX 60 58 81 59 48 60 32 61 33 62 41 63 34 64 35 65 39 66 42 67
REMARK SMILES IDX 36 68 37 69 40 70 38 71 64 72 65 73 73 74 66 75 67 76 71 77
REMARK SMILES IDX 74 78 68 79 69 80 72 81 70 82 49 83 50 84 58 85 51 86 52 87
REMARK SMILES IDX 56 88 59 89 53 90 54 91 57 92 55 93
REMARK H PARENT 16 6 20 27 79 46 47 57
REMARK Flexibility Score: inf
ROOT
ATOM      1  C   UNL A   1      31.613  28.553  26.196  1.00  0.00     0.042 C 
ENDROOT
BRANCH   1   2
ATOM      2  C   UNL A   1      32.104  27.182  26.627  1.00  0.00     0.117 C 
BRANCH   2   3
ATOM      3  N   UNL A   1      31.079  26.153  26.634  1.00  0.00    -0.354 N 
ATOM      4  C   UNL A   1      30.793  25.149  25.755  1.00  0.00     0.255 C 
ATOM      5  O   UNL A   1      30.237  24.182  26.293  1.00  0.00    -0.272 OA
ATOM      6  H   UNL A   1      30.481  26.184  27.416  1.00  0.00     0.163 HD
BRANCH   4   7
ATOM      7  C   UNL A   1      31.192  25.114  24.248  1.00  0.00     0.219 C 
ATOM      8  C   UNL A   1      30.734  23.845  23.495  1.00  0.00     0.056 C 
BRANCH   7   9
ATOM      9  N   UNL A   1      30.676  26.368  23.596  1.00  0.00    -0.285 N 
ATOM     10  C   UNL A   1      32.583  27.404  22.372  1.00  0.00     0.038 C 
ATOM     11  C   UNL A   1      31.340  27.353  22.857  1.00  0.00     0.046 C 
ATOM     12  C   UNL A   1      30.374  28.433  22.595  1.00  0.00     0.010 A 
ATOM     13  C   UNL A   1      30.460  29.670  21.977  1.00  0.00     0.011 A 
ATOM     14  C   UNL A   1      29.157  28.041  23.130  1.00  0.00     0.049 A 
ATOM     15  C   UNL A   1      29.325  26.714  23.696  1.00  0.00     0.260 C 
ATOM     16  C   UNL A   1      29.317  30.486  21.931  1.00  0.00     0.001 A 
ATOM     17  C   UNL A   1      28.013  28.822  23.112  1.00  0.00     0.014 A 
ATOM     18  O   UNL A   1      28.372  26.091  24.131  1.00  0.00    -0.269 OA
ATOM     19  C   UNL A   1      28.103  30.068  22.502  1.00  0.00     0.001 A 
ENDBRANCH   7   9
BRANCH   7  20
ATOM     20  C   UNL A   1      32.734  24.934  24.370  1.00  0.00     0.420 C 
ATOM     21  F   UNL A   1      33.045  24.036  25.344  1.00  0.00    -0.168 F 
ATOM     22  F   UNL A   1      33.259  24.414  23.226  1.00  0.00    -0.168 F 
ATOM     23  F   UNL A   1      33.432  26.058  24.636  1.00  0.00    -0.168 F 
ENDBRANCH   7  20
ENDBRANCH   4   7
ENDBRANCH   2   3
ENDBRANCH   1   2
BRANCH   1  24
ATOM     24  C   UNL A   1      32.723  29.528  25.836  1.00  0.00     0.118 C 
BRANCH  24  25
ATOM     25  N   UNL A   1      32.460  30.900  26.253  1.00  0.00    -0.352 N 
ATOM     26  C   UNL A   1      33.120  31.750  27.109  1.00  0.00     0.251 C 
ATOM     27  H   UNL A   1      31.657  31.294  25.842  1.00  0.00     0.163 HD
ATOM     28  O   UNL A   1      32.612  32.833  27.389  1.00  0.00    -0.269 OA
BRANCH  26  29
ATOM     29  C   UNL A   1      34.408  31.373  27.737  1.00  0.00     0.039 A 
ATOM     30  C   UNL A   1      35.405  32.347  27.872  1.00  0.00     0.014 A 
ATOM     31  C   UNL A   1      34.664  30.074  28.167  1.00  0.00     0.014 A 
ATOM     32  C   UNL A   1      36.605  32.039  28.521  1.00  0.00     0.010 A 
ATOM     33  C   UNL A   1      35.802  29.798  28.918  1.00  0.00     0.010 A 
ATOM     34  C   UNL A   1      36.790  30.776  29.101  1.00  0.00    -0.014 A 
BRANCH  34  35
ATOM     35  C   UNL A   1      38.007  30.432  29.887  1.00  0.00     0.031 A 
ATOM     36  C   UNL A   1      39.034  29.496  29.308  1.00  0.00     0.074 A 
ATOM     37  C   UNL A   1      38.141  30.879  31.151  1.00  0.00     0.049 A 
ATOM     38  N   UNL A   1      40.064  28.931  29.887  1.00  0.00    -0.248 NA
ATOM     39  C   UNL A   1      38.855  29.105  27.899  1.00  0.00     0.031 C 
ATOM     40  C   UNL A   1      37.194  31.748  31.852  1.00  0.00     0.029 A 
ATOM     41  N   UNL A   1      39.124  30.646  32.082  1.00  0.00    -0.354 N 
ATOM     42  C   UNL A   1      40.622  28.091  28.931  1.00  0.00     0.074 A 
ATOM     43  C   UNL A   1      39.793  28.183  27.750  1.00  0.00     0.031 C 
ATOM     44  C   UNL A   1      37.654  31.997  33.089  1.00  0.00     0.029 A 
ATOM     45  C   UNL A   1      38.904  31.270  33.285  1.00  0.00     0.049 A 
ATOM     46  H   UNL A   1      39.913  30.084  31.903  1.00  0.00     0.167 HD
ATOM     47  C   UNL A   1      41.740  27.331  29.020  1.00  0.00     0.037 A 
ATOM     48  C   UNL A   1      39.624  31.249  34.423  1.00  0.00     0.037 A 
ATOM     49  C   UNL A   1      42.601  27.293  30.171  1.00  0.00     0.049 A 
ATOM     50  C   UNL A   1      40.888  30.437  34.478  1.00  0.00     0.074 A 
ATOM     51  C   UNL A   1      43.790  26.604  30.337  1.00  0.00     0.029 A 
ATOM     52  N   UNL A   1      42.375  27.992  31.347  1.00  0.00    -0.354 N 
ATOM     53  N   UNL A   1      41.423  29.677  33.554  1.00  0.00    -0.248 NA
ATOM     54  C   UNL A   1      41.652  30.484  35.733  1.00  0.00     0.031 C 
ATOM     55  C   UNL A   1      44.274  26.872  31.621  1.00  0.00     0.029 A 
ATOM     56  C   UNL A   1      43.404  27.753  32.242  1.00  0.00     0.049 A 
ATOM     57  H   UNL A   1      41.599  28.573  31.518  1.00  0.00     0.167 HD
ATOM     58  C   UNL A   1      42.596  29.178  34.103  1.00  0.00     0.074 A 
ATOM     59  C   UNL A   1      42.702  29.732  35.437  1.00  0.00     0.031 C 
ATOM     60  C   UNL A   1      43.502  28.334  33.555  1.00  0.00     0.037 A 
BRANCH  47  61
ATOM     61  C   UNL A   1      42.108  26.497  27.829  1.00  0.00     0.064 A 
ATOM     62  C   UNL A   1      43.050  26.940  26.888  1.00  0.00     0.173 A 
ATOM     63  C   UNL A   1      41.547  25.225  27.647  1.00  0.00     0.173 A 
ATOM     64  F   UNL A   1      43.606  28.155  27.010  1.00  0.00    -0.203 F 
ATOM     65  C   UNL A   1      43.394  26.152  25.794  1.00  0.00     0.198 A 
ATOM     66  C   UNL A   1      41.913  24.427  26.567  1.00  0.00     0.198 A 
ATOM     67  F   UNL A   1      40.646  24.751  28.522  1.00  0.00    -0.203 F 
ATOM     68  F   UNL A   1      44.260  26.615  24.882  1.00  0.00    -0.200 F 
ATOM     69  C   UNL A   1      42.832  24.894  25.637  1.00  0.00     0.200 A 
ATOM     70  F   UNL A   1      41.379  23.207  26.423  1.00  0.00    -0.200 F 
ATOM     71  F   UNL A   1      43.170  24.133  24.587  1.00  0.00    -0.200 F 
ENDBRANCH  47  61
BRANCH  48  72
ATOM     72  C   UNL A   1      39.185  32.045  35.599  1.00  0.00     0.064 A 
ATOM     73  C   UNL A   1      39.607  33.372  35.758  1.00  0.00     0.173 A 
ATOM     74  C   UNL A   1      38.356  31.500  36.587  1.00  0.00     0.173 A 
ATOM     75  F   UNL A   1      40.420  33.930  34.848  1.00  0.00    -0.203 F 
ATOM     76  C   UNL A   1      39.236  34.116  36.876  1.00  0.00     0.198 A 
ATOM     77  C   UNL A   1      37.963  32.253  37.692  1.00  0.00     0.198 A 
ATOM     78  F   UNL A   1      37.920  30.236  36.477  1.00  0.00    -0.203 F 
ATOM     79  F   UNL A   1      39.693  35.367  37.028  1.00  0.00    -0.200 F 
ATOM     80  C   UNL A   1      38.411  33.558  37.840  1.00  0.00     0.200 A 
ATOM     81  F   UNL A   1      37.157  31.714  38.617  1.00  0.00    -0.200 F 
ATOM     82  F   UNL A   1      38.056  34.273  38.916  1.00  0.00    -0.200 F 
ENDBRANCH  48  72
BRANCH  60  83
ATOM     83  C   UNL A   1      44.708  27.994  34.376  1.00  0.00     0.064 A 
ATOM     84  C   UNL A   1      45.864  28.786  34.342  1.00  0.00     0.173 A 
ATOM     85  C   UNL A   1      44.689  26.887  35.237  1.00  0.00     0.173 A 
ATOM     86  F   UNL A   1      45.933  29.845  33.522  1.00  0.00    -0.203 F 
ATOM     87  C   UNL A   1      46.968  28.470  35.129  1.00  0.00     0.198 A 
ATOM     88  C   UNL A   1      45.786  26.589  36.040  1.00  0.00     0.198 A 
ATOM     89  F   UNL A   1      43.603  26.103  35.307  1.00  0.00    -0.203 F 
ATOM     90  F   UNL A   1      48.078  29.218  35.055  1.00  0.00    -0.200 F 
ATOM     91  C   UNL A   1      46.925  27.377  35.982  1.00  0.00     0.200 A 
ATOM     92  F   UNL A   1      45.740  25.538  36.871  1.00  0.00    -0.200 F 
ATOM     93  F   UNL A   1      47.987  27.078  36.744  1.00  0.00    -0.200 F 
ENDBRANCH  60  83
ENDBRANCH  34  35
ENDBRANCH  26  29
ENDBRANCH  24  25
ENDBRANCH   1  24
TORSDOF 12
ENDMDL
MODEL 3
REMARK VINA RESULT:     -12.8      1.617      8.092
REMARK SMILES C=C1c2ccccc2C(=O)N1[C@](C)(C(=O)NCCCNC(=O)c1ccc(-c2c3nc(c(-c4c(F)c(F)c(F)c(F)c4F)c4ccc([nH]4)c(-c4c(F)c(F)c(F)c(F)c4F)c4nc(c(-c5c(F)c(F)c(F)c(F)c5F)c5ccc2[nH]5)C=C4)C=C3)cc1)C(F)(F)F
REMARK SMILES IDX 18 1 17 2 16 3 14 4 15 5 12 7 13 8 11 9 1 10 2 11 3 12 4 13
REMARK SMILES IDX 8 14 9 15 5 16 7 17 10 18 6 19 86 20 87 21 88 22 89 23 19 24
REMARK SMILES IDX 20 25 21 26 22 28 23 29 24 30 85 31 25 32 84 33 26 34 27 35
REMARK SMILES IDX 28 36 78 37 29 38 83 39 77 40 79 41 30 42 82 43 76 44 75 45
REMARK SMILES IDX 31 47 63 48 43 49 62 50 44 51 47 52 61 53 80 54 45 55 46 56
REMARK SMILES IDX 60 58 81 59 48 60 32 61 33 62 41 63 34 64 35 65 39 66 42 67
REMARK SMILES IDX 36 68 37 69 40 70 38 71 64 72 65 73 73 74 66 75 67 76 71 77
REMARK SMILES IDX 74 78 68 79 69 80 72 81 70 82 49 83 50 84 58 85 51 86 52 87
REMARK SMILES IDX 56 88 59 89 53 90 54 91 57 92 55 93
REMARK H PARENT 16 6 20 27 79 46 47 57
REMARK Flexibility Score: inf
ROOT
ATOM      1  C   UNL A   1      33.331  29.089  24.600  1.00  0.00     0.042 C 
ENDROOT
BRANCH   1   2
ATOM      2  C   UNL A   1      33.644  27.644  24.257  1.00  0.00     0.117 C 
BRANCH   2   3
ATOM      3  N   UNL A   1      33.007  27.164  23.042  1.00  0.00    -0.354 N 
ATOM      4  C   UNL A   1      32.007  26.258  22.838  1.00  0.00     0.255 C 
ATOM      5  O   UNL A   1      31.373  26.468  21.795  1.00  0.00    -0.272 OA
ATOM      6  H   UNL A   1      33.360  27.565  22.216  1.00  0.00     0.163 HD
BRANCH   4   7
ATOM      7  C   UNL A   1      31.588  25.123  23.823  1.00  0.00     0.219 C 
ATOM      8  C   UNL A   1      30.474  24.193  23.289  1.00  0.00     0.056 C 
BRANCH   7   9
ATOM      9  N   UNL A   1      32.822  24.354  24.207  1.00  0.00    -0.285 N 
ATOM     10  C   UNL A   1      32.580  23.716  26.603  1.00  0.00     0.038 C 
ATOM     11  C   UNL A   1      33.225  23.832  25.440  1.00  0.00     0.046 C 
ATOM     12  C   UNL A   1      34.593  23.310  25.271  1.00  0.00     0.010 A 
ATOM     13  C   UNL A   1      35.517  22.742  26.133  1.00  0.00     0.011 A 
ATOM     14  C   UNL A   1      34.941  23.481  23.941  1.00  0.00     0.049 A 
ATOM     15  C   UNL A   1      33.805  24.070  23.254  1.00  0.00     0.260 C 
ATOM     16  C   UNL A   1      36.777  22.377  25.630  1.00  0.00     0.001 A 
ATOM     17  C   UNL A   1      36.176  23.143  23.412  1.00  0.00     0.014 A 
ATOM     18  O   UNL A   1      33.811  24.219  22.044  1.00  0.00    -0.269 OA
ATOM     19  C   UNL A   1      37.108  22.584  24.280  1.00  0.00     0.001 A 
ENDBRANCH   7   9
BRANCH   7  20
ATOM     20  C   UNL A   1      30.874  25.959  24.925  1.00  0.00     0.420 C 
ATOM     21  F   UNL A   1      30.274  27.059  24.392  1.00  0.00    -0.168 F 
ATOM     22  F   UNL A   1      29.865  25.249  25.503  1.00  0.00    -0.168 F 
ATOM     23  F   UNL A   1      31.663  26.392  25.930  1.00  0.00    -0.168 F 
ENDBRANCH   7  20
ENDBRANCH   4   7
ENDBRANCH   2   3
ENDBRANCH   1   2
BRANCH   1  24
ATOM     24  C   UNL A   1      32.683  29.280  25.963  1.00  0.00     0.118 C 
BRANCH  24  25
ATOM     25  N   UNL A   1      32.428  30.675  26.303  1.00  0.00    -0.352 N 
ATOM     26  C   UNL A   1      33.105  31.573  27.095  1.00  0.00     0.251 C 
ATOM     27  H   UNL A   1      31.617  31.045  25.886  1.00  0.00     0.163 HD
ATOM     28  O   UNL A   1      32.602  32.671  27.321  1.00  0.00    -0.269 OA
BRANCH  26  29
ATOM     29  C   UNL A   1      34.405  31.232  27.719  1.00  0.00     0.039 A 
ATOM     30  C   UNL A   1      35.345  32.249  27.919  1.00  0.00     0.014 A 
ATOM     31  C   UNL A   1      34.727  29.927  28.081  1.00  0.00     0.014 A 
ATOM     32  C   UNL A   1      36.554  31.972  28.565  1.00  0.00     0.010 A 
ATOM     33  C   UNL A   1      35.870  29.673  28.831  1.00  0.00     0.010 A 
ATOM     34  C   UNL A   1      36.802  30.690  29.080  1.00  0.00    -0.014 A 
BRANCH  34  35
ATOM     35  C   UNL A   1      38.027  30.371  29.861  1.00  0.00     0.031 A 
ATOM     36  C   UNL A   1      39.061  29.438  29.288  1.00  0.00     0.074 A 
ATOM     37  C   UNL A   1      38.165  30.835  31.119  1.00  0.00     0.049 A 
ATOM     38  N   UNL A   1      40.101  28.892  29.867  1.00  0.00    -0.248 NA
ATOM     39  C   UNL A   1      38.877  29.028  27.886  1.00  0.00     0.031 C 
ATOM     40  C   UNL A   1      37.212  31.703  31.815  1.00  0.00     0.029 A 
ATOM     41  N   UNL A   1      39.156  30.626  32.046  1.00  0.00    -0.354 N 
ATOM     42  C   UNL A   1      40.662  28.047  28.918  1.00  0.00     0.074 A 
ATOM     43  C   UNL A   1      39.824  28.115  27.741  1.00  0.00     0.031 C 
ATOM     44  C   UNL A   1      37.678  31.973  33.045  1.00  0.00     0.029 A 
ATOM     45  C   UNL A   1      38.936  31.262  33.243  1.00  0.00     0.049 A 
ATOM     46  H   UNL A   1      39.950  30.070  31.869  1.00  0.00     0.167 HD
ATOM     47  C   UNL A   1      41.789  27.301  29.010  1.00  0.00     0.037 A 
ATOM     48  C   UNL A   1      39.664  31.264  34.376  1.00  0.00     0.037 A 
ATOM     49  C   UNL A   1      42.658  27.287  30.155  1.00  0.00     0.049 A 
ATOM     50  C   UNL A   1      40.938  30.467  34.433  1.00  0.00     0.074 A 
ATOM     51  C   UNL A   1      43.856  26.614  30.322  1.00  0.00     0.029 A 
ATOM     52  N   UNL A   1      42.432  27.999  31.323  1.00  0.00    -0.354 N 
ATOM     53  N   UNL A   1      41.476  29.701  33.515  1.00  0.00    -0.248 NA
ATOM     54  C   UNL A   1      41.709  30.539  35.683  1.00  0.00     0.031 C 
ATOM     55  C   UNL A   1      44.345  26.903  31.600  1.00  0.00     0.029 A 
ATOM     56  C   UNL A   1      43.469  27.782  32.215  1.00  0.00     0.049 A 
ATOM     57  H   UNL A   1      41.651  28.573  31.493  1.00  0.00     0.167 HD
ATOM     58  C   UNL A   1      42.657  29.223  34.063  1.00  0.00     0.074 A 
ATOM     59  C   UNL A   1      42.766  29.795  35.389  1.00  0.00     0.031 C 
ATOM     60  C   UNL A   1      43.569  28.381  33.520  1.00  0.00     0.037 A 
BRANCH  47  61
ATOM     61  C   UNL A   1      42.159  26.455  27.827  1.00  0.00     0.064 A 
ATOM     62  C   UNL A   1      43.095  26.894  26.878  1.00  0.00     0.173 A 
ATOM     63  C   UNL A   1      41.605  25.178  27.662  1.00  0.00     0.173 A 
ATOM     64  F   UNL A   1      43.643  28.114  26.985  1.00  0.00    -0.203 F 
ATOM     65  C   UNL A   1      43.441  26.096  25.792  1.00  0.00     0.198 A 
ATOM     66  C   UNL A   1      41.974  24.370  26.589  1.00  0.00     0.198 A 
ATOM     67  F   UNL A   1      40.711  24.708  28.545  1.00  0.00    -0.203 F 
ATOM     68  F   UNL A   1      44.301  26.554  24.872  1.00  0.00    -0.200 F 
ATOM     69  C   UNL A   1      42.886  24.833  25.651  1.00  0.00     0.200 A 
ATOM     70  F   UNL A   1      41.447  23.145  26.461  1.00  0.00    -0.200 F 
ATOM     71  F   UNL A   1      43.226  24.062  24.609  1.00  0.00    -0.200 F 
ENDBRANCH  47  61
BRANCH  48  72
ATOM     72  C   UNL A   1      39.224  32.070  35.544  1.00  0.00     0.064 A 
ATOM     73  C   UNL A   1      39.617  33.410  35.674  1.00  0.00     0.173 A 
ATOM     74  C   UNL A   1      38.423  31.523  36.554  1.00  0.00     0.173 A 
ATOM     75  F   UNL A   1      40.402  33.970  34.742  1.00  0.00    -0.203 F 
ATOM     76  C   UNL A   1      39.245  34.164  36.785  1.00  0.00     0.198 A 
ATOM     77  C   UNL A   1      38.028  32.287  37.652  1.00  0.00     0.198 A 
ATOM     78  F   UNL A   1      38.016  30.248  36.473  1.00  0.00    -0.203 F 
ATOM     79  F   UNL A   1      39.674  35.428  36.908  1.00  0.00    -0.200 F 
ATOM     80  C   UNL A   1      38.448  33.604  37.770  1.00  0.00     0.200 A 
ATOM     81  F   UNL A   1      37.250  31.745  38.599  1.00  0.00    -0.200 F 
ATOM     82  F   UNL A   1      38.092  34.329  38.840  1.00  0.00    -0.200 F 
ENDBRANCH  48  72
BRANCH  60  83
ATOM     83  C   UNL A   1      44.785  28.066  34.337  1.00  0.00     0.064 A 
ATOM     84  C   UNL A   1      44.823  26.959  35.195  1.00  0.00     0.173 A 
ATOM     85  C   UNL A   1      45.937  28.857  34.225  1.00  0.00     0.173 A 
ATOM     86  F   UNL A   1      43.739  26.183  35.345  1.00  0.00    -0.203 F 
ATOM     87  C   UNL A   1      45.968  26.665  35.929  1.00  0.00     0.198 A 
ATOM     88  C   UNL A   1      47.089  28.546  34.943  1.00  0.00     0.198 A 
ATOM     89  F   UNL A   1      45.949  29.924  33.413  1.00  0.00    -0.203 F 
ATOM     90  F   UNL A   1      45.972  25.623  36.774  1.00  0.00    -0.200 F 
ATOM     91  C   UNL A   1      47.102  27.454  35.797  1.00  0.00     0.200 A 
ATOM     92  F   UNL A   1      48.185  29.304  34.807  1.00  0.00    -0.200 F 
ATOM     93  F   UNL A   1      48.206  27.165  36.500  1.00  0.00    -0.200 F 
ENDBRANCH  60  83
ENDBRANCH  34  35
ENDBRANCH  26  29
ENDBRANCH  24  25
ENDBRANCH   1  24
TORSDOF 12
ENDMDL
