MODEL 1
REMARK VINA RESULT:     -13.1      0.000      0.000
REMARK SMILES O=C(CC[NH+]1CCC(n2nccc2NC(=O)c2ccccc2Cl)CC1)NCCCNC(=O)c1ccc(-c2c3nc(c(-c4c(F)c(F)c(F)c(F)c4F)c4ccc([nH]4)c(-c4c(F)c(F)c(F)c(F)c4F)c4nc(c(-c5c(F)c(F)c(F)c(F)c5F)c5ccc2[nH]5)C=C4)C=C3)cc1
REMARK SMILES IDX 1 1 2 2 26 3 3 5 4 6 5 7 6 8 25 9 7 11 24 12 8 13 9 14 10 15
REMARK SMILES IDX 13 16 11 17 12 18 14 19 15 20 16 22 17 23 18 24 22 25 19 26
REMARK SMILES IDX 21 27 23 28 20 29 27 30 28 31 29 32 30 33 31 34 32 36 33 37
REMARK SMILES IDX 34 38 95 39 35 40 94 41 36 42 37 43 38 44 88 45 39 46 93 47
REMARK SMILES IDX 87 48 89 49 40 50 92 51 86 52 85 53 41 55 73 56 53 57 72 58
REMARK SMILES IDX 54 59 57 60 71 61 90 62 55 63 56 64 70 66 91 67 58 68 42 69
REMARK SMILES IDX 43 70 51 71 44 72 45 73 49 74 52 75 46 76 47 77 50 78 48 79
REMARK SMILES IDX 74 80 75 81 83 82 76 83 77 84 81 85 84 86 78 87 79 88 82 89
REMARK SMILES IDX 80 90 59 91 60 92 68 93 61 94 62 95 66 96 69 97 63 98 64 99
REMARK SMILES IDX 67 100 65 101
REMARK H PARENT 26 4 5 10 14 21 30 35 89 54 57 65
REMARK Flexibility Score: inf
ROOT
ATOM      1  O   UNL A   1      42.178  21.299  27.675  1.00  0.00    -0.275 OA
ATOM      2  C   UNL A   1      41.719  21.103  26.555  1.00  0.00     0.225 C 
ATOM      3  N   UNL A   1      42.068  20.029  25.766  1.00  0.00    -0.356 N 
ATOM      4  H   UNL A   1      41.602  19.910  24.907  1.00  0.00     0.163 HD
ENDROOT
BRANCH   2   5
ATOM      5  C   UNL A   1      40.678  22.023  25.934  1.00  0.00     0.161 C 
BRANCH   5   6
ATOM      6  C   UNL A   1      39.637  22.520  26.943  1.00  0.00     0.272 C 
BRANCH   6   7
ATOM      7  N   UNL A   1      38.264  22.327  26.423  1.00  0.00    -0.334 N 
ATOM      8  C   UNL A   1      37.672  23.598  25.981  1.00  0.00     0.264 C 
ATOM      9  C   UNL A   1      38.252  21.367  25.313  1.00  0.00     0.264 C 
ATOM     10  H   UNL A   1      37.703  21.957  27.189  1.00  0.00     0.348 HD
ATOM     11  C   UNL A   1      36.204  23.383  25.625  1.00  0.00     0.089 C 
ATOM     12  C   UNL A   1      36.802  21.012  25.006  1.00  0.00     0.089 C 
ATOM     13  C   UNL A   1      35.983  22.240  24.607  1.00  0.00     0.121 C 
BRANCH  13  14
ATOM     14  N   UNL A   1      34.545  22.011  24.415  1.00  0.00    -0.246 N 
ATOM     15  N   UNL A   1      33.960  21.170  25.301  1.00  0.00    -0.179 NA
ATOM     16  C   UNL A   1      33.636  22.489  23.477  1.00  0.00     0.131 A 
ATOM     17  C   UNL A   1      32.759  20.928  24.784  1.00  0.00     0.137 A 
ATOM     18  C   UNL A   1      32.543  21.656  23.606  1.00  0.00     0.069 A 
BRANCH  16  19
ATOM     19  N   UNL A   1      33.790  23.547  22.591  1.00  0.00    -0.307 N 
ATOM     20  C   UNL A   1      33.521  24.950  22.773  1.00  0.00     0.258 C 
ATOM     21  H   UNL A   1      34.133  23.300  21.701  1.00  0.00     0.171 HD
ATOM     22  O   UNL A   1      33.785  25.648  21.816  1.00  0.00    -0.269 OA
BRANCH  20  23
ATOM     23  C   UNL A   1      33.010  25.510  24.031  1.00  0.00     0.058 A 
ATOM     24  C   UNL A   1      33.924  26.093  24.918  1.00  0.00     0.015 A 
ATOM     25  C   UNL A   1      31.650  25.496  24.340  1.00  0.00     0.053 A 
ATOM     26  C   UNL A   1      33.467  26.784  26.038  1.00  0.00     0.001 A 
ATOM     27  C   UNL A   1      31.195  26.199  25.458  1.00  0.00     0.021 A 
ATOM     28  Cl  UNL A   1      30.493  24.643  23.384  1.00  0.00    -0.083 Cl
ATOM     29  C   UNL A   1      32.101  26.863  26.289  1.00  0.00     0.002 A 
ENDBRANCH  20  23
ENDBRANCH  16  19
ENDBRANCH  13  14
ENDBRANCH   6   7
ENDBRANCH   5   6
ENDBRANCH   2   5
BRANCH   3  30
ATOM     30  C   UNL A   1      43.090  19.063  26.138  1.00  0.00     0.117 C 
BRANCH  30  31
ATOM     31  C   UNL A   1      44.062  18.729  25.001  1.00  0.00     0.042 C 
BRANCH  31  32
ATOM     32  C   UNL A   1      45.207  19.719  24.893  1.00  0.00     0.118 C 
BRANCH  32  33
ATOM     33  N   UNL A   1      45.136  20.580  23.701  1.00  0.00    -0.352 N 
ATOM     34  C   UNL A   1      44.585  21.845  23.593  1.00  0.00     0.251 C 
ATOM     35  H   UNL A   1      45.529  20.209  22.878  1.00  0.00     0.163 HD
ATOM     36  O   UNL A   1      44.201  22.265  22.511  1.00  0.00    -0.269 OA
BRANCH  34  37
ATOM     37  C   UNL A   1      44.489  22.710  24.781  1.00  0.00     0.039 A 
ATOM     38  C   UNL A   1      45.305  22.570  25.911  1.00  0.00     0.014 A 
ATOM     39  C   UNL A   1      43.535  23.708  24.737  1.00  0.00     0.014 A 
ATOM     40  C   UNL A   1      45.189  23.504  26.943  1.00  0.00     0.010 A 
ATOM     41  C   UNL A   1      43.649  24.773  25.565  1.00  0.00     0.010 A 
ATOM     42  C   UNL A   1      44.362  24.613  26.740  1.00  0.00    -0.014 A 
BRANCH  42  43
ATOM     43  C   UNL A   1      44.223  25.720  27.669  1.00  0.00     0.031 A 
ATOM     44  C   UNL A   1      45.225  26.795  27.491  1.00  0.00     0.074 A 
ATOM     45  C   UNL A   1      43.056  25.898  28.332  1.00  0.00     0.049 A 
ATOM     46  N   UNL A   1      46.106  27.192  28.344  1.00  0.00    -0.248 NA
ATOM     47  C   UNL A   1      45.370  27.401  26.155  1.00  0.00     0.031 C 
ATOM     48  C   UNL A   1      41.855  25.055  28.290  1.00  0.00     0.029 A 
ATOM     49  N   UNL A   1      42.636  26.956  29.069  1.00  0.00    -0.354 N 
ATOM     50  C   UNL A   1      46.779  28.243  27.726  1.00  0.00     0.074 A 
ATOM     51  C   UNL A   1      46.452  28.163  26.328  1.00  0.00     0.031 C 
ATOM     52  C   UNL A   1      40.796  25.730  28.781  1.00  0.00     0.029 A 
ATOM     53  C   UNL A   1      41.263  27.000  29.293  1.00  0.00     0.049 A 
ATOM     54  H   UNL A   1      43.255  27.639  29.417  1.00  0.00     0.167 HD
ATOM     55  C   UNL A   1      47.330  29.250  28.461  1.00  0.00     0.037 A 
ATOM     56  C   UNL A   1      40.567  28.040  29.816  1.00  0.00     0.037 A 
ATOM     57  C   UNL A   1      47.378  28.892  29.858  1.00  0.00     0.049 A 
ATOM     58  C   UNL A   1      41.557  28.900  30.518  1.00  0.00     0.074 A 
ATOM     59  C   UNL A   1      47.976  27.869  30.569  1.00  0.00     0.029 A 
ATOM     60  N   UNL A   1      46.402  29.401  30.683  1.00  0.00    -0.354 N 
ATOM     61  N   UNL A   1      42.206  28.516  31.585  1.00  0.00    -0.248 NA
ATOM     62  C   UNL A   1      42.201  29.954  29.745  1.00  0.00     0.031 C 
ATOM     63  C   UNL A   1      47.014  27.495  31.553  1.00  0.00     0.029 A 
ATOM     64  C   UNL A   1      45.928  28.366  31.450  1.00  0.00     0.049 A 
ATOM     65  H   UNL A   1      46.100  30.337  30.718  1.00  0.00     0.167 HD
ATOM     66  C   UNL A   1      43.509  28.956  31.388  1.00  0.00     0.074 A 
ATOM     67  C   UNL A   1      43.428  29.899  30.273  1.00  0.00     0.031 C 
ATOM     68  C   UNL A   1      44.567  28.281  31.928  1.00  0.00     0.037 A 
BRANCH  55  69
ATOM     69  C   UNL A   1      47.480  30.680  28.001  1.00  0.00     0.064 A 
ATOM     70  C   UNL A   1      46.321  31.402  27.652  1.00  0.00     0.173 A 
ATOM     71  C   UNL A   1      48.701  31.276  27.620  1.00  0.00     0.173 A 
ATOM     72  F   UNL A   1      45.103  30.928  27.957  1.00  0.00    -0.203 F 
ATOM     73  C   UNL A   1      46.380  32.578  26.900  1.00  0.00     0.198 A 
ATOM     74  C   UNL A   1      48.759  32.481  26.922  1.00  0.00     0.198 A 
ATOM     75  F   UNL A   1      49.882  30.674  27.799  1.00  0.00    -0.203 F 
ATOM     76  F   UNL A   1      45.246  33.153  26.477  1.00  0.00    -0.200 F 
ATOM     77  C   UNL A   1      47.599  33.113  26.529  1.00  0.00     0.200 A 
ATOM     78  F   UNL A   1      49.952  32.974  26.560  1.00  0.00    -0.200 F 
ATOM     79  F   UNL A   1      47.659  34.203  25.754  1.00  0.00    -0.200 F 
ENDBRANCH  55  69
BRANCH  56  80
ATOM     80  C   UNL A   1      39.180  28.468  29.499  1.00  0.00     0.064 A 
ATOM     81  C   UNL A   1      38.219  28.646  30.509  1.00  0.00     0.173 A 
ATOM     82  C   UNL A   1      38.829  28.952  28.221  1.00  0.00     0.173 A 
ATOM     83  F   UNL A   1      38.482  28.254  31.764  1.00  0.00    -0.203 F 
ATOM     84  C   UNL A   1      36.998  29.285  30.260  1.00  0.00     0.198 A 
ATOM     85  C   UNL A   1      37.608  29.580  27.972  1.00  0.00     0.198 A 
ATOM     86  F   UNL A   1      39.697  28.901  27.199  1.00  0.00    -0.203 F 
ATOM     87  F   UNL A   1      36.130  29.485  31.263  1.00  0.00    -0.200 F 
ATOM     88  C   UNL A   1      36.697  29.760  28.994  1.00  0.00     0.200 A 
ATOM     89  F   UNL A   1      37.347  30.058  26.746  1.00  0.00    -0.200 F 
ATOM     90  F   UNL A   1      35.553  30.420  28.767  1.00  0.00    -0.200 F 
ENDBRANCH  56  80
BRANCH  68  91
ATOM     91  C   UNL A   1      44.278  27.191  32.925  1.00  0.00     0.064 A 
ATOM     92  C   UNL A   1      44.173  25.828  32.591  1.00  0.00     0.173 A 
ATOM     93  C   UNL A   1      44.293  27.513  34.287  1.00  0.00     0.173 A 
ATOM     94  F   UNL A   1      44.267  25.420  31.322  1.00  0.00    -0.203 F 
ATOM     95  C   UNL A   1      44.049  24.844  33.569  1.00  0.00     0.198 A 
ATOM     96  C   UNL A   1      44.207  26.525  35.266  1.00  0.00     0.198 A 
ATOM     97  F   UNL A   1      44.461  28.788  34.672  1.00  0.00    -0.203 F 
ATOM     98  F   UNL A   1      43.959  23.554  33.215  1.00  0.00    -0.200 F 
ATOM     99  C   UNL A   1      44.074  25.193  34.907  1.00  0.00     0.200 A 
ATOM    100  F   UNL A   1      44.293  26.863  36.559  1.00  0.00    -0.200 F 
ATOM    101  F   UNL A   1      44.010  24.244  35.851  1.00  0.00    -0.200 F 
ENDBRANCH  68  91
ENDBRANCH  42  43
ENDBRANCH  34  37
ENDBRANCH  32  33
ENDBRANCH  31  32
ENDBRANCH  30  31
ENDBRANCH   3  30
TORSDOF 15
ENDMDL
MODEL 2
REMARK VINA RESULT:     -12.6      3.468      5.373
REMARK SMILES O=C(CC[NH+]1CCC(n2nccc2NC(=O)c2ccccc2Cl)CC1)NCCCNC(=O)c1ccc(-c2c3nc(c(-c4c(F)c(F)c(F)c(F)c4F)c4ccc([nH]4)c(-c4c(F)c(F)c(F)c(F)c4F)c4nc(c(-c5c(F)c(F)c(F)c(F)c5F)c5ccc2[nH]5)C=C4)C=C3)cc1
REMARK SMILES IDX 1 1 2 2 26 3 3 5 4 6 5 7 6 8 25 9 7 11 24 12 8 13 9 14 10 15
REMARK SMILES IDX 13 16 11 17 12 18 14 19 15 20 16 22 17 23 18 24 22 25 19 26
REMARK SMILES IDX 21 27 23 28 20 29 27 30 28 31 29 32 30 33 31 34 32 36 33 37
REMARK SMILES IDX 34 38 95 39 35 40 94 41 36 42 37 43 38 44 88 45 39 46 93 47
REMARK SMILES IDX 87 48 89 49 40 50 92 51 86 52 85 53 41 55 73 56 53 57 72 58
REMARK SMILES IDX 54 59 57 60 71 61 90 62 55 63 56 64 70 66 91 67 58 68 42 69
REMARK SMILES IDX 43 70 51 71 44 72 45 73 49 74 52 75 46 76 47 77 50 78 48 79
REMARK SMILES IDX 74 80 75 81 83 82 76 83 77 84 81 85 84 86 78 87 79 88 82 89
REMARK SMILES IDX 80 90 59 91 60 92 68 93 61 94 62 95 66 96 69 97 63 98 64 99
REMARK SMILES IDX 67 100 65 101
REMARK H PARENT 26 4 5 10 14 21 30 35 89 54 57 65
REMARK Flexibility Score: inf
ROOT
ATOM      1  O   UNL A   1      42.640  21.436  27.215  1.00  0.00    -0.275 OA
ATOM      2  C   UNL A   1      41.840  21.814  26.365  1.00  0.00     0.225 C 
ATOM      3  N   UNL A   1      42.198  22.556  25.261  1.00  0.00    -0.356 N 
ATOM      4  H   UNL A   1      41.506  22.761  24.593  1.00  0.00     0.163 HD
ENDROOT
BRANCH   2   5
ATOM      5  C   UNL A   1      40.361  21.465  26.432  1.00  0.00     0.161 C 
BRANCH   5   6
ATOM      6  C   UNL A   1      39.473  22.671  26.751  1.00  0.00     0.272 C 
BRANCH   6   7
ATOM      7  N   UNL A   1      38.102  22.470  26.228  1.00  0.00    -0.334 N 
ATOM      8  C   UNL A   1      37.548  23.715  25.676  1.00  0.00     0.264 C 
ATOM      9  C   UNL A   1      38.079  21.423  25.200  1.00  0.00     0.264 C 
ATOM     10  H   UNL A   1      37.521  22.178  27.014  1.00  0.00     0.348 HD
ATOM     11  C   UNL A   1      36.080  23.508  25.317  1.00  0.00     0.089 C 
ATOM     12  C   UNL A   1      36.624  21.081  24.902  1.00  0.00     0.089 C 
ATOM     13  C   UNL A   1      35.842  22.291  24.392  1.00  0.00     0.121 C 
BRANCH  13  14
ATOM     14  N   UNL A   1      34.402  22.083  24.198  1.00  0.00    -0.246 N 
ATOM     15  N   UNL A   1      33.813  21.213  25.053  1.00  0.00    -0.179 NA
ATOM     16  C   UNL A   1      33.493  22.606  23.284  1.00  0.00     0.131 A 
ATOM     17  C   UNL A   1      32.607  21.003  24.533  1.00  0.00     0.137 A 
ATOM     18  C   UNL A   1      32.393  21.779  23.385  1.00  0.00     0.069 A 
BRANCH  16  19
ATOM     19  N   UNL A   1      33.652  23.697  22.439  1.00  0.00    -0.307 N 
ATOM     20  C   UNL A   1      33.417  25.096  22.684  1.00  0.00     0.258 C 
ATOM     21  H   UNL A   1      33.974  23.480  21.533  1.00  0.00     0.171 HD
ATOM     22  O   UNL A   1      33.678  25.827  21.752  1.00  0.00    -0.269 OA
BRANCH  20  23
ATOM     23  C   UNL A   1      32.940  25.613  23.973  1.00  0.00     0.058 A 
ATOM     24  C   UNL A   1      33.878  26.170  24.852  1.00  0.00     0.015 A 
ATOM     25  C   UNL A   1      31.589  25.585  24.320  1.00  0.00     0.053 A 
ATOM     26  C   UNL A   1      33.451  26.823  26.007  1.00  0.00     0.001 A 
ATOM     27  C   UNL A   1      31.164  26.251  25.473  1.00  0.00     0.021 A 
ATOM     28  Cl  UNL A   1      30.407  24.760  23.370  1.00  0.00    -0.083 Cl
ATOM     29  C   UNL A   1      32.092  26.890  26.299  1.00  0.00     0.002 A 
ENDBRANCH  20  23
ENDBRANCH  16  19
ENDBRANCH  13  14
ENDBRANCH   6   7
ENDBRANCH   5   6
ENDBRANCH   2   5
BRANCH   3  30
ATOM     30  C   UNL A   1      43.546  23.052  25.033  1.00  0.00     0.117 C 
BRANCH  30  31
ATOM     31  C   UNL A   1      43.736  24.519  25.431  1.00  0.00     0.042 C 
BRANCH  31  32
ATOM     32  C   UNL A   1      44.646  24.692  26.634  1.00  0.00     0.118 C 
BRANCH  32  33
ATOM     33  N   UNL A   1      44.144  24.043  27.855  1.00  0.00    -0.352 N 
ATOM     34  C   UNL A   1      43.697  24.642  29.020  1.00  0.00     0.251 C 
ATOM     35  H   UNL A   1      44.124  23.059  27.843  1.00  0.00     0.163 HD
ATOM     36  O   UNL A   1      43.721  24.035  30.081  1.00  0.00    -0.269 OA
BRANCH  34  37
ATOM     37  C   UNL A   1      43.156  26.012  28.982  1.00  0.00     0.039 A 
ATOM     38  C   UNL A   1      41.999  26.370  28.277  1.00  0.00     0.014 A 
ATOM     39  C   UNL A   1      43.850  26.966  29.699  1.00  0.00     0.014 A 
ATOM     40  C   UNL A   1      41.524  27.678  28.386  1.00  0.00     0.010 A 
ATOM     41  C   UNL A   1      43.225  28.112  30.057  1.00  0.00     0.010 A 
ATOM     42  C   UNL A   1      42.147  28.534  29.300  1.00  0.00    -0.014 A 
BRANCH  42  43
ATOM     43  C   UNL A   1      41.703  29.881  29.604  1.00  0.00     0.031 A 
ATOM     44  C   UNL A   1      42.665  30.940  29.224  1.00  0.00     0.074 A 
ATOM     45  C   UNL A   1      40.390  30.121  29.830  1.00  0.00     0.049 A 
ATOM     46  N   UNL A   1      43.252  31.780  30.007  1.00  0.00    -0.248 NA
ATOM     47  C   UNL A   1      43.153  30.977  27.834  1.00  0.00     0.031 C 
ATOM     48  C   UNL A   1      39.288  29.152  29.871  1.00  0.00     0.029 A 
ATOM     49  N   UNL A   1      39.733  31.304  29.921  1.00  0.00    -0.354 N 
ATOM     50  C   UNL A   1      44.024  32.589  29.177  1.00  0.00     0.074 A 
ATOM     51  C   UNL A   1      44.107  31.907  27.915  1.00  0.00     0.031 C 
ATOM     52  C   UNL A   1      38.104  29.789  29.761  1.00  0.00     0.029 A 
ATOM     53  C   UNL A   1      38.351  31.214  29.775  1.00  0.00     0.049 A 
ATOM     54  H   UNL A   1      40.197  32.158  30.079  1.00  0.00     0.167 HD
ATOM     55  C   UNL A   1      44.300  33.879  29.517  1.00  0.00     0.037 A 
ATOM     56  C   UNL A   1      37.490  32.251  29.621  1.00  0.00     0.037 A 
ATOM     57  C   UNL A   1      43.969  34.123  30.901  1.00  0.00     0.049 A 
ATOM     58  C   UNL A   1      38.204  33.466  30.099  1.00  0.00     0.074 A 
ATOM     59  C   UNL A   1      44.389  33.578  32.099  1.00  0.00     0.029 A 
ATOM     60  N   UNL A   1      42.779  34.756  31.173  1.00  0.00    -0.354 N 
ATOM     61  N   UNL A   1      38.543  33.648  31.348  1.00  0.00    -0.248 NA
ATOM     62  C   UNL A   1      38.991  34.211  29.125  1.00  0.00     0.031 C 
ATOM     63  C   UNL A   1      43.206  33.481  32.891  1.00  0.00     0.029 A 
ATOM     64  C   UNL A   1      42.155  34.053  32.172  1.00  0.00     0.049 A 
ATOM     65  H   UNL A   1      42.438  35.567  30.731  1.00  0.00     0.167 HD
ATOM     66  C   UNL A   1      39.827  34.174  31.295  1.00  0.00     0.074 A 
ATOM     67  C   UNL A   1      40.021  34.568  29.900  1.00  0.00     0.031 C 
ATOM     68  C   UNL A   1      40.720  33.950  32.305  1.00  0.00     0.037 A 
BRANCH  55  69
ATOM     69  C   UNL A   1      44.510  35.011  28.540  1.00  0.00     0.064 A 
ATOM     70  C   UNL A   1      45.676  35.794  28.654  1.00  0.00     0.173 A 
ATOM     71  C   UNL A   1      43.510  35.536  27.694  1.00  0.00     0.173 A 
ATOM     72  F   UNL A   1      46.692  35.397  29.437  1.00  0.00    -0.203 F 
ATOM     73  C   UNL A   1      45.790  37.045  28.044  1.00  0.00     0.198 A 
ATOM     74  C   UNL A   1      43.651  36.758  27.038  1.00  0.00     0.198 A 
ATOM     75  F   UNL A   1      42.313  34.958  27.551  1.00  0.00    -0.203 F 
ATOM     76  F   UNL A   1      46.861  37.811  28.294  1.00  0.00    -0.200 F 
ATOM     77  C   UNL A   1      44.774  37.530  27.242  1.00  0.00     0.200 A 
ATOM     78  F   UNL A   1      42.647  37.215  26.276  1.00  0.00    -0.200 F 
ATOM     79  F   UNL A   1      44.851  38.755  26.708  1.00  0.00    -0.200 F 
ENDBRANCH  55  69
BRANCH  56  80
ATOM     80  C   UNL A   1      36.230  32.290  28.834  1.00  0.00     0.064 A 
ATOM     81  C   UNL A   1      35.880  31.248  27.960  1.00  0.00     0.173 A 
ATOM     82  C   UNL A   1      35.219  33.236  29.106  1.00  0.00     0.173 A 
ATOM     83  F   UNL A   1      36.765  30.282  27.677  1.00  0.00    -0.203 F 
ATOM     84  C   UNL A   1      34.595  31.147  27.411  1.00  0.00     0.198 A 
ATOM     85  C   UNL A   1      33.941  33.139  28.551  1.00  0.00     0.198 A 
ATOM     86  F   UNL A   1      35.419  34.232  29.982  1.00  0.00    -0.203 F 
ATOM     87  F   UNL A   1      34.283  30.107  26.624  1.00  0.00    -0.200 F 
ATOM     88  C   UNL A   1      33.624  32.087  27.715  1.00  0.00     0.200 A 
ATOM     89  F   UNL A   1      33.007  34.044  28.879  1.00  0.00    -0.200 F 
ATOM     90  F   UNL A   1      32.379  31.962  27.235  1.00  0.00    -0.200 F 
ENDBRANCH  56  80
BRANCH  68  91
ATOM     91  C   UNL A   1      40.212  33.318  33.573  1.00  0.00     0.064 A 
ATOM     92  C   UNL A   1      39.524  34.018  34.580  1.00  0.00     0.173 A 
ATOM     93  C   UNL A   1      40.259  31.923  33.686  1.00  0.00     0.173 A 
ATOM     94  F   UNL A   1      39.330  35.338  34.493  1.00  0.00    -0.203 F 
ATOM     95  C   UNL A   1      38.948  33.360  35.664  1.00  0.00     0.198 A 
ATOM     96  C   UNL A   1      39.651  31.263  34.751  1.00  0.00     0.198 A 
ATOM     97  F   UNL A   1      40.841  31.192  32.723  1.00  0.00    -0.203 F 
ATOM     98  F   UNL A   1      38.293  34.060  36.603  1.00  0.00    -0.200 F 
ATOM     99  C   UNL A   1      39.006  31.981  35.745  1.00  0.00     0.200 A 
ATOM    100  F   UNL A   1      39.657  29.924  34.793  1.00  0.00    -0.200 F 
ATOM    101  F   UNL A   1      38.406  31.342  36.759  1.00  0.00    -0.200 F 
ENDBRANCH  68  91
ENDBRANCH  42  43
ENDBRANCH  34  37
ENDBRANCH  32  33
ENDBRANCH  31  32
ENDBRANCH  30  31
ENDBRANCH   3  30
TORSDOF 15
ENDMDL
MODEL 3
REMARK VINA RESULT:     -12.6      0.707      2.022
REMARK SMILES O=C(CC[NH+]1CCC(n2nccc2NC(=O)c2ccccc2Cl)CC1)NCCCNC(=O)c1ccc(-c2c3nc(c(-c4c(F)c(F)c(F)c(F)c4F)c4ccc([nH]4)c(-c4c(F)c(F)c(F)c(F)c4F)c4nc(c(-c5c(F)c(F)c(F)c(F)c5F)c5ccc2[nH]5)C=C4)C=C3)cc1
REMARK SMILES IDX 1 1 2 2 26 3 3 5 4 6 5 7 6 8 25 9 7 11 24 12 8 13 9 14 10 15
REMARK SMILES IDX 13 16 11 17 12 18 14 19 15 20 16 22 17 23 18 24 22 25 19 26
REMARK SMILES IDX 21 27 23 28 20 29 27 30 28 31 29 32 30 33 31 34 32 36 33 37
REMARK SMILES IDX 34 38 95 39 35 40 94 41 36 42 37 43 38 44 88 45 39 46 93 47
REMARK SMILES IDX 87 48 89 49 40 50 92 51 86 52 85 53 41 55 73 56 53 57 72 58
REMARK SMILES IDX 54 59 57 60 71 61 90 62 55 63 56 64 70 66 91 67 58 68 42 69
REMARK SMILES IDX 43 70 51 71 44 72 45 73 49 74 52 75 46 76 47 77 50 78 48 79
REMARK SMILES IDX 74 80 75 81 83 82 76 83 77 84 81 85 84 86 78 87 79 88 82 89
REMARK SMILES IDX 80 90 59 91 60 92 68 93 61 94 62 95 66 96 69 97 63 98 64 99
REMARK SMILES IDX 67 100 65 101
REMARK H PARENT 26 4 5 10 14 21 30 35 89 54 57 65
REMARK Flexibility Score: inf
ROOT
ATOM      1  O   UNL A   1      42.441  21.544  27.585  1.00  0.00    -0.275 OA
ATOM      2  C   UNL A   1      41.802  21.295  26.568  1.00  0.00     0.225 C 
ATOM      3  N   UNL A   1      41.916  20.115  25.867  1.00  0.00    -0.356 N 
ATOM      4  H   UNL A   1      41.317  19.969  25.100  1.00  0.00     0.163 HD
ENDROOT
BRANCH   2   5
ATOM      5  C   UNL A   1      40.782  22.268  25.994  1.00  0.00     0.161 C 
BRANCH   5   6
ATOM      6  C   UNL A   1      39.733  22.712  27.019  1.00  0.00     0.272 C 
BRANCH   6   7
ATOM      7  N   UNL A   1      38.363  22.486  26.504  1.00  0.00    -0.334 N 
ATOM      8  C   UNL A   1      37.743  23.740  26.052  1.00  0.00     0.264 C 
ATOM      9  C   UNL A   1      38.369  21.515  25.404  1.00  0.00     0.264 C 
ATOM     10  H   UNL A   1      37.812  22.112  27.276  1.00  0.00     0.348 HD
ATOM     11  C   UNL A   1      36.279  23.491  25.702  1.00  0.00     0.089 C 
ATOM     12  C   UNL A   1      36.925  21.127  25.105  1.00  0.00     0.089 C 
ATOM     13  C   UNL A   1      36.080  22.334  24.696  1.00  0.00     0.121 C 
BRANCH  13  14
ATOM     14  N   UNL A   1      34.646  22.073  24.510  1.00  0.00    -0.246 N 
ATOM     15  N   UNL A   1      34.078  21.239  25.413  1.00  0.00    -0.179 NA
ATOM     16  C   UNL A   1      33.728  22.514  23.564  1.00  0.00     0.131 A 
ATOM     17  C   UNL A   1      32.882  20.963  24.903  1.00  0.00     0.137 A 
ATOM     18  C   UNL A   1      32.651  21.663  23.711  1.00  0.00     0.069 A 
BRANCH  16  19
ATOM     19  N   UNL A   1      33.860  23.557  22.656  1.00  0.00    -0.307 N 
ATOM     20  C   UNL A   1      33.550  24.955  22.805  1.00  0.00     0.258 C 
ATOM     21  H   UNL A   1      34.220  23.301  21.775  1.00  0.00     0.171 HD
ATOM     22  O   UNL A   1      33.803  25.640  21.836  1.00  0.00    -0.269 OA
BRANCH  20  23
ATOM     23  C   UNL A   1      33.009  25.527  24.045  1.00  0.00     0.058 A 
ATOM     24  C   UNL A   1      33.900  26.133  24.940  1.00  0.00     0.015 A 
ATOM     25  C   UNL A   1      31.643  25.501  24.329  1.00  0.00     0.053 A 
ATOM     26  C   UNL A   1      33.414  26.835  26.041  1.00  0.00     0.001 A 
ATOM     27  C   UNL A   1      31.160  26.215  25.429  1.00  0.00     0.021 A 
ATOM     28  Cl  UNL A   1      30.514  24.621  23.365  1.00  0.00    -0.083 Cl
ATOM     29  C   UNL A   1      32.042  26.902  26.267  1.00  0.00     0.002 A 
ENDBRANCH  20  23
ENDBRANCH  16  19
ENDBRANCH  13  14
ENDBRANCH   6   7
ENDBRANCH   5   6
ENDBRANCH   2   5
BRANCH   3  30
ATOM     30  C   UNL A   1      42.875  19.075  26.204  1.00  0.00     0.117 C 
BRANCH  30  31
ATOM     31  C   UNL A   1      43.826  18.721  25.055  1.00  0.00     0.042 C 
BRANCH  31  32
ATOM     32  C   UNL A   1      45.000  19.676  24.945  1.00  0.00     0.118 C 
BRANCH  32  33
ATOM     33  N   UNL A   1      45.001  20.475  23.709  1.00  0.00    -0.352 N 
ATOM     34  C   UNL A   1      44.598  21.787  23.539  1.00  0.00     0.251 C 
ATOM     35  H   UNL A   1      45.329  20.017  22.901  1.00  0.00     0.163 HD
ATOM     36  O   UNL A   1      44.240  22.192  22.442  1.00  0.00    -0.269 OA
BRANCH  34  37
ATOM     37  C   UNL A   1      44.631  22.720  24.679  1.00  0.00     0.039 A 
ATOM     38  C   UNL A   1      45.523  22.603  25.754  1.00  0.00     0.014 A 
ATOM     39  C   UNL A   1      43.722  23.760  24.647  1.00  0.00     0.014 A 
ATOM     40  C   UNL A   1      45.528  23.596  26.735  1.00  0.00     0.010 A 
ATOM     41  C   UNL A   1      43.947  24.861  25.401  1.00  0.00     0.010 A 
ATOM     42  C   UNL A   1      44.738  24.732  26.529  1.00  0.00    -0.014 A 
BRANCH  42  43
ATOM     43  C   UNL A   1      44.720  25.893  27.399  1.00  0.00     0.031 A 
ATOM     44  C   UNL A   1      45.745  26.911  27.079  1.00  0.00     0.074 A 
ATOM     45  C   UNL A   1      43.619  26.158  28.141  1.00  0.00     0.049 A 
ATOM     46  N   UNL A   1      46.708  27.316  27.834  1.00  0.00    -0.248 NA
ATOM     47  C   UNL A   1      45.804  27.435  25.703  1.00  0.00     0.031 C 
ATOM     48  C   UNL A   1      42.386  25.369  28.244  1.00  0.00     0.029 A 
ATOM     49  N   UNL A   1      43.303  27.273  28.846  1.00  0.00    -0.354 N 
ATOM     50  C   UNL A   1      47.370  28.300  27.105  1.00  0.00     0.074 A 
ATOM     51  C   UNL A   1      46.926  28.158  25.744  1.00  0.00     0.031 C 
ATOM     52  C   UNL A   1      41.398  26.115  28.778  1.00  0.00     0.029 A 
ATOM     53  C   UNL A   1      41.956  27.390  29.176  1.00  0.00     0.049 A 
ATOM     54  H   UNL A   1      43.974  27.947  29.103  1.00  0.00     0.167 HD
ATOM     55  C   UNL A   1      48.018  29.320  27.733  1.00  0.00     0.037 A 
ATOM     56  C   UNL A   1      41.346  28.487  29.690  1.00  0.00     0.037 A 
ATOM     57  C   UNL A   1      48.166  29.039  29.140  1.00  0.00     0.049 A 
ATOM     58  C   UNL A   1      42.424  29.340  30.260  1.00  0.00     0.074 A 
ATOM     59  C   UNL A   1      48.780  28.031  29.860  1.00  0.00     0.029 A 
ATOM     60  N   UNL A   1      47.282  29.635  30.009  1.00  0.00    -0.354 N 
ATOM     61  N   UNL A   1      43.143  28.987  31.293  1.00  0.00    -0.248 NA
ATOM     62  C   UNL A   1      43.043  30.321  29.377  1.00  0.00     0.031 C 
ATOM     63  C   UNL A   1      47.887  27.755  30.937  1.00  0.00     0.029 A 
ATOM     64  C   UNL A   1      46.832  28.666  30.870  1.00  0.00     0.049 A 
ATOM     65  H   UNL A   1      47.021  30.584  30.013  1.00  0.00     0.167 HD
ATOM     66  C   UNL A   1      44.441  29.357  30.967  1.00  0.00     0.074 A 
ATOM     67  C   UNL A   1      44.307  30.240  29.809  1.00  0.00     0.031 C 
ATOM     68  C   UNL A   1      45.513  28.668  31.459  1.00  0.00     0.037 A 
BRANCH  55  69
ATOM     69  C   UNL A   1      48.186  30.715  27.180  1.00  0.00     0.064 A 
ATOM     70  C   UNL A   1      49.475  31.287  27.172  1.00  0.00     0.173 A 
ATOM     71  C   UNL A   1      47.127  31.611  26.925  1.00  0.00     0.173 A 
ATOM     72  F   UNL A   1      50.559  30.531  27.409  1.00  0.00    -0.203 F 
ATOM     73  C   UNL A   1      49.674  32.660  27.015  1.00  0.00     0.198 A 
ATOM     74  C   UNL A   1      47.334  32.972  26.709  1.00  0.00     0.198 A 
ATOM     75  F   UNL A   1      45.843  31.242  26.985  1.00  0.00    -0.203 F 
ATOM     76  F   UNL A   1      50.905  33.173  27.153  1.00  0.00    -0.200 F 
ATOM     77  C   UNL A   1      48.603  33.503  26.791  1.00  0.00     0.200 A 
ATOM     78  F   UNL A   1      46.278  33.774  26.507  1.00  0.00    -0.200 F 
ATOM     79  F   UNL A   1      48.782  34.828  26.705  1.00  0.00    -0.200 F 
ENDBRANCH  55  69
BRANCH  56  80
ATOM     80  C   UNL A   1      39.956  28.958  29.461  1.00  0.00     0.064 A 
ATOM     81  C   UNL A   1      39.495  29.281  28.174  1.00  0.00     0.173 A 
ATOM     82  C   UNL A   1      38.970  28.868  30.467  1.00  0.00     0.173 A 
ATOM     83  F   UNL A   1      40.355  29.348  27.148  1.00  0.00    -0.203 F 
ATOM     84  C   UNL A   1      38.133  29.479  27.907  1.00  0.00     0.198 A 
ATOM     85  C   UNL A   1      37.615  29.074  30.201  1.00  0.00     0.198 A 
ATOM     86  F   UNL A   1      39.287  28.495  31.716  1.00  0.00    -0.203 F 
ATOM     87  F   UNL A   1      37.727  29.731  26.654  1.00  0.00    -0.200 F 
ATOM     88  C   UNL A   1      37.194  29.366  28.919  1.00  0.00     0.200 A 
ATOM     89  F   UNL A   1      36.718  28.933  31.188  1.00  0.00    -0.200 F 
ATOM     90  F   UNL A   1      35.887  29.501  28.655  1.00  0.00    -0.200 F 
ENDBRANCH  56  80
BRANCH  68  91
ATOM     91  C   UNL A   1      45.264  27.648  32.538  1.00  0.00     0.064 A 
ATOM     92  C   UNL A   1      45.083  27.967  33.896  1.00  0.00     0.173 A 
ATOM     93  C   UNL A   1      45.015  26.323  32.157  1.00  0.00     0.173 A 
ATOM     94  F   UNL A   1      45.186  29.228  34.328  1.00  0.00    -0.203 F 
ATOM     95  C   UNL A   1      44.712  27.002  34.830  1.00  0.00     0.198 A 
ATOM     96  C   UNL A   1      44.608  25.368  33.085  1.00  0.00     0.198 A 
ATOM     97  F   UNL A   1      45.102  25.971  30.866  1.00  0.00    -0.203 F 
ATOM     98  F   UNL A   1      44.542  27.344  36.116  1.00  0.00    -0.200 F 
ATOM     99  C   UNL A   1      44.467  25.704  34.422  1.00  0.00     0.200 A 
ATOM    100  F   UNL A   1      44.312  24.127  32.675  1.00  0.00    -0.200 F 
ATOM    101  F   UNL A   1      44.057  24.787  35.309  1.00  0.00    -0.200 F 
ENDBRANCH  68  91
ENDBRANCH  42  43
ENDBRANCH  34  37
ENDBRANCH  32  33
ENDBRANCH  31  32
ENDBRANCH  30  31
ENDBRANCH   3  30
TORSDOF 15
ENDMDL
