MODEL 1
REMARK VINA RESULT:     -13.1      0.000      0.000
REMARK SMILES COc1ccc(F)c(NC(=O)N[C@H]2CCC[C@H]2C(=O)NCCCNC(=O)c2ccc(-c3c4nc(c(-c5c(F)c(F)c(F)c(F)c5F)c5ccc([nH]5)c(-c5c(F)c(F)c(F)c(F)c5F)c5nc(c(-c6c(F)c(F)c(F)c(F)c6F)c6ccc3[nH]6)C=C5)C=C4)cc2)c1
REMARK SMILES IDX 21 1 20 2 18 3 19 4 17 6 13 7 14 8 15 9 16 10 12 11 9 12
REMARK SMILES IDX 10 13 11 15 8 17 3 18 4 19 90 20 5 21 6 22 7 23 2 24 1 25
REMARK SMILES IDX 22 26 23 27 24 28 25 29 26 31 27 32 28 33 89 34 29 35 88 36
REMARK SMILES IDX 30 37 31 38 32 39 82 40 33 41 87 42 81 43 83 44 34 45 86 46
REMARK SMILES IDX 80 47 79 48 35 50 67 51 47 52 66 53 48 54 51 55 65 56 84 57
REMARK SMILES IDX 49 58 50 59 64 61 85 62 52 63 36 64 37 65 45 66 38 67 39 68
REMARK SMILES IDX 43 69 46 70 40 71 41 72 44 73 42 74 68 75 69 76 77 77 70 78
REMARK SMILES IDX 71 79 75 80 78 81 72 82 73 83 76 84 74 85 53 86 54 87 62 88
REMARK SMILES IDX 55 89 56 90 60 91 63 92 57 93 58 94 61 95 59 96
REMARK H PARENT 20 5 9 14 12 16 24 30 83 49 51 60
REMARK Flexibility Score: inf
ROOT
ATOM      1  C   UNL A   1      31.785  30.452  26.831  1.00  0.00     0.117 C 
ENDROOT
BRANCH   1   2
ATOM      2  N   UNL A   1      32.898  29.906  26.004  1.00  0.00    -0.356 N 
ATOM      3  C   UNL A   1      33.203  28.768  25.299  1.00  0.00     0.225 C 
ATOM      4  O   UNL A   1      33.805  28.997  24.235  1.00  0.00    -0.275 OA
ATOM      5  H   UNL A   1      33.636  30.556  25.947  1.00  0.00     0.163 HD
BRANCH   3   6
ATOM      6  C   UNL A   1      33.141  27.282  25.757  1.00  0.00     0.101 C 
ATOM      7  C   UNL A   1      31.908  26.566  25.368  1.00  0.00     0.096 C 
ATOM      8  C   UNL A   1      31.999  25.320  26.279  1.00  0.00     0.026 C 
ATOM      9  C   UNL A   1      33.409  24.817  26.039  1.00  0.00     0.003 C 
ATOM     10  C   UNL A   1      34.164  26.091  25.643  1.00  0.00     0.016 C 
BRANCH   7  11
ATOM     11  N   UNL A   1      31.912  26.183  23.953  1.00  0.00    -0.334 N 
ATOM     12  N   UNL A   1      30.418  27.337  22.381  1.00  0.00    -0.305 N 
ATOM     13  C   UNL A   1      31.334  26.457  22.790  1.00  0.00     0.319 C 
ATOM     14  H   UNL A   1      30.117  26.952  21.527  1.00  0.00     0.171 HD
ATOM     15  O   UNL A   1      31.632  25.618  21.920  1.00  0.00    -0.248 OA
ATOM     16  H   UNL A   1      32.579  25.473  23.817  1.00  0.00     0.165 HD
BRANCH  12  17
ATOM     17  C   UNL A   1      29.625  28.528  22.485  1.00  0.00     0.082 A 
ATOM     18  C   UNL A   1      28.841  30.841  22.067  1.00  0.00     0.121 A 
ATOM     19  C   UNL A   1      27.606  30.559  22.628  1.00  0.00     0.049 A 
ATOM     20  C   UNL A   1      29.829  29.838  22.045  1.00  0.00     0.075 A 
ATOM     21  C   UNL A   1      27.378  29.300  23.167  1.00  0.00     0.045 A 
ATOM     22  C   UNL A   1      28.366  28.316  23.079  1.00  0.00     0.147 A 
ATOM     23  F   UNL A   1      28.099  27.108  23.602  1.00  0.00    -0.205 F 
BRANCH  18  24
ATOM     24  O   UNL A   1      28.970  32.112  21.567  1.00  0.00    -0.497 OA
ATOM     25  C   UNL A   1      27.886  32.665  20.826  1.00  0.00     0.278 C 
ENDBRANCH  18  24
ENDBRANCH  12  17
ENDBRANCH   7  11
ENDBRANCH   3   6
ENDBRANCH   1   2
BRANCH   1  26
ATOM     26  C   UNL A   1      31.535  31.962  26.818  1.00  0.00     0.042 C 
BRANCH  26  27
ATOM     27  C   UNL A   1      32.778  32.803  27.145  1.00  0.00     0.118 C 
BRANCH  27  28
ATOM     28  N   UNL A   1      32.483  34.162  27.594  1.00  0.00    -0.352 N 
ATOM     29  C   UNL A   1      33.029  34.881  28.641  1.00  0.00     0.251 C 
ATOM     30  H   UNL A   1      31.791  34.635  27.077  1.00  0.00     0.163 HD
ATOM     31  O   UNL A   1      32.560  35.971  28.950  1.00  0.00    -0.269 OA
BRANCH  29  32
ATOM     32  C   UNL A   1      34.190  34.352  29.402  1.00  0.00     0.039 A 
ATOM     33  C   UNL A   1      35.486  34.554  28.913  1.00  0.00     0.014 A 
ATOM     34  C   UNL A   1      34.000  33.598  30.561  1.00  0.00     0.014 A 
ATOM     35  C   UNL A   1      36.585  34.023  29.598  1.00  0.00     0.010 A 
ATOM     36  C   UNL A   1      35.096  33.148  31.292  1.00  0.00     0.010 A 
ATOM     37  C   UNL A   1      36.396  33.316  30.795  1.00  0.00    -0.014 A 
BRANCH  37  38
ATOM     38  C   UNL A   1      37.524  32.641  31.487  1.00  0.00     0.031 A 
ATOM     39  C   UNL A   1      38.257  31.527  30.784  1.00  0.00     0.074 A 
ATOM     40  C   UNL A   1      37.854  32.979  32.747  1.00  0.00     0.049 A 
ATOM     41  N   UNL A   1      39.227  30.763  31.218  1.00  0.00    -0.248 NA
ATOM     42  C   UNL A   1      37.805  31.199  29.421  1.00  0.00     0.031 C 
ATOM     43  C   UNL A   1      37.177  33.994  33.552  1.00  0.00     0.029 A 
ATOM     44  N   UNL A   1      38.841  32.501  33.572  1.00  0.00    -0.354 N 
ATOM     45  C   UNL A   1      39.471  29.850  30.200  1.00  0.00     0.074 A 
ATOM     46  C   UNL A   1      38.507  30.110  29.154  1.00  0.00     0.031 C 
ATOM     47  C   UNL A   1      37.788  34.087  34.745  1.00  0.00     0.029 A 
ATOM     48  C   UNL A   1      38.889  33.127  34.793  1.00  0.00     0.049 A 
ATOM     49  H   UNL A   1      39.456  31.777  33.313  1.00  0.00     0.167 HD
ATOM     50  C   UNL A   1      40.434  28.901  30.126  1.00  0.00     0.037 A 
ATOM     51  C   UNL A   1      39.739  32.957  35.824  1.00  0.00     0.037 A 
ATOM     52  C   UNL A   1      41.428  28.694  31.144  1.00  0.00     0.049 A 
ATOM     53  C   UNL A   1      40.859  31.962  35.688  1.00  0.00     0.074 A 
ATOM     54  C   UNL A   1      42.492  27.812  31.148  1.00  0.00     0.029 A 
ATOM     55  N   UNL A   1      41.485  29.399  32.339  1.00  0.00    -0.354 N 
ATOM     56  N   UNL A   1      41.118  31.141  34.699  1.00  0.00    -0.248 NA
ATOM     57  C   UNL A   1      41.818  31.885  36.799  1.00  0.00     0.031 C 
ATOM     58  C   UNL A   1      43.177  27.961  32.359  1.00  0.00     0.029 A 
ATOM     59  C   UNL A   1      42.566  28.970  33.089  1.00  0.00     0.049 A 
ATOM     60  H   UNL A   1      40.850  30.099  32.613  1.00  0.00     0.167 HD
ATOM     61  C   UNL A   1      42.279  30.468  35.053  1.00  0.00     0.074 A 
ATOM     62  C   UNL A   1      42.683  30.986  36.345  1.00  0.00     0.031 C 
ATOM     63  C   UNL A   1      42.952  29.509  34.368  1.00  0.00     0.037 A 
BRANCH  50  64
ATOM     64  C   UNL A   1      40.467  28.034  28.899  1.00  0.00     0.064 A 
ATOM     65  C   UNL A   1      41.211  28.419  27.773  1.00  0.00     0.173 A 
ATOM     66  C   UNL A   1      39.750  26.829  28.827  1.00  0.00     0.173 A 
ATOM     67  F   UNL A   1      41.911  29.563  27.784  1.00  0.00    -0.203 F 
ATOM     68  C   UNL A   1      41.240  27.630  26.626  1.00  0.00     0.198 A 
ATOM     69  C   UNL A   1      39.809  26.025  27.691  1.00  0.00     0.198 A 
ATOM     70  F   UNL A   1      39.034  26.405  29.878  1.00  0.00    -0.203 F 
ATOM     71  F   UNL A   1      41.942  28.028  25.557  1.00  0.00    -0.200 F 
ATOM     72  C   UNL A   1      40.547  26.429  26.589  1.00  0.00     0.200 A 
ATOM     73  F   UNL A   1      39.166  24.849  27.671  1.00  0.00    -0.200 F 
ATOM     74  F   UNL A   1      40.599  25.656  25.495  1.00  0.00    -0.200 F 
ENDBRANCH  50  64
BRANCH  51  75
ATOM     75  C   UNL A   1      39.605  33.823  37.024  1.00  0.00     0.064 A 
ATOM     76  C   UNL A   1      38.834  33.433  38.127  1.00  0.00     0.173 A 
ATOM     77  C   UNL A   1      40.189  35.097  37.053  1.00  0.00     0.173 A 
ATOM     78  F   UNL A   1      38.246  32.228  38.142  1.00  0.00    -0.203 F 
ATOM     79  C   UNL A   1      38.633  34.294  39.205  1.00  0.00     0.198 A 
ATOM     80  C   UNL A   1      40.006  35.949  38.141  1.00  0.00     0.198 A 
ATOM     81  F   UNL A   1      40.949  35.509  36.028  1.00  0.00    -0.203 F 
ATOM     82  F   UNL A   1      37.856  33.913  40.229  1.00  0.00    -0.200 F 
ATOM     83  C   UNL A   1      39.217  35.551  39.211  1.00  0.00     0.200 A 
ATOM     84  F   UNL A   1      40.587  37.157  38.149  1.00  0.00    -0.200 F 
ATOM     85  F   UNL A   1      39.019  36.381  40.245  1.00  0.00    -0.200 F 
ENDBRANCH  51  75
BRANCH  63  86
ATOM     86  C   UNL A   1      44.210  28.973  34.983  1.00  0.00     0.064 A 
ATOM     87  C   UNL A   1      45.453  29.533  34.653  1.00  0.00     0.173 A 
ATOM     88  C   UNL A   1      44.194  27.859  35.835  1.00  0.00     0.173 A 
ATOM     89  F   UNL A   1      45.521  30.593  33.833  1.00  0.00    -0.203 F 
ATOM     90  C   UNL A   1      46.635  28.991  35.146  1.00  0.00     0.198 A 
ATOM     91  C   UNL A   1      45.377  27.336  36.347  1.00  0.00     0.198 A 
ATOM     92  F   UNL A   1      43.028  27.294  36.184  1.00  0.00    -0.203 F 
ATOM     93  F   UNL A   1      47.814  29.522  34.793  1.00  0.00    -0.200 F 
ATOM     94  C   UNL A   1      46.596  27.896  35.995  1.00  0.00     0.200 A 
ATOM     95  F   UNL A   1      45.337  26.291  37.185  1.00  0.00    -0.200 F 
ATOM     96  F   UNL A   1      47.735  27.381  36.479  1.00  0.00    -0.200 F 
ENDBRANCH  63  86
ENDBRANCH  37  38
ENDBRANCH  29  32
ENDBRANCH  27  28
ENDBRANCH  26  27
ENDBRANCH   1  26
TORSDOF 13
ENDMDL
MODEL 2
REMARK VINA RESULT:     -13.0      0.650      7.401
REMARK SMILES COc1ccc(F)c(NC(=O)N[C@H]2CCC[C@H]2C(=O)NCCCNC(=O)c2ccc(-c3c4nc(c(-c5c(F)c(F)c(F)c(F)c5F)c5ccc([nH]5)c(-c5c(F)c(F)c(F)c(F)c5F)c5nc(c(-c6c(F)c(F)c(F)c(F)c6F)c6ccc3[nH]6)C=C5)C=C4)cc2)c1
REMARK SMILES IDX 21 1 20 2 18 3 19 4 17 6 13 7 14 8 15 9 16 10 12 11 9 12
REMARK SMILES IDX 10 13 11 15 8 17 3 18 4 19 90 20 5 21 6 22 7 23 2 24 1 25
REMARK SMILES IDX 22 26 23 27 24 28 25 29 26 31 27 32 28 33 89 34 29 35 88 36
REMARK SMILES IDX 30 37 31 38 32 39 82 40 33 41 87 42 81 43 83 44 34 45 86 46
REMARK SMILES IDX 80 47 79 48 35 50 67 51 47 52 66 53 48 54 51 55 65 56 84 57
REMARK SMILES IDX 49 58 50 59 64 61 85 62 52 63 36 64 37 65 45 66 38 67 39 68
REMARK SMILES IDX 43 69 46 70 40 71 41 72 44 73 42 74 68 75 69 76 77 77 70 78
REMARK SMILES IDX 71 79 75 80 78 81 72 82 73 83 76 84 74 85 53 86 54 87 62 88
REMARK SMILES IDX 55 89 56 90 60 91 63 92 57 93 58 94 61 95 59 96
REMARK H PARENT 20 5 9 14 12 16 24 30 83 49 51 60
REMARK Flexibility Score: inf
ROOT
ATOM      1  C   UNL A   1      31.696  30.540  26.579  1.00  0.00     0.117 C 
ENDROOT
BRANCH   1   2
ATOM      2  N   UNL A   1      32.751  30.082  25.634  1.00  0.00    -0.356 N 
ATOM      3  C   UNL A   1      33.100  28.948  24.940  1.00  0.00     0.225 C 
ATOM      4  O   UNL A   1      33.529  29.186  23.797  1.00  0.00    -0.275 OA
ATOM      5  H   UNL A   1      33.391  30.808  25.452  1.00  0.00     0.163 HD
BRANCH   3   6
ATOM      6  C   UNL A   1      33.279  27.494  25.462  1.00  0.00     0.101 C 
ATOM      7  C   UNL A   1      32.088  26.631  25.308  1.00  0.00     0.096 C 
ATOM      8  C   UNL A   1      32.462  25.456  26.241  1.00  0.00     0.026 C 
ATOM      9  C   UNL A   1      33.864  25.091  25.796  1.00  0.00     0.003 C 
ATOM     10  C   UNL A   1      34.399  26.412  25.231  1.00  0.00     0.016 C 
BRANCH   7  11
ATOM     11  N   UNL A   1      31.913  26.170  23.928  1.00  0.00    -0.334 N 
ATOM     12  N   UNL A   1      30.280  27.289  22.474  1.00  0.00    -0.305 N 
ATOM     13  C   UNL A   1      31.210  26.399  22.826  1.00  0.00     0.319 C 
ATOM     14  H   UNL A   1      29.868  26.868  21.685  1.00  0.00     0.171 HD
ATOM     15  O   UNL A   1      31.377  25.502  21.979  1.00  0.00    -0.248 OA
ATOM     16  H   UNL A   1      32.537  25.428  23.759  1.00  0.00     0.165 HD
BRANCH  12  17
ATOM     17  C   UNL A   1      29.542  28.513  22.598  1.00  0.00     0.082 A 
ATOM     18  C   UNL A   1      28.911  30.888  22.278  1.00  0.00     0.121 A 
ATOM     19  C   UNL A   1      27.623  30.640  22.725  1.00  0.00     0.049 A 
ATOM     20  C   UNL A   1      29.846  29.835  22.263  1.00  0.00     0.075 A 
ATOM     21  C   UNL A   1      27.291  29.364  23.160  1.00  0.00     0.045 A 
ATOM     22  C   UNL A   1      28.232  28.335  23.081  1.00  0.00     0.147 A 
ATOM     23  F   UNL A   1      27.864  27.113  23.501  1.00  0.00    -0.205 F 
BRANCH  18  24
ATOM     24  O   UNL A   1      29.143  32.178  21.875  1.00  0.00    -0.497 OA
ATOM     25  C   UNL A   1      28.778  33.241  22.752  1.00  0.00     0.278 C 
ENDBRANCH  18  24
ENDBRANCH  12  17
ENDBRANCH   7  11
ENDBRANCH   3   6
ENDBRANCH   1   2
BRANCH   1  26
ATOM     26  C   UNL A   1      31.446  32.044  26.726  1.00  0.00     0.042 C 
BRANCH  26  27
ATOM     27  C   UNL A   1      32.705  32.857  27.056  1.00  0.00     0.118 C 
BRANCH  27  28
ATOM     28  N   UNL A   1      32.437  34.176  27.626  1.00  0.00    -0.352 N 
ATOM     29  C   UNL A   1      33.020  34.800  28.713  1.00  0.00     0.251 C 
ATOM     30  H   UNL A   1      31.736  34.696  27.170  1.00  0.00     0.163 HD
ATOM     31  O   UNL A   1      32.571  35.864  29.126  1.00  0.00    -0.269 OA
BRANCH  29  32
ATOM     32  C   UNL A   1      34.195  34.200  29.394  1.00  0.00     0.039 A 
ATOM     33  C   UNL A   1      35.486  34.532  28.965  1.00  0.00     0.014 A 
ATOM     34  C   UNL A   1      34.028  33.258  30.411  1.00  0.00     0.014 A 
ATOM     35  C   UNL A   1      36.601  33.939  29.570  1.00  0.00     0.010 A 
ATOM     36  C   UNL A   1      35.136  32.737  31.074  1.00  0.00     0.010 A 
ATOM     37  C   UNL A   1      36.431  33.038  30.631  1.00  0.00    -0.014 A 
BRANCH  37  38
ATOM     38  C   UNL A   1      37.582  32.303  31.219  1.00  0.00     0.031 A 
ATOM     39  C   UNL A   1      38.039  32.645  32.613  1.00  0.00     0.074 A 
ATOM     40  C   UNL A   1      38.245  31.382  30.496  1.00  0.00     0.049 A 
ATOM     41  N   UNL A   1      39.052  32.178  33.297  1.00  0.00    -0.248 NA
ATOM     42  C   UNL A   1      37.278  33.691  33.318  1.00  0.00     0.031 C 
ATOM     43  C   UNL A   1      37.938  31.013  29.114  1.00  0.00     0.029 A 
ATOM     44  N   UNL A   1      39.319  30.592  30.822  1.00  0.00    -0.354 N 
ATOM     45  C   UNL A   1      39.067  32.895  34.487  1.00  0.00     0.074 A 
ATOM     46  C   UNL A   1      38.005  33.873  34.408  1.00  0.00     0.031 C 
ATOM     47  C   UNL A   1      38.782  30.044  28.721  1.00  0.00     0.029 A 
ATOM     48  C   UNL A   1      39.700  29.738  29.817  1.00  0.00     0.049 A 
ATOM     49  H   UNL A   1      39.774  30.635  31.694  1.00  0.00     0.167 HD
ATOM     50  C   UNL A   1      39.869  32.731  35.565  1.00  0.00     0.037 A 
ATOM     51  C   UNL A   1      40.666  28.800  29.793  1.00  0.00     0.037 A 
ATOM     52  C   UNL A   1      40.879  31.711  35.658  1.00  0.00     0.049 A 
ATOM     53  C   UNL A   1      41.488  28.569  31.032  1.00  0.00     0.074 A 
ATOM     54  C   UNL A   1      41.704  31.406  36.725  1.00  0.00     0.029 A 
ATOM     55  N   UNL A   1      41.186  30.817  34.642  1.00  0.00    -0.354 N 
ATOM     56  N   UNL A   1      41.459  29.214  32.173  1.00  0.00    -0.248 NA
ATOM     57  C   UNL A   1      42.461  27.469  30.989  1.00  0.00     0.031 C 
ATOM     58  C   UNL A   1      42.533  30.345  36.343  1.00  0.00     0.029 A 
ATOM     59  C   UNL A   1      42.191  29.960  35.056  1.00  0.00     0.049 A 
ATOM     60  H   UNL A   1      40.755  30.796  33.757  1.00  0.00     0.167 HD
ATOM     61  C   UNL A   1      42.386  28.585  32.993  1.00  0.00     0.074 A 
ATOM     62  C   UNL A   1      42.955  27.499  32.221  1.00  0.00     0.031 C 
ATOM     63  C   UNL A   1      42.733  28.880  34.270  1.00  0.00     0.037 A 
BRANCH  50  64
ATOM     64  C   UNL A   1      39.672  33.660  36.729  1.00  0.00     0.064 A 
ATOM     65  C   UNL A   1      38.819  33.308  37.786  1.00  0.00     0.173 A 
ATOM     66  C   UNL A   1      40.314  34.907  36.796  1.00  0.00     0.173 A 
ATOM     67  F   UNL A   1      38.175  32.132  37.773  1.00  0.00    -0.203 F 
ATOM     68  C   UNL A   1      38.619  34.167  38.865  1.00  0.00     0.198 A 
ATOM     69  C   UNL A   1      40.139  35.748  37.892  1.00  0.00     0.198 A 
ATOM     70  F   UNL A   1      41.152  35.288  35.820  1.00  0.00    -0.203 F 
ATOM     71  F   UNL A   1      37.784  33.817  39.853  1.00  0.00    -0.200 F 
ATOM     72  C   UNL A   1      39.287  35.380  38.922  1.00  0.00     0.200 A 
ATOM     73  F   UNL A   1      40.812  36.905  37.961  1.00  0.00    -0.200 F 
ATOM     74  F   UNL A   1      39.116  36.193  39.975  1.00  0.00    -0.200 F 
ENDBRANCH  50  64
BRANCH  51  75
ATOM     75  C   UNL A   1      40.827  27.956  28.581  1.00  0.00     0.064 A 
ATOM     76  C   UNL A   1      41.637  28.358  27.510  1.00  0.00     0.173 A 
ATOM     77  C   UNL A   1      40.108  26.761  28.442  1.00  0.00     0.173 A 
ATOM     78  F   UNL A   1      42.337  29.500  27.590  1.00  0.00    -0.203 F 
ATOM     79  C   UNL A   1      41.703  27.609  26.336  1.00  0.00     0.198 A 
ATOM     80  C   UNL A   1      40.191  26.001  27.276  1.00  0.00     0.198 A 
ATOM     81  F   UNL A   1      39.333  26.326  29.445  1.00  0.00    -0.203 F 
ATOM     82  F   UNL A   1      42.452  28.038  25.311  1.00  0.00    -0.200 F 
ATOM     83  C   UNL A   1      40.980  26.432  26.220  1.00  0.00     0.200 A 
ATOM     84  F   UNL A   1      39.503  24.855  27.176  1.00  0.00    -0.200 F 
ATOM     85  F   UNL A   1      41.039  25.714  25.089  1.00  0.00    -0.200 F 
ENDBRANCH  51  75
BRANCH  63  86
ATOM     86  C   UNL A   1      43.755  28.003  34.930  1.00  0.00     0.064 A 
ATOM     87  C   UNL A   1      45.121  28.305  34.823  1.00  0.00     0.173 A 
ATOM     88  C   UNL A   1      43.391  26.825  35.597  1.00  0.00     0.173 A 
ATOM     89  F   UNL A   1      45.521  29.415  34.183  1.00  0.00    -0.203 F 
ATOM     90  C   UNL A   1      46.085  27.454  35.353  1.00  0.00     0.198 A 
ATOM     91  C   UNL A   1      44.357  25.990  36.150  1.00  0.00     0.198 A 
ATOM     92  F   UNL A   1      42.097  26.498  35.731  1.00  0.00    -0.203 F 
ATOM     93  F   UNL A   1      47.386  27.746  35.213  1.00  0.00    -0.200 F 
ATOM     94  C   UNL A   1      45.703  26.300  36.019  1.00  0.00     0.200 A 
ATOM     95  F   UNL A   1      43.986  24.886  36.812  1.00  0.00    -0.200 F 
ATOM     96  F   UNL A   1      46.632  25.487  36.540  1.00  0.00    -0.200 F 
ENDBRANCH  63  86
ENDBRANCH  37  38
ENDBRANCH  29  32
ENDBRANCH  27  28
ENDBRANCH  26  27
ENDBRANCH   1  26
TORSDOF 13
ENDMDL
MODEL 3
REMARK VINA RESULT:     -13.0      1.963      3.740
REMARK SMILES COc1ccc(F)c(NC(=O)N[C@H]2CCC[C@H]2C(=O)NCCCNC(=O)c2ccc(-c3c4nc(c(-c5c(F)c(F)c(F)c(F)c5F)c5ccc([nH]5)c(-c5c(F)c(F)c(F)c(F)c5F)c5nc(c(-c6c(F)c(F)c(F)c(F)c6F)c6ccc3[nH]6)C=C5)C=C4)cc2)c1
REMARK SMILES IDX 21 1 20 2 18 3 19 4 17 6 13 7 14 8 15 9 16 10 12 11 9 12
REMARK SMILES IDX 10 13 11 15 8 17 3 18 4 19 90 20 5 21 6 22 7 23 2 24 1 25
REMARK SMILES IDX 22 26 23 27 24 28 25 29 26 31 27 32 28 33 89 34 29 35 88 36
REMARK SMILES IDX 30 37 31 38 32 39 82 40 33 41 87 42 81 43 83 44 34 45 86 46
REMARK SMILES IDX 80 47 79 48 35 50 67 51 47 52 66 53 48 54 51 55 65 56 84 57
REMARK SMILES IDX 49 58 50 59 64 61 85 62 52 63 36 64 37 65 45 66 38 67 39 68
REMARK SMILES IDX 43 69 46 70 40 71 41 72 44 73 42 74 68 75 69 76 77 77 70 78
REMARK SMILES IDX 71 79 75 80 78 81 72 82 73 83 76 84 74 85 53 86 54 87 62 88
REMARK SMILES IDX 55 89 56 90 60 91 63 92 57 93 58 94 61 95 59 96
REMARK H PARENT 20 5 9 14 12 16 24 30 83 49 51 60
REMARK Flexibility Score: inf
ROOT
ATOM      1  C   UNL A   1      31.717  30.691  26.224  1.00  0.00     0.117 C 
ENDROOT
BRANCH   1   2
ATOM      2  N   UNL A   1      32.609  29.756  26.965  1.00  0.00    -0.356 N 
ATOM      3  C   UNL A   1      33.672  28.923  26.717  1.00  0.00     0.225 C 
ATOM      4  O   UNL A   1      34.523  28.930  27.624  1.00  0.00    -0.275 OA
ATOM      5  H   UNL A   1      32.362  29.726  27.918  1.00  0.00     0.163 HD
BRANCH   3   6
ATOM      6  C   UNL A   1      33.821  27.817  25.632  1.00  0.00     0.101 C 
ATOM      7  C   UNL A   1      33.440  26.460  26.077  1.00  0.00     0.096 C 
ATOM      8  C   UNL A   1      34.061  25.603  24.950  1.00  0.00     0.026 C 
ATOM      9  C   UNL A   1      33.562  26.277  23.687  1.00  0.00     0.003 C 
ATOM     10  C   UNL A   1      33.349  27.727  24.134  1.00  0.00     0.016 C 
BRANCH   7  11
ATOM     11  N   UNL A   1      31.986  26.283  26.131  1.00  0.00    -0.334 N 
ATOM     12  N   UNL A   1      30.979  24.246  25.199  1.00  0.00    -0.305 N 
ATOM     13  C   UNL A   1      31.018  25.444  25.784  1.00  0.00     0.319 C 
ATOM     14  H   UNL A   1      30.043  24.183  24.899  1.00  0.00     0.171 HD
ATOM     15  O   UNL A   1      29.892  25.955  25.932  1.00  0.00    -0.248 OA
ATOM     16  H   UNL A   1      31.587  27.058  26.586  1.00  0.00     0.165 HD
BRANCH  12  17
ATOM     17  C   UNL A   1      31.532  22.997  24.760  1.00  0.00     0.082 A 
ATOM     18  C   UNL A   1      32.171  20.602  24.784  1.00  0.00     0.121 A 
ATOM     19  C   UNL A   1      32.357  20.605  23.411  1.00  0.00     0.049 A 
ATOM     20  C   UNL A   1      31.805  21.800  25.429  1.00  0.00     0.075 A 
ATOM     21  C   UNL A   1      32.190  21.789  22.707  1.00  0.00     0.045 A 
ATOM     22  C   UNL A   1      31.776  22.944  23.375  1.00  0.00     0.147 A 
ATOM     23  F   UNL A   1      31.617  24.065  22.653  1.00  0.00    -0.205 F 
BRANCH  18  24
ATOM     24  O   UNL A   1      32.363  19.387  25.390  1.00  0.00    -0.497 OA
ATOM     25  C   UNL A   1      32.551  18.239  24.567  1.00  0.00     0.278 C 
ENDBRANCH  18  24
ENDBRANCH  12  17
ENDBRANCH   7  11
ENDBRANCH   3   6
ENDBRANCH   1   2
BRANCH   1  26
ATOM     26  C   UNL A   1      31.437  32.070  26.827  1.00  0.00     0.042 C 
BRANCH  26  27
ATOM     27  C   UNL A   1      32.700  32.835  27.248  1.00  0.00     0.118 C 
BRANCH  27  28
ATOM     28  N   UNL A   1      32.459  34.220  27.649  1.00  0.00    -0.352 N 
ATOM     29  C   UNL A   1      33.046  34.957  28.661  1.00  0.00     0.251 C 
ATOM     30  H   UNL A   1      31.777  34.697  27.123  1.00  0.00     0.163 HD
ATOM     31  O   UNL A   1      32.619  36.074  28.934  1.00  0.00    -0.269 OA
BRANCH  29  32
ATOM     32  C   UNL A   1      34.197  34.416  29.426  1.00  0.00     0.039 A 
ATOM     33  C   UNL A   1      35.490  34.529  28.900  1.00  0.00     0.014 A 
ATOM     34  C   UNL A   1      34.000  33.738  30.630  1.00  0.00     0.014 A 
ATOM     35  C   UNL A   1      36.579  33.984  29.592  1.00  0.00     0.010 A 
ATOM     36  C   UNL A   1      35.090  33.277  31.363  1.00  0.00     0.010 A 
ATOM     37  C   UNL A   1      36.384  33.355  30.831  1.00  0.00    -0.014 A 
BRANCH  37  38
ATOM     38  C   UNL A   1      37.496  32.666  31.536  1.00  0.00     0.031 A 
ATOM     39  C   UNL A   1      38.215  31.536  30.847  1.00  0.00     0.074 A 
ATOM     40  C   UNL A   1      37.822  33.007  32.796  1.00  0.00     0.049 A 
ATOM     41  N   UNL A   1      39.169  30.758  31.293  1.00  0.00    -0.248 NA
ATOM     42  C   UNL A   1      37.769  31.205  29.482  1.00  0.00     0.031 C 
ATOM     43  C   UNL A   1      37.155  34.039  33.589  1.00  0.00     0.029 A 
ATOM     44  N   UNL A   1      38.794  32.518  33.632  1.00  0.00    -0.354 N 
ATOM     45  C   UNL A   1      39.406  29.834  30.284  1.00  0.00     0.074 A 
ATOM     46  C   UNL A   1      38.455  30.103  29.229  1.00  0.00     0.031 C 
ATOM     47  C   UNL A   1      37.758  34.131  34.786  1.00  0.00     0.029 A 
ATOM     48  C   UNL A   1      38.842  33.152  34.850  1.00  0.00     0.049 A 
ATOM     49  H   UNL A   1      39.398  31.783  33.384  1.00  0.00     0.167 HD
ATOM     50  C   UNL A   1      40.354  28.869  30.224  1.00  0.00     0.037 A 
ATOM     51  C   UNL A   1      39.681  32.976  35.888  1.00  0.00     0.037 A 
ATOM     52  C   UNL A   1      41.336  28.653  31.252  1.00  0.00     0.049 A 
ATOM     53  C   UNL A   1      40.786  31.961  35.769  1.00  0.00     0.074 A 
ATOM     54  C   UNL A   1      42.385  27.753  31.270  1.00  0.00     0.029 A 
ATOM     55  N   UNL A   1      41.395  29.365  32.442  1.00  0.00    -0.354 N 
ATOM     56  N   UNL A   1      41.038  31.129  34.788  1.00  0.00    -0.248 NA
ATOM     57  C   UNL A   1      41.734  31.876  36.887  1.00  0.00     0.031 C 
ATOM     58  C   UNL A   1      43.063  27.899  32.485  1.00  0.00     0.029 A 
ATOM     59  C   UNL A   1      42.463  28.923  33.204  1.00  0.00     0.049 A 
ATOM     60  H   UNL A   1      40.769  30.077  32.706  1.00  0.00     0.167 HD
ATOM     61  C   UNL A   1      42.185  30.439  35.155  1.00  0.00     0.074 A 
ATOM     62  C   UNL A   1      42.587  30.959  36.446  1.00  0.00     0.031 C 
ATOM     63  C   UNL A   1      42.847  29.465  34.483  1.00  0.00     0.037 A 
BRANCH  50  64
ATOM     64  C   UNL A   1      40.382  27.993  29.003  1.00  0.00     0.064 A 
ATOM     65  C   UNL A   1      39.672  26.784  28.975  1.00  0.00     0.173 A 
ATOM     66  C   UNL A   1      41.126  28.340  27.864  1.00  0.00     0.173 A 
ATOM     67  F   UNL A   1      38.949  26.399  30.038  1.00  0.00    -0.203 F 
ATOM     68  C   UNL A   1      39.701  25.958  27.853  1.00  0.00     0.198 A 
ATOM     69  C   UNL A   1      41.125  27.530  26.731  1.00  0.00     0.198 A 
ATOM     70  F   UNL A   1      41.813  29.491  27.830  1.00  0.00    -0.203 F 
ATOM     71  F   UNL A   1      39.029  24.799  27.858  1.00  0.00    -0.200 F 
ATOM     72  C   UNL A   1      40.418  26.336  26.729  1.00  0.00     0.200 A 
ATOM     73  F   UNL A   1      41.792  27.914  25.633  1.00  0.00    -0.200 F 
ATOM     74  F   UNL A   1      40.422  25.556  25.639  1.00  0.00    -0.200 F 
ENDBRANCH  50  64
BRANCH  51  75
ATOM     75  C   UNL A   1      39.552  33.852  37.081  1.00  0.00     0.064 A 
ATOM     76  C   UNL A   1      38.808  33.460  38.202  1.00  0.00     0.173 A 
ATOM     77  C   UNL A   1      40.113  35.137  37.087  1.00  0.00     0.173 A 
ATOM     78  F   UNL A   1      38.243  32.244  38.241  1.00  0.00    -0.203 F 
ATOM     79  C   UNL A   1      38.610  34.329  39.274  1.00  0.00     0.198 A 
ATOM     80  C   UNL A   1      39.932  35.997  38.168  1.00  0.00     0.198 A 
ATOM     81  F   UNL A   1      40.846  35.552  36.044  1.00  0.00    -0.203 F 
ATOM     82  F   UNL A   1      37.859  33.945  40.316  1.00  0.00    -0.200 F 
ATOM     83  C   UNL A   1      39.170  35.597  39.256  1.00  0.00     0.200 A 
ATOM     84  F   UNL A   1      40.490  37.216  38.153  1.00  0.00    -0.200 F 
ATOM     85  F   UNL A   1      38.975  36.434  40.284  1.00  0.00    -0.200 F 
ENDBRANCH  51  75
BRANCH  63  86
ATOM     86  C   UNL A   1      44.091  28.912  35.112  1.00  0.00     0.064 A 
ATOM     87  C   UNL A   1      44.014  27.829  35.999  1.00  0.00     0.173 A 
ATOM     88  C   UNL A   1      45.345  29.502  34.899  1.00  0.00     0.173 A 
ATOM     89  F   UNL A   1      42.834  27.238  36.244  1.00  0.00    -0.203 F 
ATOM     90  C   UNL A   1      45.146  27.362  36.658  1.00  0.00     0.198 A 
ATOM     91  C   UNL A   1      46.481  29.015  35.539  1.00  0.00     0.198 A 
ATOM     92  F   UNL A   1      45.470  30.536  34.053  1.00  0.00    -0.203 F 
ATOM     93  F   UNL A   1      45.044  26.345  37.526  1.00  0.00    -0.200 F 
ATOM     94  C   UNL A   1      46.379  27.952  36.425  1.00  0.00     0.200 A 
ATOM     95  F   UNL A   1      47.675  29.572  35.297  1.00  0.00    -0.200 F 
ATOM     96  F   UNL A   1      47.471  27.494  37.052  1.00  0.00    -0.200 F 
ENDBRANCH  63  86
ENDBRANCH  37  38
ENDBRANCH  29  32
ENDBRANCH  27  28
ENDBRANCH  26  27
ENDBRANCH   1  26
TORSDOF 13
ENDMDL
