MODEL 1
REMARK VINA RESULT:     -14.6      0.000      0.000
REMARK SMILES O=C(C[C@H](NC(=O)[C@]12C[C@H]3C[C@H](C[C@H](C3)C1)C2)c1cccc([N+](=O)[O-])c1)NCCCNC(=O)c1ccc(-c2c3nc(c(-c4c(F)c(F)c(F)c(F)c4F)c4ccc([nH]4)c(-c4c(F)c(F)c(F)c(F)c4F)c4nc(c(-c5c(F)c(F)c(F)c(F)c5F)c5ccc2[nH]5)C=C4)C=C3)cc1
REMARK SMILES IDX 28 1 27 2 1 3 2 4 3 6 4 7 18 8 19 9 26 10 20 11 22 12 21 13
REMARK SMILES IDX 23 14 24 15 25 16 5 17 6 18 7 20 8 21 9 22 16 23 17 24 10 25
REMARK SMILES IDX 14 26 12 27 11 28 15 29 13 30 29 31 30 32 31 33 32 34 33 36
REMARK SMILES IDX 34 37 35 38 96 39 36 40 95 41 37 42 38 43 39 44 89 45 40 46
REMARK SMILES IDX 94 47 88 48 90 49 41 50 93 51 87 52 86 53 42 55 74 56 54 57
REMARK SMILES IDX 73 58 55 59 58 60 72 61 91 62 56 63 57 64 71 66 92 67 59 68
REMARK SMILES IDX 43 69 44 70 52 71 45 72 46 73 50 74 53 75 47 76 48 77 51 78
REMARK SMILES IDX 49 79 75 80 76 81 84 82 77 83 78 84 82 85 85 86 79 87 80 88
REMARK SMILES IDX 83 89 81 90 60 91 61 92 69 93 62 94 63 95 67 96 70 97 64 98
REMARK SMILES IDX 65 99 68 100 66 101
REMARK H PARENT 27 5 5 19 31 35 90 54 58 65
REMARK Flexibility Score: inf
ROOT
ATOM      1  C   UNL A   1      31.857  30.489  26.516  1.00  0.00     0.117 C 
ENDROOT
BRANCH   1   2
ATOM      2  N   UNL A   1      32.081  30.247  25.108  1.00  0.00    -0.356 N 
ATOM      3  O   UNL A   1      33.747  28.705  25.399  1.00  0.00    -0.275 OA
ATOM      4  C   UNL A   1      32.939  29.274  24.672  1.00  0.00     0.222 C 
ATOM      5  H   UNL A   1      31.604  30.797  24.446  1.00  0.00     0.163 HD
BRANCH   4   6
ATOM      6  C   UNL A   1      32.825  28.932  23.206  1.00  0.00     0.129 C 
BRANCH   6   7
ATOM      7  C   UNL A   1      31.724  27.921  22.797  1.00  0.00     0.122 C 
BRANCH   7   8
ATOM      8  C   UNL A   1      30.312  28.492  22.669  1.00  0.00    -0.018 A 
ATOM      9  C   UNL A   1      29.253  27.753  23.243  1.00  0.00     0.006 A 
ATOM     10  C   UNL A   1      29.998  29.697  22.022  1.00  0.00     0.091 A 
ATOM     11  C   UNL A   1      27.939  28.223  23.230  1.00  0.00     0.007 A 
ATOM     12  C   UNL A   1      28.669  30.161  22.002  1.00  0.00     0.269 A 
ATOM     13  C   UNL A   1      27.642  29.433  22.615  1.00  0.00     0.085 A 
BRANCH  12  14
ATOM     14  N   UNL A   1      28.350  31.433  21.338  1.00  0.00     0.062 N 
ATOM     15  O   UNL A   1      27.645  31.391  20.321  1.00  0.00    -0.258 OA
ATOM     16  O   UNL A   1      28.801  32.469  21.845  1.00  0.00    -0.258 OA
ENDBRANCH  12  14
ENDBRANCH   7   8
BRANCH   7  17
ATOM     17  N   UNL A   1      32.174  27.112  21.663  1.00  0.00    -0.348 N 
ATOM     18  C   UNL A   1      32.648  25.842  21.559  1.00  0.00     0.226 C 
ATOM     19  H   UNL A   1      32.122  27.585  20.801  1.00  0.00     0.164 HD
ATOM     20  O   UNL A   1      33.041  25.544  20.422  1.00  0.00    -0.274 OA
BRANCH  18  21
ATOM     21  C   UNL A   1      32.705  24.780  22.690  1.00  0.00     0.050 C 
ATOM     22  C   UNL A   1      31.408  24.449  23.449  1.00  0.00     0.020 C 
ATOM     23  C   UNL A   1      33.750  25.271  23.736  1.00  0.00     0.020 C 
ATOM     24  C   UNL A   1      33.247  23.455  22.090  1.00  0.00     0.020 C 
ATOM     25  C   UNL A   1      31.615  23.413  24.557  1.00  0.00    -0.010 C 
ATOM     26  C   UNL A   1      33.966  24.226  24.847  1.00  0.00    -0.010 C 
ATOM     27  C   UNL A   1      33.457  22.393  23.191  1.00  0.00    -0.010 C 
ATOM     28  C   UNL A   1      32.126  22.121  23.910  1.00  0.00     0.007 C 
ATOM     29  C   UNL A   1      32.634  23.959  25.560  1.00  0.00     0.007 C 
ATOM     30  C   UNL A   1      34.472  22.916  24.222  1.00  0.00     0.007 C 
ENDBRANCH  18  21
ENDBRANCH   7  17
ENDBRANCH   6   7
ENDBRANCH   4   6
ENDBRANCH   1   2
BRANCH   1  31
ATOM     31  C   UNL A   1      31.547  31.946  26.798  1.00  0.00     0.042 C 
BRANCH  31  32
ATOM     32  C   UNL A   1      32.722  32.715  27.382  1.00  0.00     0.118 C 
BRANCH  32  33
ATOM     33  N   UNL A   1      32.418  34.116  27.646  1.00  0.00    -0.352 N 
ATOM     34  C   UNL A   1      32.977  34.969  28.569  1.00  0.00     0.251 C 
ATOM     35  H   UNL A   1      31.710  34.507  27.083  1.00  0.00     0.163 HD
ATOM     36  O   UNL A   1      32.487  36.068  28.770  1.00  0.00    -0.269 OA
BRANCH  34  37
ATOM     37  C   UNL A   1      34.152  34.521  29.343  1.00  0.00     0.039 A 
ATOM     38  C   UNL A   1      33.953  33.971  30.610  1.00  0.00     0.014 A 
ATOM     39  C   UNL A   1      35.437  34.603  28.799  1.00  0.00     0.014 A 
ATOM     40  C   UNL A   1      35.037  33.427  31.299  1.00  0.00     0.010 A 
ATOM     41  C   UNL A   1      36.496  33.977  29.444  1.00  0.00     0.010 A 
ATOM     42  C   UNL A   1      36.307  33.382  30.701  1.00  0.00    -0.014 A 
BRANCH  42  43
ATOM     43  C   UNL A   1      37.451  32.717  31.372  1.00  0.00     0.031 A 
ATOM     44  C   UNL A   1      38.150  31.565  30.706  1.00  0.00     0.074 A 
ATOM     45  C   UNL A   1      37.816  33.105  32.611  1.00  0.00     0.049 A 
ATOM     46  N   UNL A   1      39.119  30.810  31.158  1.00  0.00    -0.248 NA
ATOM     47  C   UNL A   1      37.677  31.193  29.363  1.00  0.00     0.031 C 
ATOM     48  C   UNL A   1      37.181  34.174  33.384  1.00  0.00     0.029 A 
ATOM     49  N   UNL A   1      38.802  32.637  33.442  1.00  0.00    -0.354 N 
ATOM     50  C   UNL A   1      39.359  29.871  30.165  1.00  0.00     0.074 A 
ATOM     51  C   UNL A   1      38.395  30.110  29.112  1.00  0.00     0.031 C 
ATOM     52  C   UNL A   1      37.810  34.298  34.564  1.00  0.00     0.029 A 
ATOM     53  C   UNL A   1      38.863  33.290  34.649  1.00  0.00     0.049 A 
ATOM     54  H   UNL A   1      39.410  31.901  33.196  1.00  0.00     0.167 HD
ATOM     55  C   UNL A   1      40.313  28.912  30.122  1.00  0.00     0.037 A 
ATOM     56  C   UNL A   1      39.672  33.093  35.708  1.00  0.00     0.037 A 
ATOM     57  C   UNL A   1      41.284  28.693  31.160  1.00  0.00     0.049 A 
ATOM     58  C   UNL A   1      40.717  32.012  35.638  1.00  0.00     0.074 A 
ATOM     59  C   UNL A   1      42.331  27.788  31.186  1.00  0.00     0.029 A 
ATOM     60  N   UNL A   1      41.325  29.386  32.363  1.00  0.00    -0.354 N 
ATOM     61  N   UNL A   1      40.983  31.178  34.663  1.00  0.00    -0.248 NA
ATOM     62  C   UNL A   1      41.581  31.851  36.817  1.00  0.00     0.031 C 
ATOM     63  C   UNL A   1      42.972  27.896  32.424  1.00  0.00     0.029 A 
ATOM     64  C   UNL A   1      42.363  28.910  33.148  1.00  0.00     0.049 A 
ATOM     65  H   UNL A   1      40.707  30.108  32.619  1.00  0.00     0.167 HD
ATOM     66  C   UNL A   1      42.060  30.415  35.095  1.00  0.00     0.074 A 
ATOM     67  C   UNL A   1      42.409  30.897  36.415  1.00  0.00     0.031 C 
ATOM     68  C   UNL A   1      42.702  29.407  34.456  1.00  0.00     0.037 A 
BRANCH  55  69
ATOM     69  C   UNL A   1      40.355  28.027  28.908  1.00  0.00     0.064 A 
ATOM     70  C   UNL A   1      41.098  28.373  27.769  1.00  0.00     0.173 A 
ATOM     71  C   UNL A   1      39.673  26.801  28.897  1.00  0.00     0.173 A 
ATOM     72  F   UNL A   1      41.759  29.541  27.723  1.00  0.00    -0.203 F 
ATOM     73  C   UNL A   1      41.131  27.542  26.652  1.00  0.00     0.198 A 
ATOM     74  C   UNL A   1      39.735  25.956  27.792  1.00  0.00     0.198 A 
ATOM     75  F   UNL A   1      38.953  26.418  29.962  1.00  0.00    -0.203 F 
ATOM     76  F   UNL A   1      41.803  27.920  25.557  1.00  0.00    -0.200 F 
ATOM     77  C   UNL A   1      40.456  26.330  26.668  1.00  0.00     0.200 A 
ATOM     78  F   UNL A   1      39.095  24.778  27.815  1.00  0.00    -0.200 F 
ATOM     79  F   UNL A   1      40.495  25.526  25.597  1.00  0.00    -0.200 F 
ENDBRANCH  55  69
BRANCH  56  80
ATOM     80  C   UNL A   1      39.540  33.950  36.915  1.00  0.00     0.064 A 
ATOM     81  C   UNL A   1      38.780  33.531  38.016  1.00  0.00     0.173 A 
ATOM     82  C   UNL A   1      40.163  35.205  36.993  1.00  0.00     0.173 A 
ATOM     83  F   UNL A   1      38.148  32.349  37.982  1.00  0.00    -0.203 F 
ATOM     84  C   UNL A   1      38.625  34.345  39.137  1.00  0.00     0.198 A 
ATOM     85  C   UNL A   1      40.034  36.004  38.126  1.00  0.00     0.198 A 
ATOM     86  F   UNL A   1      40.908  35.649  35.970  1.00  0.00    -0.203 F 
ATOM     87  F   UNL A   1      37.849  33.942  40.153  1.00  0.00    -0.200 F 
ATOM     88  C   UNL A   1      39.257  35.578  39.194  1.00  0.00     0.200 A 
ATOM     89  F   UNL A   1      40.659  37.187  38.185  1.00  0.00    -0.200 F 
ATOM     90  F   UNL A   1      39.111  36.359  40.272  1.00  0.00    -0.200 F 
ENDBRANCH  56  80
BRANCH  68  91
ATOM     91  C   UNL A   1      43.875  28.782  35.158  1.00  0.00     0.064 A 
ATOM     92  C   UNL A   1      43.721  27.685  36.018  1.00  0.00     0.173 A 
ATOM     93  C   UNL A   1      45.174  29.264  34.931  1.00  0.00     0.173 A 
ATOM     94  F   UNL A   1      42.500  27.195  36.278  1.00  0.00    -0.203 F 
ATOM     95  C   UNL A   1      44.823  27.110  36.647  1.00  0.00     0.198 A 
ATOM     96  C   UNL A   1      46.276  28.665  35.536  1.00  0.00     0.198 A 
ATOM     97  F   UNL A   1      45.375  30.306  34.113  1.00  0.00    -0.203 F 
ATOM     98  F   UNL A   1      44.647  26.096  37.504  1.00  0.00    -0.200 F 
ATOM     99  C   UNL A   1      46.098  27.595  36.400  1.00  0.00     0.200 A 
ATOM    100  F   UNL A   1      47.508  29.125  35.283  1.00  0.00    -0.200 F 
ATOM    101  F   UNL A   1      47.158  27.035  36.999  1.00  0.00    -0.200 F 
ENDBRANCH  68  91
ENDBRANCH  42  43
ENDBRANCH  34  37
ENDBRANCH  32  33
ENDBRANCH  31  32
ENDBRANCH   1  31
TORSDOF 15
ENDMDL
MODEL 2
REMARK VINA RESULT:     -14.6      0.134      1.571
REMARK SMILES O=C(C[C@H](NC(=O)[C@]12C[C@H]3C[C@H](C[C@H](C3)C1)C2)c1cccc([N+](=O)[O-])c1)NCCCNC(=O)c1ccc(-c2c3nc(c(-c4c(F)c(F)c(F)c(F)c4F)c4ccc([nH]4)c(-c4c(F)c(F)c(F)c(F)c4F)c4nc(c(-c5c(F)c(F)c(F)c(F)c5F)c5ccc2[nH]5)C=C4)C=C3)cc1
REMARK SMILES IDX 28 1 27 2 1 3 2 4 3 6 4 7 18 8 19 9 26 10 20 11 22 12 21 13
REMARK SMILES IDX 23 14 24 15 25 16 5 17 6 18 7 20 8 21 9 22 16 23 17 24 10 25
REMARK SMILES IDX 14 26 12 27 11 28 15 29 13 30 29 31 30 32 31 33 32 34 33 36
REMARK SMILES IDX 34 37 35 38 96 39 36 40 95 41 37 42 38 43 39 44 89 45 40 46
REMARK SMILES IDX 94 47 88 48 90 49 41 50 93 51 87 52 86 53 42 55 74 56 54 57
REMARK SMILES IDX 73 58 55 59 58 60 72 61 91 62 56 63 57 64 71 66 92 67 59 68
REMARK SMILES IDX 43 69 44 70 52 71 45 72 46 73 50 74 53 75 47 76 48 77 51 78
REMARK SMILES IDX 49 79 75 80 76 81 84 82 77 83 78 84 82 85 85 86 79 87 80 88
REMARK SMILES IDX 83 89 81 90 60 91 61 92 69 93 62 94 63 95 67 96 70 97 64 98
REMARK SMILES IDX 65 99 68 100 66 101
REMARK H PARENT 27 5 5 19 31 35 90 54 58 65
REMARK Flexibility Score: inf
ROOT
ATOM      1  C   UNL A   1      31.889  30.468  26.539  1.00  0.00     0.117 C 
ENDROOT
BRANCH   1   2
ATOM      2  N   UNL A   1      32.080  30.239  25.124  1.00  0.00    -0.356 N 
ATOM      3  O   UNL A   1      33.743  28.684  25.361  1.00  0.00    -0.275 OA
ATOM      4  C   UNL A   1      32.921  29.265  24.658  1.00  0.00     0.222 C 
ATOM      5  H   UNL A   1      31.591  30.799  24.478  1.00  0.00     0.163 HD
BRANCH   4   6
ATOM      6  C   UNL A   1      32.772  28.939  23.192  1.00  0.00     0.129 C 
BRANCH   6   7
ATOM      7  C   UNL A   1      31.663  27.931  22.799  1.00  0.00     0.122 C 
BRANCH   7   8
ATOM      8  C   UNL A   1      30.255  28.511  22.666  1.00  0.00    -0.018 A 
ATOM      9  C   UNL A   1      29.189  27.780  23.237  1.00  0.00     0.006 A 
ATOM     10  C   UNL A   1      29.950  29.717  22.016  1.00  0.00     0.091 A 
ATOM     11  C   UNL A   1      27.879  28.258  23.220  1.00  0.00     0.007 A 
ATOM     12  C   UNL A   1      28.624  30.190  21.992  1.00  0.00     0.269 A 
ATOM     13  C   UNL A   1      27.591  29.469  22.603  1.00  0.00     0.085 A 
BRANCH  12  14
ATOM     14  N   UNL A   1      28.315  31.463  21.326  1.00  0.00     0.062 N 
ATOM     15  O   UNL A   1      28.738  32.504  21.847  1.00  0.00    -0.258 OA
ATOM     16  O   UNL A   1      27.657  31.412  20.277  1.00  0.00    -0.258 OA
ENDBRANCH  12  14
ENDBRANCH   7   8
BRANCH   7  17
ATOM     17  N   UNL A   1      32.104  27.104  21.676  1.00  0.00    -0.348 N 
ATOM     18  C   UNL A   1      32.651  25.862  21.596  1.00  0.00     0.226 C 
ATOM     19  H   UNL A   1      31.978  27.535  20.799  1.00  0.00     0.164 HD
ATOM     20  O   UNL A   1      33.004  25.539  20.452  1.00  0.00    -0.274 OA
BRANCH  18  21
ATOM     21  C   UNL A   1      32.834  24.855  22.764  1.00  0.00     0.050 C 
ATOM     22  C   UNL A   1      31.620  24.541  23.656  1.00  0.00     0.020 C 
ATOM     23  C   UNL A   1      33.963  25.409  23.684  1.00  0.00     0.020 C 
ATOM     24  C   UNL A   1      33.343  23.511  22.176  1.00  0.00     0.020 C 
ATOM     25  C   UNL A   1      31.949  23.560  24.784  1.00  0.00    -0.010 C 
ATOM     26  C   UNL A   1      34.301  24.421  24.816  1.00  0.00    -0.010 C 
ATOM     27  C   UNL A   1      33.675  22.505  23.299  1.00  0.00    -0.010 C 
ATOM     28  C   UNL A   1      32.422  22.247  24.151  1.00  0.00     0.007 C 
ATOM     29  C   UNL A   1      33.046  24.168  25.662  1.00  0.00     0.007 C 
ATOM     30  C   UNL A   1      34.772  23.090  24.205  1.00  0.00     0.007 C 
ENDBRANCH  18  21
ENDBRANCH   7  17
ENDBRANCH   6   7
ENDBRANCH   4   6
ENDBRANCH   1   2
BRANCH   1  31
ATOM     31  C   UNL A   1      31.558  31.916  26.839  1.00  0.00     0.042 C 
BRANCH  31  32
ATOM     32  C   UNL A   1      32.746  32.717  27.351  1.00  0.00     0.118 C 
BRANCH  32  33
ATOM     33  N   UNL A   1      32.420  34.109  27.636  1.00  0.00    -0.352 N 
ATOM     34  C   UNL A   1      32.958  34.953  28.580  1.00  0.00     0.251 C 
ATOM     35  H   UNL A   1      31.713  34.500  27.073  1.00  0.00     0.163 HD
ATOM     36  O   UNL A   1      32.451  36.042  28.796  1.00  0.00    -0.269 OA
BRANCH  34  37
ATOM     37  C   UNL A   1      34.132  34.508  29.358  1.00  0.00     0.039 A 
ATOM     38  C   UNL A   1      33.929  33.956  30.624  1.00  0.00     0.014 A 
ATOM     39  C   UNL A   1      35.418  34.593  28.819  1.00  0.00     0.014 A 
ATOM     40  C   UNL A   1      35.012  33.413  31.317  1.00  0.00     0.010 A 
ATOM     41  C   UNL A   1      36.476  33.969  29.468  1.00  0.00     0.010 A 
ATOM     42  C   UNL A   1      36.284  33.372  30.723  1.00  0.00    -0.014 A 
BRANCH  42  43
ATOM     43  C   UNL A   1      37.427  32.710  31.398  1.00  0.00     0.031 A 
ATOM     44  C   UNL A   1      38.124  31.553  30.739  1.00  0.00     0.074 A 
ATOM     45  C   UNL A   1      37.793  33.105  32.634  1.00  0.00     0.049 A 
ATOM     46  N   UNL A   1      39.091  30.798  31.195  1.00  0.00    -0.248 NA
ATOM     47  C   UNL A   1      37.649  31.173  29.398  1.00  0.00     0.031 C 
ATOM     48  C   UNL A   1      37.161  34.180  33.401  1.00  0.00     0.029 A 
ATOM     49  N   UNL A   1      38.779  32.640  33.468  1.00  0.00    -0.354 N 
ATOM     50  C   UNL A   1      39.329  29.852  30.207  1.00  0.00     0.074 A 
ATOM     51  C   UNL A   1      38.365  30.086  29.154  1.00  0.00     0.031 C 
ATOM     52  C   UNL A   1      37.791  34.309  34.579  1.00  0.00     0.029 A 
ATOM     53  C   UNL A   1      38.841  33.300  34.670  1.00  0.00     0.049 A 
ATOM     54  H   UNL A   1      39.385  31.902  33.226  1.00  0.00     0.167 HD
ATOM     55  C   UNL A   1      40.282  28.892  30.170  1.00  0.00     0.037 A 
ATOM     56  C   UNL A   1      39.651  33.108  35.730  1.00  0.00     0.037 A 
ATOM     57  C   UNL A   1      41.253  28.678  31.210  1.00  0.00     0.049 A 
ATOM     58  C   UNL A   1      40.694  32.026  35.667  1.00  0.00     0.074 A 
ATOM     59  C   UNL A   1      42.298  27.771  31.241  1.00  0.00     0.029 A 
ATOM     60  N   UNL A   1      41.295  29.377  32.407  1.00  0.00    -0.354 N 
ATOM     61  N   UNL A   1      40.958  31.185  34.696  1.00  0.00    -0.248 NA
ATOM     62  C   UNL A   1      41.558  31.870  36.846  1.00  0.00     0.031 C 
ATOM     63  C   UNL A   1      42.940  27.886  32.477  1.00  0.00     0.029 A 
ATOM     64  C   UNL A   1      42.333  28.905  33.195  1.00  0.00     0.049 A 
ATOM     65  H   UNL A   1      40.679  30.103  32.659  1.00  0.00     0.167 HD
ATOM     66  C   UNL A   1      42.034  30.423  35.133  1.00  0.00     0.074 A 
ATOM     67  C   UNL A   1      42.385  30.913  36.450  1.00  0.00     0.031 C 
ATOM     68  C   UNL A   1      42.674  29.410  34.500  1.00  0.00     0.037 A 
BRANCH  55  69
ATOM     69  C   UNL A   1      40.322  27.999  28.962  1.00  0.00     0.064 A 
ATOM     70  C   UNL A   1      41.076  28.330  27.826  1.00  0.00     0.173 A 
ATOM     71  C   UNL A   1      39.626  26.780  28.954  1.00  0.00     0.173 A 
ATOM     72  F   UNL A   1      41.750  29.489  27.777  1.00  0.00    -0.203 F 
ATOM     73  C   UNL A   1      41.106  27.491  26.714  1.00  0.00     0.198 A 
ATOM     74  C   UNL A   1      39.685  25.928  27.854  1.00  0.00     0.198 A 
ATOM     75  F   UNL A   1      38.894  26.412  30.016  1.00  0.00    -0.203 F 
ATOM     76  F   UNL A   1      41.790  27.855  25.621  1.00  0.00    -0.200 F 
ATOM     77  C   UNL A   1      40.418  26.288  26.733  1.00  0.00     0.200 A 
ATOM     78  F   UNL A   1      39.032  24.758  27.880  1.00  0.00    -0.200 F 
ATOM     79  F   UNL A   1      40.455  25.477  25.667  1.00  0.00    -0.200 F 
ENDBRANCH  55  69
BRANCH  56  80
ATOM     80  C   UNL A   1      39.521  33.973  36.932  1.00  0.00     0.064 A 
ATOM     81  C   UNL A   1      40.167  35.216  36.999  1.00  0.00     0.173 A 
ATOM     82  C   UNL A   1      38.759  33.576  38.041  1.00  0.00     0.173 A 
ATOM     83  F   UNL A   1      40.925  35.631  35.973  1.00  0.00    -0.203 F 
ATOM     84  C   UNL A   1      40.077  36.015  38.136  1.00  0.00     0.198 A 
ATOM     85  C   UNL A   1      38.644  34.389  39.165  1.00  0.00     0.198 A 
ATOM     86  F   UNL A   1      38.115  32.399  38.026  1.00  0.00    -0.203 F 
ATOM     87  F   UNL A   1      40.748  37.174  38.193  1.00  0.00    -0.200 F 
ATOM     88  C   UNL A   1      39.311  35.605  39.217  1.00  0.00     0.200 A 
ATOM     89  F   UNL A   1      37.890  33.996  40.200  1.00  0.00    -0.200 F 
ATOM     90  F   UNL A   1      39.221  36.374  40.309  1.00  0.00    -0.200 F 
ENDBRANCH  56  80
BRANCH  68  91
ATOM     91  C   UNL A   1      43.845  28.787  35.206  1.00  0.00     0.064 A 
ATOM     92  C   UNL A   1      45.150  29.274  35.043  1.00  0.00     0.173 A 
ATOM     93  C   UNL A   1      43.649  27.714  36.090  1.00  0.00     0.173 A 
ATOM     94  F   UNL A   1      45.393  30.288  34.198  1.00  0.00    -0.203 F 
ATOM     95  C   UNL A   1      46.220  28.692  35.718  1.00  0.00     0.198 A 
ATOM     96  C   UNL A   1      44.717  27.157  36.789  1.00  0.00     0.198 A 
ATOM     97  F   UNL A   1      42.420  27.216  36.287  1.00  0.00    -0.203 F 
ATOM     98  F   UNL A   1      47.465  29.140  35.507  1.00  0.00    -0.200 F 
ATOM     99  C   UNL A   1      46.001  27.641  36.595  1.00  0.00     0.200 A 
ATOM    100  F   UNL A   1      44.501  26.152  37.648  1.00  0.00    -0.200 F 
ATOM    101  F   UNL A   1      47.031  27.088  37.251  1.00  0.00    -0.200 F 
ENDBRANCH  68  91
ENDBRANCH  42  43
ENDBRANCH  34  37
ENDBRANCH  32  33
ENDBRANCH  31  32
ENDBRANCH   1  31
TORSDOF 15
ENDMDL
MODEL 3
REMARK VINA RESULT:     -14.5      0.556      7.061
REMARK SMILES O=C(C[C@H](NC(=O)[C@]12C[C@H]3C[C@H](C[C@H](C3)C1)C2)c1cccc([N+](=O)[O-])c1)NCCCNC(=O)c1ccc(-c2c3nc(c(-c4c(F)c(F)c(F)c(F)c4F)c4ccc([nH]4)c(-c4c(F)c(F)c(F)c(F)c4F)c4nc(c(-c5c(F)c(F)c(F)c(F)c5F)c5ccc2[nH]5)C=C4)C=C3)cc1
REMARK SMILES IDX 28 1 27 2 1 3 2 4 3 6 4 7 18 8 19 9 26 10 20 11 22 12 21 13
REMARK SMILES IDX 23 14 24 15 25 16 5 17 6 18 7 20 8 21 9 22 16 23 17 24 10 25
REMARK SMILES IDX 14 26 12 27 11 28 15 29 13 30 29 31 30 32 31 33 32 34 33 36
REMARK SMILES IDX 34 37 35 38 96 39 36 40 95 41 37 42 38 43 39 44 89 45 40 46
REMARK SMILES IDX 94 47 88 48 90 49 41 50 93 51 87 52 86 53 42 55 74 56 54 57
REMARK SMILES IDX 73 58 55 59 58 60 72 61 91 62 56 63 57 64 71 66 92 67 59 68
REMARK SMILES IDX 43 69 44 70 52 71 45 72 46 73 50 74 53 75 47 76 48 77 51 78
REMARK SMILES IDX 49 79 75 80 76 81 84 82 77 83 78 84 82 85 85 86 79 87 80 88
REMARK SMILES IDX 83 89 81 90 60 91 61 92 69 93 62 94 63 95 67 96 70 97 64 98
REMARK SMILES IDX 65 99 68 100 66 101
REMARK H PARENT 27 5 5 19 31 35 90 54 58 65
REMARK Flexibility Score: inf
ROOT
ATOM      1  C   UNL A   1      31.757  30.572  26.563  1.00  0.00     0.117 C 
ENDROOT
BRANCH   1   2
ATOM      2  N   UNL A   1      31.936  30.303  25.152  1.00  0.00    -0.356 N 
ATOM      3  O   UNL A   1      33.619  28.774  25.418  1.00  0.00    -0.275 OA
ATOM      4  C   UNL A   1      32.783  29.325  24.707  1.00  0.00     0.222 C 
ATOM      5  H   UNL A   1      31.434  30.838  24.496  1.00  0.00     0.163 HD
BRANCH   4   6
ATOM      6  C   UNL A   1      32.622  28.954  23.252  1.00  0.00     0.129 C 
BRANCH   6   7
ATOM      7  C   UNL A   1      31.589  27.851  22.912  1.00  0.00     0.122 C 
BRANCH   7   8
ATOM      8  C   UNL A   1      30.127  28.295  22.885  1.00  0.00    -0.018 A 
ATOM      9  C   UNL A   1      29.164  27.414  23.426  1.00  0.00     0.006 A 
ATOM     10  C   UNL A   1      29.678  29.517  22.360  1.00  0.00     0.091 A 
ATOM     11  C   UNL A   1      27.814  27.758  23.501  1.00  0.00     0.007 A 
ATOM     12  C   UNL A   1      28.312  29.855  22.428  1.00  0.00     0.269 A 
ATOM     13  C   UNL A   1      27.383  28.983  23.007  1.00  0.00     0.085 A 
BRANCH  12  14
ATOM     14  N   UNL A   1      27.852  31.143  21.892  1.00  0.00     0.062 N 
ATOM     15  O   UNL A   1      27.683  31.231  20.668  1.00  0.00    -0.258 OA
ATOM     16  O   UNL A   1      27.653  32.059  22.702  1.00  0.00    -0.258 OA
ENDBRANCH  12  14
ENDBRANCH   7   8
BRANCH   7  17
ATOM     17  N   UNL A   1      32.029  27.085  21.745  1.00  0.00    -0.348 N 
ATOM     18  C   UNL A   1      32.536  25.833  21.593  1.00  0.00     0.226 C 
ATOM     19  H   UNL A   1      31.939  27.579  20.898  1.00  0.00     0.164 HD
ATOM     20  O   UNL A   1      32.905  25.577  20.438  1.00  0.00    -0.274 OA
BRANCH  18  21
ATOM     21  C   UNL A   1      32.657  24.744  22.694  1.00  0.00     0.050 C 
ATOM     22  C   UNL A   1      31.382  24.315  23.440  1.00  0.00     0.020 C 
ATOM     23  C   UNL A   1      33.671  25.266  23.755  1.00  0.00     0.020 C 
ATOM     24  C   UNL A   1      33.278  23.472  22.056  1.00  0.00     0.020 C 
ATOM     25  C   UNL A   1      31.650  23.261  24.518  1.00  0.00    -0.010 C 
ATOM     26  C   UNL A   1      33.948  24.205  24.836  1.00  0.00    -0.010 C 
ATOM     27  C   UNL A   1      33.550  22.394  23.126  1.00  0.00    -0.010 C 
ATOM     28  C   UNL A   1      32.238  22.021  23.834  1.00  0.00     0.007 C 
ATOM     29  C   UNL A   1      32.635  23.838  25.539  1.00  0.00     0.007 C 
ATOM     30  C   UNL A   1      34.532  22.946  24.174  1.00  0.00     0.007 C 
ENDBRANCH  18  21
ENDBRANCH   7  17
ENDBRANCH   6   7
ENDBRANCH   4   6
ENDBRANCH   1   2
BRANCH   1  31
ATOM     31  C   UNL A   1      31.494  32.039  26.830  1.00  0.00     0.042 C 
BRANCH  31  32
ATOM     32  C   UNL A   1      32.743  32.822  27.208  1.00  0.00     0.118 C 
BRANCH  32  33
ATOM     33  N   UNL A   1      32.459  34.189  27.628  1.00  0.00    -0.352 N 
ATOM     34  C   UNL A   1      33.017  34.919  28.651  1.00  0.00     0.251 C 
ATOM     35  H   UNL A   1      31.768  34.656  27.103  1.00  0.00     0.163 HD
ATOM     36  O   UNL A   1      32.544  35.997  28.971  1.00  0.00    -0.269 OA
BRANCH  34  37
ATOM     37  C   UNL A   1      34.171  34.361  29.386  1.00  0.00     0.039 A 
ATOM     38  C   UNL A   1      33.934  33.599  30.531  1.00  0.00     0.014 A 
ATOM     39  C   UNL A   1      35.473  34.554  28.919  1.00  0.00     0.014 A 
ATOM     40  C   UNL A   1      35.002  32.960  31.162  1.00  0.00     0.010 A 
ATOM     41  C   UNL A   1      36.520  33.841  29.491  1.00  0.00     0.010 A 
ATOM     42  C   UNL A   1      36.295  33.036  30.619  1.00  0.00    -0.014 A 
BRANCH  42  43
ATOM     43  C   UNL A   1      37.426  32.283  31.214  1.00  0.00     0.031 A 
ATOM     44  C   UNL A   1      37.929  32.638  32.585  1.00  0.00     0.074 A 
ATOM     45  C   UNL A   1      38.044  31.326  30.493  1.00  0.00     0.049 A 
ATOM     46  N   UNL A   1      38.947  32.148  33.247  1.00  0.00    -0.248 NA
ATOM     47  C   UNL A   1      37.210  33.707  33.297  1.00  0.00     0.031 C 
ATOM     48  C   UNL A   1      37.682  30.927  29.131  1.00  0.00     0.029 A 
ATOM     49  N   UNL A   1      39.113  30.523  30.800  1.00  0.00    -0.354 N 
ATOM     50  C   UNL A   1      38.997  32.857  34.439  1.00  0.00     0.074 A 
ATOM     51  C   UNL A   1      37.948  33.852  34.387  1.00  0.00     0.031 C 
ATOM     52  C   UNL A   1      38.498  29.938  28.732  1.00  0.00     0.029 A 
ATOM     53  C   UNL A   1      39.465  29.663  29.789  1.00  0.00     0.049 A 
ATOM     54  H   UNL A   1      39.584  30.560  31.665  1.00  0.00     0.167 HD
ATOM     55  C   UNL A   1      39.826  32.678  35.494  1.00  0.00     0.037 A 
ATOM     56  C   UNL A   1      40.461  28.759  29.721  1.00  0.00     0.037 A 
ATOM     57  C   UNL A   1      40.853  31.671  35.551  1.00  0.00     0.049 A 
ATOM     58  C   UNL A   1      41.376  28.587  30.903  1.00  0.00     0.074 A 
ATOM     59  C   UNL A   1      41.706  31.367  36.598  1.00  0.00     0.029 A 
ATOM     60  N   UNL A   1      41.170  30.806  34.513  1.00  0.00    -0.354 N 
ATOM     61  N   UNL A   1      41.367  29.213  32.055  1.00  0.00    -0.248 NA
ATOM     62  C   UNL A   1      42.437  27.577  30.778  1.00  0.00     0.031 C 
ATOM     63  C   UNL A   1      42.573  30.356  36.175  1.00  0.00     0.029 A 
ATOM     64  C   UNL A   1      42.223  29.986  34.886  1.00  0.00     0.049 A 
ATOM     65  H   UNL A   1      40.714  30.780  33.641  1.00  0.00     0.167 HD
ATOM     66  C   UNL A   1      42.397  28.653  32.802  1.00  0.00     0.074 A 
ATOM     67  C   UNL A   1      42.999  27.626  31.978  1.00  0.00     0.031 C 
ATOM     68  C   UNL A   1      42.805  28.963  34.057  1.00  0.00     0.037 A 
BRANCH  55  69
ATOM     69  C   UNL A   1      39.654  33.589  36.676  1.00  0.00     0.064 A 
ATOM     70  C   UNL A   1      40.300  34.833  36.746  1.00  0.00     0.173 A 
ATOM     71  C   UNL A   1      38.806  33.231  37.735  1.00  0.00     0.173 A 
ATOM     72  F   UNL A   1      41.131  35.220  35.766  1.00  0.00    -0.203 F 
ATOM     73  C   UNL A   1      40.129  35.670  37.847  1.00  0.00     0.198 A 
ATOM     74  C   UNL A   1      38.612  34.084  38.818  1.00  0.00     0.198 A 
ATOM     75  F   UNL A   1      38.160  32.055  37.716  1.00  0.00    -0.203 F 
ATOM     76  F   UNL A   1      40.798  36.828  37.916  1.00  0.00    -0.200 F 
ATOM     77  C   UNL A   1      39.279  35.298  38.877  1.00  0.00     0.200 A 
ATOM     78  F   UNL A   1      37.777  33.729  39.805  1.00  0.00    -0.200 F 
ATOM     79  F   UNL A   1      39.108  36.107  39.932  1.00  0.00    -0.200 F 
ENDBRANCH  55  69
BRANCH  56  80
ATOM     80  C   UNL A   1      40.634  27.931  28.497  1.00  0.00     0.064 A 
ATOM     81  C   UNL A   1      40.021  26.676  28.385  1.00  0.00     0.173 A 
ATOM     82  C   UNL A   1      41.418  28.372  27.421  1.00  0.00     0.173 A 
ATOM     83  F   UNL A   1      39.278  26.201  29.396  1.00  0.00    -0.203 F 
ATOM     84  C   UNL A   1      40.206  25.882  27.255  1.00  0.00     0.198 A 
ATOM     85  C   UNL A   1      41.578  27.591  26.279  1.00  0.00     0.198 A 
ATOM     86  F   UNL A   1      42.021  29.569  27.475  1.00  0.00    -0.203 F 
ATOM     87  F   UNL A   1      39.651  24.663  27.197  1.00  0.00    -0.200 F 
ATOM     88  C   UNL A   1      40.980  26.341  26.201  1.00  0.00     0.200 A 
ATOM     89  F   UNL A   1      42.312  28.046  25.255  1.00  0.00    -0.200 F 
ATOM     90  F   UNL A   1      41.156  25.580  25.113  1.00  0.00    -0.200 F 
ENDBRANCH  56  80
BRANCH  68  91
ATOM     91  C   UNL A   1      43.933  28.155  34.633  1.00  0.00     0.064 A 
ATOM     92  C   UNL A   1      45.267  28.576  34.538  1.00  0.00     0.173 A 
ATOM     93  C   UNL A   1      43.668  26.963  35.326  1.00  0.00     0.173 A 
ATOM     94  F   UNL A   1      45.575  29.701  33.874  1.00  0.00    -0.203 F 
ATOM     95  C   UNL A   1      46.297  27.820  35.092  1.00  0.00     0.198 A 
ATOM     96  C   UNL A   1      44.697  26.228  35.908  1.00  0.00     0.198 A 
ATOM     97  F   UNL A   1      42.409  26.520  35.452  1.00  0.00    -0.203 F 
ATOM     98  F   UNL A   1      47.569  28.216  34.945  1.00  0.00    -0.200 F 
ATOM     99  C   UNL A   1      46.010  26.652  35.783  1.00  0.00     0.200 A 
ATOM    100  F   UNL A   1      44.416  25.108  36.588  1.00  0.00    -0.200 F 
ATOM    101  F   UNL A   1      47.002  25.931  36.323  1.00  0.00    -0.200 F 
ENDBRANCH  68  91
ENDBRANCH  42  43
ENDBRANCH  34  37
ENDBRANCH  32  33
ENDBRANCH  31  32
ENDBRANCH   1  31
TORSDOF 15
ENDMDL
