MODEL 1
REMARK VINA RESULT:     -11.6      0.000      0.000
REMARK SMILES Cc1c(I)c(C(=O)NCCCNC(=O)c2ccc(-c3c4nc(c(-c5c(F)c(F)c(F)c(F)c5F)c5ccc([nH]5)c(-c5c(F)c(F)c(F)c(F)c5F)c5nc(c(-c6c(F)c(F)c(F)c(F)c6F)c6ccc3[nH]6)C=C5)C=C4)cc2)nn1C(F)F
REMARK SMILES IDX 10 1 9 2 8 3 6 4 7 5 5 7 1 8 2 9 3 10 79 11 4 12 78 13 80 14
REMARK SMILES IDX 81 15 82 16 11 17 12 18 13 19 14 21 15 22 16 23 77 24 17 25
REMARK SMILES IDX 76 26 18 27 19 28 20 29 70 30 21 31 75 32 69 33 71 34 22 35
REMARK SMILES IDX 74 36 68 37 67 38 23 40 55 41 35 42 54 43 36 44 39 45 53 46
REMARK SMILES IDX 72 47 37 48 38 49 52 51 73 52 40 53 24 54 25 55 33 56 26 57
REMARK SMILES IDX 27 58 31 59 34 60 28 61 29 62 32 63 30 64 56 65 57 66 65 67
REMARK SMILES IDX 58 68 59 69 63 70 66 71 60 72 61 73 64 74 62 75 41 76 42 77
REMARK SMILES IDX 50 78 43 79 44 80 48 81 51 82 45 83 46 84 49 85 47 86
REMARK H PARENT 8 6 12 20 71 39 39 50
REMARK Flexibility Score: inf
ROOT
ATOM      1  C   UNL A   1      37.735  32.354  31.181  1.00  0.00     0.042 C 
ENDROOT
BRANCH   1   2
ATOM      2  C   UNL A   1      37.415  33.430  32.223  1.00  0.00     0.118 C 
BRANCH   2   3
ATOM      3  N   UNL A   1      36.199  33.138  32.969  1.00  0.00    -0.351 N 
ATOM      4  C   UNL A   1      34.872  33.345  32.649  1.00  0.00     0.272 C 
ATOM      5  O   UNL A   1      34.047  32.937  33.471  1.00  0.00    -0.267 OA
ATOM      6  H   UNL A   1      36.348  32.725  33.850  1.00  0.00     0.163 HD
BRANCH   4   7
ATOM      7  C   UNL A   1      34.478  33.999  31.381  1.00  0.00     0.163 A 
ATOM      8  C   UNL A   1      33.133  36.549  29.012  1.00  0.00     0.068 C 
ATOM      9  C   UNL A   1      33.696  35.440  29.827  1.00  0.00     0.056 A 
ATOM     10  C   UNL A   1      33.971  35.314  31.176  1.00  0.00     0.067 A 
ATOM     11  N   UNL A   1      34.039  34.220  29.287  1.00  0.00    -0.207 N 
ATOM     12  I   UNL A   1      33.636  36.766  32.565  1.00  0.00    -0.040 I 
ATOM     13  N   UNL A   1      34.580  33.376  30.192  1.00  0.00    -0.161 NA
BRANCH  11  14
ATOM     14  C   UNL A   1      33.840  33.758  27.911  1.00  0.00     0.465 C 
ATOM     15  F   UNL A   1      34.714  32.770  27.579  1.00  0.00    -0.184 F 
ATOM     16  F   UNL A   1      32.587  33.255  27.735  1.00  0.00    -0.184 F 
ENDBRANCH  11  14
ENDBRANCH   4   7
ENDBRANCH   2   3
ENDBRANCH   1   2
BRANCH   1  17
ATOM     17  C   UNL A   1      37.138  31.003  31.556  1.00  0.00     0.118 C 
BRANCH  17  18
ATOM     18  N   UNL A   1      36.111  30.562  30.611  1.00  0.00    -0.352 N 
ATOM     19  C   UNL A   1      36.255  29.924  29.395  1.00  0.00     0.251 C 
ATOM     20  H   UNL A   1      35.183  30.747  30.882  1.00  0.00     0.163 HD
ATOM     21  O   UNL A   1      35.340  29.910  28.589  1.00  0.00    -0.269 OA
BRANCH  19  22
ATOM     22  C   UNL A   1      37.540  29.278  29.066  1.00  0.00     0.039 A 
ATOM     23  C   UNL A   1      38.254  29.677  27.934  1.00  0.00     0.014 A 
ATOM     24  C   UNL A   1      38.038  28.280  29.900  1.00  0.00     0.014 A 
ATOM     25  C   UNL A   1      39.517  29.136  27.709  1.00  0.00     0.010 A 
ATOM     26  C   UNL A   1      39.337  27.843  29.753  1.00  0.00     0.010 A 
ATOM     27  C   UNL A   1      40.073  28.247  28.647  1.00  0.00    -0.014 A 
BRANCH  27  28
ATOM     28  C   UNL A   1      41.484  27.877  28.541  1.00  0.00     0.031 A 
ATOM     29  C   UNL A   1      41.713  26.629  27.765  1.00  0.00     0.074 A 
ATOM     30  C   UNL A   1      42.519  28.651  28.931  1.00  0.00     0.049 A 
ATOM     31  N   UNL A   1      42.103  25.490  28.230  1.00  0.00    -0.248 NA
ATOM     32  C   UNL A   1      41.326  26.591  26.346  1.00  0.00     0.031 C 
ATOM     33  C   UNL A   1      42.467  30.032  29.422  1.00  0.00     0.029 A 
ATOM     34  N   UNL A   1      43.861  28.400  28.876  1.00  0.00    -0.354 N 
ATOM     35  C   UNL A   1      42.224  24.647  27.128  1.00  0.00     0.074 A 
ATOM     36  C   UNL A   1      41.557  25.311  26.041  1.00  0.00     0.031 C 
ATOM     37  C   UNL A   1      43.705  30.569  29.393  1.00  0.00     0.029 A 
ATOM     38  C   UNL A   1      44.657  29.528  29.054  1.00  0.00     0.049 A 
ATOM     39  H   UNL A   1      44.233  27.502  28.724  1.00  0.00     0.167 HD
ATOM     40  C   UNL A   1      43.128  23.629  27.154  1.00  0.00     0.037 A 
ATOM     41  C   UNL A   1      46.003  29.609  28.926  1.00  0.00     0.037 A 
ATOM     42  C   UNL A   1      43.581  23.398  28.505  1.00  0.00     0.049 A 
ATOM     43  C   UNL A   1      46.546  28.245  29.106  1.00  0.00     0.074 A 
ATOM     44  C   UNL A   1      43.036  22.936  29.684  1.00  0.00     0.029 A 
ATOM     45  N   UNL A   1      44.724  24.078  28.830  1.00  0.00    -0.354 N 
ATOM     46  N   UNL A   1      46.535  27.607  30.243  1.00  0.00    -0.248 NA
ATOM     47  C   UNL A   1      46.824  27.427  27.934  1.00  0.00     0.031 C 
ATOM     48  C   UNL A   1      43.759  23.590  30.730  1.00  0.00     0.029 A 
ATOM     49  C   UNL A   1      44.752  24.386  30.159  1.00  0.00     0.049 A 
ATOM     50  H   UNL A   1      45.432  24.313  28.189  1.00  0.00     0.167 HD
ATOM     51  C   UNL A   1      46.331  26.290  29.886  1.00  0.00     0.074 A 
ATOM     52  C   UNL A   1      46.723  26.215  28.484  1.00  0.00     0.031 C 
ATOM     53  C   UNL A   1      45.552  25.481  30.663  1.00  0.00     0.037 A 
BRANCH  40  54
ATOM     54  C   UNL A   1      44.005  23.218  25.977  1.00  0.00     0.064 A 
ATOM     55  C   UNL A   1      44.063  21.848  25.632  1.00  0.00     0.173 A 
ATOM     56  C   UNL A   1      45.036  24.017  25.435  1.00  0.00     0.173 A 
ATOM     57  F   UNL A   1      43.141  20.988  26.092  1.00  0.00    -0.203 F 
ATOM     58  C   UNL A   1      45.128  21.309  24.903  1.00  0.00     0.198 A 
ATOM     59  C   UNL A   1      46.070  23.481  24.666  1.00  0.00     0.198 A 
ATOM     60  F   UNL A   1      45.161  25.317  25.713  1.00  0.00    -0.203 F 
ATOM     61  F   UNL A   1      45.212  19.983  24.728  1.00  0.00    -0.200 F 
ATOM     62  C   UNL A   1      46.138  22.125  24.432  1.00  0.00     0.200 A 
ATOM     63  F   UNL A   1      47.052  24.287  24.236  1.00  0.00    -0.200 F 
ATOM     64  F   UNL A   1      47.197  21.605  23.799  1.00  0.00    -0.200 F 
ENDBRANCH  40  54
BRANCH  41  65
ATOM     65  C   UNL A   1      46.856  30.740  28.491  1.00  0.00     0.064 A 
ATOM     66  C   UNL A   1      46.585  31.431  27.297  1.00  0.00     0.173 A 
ATOM     67  C   UNL A   1      47.756  31.356  29.380  1.00  0.00     0.173 A 
ATOM     68  F   UNL A   1      45.717  30.930  26.406  1.00  0.00    -0.203 F 
ATOM     69  C   UNL A   1      47.136  32.690  27.035  1.00  0.00     0.198 A 
ATOM     70  C   UNL A   1      48.313  32.608  29.113  1.00  0.00     0.198 A 
ATOM     71  F   UNL A   1      48.036  30.804  30.569  1.00  0.00    -0.203 F 
ATOM     72  F   UNL A   1      46.786  33.353  25.925  1.00  0.00    -0.200 F 
ATOM     73  C   UNL A   1      47.986  33.285  27.951  1.00  0.00     0.200 A 
ATOM     74  F   UNL A   1      49.110  33.189  30.021  1.00  0.00    -0.200 F 
ATOM     75  F   UNL A   1      48.453  34.522  27.737  1.00  0.00    -0.200 F 
ENDBRANCH  41  65
BRANCH  53  76
ATOM     76  C   UNL A   1      45.406  25.859  32.107  1.00  0.00     0.064 A 
ATOM     77  C   UNL A   1      46.359  25.609  33.108  1.00  0.00     0.173 A 
ATOM     78  C   UNL A   1      44.246  26.554  32.479  1.00  0.00     0.173 A 
ATOM     79  F   UNL A   1      47.534  25.035  32.820  1.00  0.00    -0.203 F 
ATOM     80  C   UNL A   1      46.126  25.981  34.431  1.00  0.00     0.198 A 
ATOM     81  C   UNL A   1      44.036  26.962  33.791  1.00  0.00     0.198 A 
ATOM     82  F   UNL A   1      43.319  26.858  31.557  1.00  0.00    -0.203 F 
ATOM     83  F   UNL A   1      47.030  25.694  35.379  1.00  0.00    -0.200 F 
ATOM     84  C   UNL A   1      44.967  26.659  34.770  1.00  0.00     0.200 A 
ATOM     85  F   UNL A   1      42.934  27.658  34.102  1.00  0.00    -0.200 F 
ATOM     86  F   UNL A   1      44.752  27.038  36.038  1.00  0.00    -0.200 F 
ENDBRANCH  53  76
ENDBRANCH  27  28
ENDBRANCH  19  22
ENDBRANCH  17  18
ENDBRANCH   1  17
TORSDOF 11
ENDMDL
MODEL 2
REMARK VINA RESULT:     -11.5      3.985      8.514
REMARK SMILES Cc1c(I)c(C(=O)NCCCNC(=O)c2ccc(-c3c4nc(c(-c5c(F)c(F)c(F)c(F)c5F)c5ccc([nH]5)c(-c5c(F)c(F)c(F)c(F)c5F)c5nc(c(-c6c(F)c(F)c(F)c(F)c6F)c6ccc3[nH]6)C=C5)C=C4)cc2)nn1C(F)F
REMARK SMILES IDX 10 1 9 2 8 3 6 4 7 5 5 7 1 8 2 9 3 10 79 11 4 12 78 13 80 14
REMARK SMILES IDX 81 15 82 16 11 17 12 18 13 19 14 21 15 22 16 23 77 24 17 25
REMARK SMILES IDX 76 26 18 27 19 28 20 29 70 30 21 31 75 32 69 33 71 34 22 35
REMARK SMILES IDX 74 36 68 37 67 38 23 40 55 41 35 42 54 43 36 44 39 45 53 46
REMARK SMILES IDX 72 47 37 48 38 49 52 51 73 52 40 53 24 54 25 55 33 56 26 57
REMARK SMILES IDX 27 58 31 59 34 60 28 61 29 62 32 63 30 64 56 65 57 66 65 67
REMARK SMILES IDX 58 68 59 69 63 70 66 71 60 72 61 73 64 74 62 75 41 76 42 77
REMARK SMILES IDX 50 78 43 79 44 80 48 81 51 82 45 83 46 84 49 85 47 86
REMARK H PARENT 8 6 12 20 71 39 39 50
REMARK Flexibility Score: inf
ROOT
ATOM      1  C   UNL A   1      33.688  29.676  27.205  1.00  0.00     0.042 C 
ENDROOT
BRANCH   1   2
ATOM      2  C   UNL A   1      32.723  29.965  26.051  1.00  0.00     0.118 C 
BRANCH   2   3
ATOM      3  N   UNL A   1      33.300  29.654  24.751  1.00  0.00    -0.351 N 
ATOM      4  C   UNL A   1      32.730  29.108  23.618  1.00  0.00     0.272 C 
ATOM      5  O   UNL A   1      33.468  29.012  22.634  1.00  0.00    -0.267 OA
ATOM      6  H   UNL A   1      34.257  29.867  24.665  1.00  0.00     0.163 HD
BRANCH   4   7
ATOM      7  C   UNL A   1      31.311  28.687  23.595  1.00  0.00     0.163 A 
ATOM      8  C   UNL A   1      28.282  26.524  23.856  1.00  0.00     0.068 C 
ATOM      9  C   UNL A   1      29.390  27.505  23.708  1.00  0.00     0.056 A 
ATOM     10  C   UNL A   1      30.748  27.431  23.957  1.00  0.00     0.067 A 
ATOM     11  N   UNL A   1      29.196  28.777  23.214  1.00  0.00    -0.207 N 
ATOM     12  I   UNL A   1      31.705  25.776  24.660  1.00  0.00    -0.040 I 
ATOM     13  N   UNL A   1      30.323  29.519  23.214  1.00  0.00    -0.161 NA
BRANCH  11  14
ATOM     14  C   UNL A   1      27.962  29.353  22.675  1.00  0.00     0.465 C 
ATOM     15  F   UNL A   1      27.559  30.440  23.387  1.00  0.00    -0.184 F 
ATOM     16  F   UNL A   1      28.130  29.762  21.387  1.00  0.00    -0.184 F 
ENDBRANCH  11  14
ENDBRANCH   4   7
ENDBRANCH   2   3
ENDBRANCH   1   2
BRANCH   1  17
ATOM     17  C   UNL A   1      34.781  30.734  27.311  1.00  0.00     0.118 C 
BRANCH  17  18
ATOM     18  N   UNL A   1      34.475  31.757  28.312  1.00  0.00    -0.352 N 
ATOM     19  C   UNL A   1      35.023  31.948  29.565  1.00  0.00     0.251 C 
ATOM     20  H   UNL A   1      33.777  32.401  28.055  1.00  0.00     0.163 HD
ATOM     21  O   UNL A   1      34.451  32.634  30.395  1.00  0.00    -0.269 OA
BRANCH  19  22
ATOM     22  C   UNL A   1      36.301  31.293  29.902  1.00  0.00     0.039 A 
ATOM     23  C   UNL A   1      36.324  29.940  30.250  1.00  0.00     0.014 A 
ATOM     24  C   UNL A   1      37.482  32.031  29.855  1.00  0.00     0.014 A 
ATOM     25  C   UNL A   1      37.553  29.317  30.450  1.00  0.00     0.010 A 
ATOM     26  C   UNL A   1      38.699  31.388  29.921  1.00  0.00     0.010 A 
ATOM     27  C   UNL A   1      38.743  30.038  30.243  1.00  0.00    -0.014 A 
BRANCH  27  28
ATOM     28  C   UNL A   1      40.020  29.326  30.208  1.00  0.00     0.031 A 
ATOM     29  C   UNL A   1      40.623  29.121  31.552  1.00  0.00     0.074 A 
ATOM     30  C   UNL A   1      40.547  28.735  29.114  1.00  0.00     0.049 A 
ATOM     31  N   UNL A   1      41.678  29.695  32.023  1.00  0.00    -0.248 NA
ATOM     32  C   UNL A   1      39.897  28.308  32.541  1.00  0.00     0.031 C 
ATOM     33  C   UNL A   1      39.926  28.581  27.795  1.00  0.00     0.029 A 
ATOM     34  N   UNL A   1      41.723  28.052  28.977  1.00  0.00    -0.354 N 
ATOM     35  C   UNL A   1      41.879  29.150  33.288  1.00  0.00     0.074 A 
ATOM     36  C   UNL A   1      40.664  28.460  33.625  1.00  0.00     0.031 C 
ATOM     37  C   UNL A   1      40.610  27.663  27.078  1.00  0.00     0.029 A 
ATOM     38  C   UNL A   1      41.808  27.298  27.810  1.00  0.00     0.049 A 
ATOM     39  H   UNL A   1      42.445  28.088  29.644  1.00  0.00     0.167 HD
ATOM     40  C   UNL A   1      43.141  29.071  33.796  1.00  0.00     0.037 A 
ATOM     41  C   UNL A   1      42.788  26.428  27.467  1.00  0.00     0.037 A 
ATOM     42  C   UNL A   1      44.040  29.904  33.031  1.00  0.00     0.049 A 
ATOM     43  C   UNL A   1      43.995  26.797  28.236  1.00  0.00     0.074 A 
ATOM     44  C   UNL A   1      44.219  31.253  32.812  1.00  0.00     0.029 A 
ATOM     45  N   UNL A   1      44.681  29.243  32.019  1.00  0.00    -0.354 N 
ATOM     46  N   UNL A   1      44.677  27.889  28.032  1.00  0.00    -0.248 NA
ATOM     47  C   UNL A   1      44.285  26.105  29.484  1.00  0.00     0.031 C 
ATOM     48  C   UNL A   1      44.767  31.364  31.496  1.00  0.00     0.029 A 
ATOM     49  C   UNL A   1      44.951  30.082  30.977  1.00  0.00     0.049 A 
ATOM     50  H   UNL A   1      44.917  28.288  32.040  1.00  0.00     0.167 HD
ATOM     51  C   UNL A   1      45.104  28.259  29.291  1.00  0.00     0.074 A 
ATOM     52  C   UNL A   1      45.019  27.042  30.089  1.00  0.00     0.031 C 
ATOM     53  C   UNL A   1      45.159  29.578  29.637  1.00  0.00     0.037 A 
BRANCH  40  54
ATOM     54  C   UNL A   1      43.686  27.884  34.580  1.00  0.00     0.064 A 
ATOM     55  C   UNL A   1      43.589  26.598  34.000  1.00  0.00     0.173 A 
ATOM     56  C   UNL A   1      43.944  27.898  35.968  1.00  0.00     0.173 A 
ATOM     57  F   UNL A   1      43.340  26.456  32.689  1.00  0.00    -0.203 F 
ATOM     58  C   UNL A   1      43.633  25.430  34.769  1.00  0.00     0.198 A 
ATOM     59  C   UNL A   1      44.036  26.727  36.722  1.00  0.00     0.198 A 
ATOM     60  F   UNL A   1      44.004  29.027  36.678  1.00  0.00    -0.203 F 
ATOM     61  F   UNL A   1      43.389  24.245  34.194  1.00  0.00    -0.200 F 
ATOM     62  C   UNL A   1      43.844  25.497  36.132  1.00  0.00     0.200 A 
ATOM     63  F   UNL A   1      44.221  26.814  38.048  1.00  0.00    -0.200 F 
ATOM     64  F   UNL A   1      43.812  24.389  36.884  1.00  0.00    -0.200 F 
ENDBRANCH  40  54
BRANCH  41  65
ATOM     65  C   UNL A   1      42.726  25.192  26.651  1.00  0.00     0.064 A 
ATOM     66  C   UNL A   1      43.566  25.020  25.537  1.00  0.00     0.173 A 
ATOM     67  C   UNL A   1      42.069  24.041  27.123  1.00  0.00     0.173 A 
ATOM     68  F   UNL A   1      44.253  26.058  25.039  1.00  0.00    -0.203 F 
ATOM     69  C   UNL A   1      43.781  23.761  24.967  1.00  0.00     0.198 A 
ATOM     70  C   UNL A   1      42.278  22.786  26.546  1.00  0.00     0.198 A 
ATOM     71  F   UNL A   1      41.292  24.091  28.213  1.00  0.00    -0.203 F 
ATOM     72  F   UNL A   1      44.655  23.626  23.959  1.00  0.00    -0.200 F 
ATOM     73  C   UNL A   1      43.150  22.643  25.483  1.00  0.00     0.200 A 
ATOM     74  F   UNL A   1      41.686  21.705  27.074  1.00  0.00    -0.200 F 
ATOM     75  F   UNL A   1      43.415  21.426  24.987  1.00  0.00    -0.200 F 
ENDBRANCH  41  65
BRANCH  53  76
ATOM     76  C   UNL A   1      45.290  30.571  28.520  1.00  0.00     0.064 A 
ATOM     77  C   UNL A   1      44.217  31.211  27.877  1.00  0.00     0.173 A 
ATOM     78  C   UNL A   1      46.587  30.919  28.115  1.00  0.00     0.173 A 
ATOM     79  F   UNL A   1      42.953  31.006  28.267  1.00  0.00    -0.203 F 
ATOM     80  C   UNL A   1      44.437  32.106  26.832  1.00  0.00     0.198 A 
ATOM     81  C   UNL A   1      46.804  31.846  27.102  1.00  0.00     0.198 A 
ATOM     82  F   UNL A   1      47.652  30.372  28.722  1.00  0.00    -0.203 F 
ATOM     83  F   UNL A   1      43.397  32.673  26.203  1.00  0.00    -0.200 F 
ATOM     84  C   UNL A   1      45.729  32.425  26.448  1.00  0.00     0.200 A 
ATOM     85  F   UNL A   1      48.057  32.183  26.767  1.00  0.00    -0.200 F 
ATOM     86  F   UNL A   1      45.942  33.304  25.459  1.00  0.00    -0.200 F 
ENDBRANCH  53  76
ENDBRANCH  27  28
ENDBRANCH  19  22
ENDBRANCH  17  18
ENDBRANCH   1  17
TORSDOF 11
ENDMDL
MODEL 3
REMARK VINA RESULT:     -11.5      5.189     10.300
REMARK SMILES Cc1c(I)c(C(=O)NCCCNC(=O)c2ccc(-c3c4nc(c(-c5c(F)c(F)c(F)c(F)c5F)c5ccc([nH]5)c(-c5c(F)c(F)c(F)c(F)c5F)c5nc(c(-c6c(F)c(F)c(F)c(F)c6F)c6ccc3[nH]6)C=C5)C=C4)cc2)nn1C(F)F
REMARK SMILES IDX 10 1 9 2 8 3 6 4 7 5 5 7 1 8 2 9 3 10 79 11 4 12 78 13 80 14
REMARK SMILES IDX 81 15 82 16 11 17 12 18 13 19 14 21 15 22 16 23 77 24 17 25
REMARK SMILES IDX 76 26 18 27 19 28 20 29 70 30 21 31 75 32 69 33 71 34 22 35
REMARK SMILES IDX 74 36 68 37 67 38 23 40 55 41 35 42 54 43 36 44 39 45 53 46
REMARK SMILES IDX 72 47 37 48 38 49 52 51 73 52 40 53 24 54 25 55 33 56 26 57
REMARK SMILES IDX 27 58 31 59 34 60 28 61 29 62 32 63 30 64 56 65 57 66 65 67
REMARK SMILES IDX 58 68 59 69 63 70 66 71 60 72 61 73 64 74 62 75 41 76 42 77
REMARK SMILES IDX 50 78 43 79 44 80 48 81 51 82 45 83 46 84 49 85 47 86
REMARK H PARENT 8 6 12 20 71 39 39 50
REMARK Flexibility Score: inf
ROOT
ATOM      1  C   UNL A   1      37.530  23.080  25.258  1.00  0.00     0.042 C 
ENDROOT
BRANCH   1   2
ATOM      2  C   UNL A   1      36.763  21.762  25.401  1.00  0.00     0.118 C 
BRANCH   2   3
ATOM      3  N   UNL A   1      35.799  21.795  26.493  1.00  0.00    -0.351 N 
ATOM      4  C   UNL A   1      34.469  21.425  26.534  1.00  0.00     0.272 C 
ATOM      5  O   UNL A   1      33.916  21.517  27.633  1.00  0.00    -0.267 OA
ATOM      6  H   UNL A   1      36.154  22.141  27.343  1.00  0.00     0.163 HD
BRANCH   4   7
ATOM      7  C   UNL A   1      33.770  20.928  25.328  1.00  0.00     0.163 A 
ATOM      8  C   UNL A   1      31.863  20.931  22.120  1.00  0.00     0.068 C 
ATOM      9  C   UNL A   1      32.618  20.769  23.391  1.00  0.00     0.056 A 
ATOM     10  C   UNL A   1      33.219  21.674  24.246  1.00  0.00     0.067 A 
ATOM     11  N   UNL A   1      32.825  19.542  23.982  1.00  0.00    -0.207 N 
ATOM     12  I   UNL A   1      33.228  23.693  23.974  1.00  0.00    -0.040 I 
ATOM     13  N   UNL A   1      33.579  19.615  25.100  1.00  0.00    -0.161 NA
BRANCH  11  14
ATOM     14  C   UNL A   1      32.295  18.241  23.563  1.00  0.00     0.465 C 
ATOM     15  F   UNL A   1      33.034  17.695  22.560  1.00  0.00    -0.184 F 
ATOM     16  F   UNL A   1      32.303  17.351  24.592  1.00  0.00    -0.184 F 
ENDBRANCH  11  14
ENDBRANCH   4   7
ENDBRANCH   2   3
ENDBRANCH   1   2
BRANCH   1  17
ATOM     17  C   UNL A   1      38.493  23.306  26.418  1.00  0.00     0.118 C 
BRANCH  17  18
ATOM     18  N   UNL A   1      39.771  22.617  26.228  1.00  0.00    -0.352 N 
ATOM     19  C   UNL A   1      41.047  23.140  26.165  1.00  0.00     0.251 C 
ATOM     20  H   UNL A   1      39.711  21.639  26.132  1.00  0.00     0.163 HD
ATOM     21  O   UNL A   1      41.962  22.488  25.690  1.00  0.00    -0.269 OA
BRANCH  19  22
ATOM     22  C   UNL A   1      41.292  24.509  26.655  1.00  0.00     0.039 A 
ATOM     23  C   UNL A   1      40.822  25.607  25.930  1.00  0.00     0.014 A 
ATOM     24  C   UNL A   1      41.983  24.696  27.850  1.00  0.00     0.014 A 
ATOM     25  C   UNL A   1      40.963  26.881  26.471  1.00  0.00     0.010 A 
ATOM     26  C   UNL A   1      42.006  25.937  28.447  1.00  0.00     0.010 A 
ATOM     27  C   UNL A   1      41.521  27.039  27.753  1.00  0.00    -0.014 A 
BRANCH  27  28
ATOM     28  C   UNL A   1      41.441  28.337  28.420  1.00  0.00     0.031 A 
ATOM     29  C   UNL A   1      42.542  29.265  28.046  1.00  0.00     0.074 A 
ATOM     30  C   UNL A   1      40.397  28.764  29.162  1.00  0.00     0.049 A 
ATOM     31  N   UNL A   1      43.518  29.649  28.798  1.00  0.00    -0.248 NA
ATOM     32  C   UNL A   1      42.664  29.698  26.645  1.00  0.00     0.031 C 
ATOM     33  C   UNL A   1      39.109  28.092  29.363  1.00  0.00     0.029 A 
ATOM     34  N   UNL A   1      40.226  29.949  29.822  1.00  0.00    -0.354 N 
ATOM     35  C   UNL A   1      44.259  30.548  28.035  1.00  0.00     0.074 A 
ATOM     36  C   UNL A   1      43.806  30.390  26.679  1.00  0.00     0.031 C 
ATOM     37  C   UNL A   1      38.219  28.965  29.882  1.00  0.00     0.029 A 
ATOM     38  C   UNL A   1      38.914  30.195  30.214  1.00  0.00     0.049 A 
ATOM     39  H   UNL A   1      40.964  30.573  30.003  1.00  0.00     0.167 HD
ATOM     40  C   UNL A   1      44.954  31.544  28.652  1.00  0.00     0.037 A 
ATOM     41  C   UNL A   1      38.423  31.331  30.766  1.00  0.00     0.037 A 
ATOM     42  C   UNL A   1      45.066  31.273  30.066  1.00  0.00     0.049 A 
ATOM     43  C   UNL A   1      39.560  32.047  31.383  1.00  0.00     0.074 A 
ATOM     44  C   UNL A   1      45.697  30.344  30.865  1.00  0.00     0.029 A 
ATOM     45  N   UNL A   1      44.077  31.845  30.820  1.00  0.00    -0.354 N 
ATOM     46  N   UNL A   1      40.197  31.622  32.438  1.00  0.00    -0.248 NA
ATOM     47  C   UNL A   1      40.228  33.104  30.635  1.00  0.00     0.031 C 
ATOM     48  C   UNL A   1      44.878  30.210  32.029  1.00  0.00     0.029 A 
ATOM     49  C   UNL A   1      43.805  31.095  31.926  1.00  0.00     0.049 A 
ATOM     50  H   UNL A   1      43.623  32.689  30.592  1.00  0.00     0.167 HD
ATOM     51  C   UNL A   1      41.505  31.999  32.215  1.00  0.00     0.074 A 
ATOM     52  C   UNL A   1      41.426  33.065  31.224  1.00  0.00     0.031 C 
ATOM     53  C   UNL A   1      42.530  31.185  32.603  1.00  0.00     0.037 A 
BRANCH  40  54
ATOM     54  C   UNL A   1      45.051  32.976  28.142  1.00  0.00     0.064 A 
ATOM     55  C   UNL A   1      46.337  33.539  27.968  1.00  0.00     0.173 A 
ATOM     56  C   UNL A   1      43.990  33.907  28.174  1.00  0.00     0.173 A 
ATOM     57  F   UNL A   1      47.426  32.755  27.928  1.00  0.00    -0.203 F 
ATOM     58  C   UNL A   1      46.547  34.921  27.945  1.00  0.00     0.198 A 
ATOM     59  C   UNL A   1      44.202  35.285  28.101  1.00  0.00     0.198 A 
ATOM     60  F   UNL A   1      42.723  33.546  28.392  1.00  0.00    -0.203 F 
ATOM     61  F   UNL A   1      47.797  35.405  27.927  1.00  0.00    -0.200 F 
ATOM     62  C   UNL A   1      45.480  35.793  28.025  1.00  0.00     0.200 A 
ATOM     63  F   UNL A   1      43.153  36.115  28.202  1.00  0.00    -0.200 F 
ATOM     64  F   UNL A   1      45.680  37.116  28.079  1.00  0.00    -0.200 F 
ENDBRANCH  40  54
BRANCH  41  65
ATOM     65  C   UNL A   1      37.076  31.940  30.663  1.00  0.00     0.064 A 
ATOM     66  C   UNL A   1      36.175  31.883  31.740  1.00  0.00     0.173 A 
ATOM     67  C   UNL A   1      36.764  32.846  29.633  1.00  0.00     0.173 A 
ATOM     68  F   UNL A   1      36.409  31.068  32.779  1.00  0.00    -0.203 F 
ATOM     69  C   UNL A   1      35.059  32.724  31.809  1.00  0.00     0.198 A 
ATOM     70  C   UNL A   1      35.645  33.678  29.699  1.00  0.00     0.198 A 
ATOM     71  F   UNL A   1      37.590  33.014  28.591  1.00  0.00    -0.203 F 
ATOM     72  F   UNL A   1      34.270  32.699  32.893  1.00  0.00    -0.200 F 
ATOM     73  C   UNL A   1      34.805  33.633  30.797  1.00  0.00     0.200 A 
ATOM     74  F   UNL A   1      35.425  34.576  28.728  1.00  0.00    -0.200 F 
ATOM     75  F   UNL A   1      33.781  34.492  30.898  1.00  0.00    -0.200 F 
ENDBRANCH  41  65
BRANCH  53  76
ATOM     76  C   UNL A   1      42.247  30.214  33.711  1.00  0.00     0.064 A 
ATOM     77  C   UNL A   1      41.798  28.895  33.535  1.00  0.00     0.173 A 
ATOM     78  C   UNL A   1      42.489  30.644  35.024  1.00  0.00     0.173 A 
ATOM     79  F   UNL A   1      41.633  28.375  32.311  1.00  0.00    -0.203 F 
ATOM     80  C   UNL A   1      41.542  28.070  34.629  1.00  0.00     0.198 A 
ATOM     81  C   UNL A   1      42.274  29.805  36.112  1.00  0.00     0.198 A 
ATOM     82  F   UNL A   1      42.958  31.880  35.252  1.00  0.00    -0.203 F 
ATOM     83  F   UNL A   1      41.074  26.828  34.440  1.00  0.00    -0.200 F 
ATOM     84  C   UNL A   1      41.783  28.525  35.915  1.00  0.00     0.200 A 
ATOM     85  F   UNL A   1      42.553  30.236  37.349  1.00  0.00    -0.200 F 
ATOM     86  F   UNL A   1      41.560  27.725  36.967  1.00  0.00    -0.200 F 
ENDBRANCH  53  76
ENDBRANCH  27  28
ENDBRANCH  19  22
ENDBRANCH  17  18
ENDBRANCH   1  17
TORSDOF 11
ENDMDL
