MODEL 1
REMARK VINA RESULT:     -13.9      0.000      0.000
REMARK SMILES O=C(NCCCNC(=O)c1ccccc1Nc1nc(Cl)nc(Nc2ccc(N3CCOCC3=O)cc2)n1)c1ccc(-c2c3nc(c(-c4c(F)c(F)c(F)c(F)c4F)c4ccc([nH]4)c(-c4c(F)c(F)c(F)c(F)c4F)c4nc(c(-c5c(F)c(F)c(F)c(F)c5F)c5ccc2[nH]5)C=C4)C=C3)cc1
REMARK SMILES IDX 7 1 8 2 9 3 6 5 5 6 4 7 3 8 1 9 2 10 38 12 39 13 100 14
REMARK SMILES IDX 40 15 99 16 41 17 42 18 43 19 93 20 44 21 98 22 92 23 94 24
REMARK SMILES IDX 45 25 97 26 91 27 90 28 46 30 78 31 58 32 77 33 59 34 62 35
REMARK SMILES IDX 76 36 95 37 60 38 61 39 75 41 96 42 63 43 47 44 48 45 56 46
REMARK SMILES IDX 49 47 50 48 54 49 57 50 51 51 52 52 55 53 53 54 79 55 80 56
REMARK SMILES IDX 88 57 81 58 82 59 86 60 89 61 83 62 84 63 87 64 85 65 64 66
REMARK SMILES IDX 65 67 73 68 66 69 67 70 71 71 74 72 68 73 69 74 72 75 70 76
REMARK SMILES IDX 10 77 11 78 15 79 12 80 14 81 13 82 16 83 17 85 18 86 37 87
REMARK SMILES IDX 19 88 22 89 20 90 21 91 23 92 24 94 25 95 36 96 26 97 35 98
REMARK SMILES IDX 27 99 28 100 29 101 33 102 30 103 32 104 34 105 31 106
REMARK H PARENT 7 4 3 11 94 29 62 40 16 84 23 93
REMARK Flexibility Score: inf
ROOT
ATOM      1  N   UNL A   1      36.208  21.372  25.803  1.00  0.00    -0.352 N 
ATOM      2  C   UNL A   1      34.880  21.112  26.024  1.00  0.00     0.253 C 
ATOM      3  O   UNL A   1      34.356  21.477  27.073  1.00  0.00    -0.269 OA
ATOM      4  H   UNL A   1      36.687  21.776  26.563  1.00  0.00     0.163 HD
ENDROOT
BRANCH   1   5
ATOM      5  C   UNL A   1      37.019  21.141  24.615  1.00  0.00     0.118 C 
BRANCH   5   6
ATOM      6  C   UNL A   1      38.009  20.000  24.786  1.00  0.00     0.042 C 
BRANCH   6   7
ATOM      7  C   UNL A   1      39.035  20.217  25.888  1.00  0.00     0.118 C 
BRANCH   7   8
ATOM      8  N   UNL A   1      40.098  19.219  25.899  1.00  0.00    -0.352 N 
ATOM      9  O   UNL A   1      42.186  18.375  25.888  1.00  0.00    -0.269 OA
ATOM     10  C   UNL A   1      41.459  19.352  26.049  1.00  0.00     0.251 C 
ATOM     11  H   UNL A   1      39.790  18.292  25.778  1.00  0.00     0.163 HD
BRANCH  10  12
ATOM     12  C   UNL A   1      42.062  20.666  26.367  1.00  0.00     0.039 A 
ATOM     13  C   UNL A   1      42.396  21.008  27.675  1.00  0.00     0.014 A 
ATOM     14  C   UNL A   1      42.309  21.574  25.331  1.00  0.00     0.014 A 
ATOM     15  C   UNL A   1      42.767  22.312  27.976  1.00  0.00     0.010 A 
ATOM     16  C   UNL A   1      42.803  22.850  25.622  1.00  0.00     0.010 A 
ATOM     17  C   UNL A   1      42.986  23.249  26.954  1.00  0.00    -0.014 A 
BRANCH  17  18
ATOM     18  C   UNL A   1      43.436  24.619  27.319  1.00  0.00     0.031 A 
ATOM     19  C   UNL A   1      44.823  25.101  26.989  1.00  0.00     0.074 A 
ATOM     20  C   UNL A   1      42.553  25.456  27.898  1.00  0.00     0.049 A 
ATOM     21  N   UNL A   1      45.350  26.285  27.177  1.00  0.00    -0.248 NA
ATOM     22  C   UNL A   1      45.743  24.130  26.379  1.00  0.00     0.031 C 
ATOM     23  C   UNL A   1      41.184  25.100  28.279  1.00  0.00     0.029 A 
ATOM     24  N   UNL A   1      42.655  26.782  28.233  1.00  0.00    -0.354 N 
ATOM     25  C   UNL A   1      46.666  26.193  26.741  1.00  0.00     0.074 A 
ATOM     26  C   UNL A   1      46.866  24.831  26.296  1.00  0.00     0.031 C 
ATOM     27  C   UNL A   1      40.551  26.196  28.720  1.00  0.00     0.029 A 
ATOM     28  C   UNL A   1      41.487  27.315  28.722  1.00  0.00     0.049 A 
ATOM     29  H   UNL A   1      43.485  27.302  28.133  1.00  0.00     0.167 HD
ATOM     30  C   UNL A   1      47.616  27.159  26.709  1.00  0.00     0.037 A 
ATOM     31  C   UNL A   1      41.199  28.563  29.131  1.00  0.00     0.037 A 
ATOM     32  C   UNL A   1      47.403  28.524  27.120  1.00  0.00     0.049 A 
ATOM     33  C   UNL A   1      42.272  29.611  29.084  1.00  0.00     0.074 A 
ATOM     34  C   UNL A   1      48.289  29.587  27.077  1.00  0.00     0.029 A 
ATOM     35  N   UNL A   1      46.218  29.014  27.648  1.00  0.00    -0.354 N 
ATOM     36  N   UNL A   1      43.501  29.517  28.637  1.00  0.00    -0.248 NA
ATOM     37  C   UNL A   1      41.918  30.938  29.603  1.00  0.00     0.031 C 
ATOM     38  C   UNL A   1      47.655  30.709  27.621  1.00  0.00     0.029 A 
ATOM     39  C   UNL A   1      46.358  30.358  27.958  1.00  0.00     0.049 A 
ATOM     40  H   UNL A   1      45.398  28.485  27.784  1.00  0.00     0.167 HD
ATOM     41  C   UNL A   1      44.063  30.772  28.809  1.00  0.00     0.074 A 
ATOM     42  C   UNL A   1      43.034  31.618  29.378  1.00  0.00     0.031 C 
ATOM     43  C   UNL A   1      45.322  31.186  28.524  1.00  0.00     0.037 A 
BRANCH  30  44
ATOM     44  C   UNL A   1      48.988  26.772  26.235  1.00  0.00     0.064 A 
ATOM     45  C   UNL A   1      49.394  26.962  24.905  1.00  0.00     0.173 A 
ATOM     46  C   UNL A   1      49.926  26.243  27.137  1.00  0.00     0.173 A 
ATOM     47  F   UNL A   1      48.534  27.454  24.001  1.00  0.00    -0.203 F 
ATOM     48  C   UNL A   1      50.677  26.613  24.490  1.00  0.00     0.198 A 
ATOM     49  C   UNL A   1      51.216  25.922  26.725  1.00  0.00     0.198 A 
ATOM     50  F   UNL A   1      49.593  26.049  28.421  1.00  0.00    -0.203 F 
ATOM     51  F   UNL A   1      51.029  26.764  23.206  1.00  0.00    -0.200 F 
ATOM     52  C   UNL A   1      51.589  26.100  25.401  1.00  0.00     0.200 A 
ATOM     53  F   UNL A   1      52.099  25.438  27.609  1.00  0.00    -0.200 F 
ATOM     54  F   UNL A   1      52.825  25.771  25.002  1.00  0.00    -0.200 F 
ENDBRANCH  30  44
BRANCH  31  55
ATOM     55  C   UNL A   1      39.831  28.885  29.610  1.00  0.00     0.064 A 
ATOM     56  C   UNL A   1      38.806  29.191  28.705  1.00  0.00     0.173 A 
ATOM     57  C   UNL A   1      39.514  28.873  30.977  1.00  0.00     0.173 A 
ATOM     58  F   UNL A   1      39.064  29.235  27.389  1.00  0.00    -0.203 F 
ATOM     59  C   UNL A   1      37.518  29.484  29.149  1.00  0.00     0.198 A 
ATOM     60  C   UNL A   1      38.220  29.135  31.417  1.00  0.00     0.198 A 
ATOM     61  F   UNL A   1      40.459  28.580  31.882  1.00  0.00    -0.203 F 
ATOM     62  F   UNL A   1      36.565  29.809  28.266  1.00  0.00    -0.200 F 
ATOM     63  C   UNL A   1      37.224  29.448  30.504  1.00  0.00     0.200 A 
ATOM     64  F   UNL A   1      37.937  29.082  32.726  1.00  0.00    -0.200 F 
ATOM     65  F   UNL A   1      35.983  29.717  30.930  1.00  0.00    -0.200 F 
ENDBRANCH  31  55
BRANCH  43  66
ATOM     66  C   UNL A   1      45.642  32.624  28.801  1.00  0.00     0.064 A 
ATOM     67  C   UNL A   1      46.198  33.031  30.023  1.00  0.00     0.173 A 
ATOM     68  C   UNL A   1      45.402  33.605  27.827  1.00  0.00     0.173 A 
ATOM     69  F   UNL A   1      46.428  32.132  30.992  1.00  0.00    -0.203 F 
ATOM     70  C   UNL A   1      46.473  34.372  30.272  1.00  0.00     0.198 A 
ATOM     71  C   UNL A   1      45.704  34.942  28.069  1.00  0.00     0.198 A 
ATOM     72  F   UNL A   1      44.876  33.266  26.642  1.00  0.00    -0.203 F 
ATOM     73  F   UNL A   1      46.953  34.746  31.466  1.00  0.00    -0.200 F 
ATOM     74  C   UNL A   1      46.231  35.326  29.294  1.00  0.00     0.200 A 
ATOM     75  F   UNL A   1      45.479  35.861  27.120  1.00  0.00    -0.200 F 
ATOM     76  F   UNL A   1      46.496  36.617  29.536  1.00  0.00    -0.200 F 
ENDBRANCH  43  66
ENDBRANCH  17  18
ENDBRANCH  10  12
ENDBRANCH   7   8
ENDBRANCH   6   7
ENDBRANCH   5   6
ENDBRANCH   1   5
BRANCH   2  77
ATOM     77  C   UNL A   1      34.065  20.419  25.005  1.00  0.00     0.063 A 
ATOM     78  C   UNL A   1      34.327  19.052  24.816  1.00  0.00     0.016 A 
ATOM     79  C   UNL A   1      33.090  21.081  24.235  1.00  0.00     0.054 A 
ATOM     80  C   UNL A   1      33.574  18.317  23.903  1.00  0.00     0.001 A 
ATOM     81  C   UNL A   1      32.310  20.304  23.364  1.00  0.00     0.027 A 
ATOM     82  C   UNL A   1      32.555  18.939  23.191  1.00  0.00     0.002 A 
BRANCH  79  83
ATOM     83  N   UNL A   1      32.881  22.465  24.337  1.00  0.00    -0.323 N 
ATOM     84  H   UNL A   1      33.521  23.020  23.836  1.00  0.00     0.170 HD
BRANCH  83  85
ATOM     85  C   UNL A   1      31.911  23.174  25.036  1.00  0.00     0.233 A 
ATOM     86  N   UNL A   1      31.080  22.531  25.840  1.00  0.00    -0.182 NA
ATOM     87  N   UNL A   1      31.911  24.490  24.865  1.00  0.00    -0.176 NA
ATOM     88  C   UNL A   1      30.239  23.324  26.478  1.00  0.00     0.228 A 
ATOM     89  C   UNL A   1      30.968  25.174  25.504  1.00  0.00     0.233 A 
ATOM     90  Cl  UNL A   1      29.155  22.558  27.553  1.00  0.00    -0.041 Cl
ATOM     91  N   UNL A   1      30.118  24.633  26.361  1.00  0.00    -0.182 NA
BRANCH  89  92
ATOM     92  N   UNL A   1      30.830  26.506  25.119  1.00  0.00    -0.324 N 
ATOM     93  H   UNL A   1      30.227  26.672  24.359  1.00  0.00     0.170 HD
BRANCH  92  94
ATOM     94  C   UNL A   1      31.438  27.635  25.671  1.00  0.00     0.041 A 
ATOM     95  C   UNL A   1      31.794  28.702  24.840  1.00  0.00     0.028 A 
ATOM     96  C   UNL A   1      31.599  27.783  27.050  1.00  0.00     0.028 A 
ATOM     97  C   UNL A   1      32.281  29.898  25.378  1.00  0.00     0.028 A 
ATOM     98  C   UNL A   1      32.139  28.955  27.586  1.00  0.00     0.028 A 
ATOM     99  C   UNL A   1      32.465  30.034  26.757  1.00  0.00     0.044 A 
BRANCH  99 100
ATOM    100  N   UNL A   1      32.919  31.266  27.313  1.00  0.00    -0.308 N 
ATOM    101  C   UNL A   1      34.333  31.332  27.707  1.00  0.00     0.154 C 
ATOM    102  C   UNL A   1      32.164  32.438  27.181  1.00  0.00     0.253 C 
ATOM    103  C   UNL A   1      34.675  32.568  28.527  1.00  0.00     0.183 C 
ATOM    104  C   UNL A   1      32.830  33.720  27.705  1.00  0.00     0.260 C 
ATOM    105  O   UNL A   1      31.000  32.479  26.777  1.00  0.00    -0.272 OA
ATOM    106  O   UNL A   1      34.243  33.733  27.830  1.00  0.00    -0.370 OA
ENDBRANCH  99 100
ENDBRANCH  92  94
ENDBRANCH  89  92
ENDBRANCH  83  85
ENDBRANCH  79  83
ENDBRANCH   2  77
TORSDOF 15
ENDMDL
MODEL 2
REMARK VINA RESULT:     -13.7      1.896      2.721
REMARK SMILES O=C(NCCCNC(=O)c1ccccc1Nc1nc(Cl)nc(Nc2ccc(N3CCOCC3=O)cc2)n1)c1ccc(-c2c3nc(c(-c4c(F)c(F)c(F)c(F)c4F)c4ccc([nH]4)c(-c4c(F)c(F)c(F)c(F)c4F)c4nc(c(-c5c(F)c(F)c(F)c(F)c5F)c5ccc2[nH]5)C=C4)C=C3)cc1
REMARK SMILES IDX 7 1 8 2 9 3 6 5 5 6 4 7 3 8 1 9 2 10 38 12 39 13 100 14
REMARK SMILES IDX 40 15 99 16 41 17 42 18 43 19 93 20 44 21 98 22 92 23 94 24
REMARK SMILES IDX 45 25 97 26 91 27 90 28 46 30 78 31 58 32 77 33 59 34 62 35
REMARK SMILES IDX 76 36 95 37 60 38 61 39 75 41 96 42 63 43 47 44 48 45 56 46
REMARK SMILES IDX 49 47 50 48 54 49 57 50 51 51 52 52 55 53 53 54 79 55 80 56
REMARK SMILES IDX 88 57 81 58 82 59 86 60 89 61 83 62 84 63 87 64 85 65 64 66
REMARK SMILES IDX 65 67 73 68 66 69 67 70 71 71 74 72 68 73 69 74 72 75 70 76
REMARK SMILES IDX 10 77 11 78 15 79 12 80 14 81 13 82 16 83 17 85 18 86 37 87
REMARK SMILES IDX 19 88 22 89 20 90 21 91 23 92 24 94 25 95 36 96 26 97 35 98
REMARK SMILES IDX 27 99 28 100 29 101 33 102 30 103 32 104 34 105 31 106
REMARK H PARENT 7 4 3 11 94 29 62 40 16 84 23 93
REMARK Flexibility Score: inf
ROOT
ATOM      1  N   UNL A   1      36.311  21.233  25.701  1.00  0.00    -0.352 N 
ATOM      2  C   UNL A   1      34.984  21.022  25.978  1.00  0.00     0.253 C 
ATOM      3  O   UNL A   1      34.468  21.587  26.939  1.00  0.00    -0.269 OA
ATOM      4  H   UNL A   1      36.794  21.779  26.362  1.00  0.00     0.163 HD
ENDROOT
BRANCH   1   5
ATOM      5  C   UNL A   1      37.113  20.772  24.575  1.00  0.00     0.118 C 
BRANCH   5   6
ATOM      6  C   UNL A   1      38.056  19.638  24.945  1.00  0.00     0.042 C 
BRANCH   6   7
ATOM      7  C   UNL A   1      39.223  20.053  25.829  1.00  0.00     0.118 C 
BRANCH   7   8
ATOM      8  N   UNL A   1      40.304  19.075  25.864  1.00  0.00    -0.352 N 
ATOM      9  O   UNL A   1      42.406  18.270  25.906  1.00  0.00    -0.269 OA
ATOM     10  C   UNL A   1      41.657  19.232  26.053  1.00  0.00     0.251 C 
ATOM     11  H   UNL A   1      40.017  18.143  25.729  1.00  0.00     0.163 HD
BRANCH  10  12
ATOM     12  C   UNL A   1      42.227  20.555  26.394  1.00  0.00     0.039 A 
ATOM     13  C   UNL A   1      42.356  20.963  27.720  1.00  0.00     0.014 A 
ATOM     14  C   UNL A   1      42.650  21.404  25.365  1.00  0.00     0.014 A 
ATOM     15  C   UNL A   1      42.699  22.277  28.008  1.00  0.00     0.010 A 
ATOM     16  C   UNL A   1      43.115  22.689  25.665  1.00  0.00     0.010 A 
ATOM     17  C   UNL A   1      43.093  23.157  26.988  1.00  0.00    -0.014 A 
BRANCH  17  18
ATOM     18  C   UNL A   1      43.505  24.540  27.348  1.00  0.00     0.031 A 
ATOM     19  C   UNL A   1      44.890  25.046  27.050  1.00  0.00     0.074 A 
ATOM     20  C   UNL A   1      42.590  25.365  27.894  1.00  0.00     0.049 A 
ATOM     21  N   UNL A   1      45.388  26.244  27.239  1.00  0.00    -0.248 NA
ATOM     22  C   UNL A   1      45.846  24.088  26.477  1.00  0.00     0.031 C 
ATOM     23  C   UNL A   1      41.218  24.985  28.241  1.00  0.00     0.029 A 
ATOM     24  N   UNL A   1      42.655  26.696  28.216  1.00  0.00    -0.354 N 
ATOM     25  C   UNL A   1      46.717  26.174  26.839  1.00  0.00     0.074 A 
ATOM     26  C   UNL A   1      46.956  24.811  26.416  1.00  0.00     0.031 C 
ATOM     27  C   UNL A   1      40.552  26.072  28.653  1.00  0.00     0.029 A 
ATOM     28  C   UNL A   1      41.464  27.210  28.667  1.00  0.00     0.049 A 
ATOM     29  H   UNL A   1      43.477  27.232  28.132  1.00  0.00     0.167 HD
ATOM     30  C   UNL A   1      47.647  27.159  26.822  1.00  0.00     0.037 A 
ATOM     31  C   UNL A   1      41.140  28.456  29.054  1.00  0.00     0.037 A 
ATOM     32  C   UNL A   1      47.396  28.523  27.211  1.00  0.00     0.049 A 
ATOM     33  C   UNL A   1      42.192  29.526  29.023  1.00  0.00     0.074 A 
ATOM     34  C   UNL A   1      48.261  29.604  27.180  1.00  0.00     0.029 A 
ATOM     35  N   UNL A   1      46.187  28.994  27.701  1.00  0.00    -0.354 N 
ATOM     36  N   UNL A   1      43.434  29.452  28.611  1.00  0.00    -0.248 NA
ATOM     37  C   UNL A   1      41.797  30.851  29.518  1.00  0.00     0.031 C 
ATOM     38  C   UNL A   1      47.589  30.719  27.693  1.00  0.00     0.029 A 
ATOM     39  C   UNL A   1      46.291  30.344  28.000  1.00  0.00     0.049 A 
ATOM     40  H   UNL A   1      45.375  28.450  27.821  1.00  0.00     0.167 HD
ATOM     41  C   UNL A   1      43.966  30.720  28.784  1.00  0.00     0.074 A 
ATOM     42  C   UNL A   1      42.905  31.551  29.315  1.00  0.00     0.031 C 
ATOM     43  C   UNL A   1      45.224  31.157  28.527  1.00  0.00     0.037 A 
BRANCH  30  44
ATOM     44  C   UNL A   1      49.039  26.795  26.389  1.00  0.00     0.064 A 
ATOM     45  C   UNL A   1      49.478  26.980  25.069  1.00  0.00     0.173 A 
ATOM     46  C   UNL A   1      49.962  26.294  27.322  1.00  0.00     0.173 A 
ATOM     47  F   UNL A   1      48.633  27.446  24.137  1.00  0.00    -0.203 F 
ATOM     48  C   UNL A   1      50.778  26.654  24.693  1.00  0.00     0.198 A 
ATOM     49  C   UNL A   1      51.270  25.995  26.948  1.00  0.00     0.198 A 
ATOM     50  F   UNL A   1      49.598  26.106  28.598  1.00  0.00    -0.203 F 
ATOM     51  F   UNL A   1      51.162  26.799  23.418  1.00  0.00    -0.200 F 
ATOM     52  C   UNL A   1      51.675  26.168  25.633  1.00  0.00     0.200 A 
ATOM     53  F   UNL A   1      52.138  25.537  27.862  1.00  0.00    -0.200 F 
ATOM     54  F   UNL A   1      52.929  25.860  25.271  1.00  0.00    -0.200 F 
ENDBRANCH  30  44
BRANCH  31  55
ATOM     55  C   UNL A   1      39.753  28.755  29.492  1.00  0.00     0.064 A 
ATOM     56  C   UNL A   1      38.800  29.235  28.584  1.00  0.00     0.173 A 
ATOM     57  C   UNL A   1      39.346  28.547  30.818  1.00  0.00     0.173 A 
ATOM     58  F   UNL A   1      39.147  29.469  27.309  1.00  0.00    -0.203 F 
ATOM     59  C   UNL A   1      37.494  29.507  28.988  1.00  0.00     0.198 A 
ATOM     60  C   UNL A   1      38.033  28.790  31.214  1.00  0.00     0.198 A 
ATOM     61  F   UNL A   1      40.219  28.083  31.723  1.00  0.00    -0.203 F 
ATOM     62  F   UNL A   1      36.612  30.000  28.109  1.00  0.00    -0.200 F 
ATOM     63  C   UNL A   1      37.110  29.276  30.301  1.00  0.00     0.200 A 
ATOM     64  F   UNL A   1      37.663  28.549  32.479  1.00  0.00    -0.200 F 
ATOM     65  F   UNL A   1      35.852  29.527  30.686  1.00  0.00    -0.200 F 
ENDBRANCH  31  55
BRANCH  43  66
ATOM     66  C   UNL A   1      45.507  32.605  28.796  1.00  0.00     0.064 A 
ATOM     67  C   UNL A   1      45.245  33.594  27.838  1.00  0.00     0.173 A 
ATOM     68  C   UNL A   1      46.034  33.007  30.033  1.00  0.00     0.173 A 
ATOM     69  F   UNL A   1      44.760  33.256  26.634  1.00  0.00    -0.203 F 
ATOM     70  C   UNL A   1      45.530  34.932  28.096  1.00  0.00     0.198 A 
ATOM     71  C   UNL A   1      46.291  34.349  30.297  1.00  0.00     0.198 A 
ATOM     72  F   UNL A   1      46.297  32.099  30.983  1.00  0.00    -0.203 F 
ATOM     73  F   UNL A   1      45.323  35.855  27.146  1.00  0.00    -0.200 F 
ATOM     74  C   UNL A   1      46.047  35.309  29.326  1.00  0.00     0.200 A 
ATOM     75  F   UNL A   1      46.781  34.713  31.490  1.00  0.00    -0.200 F 
ATOM     76  F   UNL A   1      46.321  36.598  29.572  1.00  0.00    -0.200 F 
ENDBRANCH  43  66
ENDBRANCH  17  18
ENDBRANCH  10  12
ENDBRANCH   7   8
ENDBRANCH   6   7
ENDBRANCH   5   6
ENDBRANCH   1   5
BRANCH   2  77
ATOM     77  C   UNL A   1      34.163  20.142  25.122  1.00  0.00     0.063 A 
ATOM     78  C   UNL A   1      34.754  18.936  24.712  1.00  0.00     0.016 A 
ATOM     79  C   UNL A   1      32.863  20.486  24.707  1.00  0.00     0.054 A 
ATOM     80  C   UNL A   1      34.032  18.032  23.937  1.00  0.00     0.001 A 
ATOM     81  C   UNL A   1      32.139  19.533  23.974  1.00  0.00     0.027 A 
ATOM     82  C   UNL A   1      32.719  18.323  23.583  1.00  0.00     0.002 A 
BRANCH  79  83
ATOM     83  N   UNL A   1      32.290  21.728  25.022  1.00  0.00    -0.323 N 
ATOM     84  H   UNL A   1      32.070  21.854  25.973  1.00  0.00     0.170 HD
BRANCH  83  85
ATOM     85  C   UNL A   1      31.985  22.807  24.201  1.00  0.00     0.233 A 
ATOM     86  N   UNL A   1      32.723  23.047  23.130  1.00  0.00    -0.182 NA
ATOM     87  N   UNL A   1      30.920  23.522  24.546  1.00  0.00    -0.176 NA
ATOM     88  C   UNL A   1      32.300  24.071  22.412  1.00  0.00     0.228 A 
ATOM     89  C   UNL A   1      30.638  24.575  23.785  1.00  0.00     0.233 A 
ATOM     90  Cl  UNL A   1      33.196  24.417  20.999  1.00  0.00    -0.041 Cl
ATOM     91  N   UNL A   1      31.287  24.875  22.672  1.00  0.00    -0.182 NA
BRANCH  89  92
ATOM     92  N   UNL A   1      29.680  25.445  24.300  1.00  0.00    -0.324 N 
ATOM     93  H   UNL A   1      29.105  25.077  25.009  1.00  0.00     0.170 HD
BRANCH  92  94
ATOM     94  C   UNL A   1      29.428  26.770  23.940  1.00  0.00     0.041 A 
ATOM     95  C   UNL A   1      30.496  27.664  23.810  1.00  0.00     0.028 A 
ATOM     96  C   UNL A   1      28.148  27.206  23.594  1.00  0.00     0.028 A 
ATOM     97  C   UNL A   1      30.290  28.959  23.323  1.00  0.00     0.028 A 
ATOM     98  C   UNL A   1      27.932  28.518  23.162  1.00  0.00     0.028 A 
ATOM     99  C   UNL A   1      29.003  29.401  23.001  1.00  0.00     0.044 A 
BRANCH  99 100
ATOM    100  N   UNL A   1      28.795  30.705  22.464  1.00  0.00    -0.308 N 
ATOM    101  C   UNL A   1      28.107  30.786  21.169  1.00  0.00     0.154 C 
ATOM    102  C   UNL A   1      28.931  31.846  23.267  1.00  0.00     0.253 C 
ATOM    103  C   UNL A   1      28.158  32.171  20.540  1.00  0.00     0.183 C 
ATOM    104  C   UNL A   1      28.547  33.177  22.601  1.00  0.00     0.260 C 
ATOM    105  O   UNL A   1      29.421  31.851  24.398  1.00  0.00    -0.272 OA
ATOM    106  O   UNL A   1      27.683  33.134  21.476  1.00  0.00    -0.370 OA
ENDBRANCH  99 100
ENDBRANCH  92  94
ENDBRANCH  89  92
ENDBRANCH  83  85
ENDBRANCH  79  83
ENDBRANCH   2  77
TORSDOF 15
ENDMDL
MODEL 3
REMARK VINA RESULT:     -12.9      1.456      7.234
REMARK SMILES O=C(NCCCNC(=O)c1ccccc1Nc1nc(Cl)nc(Nc2ccc(N3CCOCC3=O)cc2)n1)c1ccc(-c2c3nc(c(-c4c(F)c(F)c(F)c(F)c4F)c4ccc([nH]4)c(-c4c(F)c(F)c(F)c(F)c4F)c4nc(c(-c5c(F)c(F)c(F)c(F)c5F)c5ccc2[nH]5)C=C4)C=C3)cc1
REMARK SMILES IDX 7 1 8 2 9 3 6 5 5 6 4 7 3 8 1 9 2 10 38 12 39 13 100 14
REMARK SMILES IDX 40 15 99 16 41 17 42 18 43 19 93 20 44 21 98 22 92 23 94 24
REMARK SMILES IDX 45 25 97 26 91 27 90 28 46 30 78 31 58 32 77 33 59 34 62 35
REMARK SMILES IDX 76 36 95 37 60 38 61 39 75 41 96 42 63 43 47 44 48 45 56 46
REMARK SMILES IDX 49 47 50 48 54 49 57 50 51 51 52 52 55 53 53 54 79 55 80 56
REMARK SMILES IDX 88 57 81 58 82 59 86 60 89 61 83 62 84 63 87 64 85 65 64 66
REMARK SMILES IDX 65 67 73 68 66 69 67 70 71 71 74 72 68 73 69 74 72 75 70 76
REMARK SMILES IDX 10 77 11 78 15 79 12 80 14 81 13 82 16 83 17 85 18 86 37 87
REMARK SMILES IDX 19 88 22 89 20 90 21 91 23 92 24 94 25 95 36 96 26 97 35 98
REMARK SMILES IDX 27 99 28 100 29 101 33 102 30 103 32 104 34 105 31 106
REMARK H PARENT 7 4 3 11 94 29 62 40 16 84 23 93
REMARK Flexibility Score: inf
ROOT
ATOM      1  N   UNL A   1      37.713  21.352  24.995  1.00  0.00    -0.352 N 
ATOM      2  C   UNL A   1      36.569  22.103  25.089  1.00  0.00     0.253 C 
ATOM      3  O   UNL A   1      36.645  23.285  25.415  1.00  0.00    -0.269 OA
ATOM      4  H   UNL A   1      38.537  21.807  25.284  1.00  0.00     0.163 HD
ENDROOT
BRANCH   1   5
ATOM      5  C   UNL A   1      37.894  19.982  24.532  1.00  0.00     0.118 C 
BRANCH   5   6
ATOM      6  C   UNL A   1      38.623  19.108  25.540  1.00  0.00     0.042 C 
BRANCH   6   7
ATOM      7  C   UNL A   1      39.905  19.715  26.089  1.00  0.00     0.118 C 
BRANCH   7   8
ATOM      8  N   UNL A   1      41.055  18.821  26.009  1.00  0.00    -0.352 N 
ATOM      9  O   UNL A   1      43.203  18.176  25.808  1.00  0.00    -0.269 OA
ATOM     10  C   UNL A   1      42.405  19.083  26.029  1.00  0.00     0.251 C 
ATOM     11  H   UNL A   1      40.826  17.868  25.925  1.00  0.00     0.163 HD
BRANCH  10  12
ATOM     12  C   UNL A   1      42.907  20.454  26.278  1.00  0.00     0.039 A 
ATOM     13  C   UNL A   1      42.847  21.023  27.547  1.00  0.00     0.014 A 
ATOM     14  C   UNL A   1      43.462  21.182  25.219  1.00  0.00     0.014 A 
ATOM     15  C   UNL A   1      43.132  22.372  27.714  1.00  0.00     0.010 A 
ATOM     16  C   UNL A   1      43.867  22.506  25.417  1.00  0.00     0.010 A 
ATOM     17  C   UNL A   1      43.656  23.131  26.655  1.00  0.00    -0.014 A 
BRANCH  17  18
ATOM     18  C   UNL A   1      43.999  24.558  26.894  1.00  0.00     0.031 A 
ATOM     19  C   UNL A   1      42.987  25.525  27.445  1.00  0.00     0.074 A 
ATOM     20  C   UNL A   1      45.264  24.965  26.668  1.00  0.00     0.049 A 
ATOM     21  N   UNL A   1      43.143  26.784  27.773  1.00  0.00    -0.248 NA
ATOM     22  C   UNL A   1      41.620  25.023  27.647  1.00  0.00     0.031 C 
ATOM     23  C   UNL A   1      46.332  24.123  26.122  1.00  0.00     0.029 A 
ATOM     24  N   UNL A   1      45.879  26.168  26.902  1.00  0.00    -0.354 N 
ATOM     25  C   UNL A   1      41.894  27.230  28.186  1.00  0.00     0.074 A 
ATOM     26  C   UNL A   1      40.983  26.114  28.050  1.00  0.00     0.031 C 
ATOM     27  C   UNL A   1      47.483  24.809  26.137  1.00  0.00     0.029 A 
ATOM     28  C   UNL A   1      47.224  26.158  26.624  1.00  0.00     0.049 A 
ATOM     29  H   UNL A   1      45.403  26.962  27.237  1.00  0.00     0.167 HD
ATOM     30  C   UNL A   1      41.543  28.457  28.643  1.00  0.00     0.037 A 
ATOM     31  C   UNL A   1      48.148  27.128  26.743  1.00  0.00     0.037 A 
ATOM     32  C   UNL A   1      42.459  29.555  28.812  1.00  0.00     0.049 A 
ATOM     33  C   UNL A   1      47.730  28.476  27.253  1.00  0.00     0.074 A 
ATOM     34  C   UNL A   1      42.209  30.821  29.316  1.00  0.00     0.029 A 
ATOM     35  N   UNL A   1      43.806  29.519  28.480  1.00  0.00    -0.354 N 
ATOM     36  N   UNL A   1      46.552  28.872  27.672  1.00  0.00    -0.248 NA
ATOM     37  C   UNL A   1      48.768  29.513  27.301  1.00  0.00     0.031 C 
ATOM     38  C   UNL A   1      43.392  31.563  29.247  1.00  0.00     0.029 A 
ATOM     39  C   UNL A   1      44.393  30.746  28.746  1.00  0.00     0.049 A 
ATOM     40  H   UNL A   1      44.276  28.737  28.110  1.00  0.00     0.167 HD
ATOM     41  C   UNL A   1      46.709  30.198  28.045  1.00  0.00     0.074 A 
ATOM     42  C   UNL A   1      48.102  30.532  27.826  1.00  0.00     0.031 C 
ATOM     43  C   UNL A   1      45.781  31.062  28.523  1.00  0.00     0.037 A 
BRANCH  30  44
ATOM     44  C   UNL A   1      40.096  28.689  28.975  1.00  0.00     0.064 A 
ATOM     45  C   UNL A   1      39.572  28.408  30.246  1.00  0.00     0.173 A 
ATOM     46  C   UNL A   1      39.231  29.244  28.018  1.00  0.00     0.173 A 
ATOM     47  F   UNL A   1      40.352  27.868  31.193  1.00  0.00    -0.203 F 
ATOM     48  C   UNL A   1      38.231  28.649  30.538  1.00  0.00     0.198 A 
ATOM     49  C   UNL A   1      37.898  29.509  28.322  1.00  0.00     0.198 A 
ATOM     50  F   UNL A   1      39.682  29.540  26.790  1.00  0.00    -0.203 F 
ATOM     51  F   UNL A   1      37.743  28.333  31.745  1.00  0.00    -0.200 F 
ATOM     52  C   UNL A   1      37.397  29.205  29.579  1.00  0.00     0.200 A 
ATOM     53  F   UNL A   1      37.098  30.058  27.398  1.00  0.00    -0.200 F 
ATOM     54  F   UNL A   1      36.109  29.442  29.864  1.00  0.00    -0.200 F 
ENDBRANCH  30  44
BRANCH  31  55
ATOM     55  C   UNL A   1      49.561  26.848  26.382  1.00  0.00     0.064 A 
ATOM     56  C   UNL A   1      50.484  26.438  27.353  1.00  0.00     0.173 A 
ATOM     57  C   UNL A   1      50.013  26.965  25.059  1.00  0.00     0.173 A 
ATOM     58  F   UNL A   1      50.105  26.330  28.635  1.00  0.00    -0.203 F 
ATOM     59  C   UNL A   1      51.809  26.164  27.016  1.00  0.00     0.198 A 
ATOM     60  C   UNL A   1      51.328  26.662  24.718  1.00  0.00     0.198 A 
ATOM     61  F   UNL A   1      49.167  27.348  24.092  1.00  0.00    -0.203 F 
ATOM     62  F   UNL A   1      52.680  25.808  27.970  1.00  0.00    -0.200 F 
ATOM     63  C   UNL A   1      52.227  26.268  25.698  1.00  0.00     0.200 A 
ATOM     64  F   UNL A   1      51.723  26.748  23.441  1.00  0.00    -0.200 F 
ATOM     65  F   UNL A   1      53.498  25.994  25.373  1.00  0.00    -0.200 F 
ENDBRANCH  31  55
BRANCH  43  66
ATOM     66  C   UNL A   1      46.253  32.444  28.864  1.00  0.00     0.064 A 
ATOM     67  C   UNL A   1      46.217  33.485  27.925  1.00  0.00     0.173 A 
ATOM     68  C   UNL A   1      46.736  32.732  30.149  1.00  0.00     0.173 A 
ATOM     69  F   UNL A   1      45.782  33.254  26.677  1.00  0.00    -0.203 F 
ATOM     70  C   UNL A   1      46.676  34.758  28.251  1.00  0.00     0.198 A 
ATOM     71  C   UNL A   1      47.168  34.013  30.480  1.00  0.00     0.198 A 
ATOM     72  F   UNL A   1      46.787  31.771  31.083  1.00  0.00    -0.203 F 
ATOM     73  F   UNL A   1      46.683  35.724  27.323  1.00  0.00    -0.200 F 
ATOM     74  C   UNL A   1      47.146  35.022  29.529  1.00  0.00     0.200 A 
ATOM     75  F   UNL A   1      47.613  34.269  31.717  1.00  0.00    -0.200 F 
ATOM     76  F   UNL A   1      47.588  36.249  29.841  1.00  0.00    -0.200 F 
ENDBRANCH  43  66
ENDBRANCH  17  18
ENDBRANCH  10  12
ENDBRANCH   7   8
ENDBRANCH   6   7
ENDBRANCH   5   6
ENDBRANCH   1   5
BRANCH   2  77
ATOM     77  C   UNL A   1      35.250  21.514  24.780  1.00  0.00     0.063 A 
ATOM     78  C   UNL A   1      35.081  20.156  25.094  1.00  0.00     0.016 A 
ATOM     79  C   UNL A   1      34.212  22.252  24.181  1.00  0.00     0.054 A 
ATOM     80  C   UNL A   1      33.854  19.536  24.872  1.00  0.00     0.001 A 
ATOM     81  C   UNL A   1      32.970  21.617  24.020  1.00  0.00     0.027 A 
ATOM     82  C   UNL A   1      32.794  20.271  24.352  1.00  0.00     0.002 A 
BRANCH  79  83
ATOM     83  N   UNL A   1      34.392  23.582  23.769  1.00  0.00    -0.323 N 
ATOM     84  H   UNL A   1      35.280  23.960  23.963  1.00  0.00     0.170 HD
BRANCH  83  85
ATOM     85  C   UNL A   1      33.511  24.448  23.133  1.00  0.00     0.233 A 
ATOM     86  N   UNL A   1      33.522  24.543  21.814  1.00  0.00    -0.182 NA
ATOM     87  N   UNL A   1      32.675  25.115  23.920  1.00  0.00    -0.176 NA
ATOM     88  C   UNL A   1      32.607  25.365  21.333  1.00  0.00     0.228 A 
ATOM     89  C   UNL A   1      31.850  25.970  23.324  1.00  0.00     0.233 A 
ATOM     90  Cl  UNL A   1      32.551  25.512  19.632  1.00  0.00    -0.041 Cl
ATOM     91  N   UNL A   1      31.754  26.108  22.012  1.00  0.00    -0.182 NA
BRANCH  89  92
ATOM     92  N   UNL A   1      31.164  26.831  24.176  1.00  0.00    -0.324 N 
ATOM     93  H   UNL A   1      30.188  26.706  24.217  1.00  0.00     0.170 HD
BRANCH  92  94
ATOM     94  C   UNL A   1      31.679  27.851  24.979  1.00  0.00     0.041 A 
ATOM     95  C   UNL A   1      32.526  28.811  24.417  1.00  0.00     0.028 A 
ATOM     96  C   UNL A   1      31.284  28.009  26.309  1.00  0.00     0.028 A 
ATOM     97  C   UNL A   1      32.949  29.917  25.162  1.00  0.00     0.028 A 
ATOM     98  C   UNL A   1      31.753  29.081  27.072  1.00  0.00     0.028 A 
ATOM     99  C   UNL A   1      32.573  30.059  26.500  1.00  0.00     0.044 A 
BRANCH  99 100
ATOM    100  N   UNL A   1      32.967  31.206  27.250  1.00  0.00    -0.308 N 
ATOM    101  C   UNL A   1      34.330  31.202  27.797  1.00  0.00     0.154 C 
ATOM    102  C   UNL A   1      32.232  32.397  27.184  1.00  0.00     0.253 C 
ATOM    103  C   UNL A   1      34.584  32.322  28.796  1.00  0.00     0.183 C 
ATOM    104  C   UNL A   1      32.841  33.595  27.931  1.00  0.00     0.260 C 
ATOM    105  O   UNL A   1      31.119  32.505  26.667  1.00  0.00    -0.272 OA
ATOM    106  O   UNL A   1      34.232  33.570  28.207  1.00  0.00    -0.370 OA
ENDBRANCH  99 100
ENDBRANCH  92  94
ENDBRANCH  89  92
ENDBRANCH  83  85
ENDBRANCH  79  83
ENDBRANCH   2  77
TORSDOF 15
ENDMDL
