MODEL 1
REMARK VINA RESULT:     -12.3      0.000      0.000
REMARK SMILES C[NH2+][C@]1(C(=O)NCCCNC(=O)c2ccc(-c3c4nc(c(-c5c(F)c(F)c(F)c(F)c5F)c5ccc([nH]5)c(-c5c(F)c(F)c(F)c(F)c5F)c5nc(c(-c6c(F)c(F)c(F)c(F)c6F)c6ccc3[nH]6)C=C5)C=C4)cc2)CCC[C@H]([N@H+]2CCC[C@@H]2C2CCCC2)C1
REMARK SMILES IDX 8 1 7 2 6 3 4 4 5 5 3 7 76 8 90 9 77 10 79 11 78 12 2 13
REMARK SMILES IDX 1 14 80 17 81 18 84 19 82 21 83 22 85 23 86 24 89 25 87 26
REMARK SMILES IDX 88 27 9 28 10 29 11 30 12 32 13 33 14 34 75 35 15 36 74 37
REMARK SMILES IDX 16 38 17 39 18 40 68 41 19 42 73 43 67 44 69 45 20 46 72 47
REMARK SMILES IDX 66 48 65 49 21 51 53 52 33 53 52 54 34 55 37 56 51 57 70 58
REMARK SMILES IDX 35 59 36 60 50 62 71 63 38 64 22 65 23 66 31 67 24 68 25 69
REMARK SMILES IDX 29 70 32 71 26 72 27 73 30 74 28 75 54 76 55 77 63 78 56 79
REMARK SMILES IDX 57 80 61 81 64 82 58 83 59 84 62 85 60 86 39 87 40 88 48 89
REMARK SMILES IDX 41 90 42 91 46 92 49 93 43 94 44 95 47 96 45 97
REMARK H PARENT 6 6 2 15 2 16 80 20 10 31 69 50 37 61
REMARK Flexibility Score: inf
ROOT
ATOM      1  C   UNL A   1      33.340  29.194  23.317  1.00  0.00     0.042 C 
ENDROOT
BRANCH   1   2
ATOM      2  C   UNL A   1      32.240  28.210  22.874  1.00  0.00     0.118 C 
BRANCH   2   3
ATOM      3  N   UNL A   1      32.642  27.251  21.854  1.00  0.00    -0.351 N 
ATOM      4  C   UNL A   1      33.008  25.940  21.875  1.00  0.00     0.281 C 
ATOM      5  O   UNL A   1      33.273  25.466  20.759  1.00  0.00    -0.268 OA
ATOM      6  H   UNL A   1      32.652  27.638  20.948  1.00  0.00     0.163 HD
BRANCH   4   7
ATOM      7  C   UNL A   1      33.188  25.065  23.192  1.00  0.00     0.181 C 
ATOM      8  C   UNL A   1      34.325  25.736  24.033  1.00  0.00     0.079 C 
ATOM      9  C   UNL A   1      31.901  24.924  24.011  1.00  0.00     0.144 C 
ATOM     10  C   UNL A   1      34.132  26.011  25.540  1.00  0.00     0.013 C 
ATOM     11  C   UNL A   1      32.068  24.598  25.518  1.00  0.00     0.191 C 
ATOM     12  C   UNL A   1      32.727  25.855  26.095  1.00  0.00     0.065 C 
BRANCH   7  13
ATOM     13  N   UNL A   1      33.649  23.719  22.706  1.00  0.00    -0.336 N 
ATOM     14  C   UNL A   1      32.613  22.724  22.426  1.00  0.00     0.331 C 
ATOM     15  H   UNL A   1      34.175  23.867  21.845  1.00  0.00     0.346 HD
ATOM     16  H   UNL A   1      34.189  23.328  23.478  1.00  0.00     0.346 HD
ENDBRANCH   7  13
BRANCH  11  17
ATOM     17  N   UNL A   1      32.702  23.467  26.223  1.00  0.00    -0.330 N 
ATOM     18  C   UNL A   1      31.836  22.894  27.256  1.00  0.00     0.262 C 
ATOM     19  C   UNL A   1      33.632  22.394  25.796  1.00  0.00     0.187 C 
ATOM     20  H   UNL A   1      33.462  24.138  26.334  1.00  0.00     0.348 HD
ATOM     21  C   UNL A   1      32.861  22.191  28.106  1.00  0.00     0.067 C 
ATOM     22  C   UNL A   1      33.753  21.525  27.073  1.00  0.00     0.071 C 
BRANCH  19  23
ATOM     23  C   UNL A   1      35.037  22.736  25.257  1.00  0.00     0.047 C 
ATOM     24  C   UNL A   1      36.189  23.277  26.112  1.00  0.00     0.010 C 
ATOM     25  C   UNL A   1      35.772  21.619  24.506  1.00  0.00     0.010 C 
ATOM     26  C   UNL A   1      37.315  23.423  25.076  1.00  0.00     0.001 C 
ATOM     27  C   UNL A   1      37.054  22.323  24.040  1.00  0.00     0.001 C 
ENDBRANCH  19  23
ENDBRANCH  11  17
ENDBRANCH   4   7
ENDBRANCH   2   3
ENDBRANCH   1   2
BRANCH   1  28
ATOM     28  C   UNL A   1      33.571  29.262  24.819  1.00  0.00     0.118 C 
BRANCH  28  29
ATOM     29  N   UNL A   1      32.898  30.410  25.400  1.00  0.00    -0.352 N 
ATOM     30  C   UNL A   1      33.045  30.956  26.646  1.00  0.00     0.251 C 
ATOM     31  H   UNL A   1      32.245  30.859  24.815  1.00  0.00     0.163 HD
ATOM     32  O   UNL A   1      32.151  31.672  27.106  1.00  0.00    -0.269 OA
BRANCH  30  33
ATOM     33  C   UNL A   1      34.261  30.700  27.448  1.00  0.00     0.039 A 
ATOM     34  C   UNL A   1      35.196  31.725  27.614  1.00  0.00     0.014 A 
ATOM     35  C   UNL A   1      34.517  29.431  27.977  1.00  0.00     0.014 A 
ATOM     36  C   UNL A   1      36.367  31.488  28.338  1.00  0.00     0.010 A 
ATOM     37  C   UNL A   1      35.642  29.220  28.769  1.00  0.00     0.010 A 
ATOM     38  C   UNL A   1      36.590  30.239  28.940  1.00  0.00    -0.014 A 
BRANCH  38  39
ATOM     39  C   UNL A   1      37.822  29.966  29.721  1.00  0.00     0.031 A 
ATOM     40  C   UNL A   1      38.865  29.028  29.175  1.00  0.00     0.074 A 
ATOM     41  C   UNL A   1      37.971  30.509  30.944  1.00  0.00     0.049 A 
ATOM     42  N   UNL A   1      39.967  28.596  29.736  1.00  0.00    -0.248 NA
ATOM     43  C   UNL A   1      38.623  28.478  27.832  1.00  0.00     0.031 C 
ATOM     44  C   UNL A   1      37.006  31.394  31.599  1.00  0.00     0.029 A 
ATOM     45  N   UNL A   1      38.985  30.387  31.861  1.00  0.00    -0.354 N 
ATOM     46  C   UNL A   1      40.532  27.712  28.826  1.00  0.00     0.074 A 
ATOM     47  C   UNL A   1      39.629  27.626  27.700  1.00  0.00     0.031 C 
ATOM     48  C   UNL A   1      37.483  31.752  32.802  1.00  0.00     0.029 A 
ATOM     49  C   UNL A   1      38.768  31.092  33.019  1.00  0.00     0.049 A 
ATOM     50  H   UNL A   1      39.792  29.845  31.703  1.00  0.00     0.167 HD
ATOM     51  C   UNL A   1      41.711  27.051  28.911  1.00  0.00     0.037 A 
ATOM     52  C   UNL A   1      39.518  31.189  34.133  1.00  0.00     0.037 A 
ATOM     53  C   UNL A   1      42.623  27.169  30.017  1.00  0.00     0.049 A 
ATOM     54  C   UNL A   1      40.827  30.451  34.197  1.00  0.00     0.074 A 
ATOM     55  C   UNL A   1      43.872  26.594  30.174  1.00  0.00     0.029 A 
ATOM     56  N   UNL A   1      42.381  27.918  31.160  1.00  0.00    -0.354 N 
ATOM     57  N   UNL A   1      41.384  29.673  33.301  1.00  0.00    -0.248 NA
ATOM     58  C   UNL A   1      41.618  30.613  35.426  1.00  0.00     0.031 C 
ATOM     59  C   UNL A   1      44.368  26.960  31.429  1.00  0.00     0.029 A 
ATOM     60  C   UNL A   1      43.450  27.804  32.034  1.00  0.00     0.049 A 
ATOM     61  H   UNL A   1      41.570  28.451  31.325  1.00  0.00     0.167 HD
ATOM     62  C   UNL A   1      42.600  29.277  33.842  1.00  0.00     0.074 A 
ATOM     63  C   UNL A   1      42.707  29.914  35.137  1.00  0.00     0.031 C 
ATOM     64  C   UNL A   1      43.543  28.459  33.313  1.00  0.00     0.037 A 
BRANCH  51  65
ATOM     65  C   UNL A   1      42.090  26.147  27.772  1.00  0.00     0.064 A 
ATOM     66  C   UNL A   1      41.579  24.845  27.664  1.00  0.00     0.173 A 
ATOM     67  C   UNL A   1      42.940  26.604  26.753  1.00  0.00     0.173 A 
ATOM     68  F   UNL A   1      40.771  24.356  28.616  1.00  0.00    -0.203 F 
ATOM     69  C   UNL A   1      41.927  24.023  26.594  1.00  0.00     0.198 A 
ATOM     70  C   UNL A   1      43.262  25.791  25.668  1.00  0.00     0.198 A 
ATOM     71  F   UNL A   1      43.453  27.842  26.803  1.00  0.00    -0.203 F 
ATOM     72  F   UNL A   1      41.464  22.767  26.538  1.00  0.00    -0.200 F 
ATOM     73  C   UNL A   1      42.761  24.500  25.593  1.00  0.00     0.200 A 
ATOM     74  F   UNL A   1      44.056  26.257  24.695  1.00  0.00    -0.200 F 
ATOM     75  F   UNL A   1      43.086  23.711  24.559  1.00  0.00    -0.200 F 
ENDBRANCH  51  65
BRANCH  52  76
ATOM     76  C   UNL A   1      39.062  32.037  35.267  1.00  0.00     0.064 A 
ATOM     77  C   UNL A   1      39.357  33.407  35.303  1.00  0.00     0.173 A 
ATOM     78  C   UNL A   1      38.332  31.497  36.335  1.00  0.00     0.173 A 
ATOM     79  F   UNL A   1      40.068  33.965  34.313  1.00  0.00    -0.203 F 
ATOM     80  C   UNL A   1      38.961  34.200  36.378  1.00  0.00     0.198 A 
ATOM     81  C   UNL A   1      37.910  32.298  37.396  1.00  0.00     0.198 A 
ATOM     82  F   UNL A   1      38.018  30.194  36.345  1.00  0.00    -0.203 F 
ATOM     83  F   UNL A   1      39.299  35.496  36.411  1.00  0.00    -0.200 F 
ATOM     84  C   UNL A   1      38.234  33.647  37.420  1.00  0.00     0.200 A 
ATOM     85  F   UNL A   1      37.195  31.762  38.393  1.00  0.00    -0.200 F 
ATOM     86  F   UNL A   1      37.850  34.410  38.453  1.00  0.00    -0.200 F 
ENDBRANCH  52  76
BRANCH  64  87
ATOM     87  C   UNL A   1      44.791  28.240  34.118  1.00  0.00     0.064 A 
ATOM     88  C   UNL A   1      45.897  29.095  34.013  1.00  0.00     0.173 A 
ATOM     89  C   UNL A   1      44.860  27.182  35.039  1.00  0.00     0.173 A 
ATOM     90  F   UNL A   1      45.884  30.110  33.138  1.00  0.00    -0.203 F 
ATOM     91  C   UNL A   1      47.038  28.884  34.783  1.00  0.00     0.198 A 
ATOM     92  C   UNL A   1      45.990  26.993  35.829  1.00  0.00     0.198 A 
ATOM     93  F   UNL A   1      43.825  26.341  35.182  1.00  0.00    -0.203 F 
ATOM     94  F   UNL A   1      48.102  29.684  34.632  1.00  0.00    -0.200 F 
ATOM     95  C   UNL A   1      47.081  27.839  35.695  1.00  0.00     0.200 A 
ATOM     96  F   UNL A   1      46.024  25.993  36.720  1.00  0.00    -0.200 F 
ATOM     97  F   UNL A   1      48.177  27.643  36.440  1.00  0.00    -0.200 F 
ENDBRANCH  64  87
ENDBRANCH  38  39
ENDBRANCH  30  33
ENDBRANCH  28  29
ENDBRANCH   1  28
TORSDOF 13
ENDMDL
MODEL 2
REMARK VINA RESULT:     -12.3      0.152      2.011
REMARK SMILES C[NH2+][C@]1(C(=O)NCCCNC(=O)c2ccc(-c3c4nc(c(-c5c(F)c(F)c(F)c(F)c5F)c5ccc([nH]5)c(-c5c(F)c(F)c(F)c(F)c5F)c5nc(c(-c6c(F)c(F)c(F)c(F)c6F)c6ccc3[nH]6)C=C5)C=C4)cc2)CCC[C@H]([N@H+]2CCC[C@@H]2C2CCCC2)C1
REMARK SMILES IDX 8 1 7 2 6 3 4 4 5 5 3 7 76 8 90 9 77 10 79 11 78 12 2 13
REMARK SMILES IDX 1 14 80 17 81 18 84 19 82 21 83 22 85 23 86 24 89 25 87 26
REMARK SMILES IDX 88 27 9 28 10 29 11 30 12 32 13 33 14 34 75 35 15 36 74 37
REMARK SMILES IDX 16 38 17 39 18 40 68 41 19 42 73 43 67 44 69 45 20 46 72 47
REMARK SMILES IDX 66 48 65 49 21 51 53 52 33 53 52 54 34 55 37 56 51 57 70 58
REMARK SMILES IDX 35 59 36 60 50 62 71 63 38 64 22 65 23 66 31 67 24 68 25 69
REMARK SMILES IDX 29 70 32 71 26 72 27 73 30 74 28 75 54 76 55 77 63 78 56 79
REMARK SMILES IDX 57 80 61 81 64 82 58 83 59 84 62 85 60 86 39 87 40 88 48 89
REMARK SMILES IDX 41 90 42 91 46 92 49 93 43 94 44 95 47 96 45 97
REMARK H PARENT 6 6 2 15 2 16 80 20 10 31 69 50 37 61
REMARK Flexibility Score: inf
ROOT
ATOM      1  C   UNL A   1      33.219  29.184  23.496  1.00  0.00     0.042 C 
ENDROOT
BRANCH   1   2
ATOM      2  C   UNL A   1      32.123  28.265  22.922  1.00  0.00     0.118 C 
BRANCH   2   3
ATOM      3  N   UNL A   1      32.574  27.333  21.897  1.00  0.00    -0.351 N 
ATOM      4  C   UNL A   1      32.977  26.032  21.906  1.00  0.00     0.281 C 
ATOM      5  O   UNL A   1      33.278  25.583  20.790  1.00  0.00    -0.268 OA
ATOM      6  H   UNL A   1      32.592  27.733  20.997  1.00  0.00     0.163 HD
BRANCH   4   7
ATOM      7  C   UNL A   1      33.154  25.144  23.215  1.00  0.00     0.181 C 
ATOM      8  C   UNL A   1      34.258  25.831  24.086  1.00  0.00     0.079 C 
ATOM      9  C   UNL A   1      31.856  24.958  24.006  1.00  0.00     0.144 C 
ATOM     10  C   UNL A   1      34.029  26.079  25.593  1.00  0.00     0.013 C 
ATOM     11  C   UNL A   1      32.003  24.614  25.511  1.00  0.00     0.191 C 
ATOM     12  C   UNL A   1      32.619  25.879  26.119  1.00  0.00     0.065 C 
BRANCH   7  13
ATOM     13  N   UNL A   1      33.658  23.817  22.718  1.00  0.00    -0.336 N 
ATOM     14  C   UNL A   1      32.653  22.806  22.388  1.00  0.00     0.331 C 
ATOM     15  H   UNL A   1      34.207  23.991  21.877  1.00  0.00     0.346 HD
ATOM     16  H   UNL A   1      34.183  23.423  23.499  1.00  0.00     0.346 HD
ENDBRANCH   7  13
BRANCH  11  17
ATOM     17  N   UNL A   1      32.653  23.490  26.212  1.00  0.00    -0.330 N 
ATOM     18  C   UNL A   1      31.791  22.895  27.237  1.00  0.00     0.262 C 
ATOM     19  C   UNL A   1      33.603  22.436  25.785  1.00  0.00     0.187 C 
ATOM     20  H   UNL A   1      33.400  24.173  26.333  1.00  0.00     0.348 HD
ATOM     21  C   UNL A   1      32.823  22.204  28.088  1.00  0.00     0.067 C 
ATOM     22  C   UNL A   1      33.732  21.560  27.056  1.00  0.00     0.071 C 
BRANCH  19  23
ATOM     23  C   UNL A   1      35.006  22.806  25.256  1.00  0.00     0.047 C 
ATOM     24  C   UNL A   1      36.151  23.336  26.126  1.00  0.00     0.010 C 
ATOM     25  C   UNL A   1      35.752  21.716  24.476  1.00  0.00     0.010 C 
ATOM     26  C   UNL A   1      37.277  23.520  25.095  1.00  0.00     0.001 C 
ATOM     27  C   UNL A   1      37.028  22.445  24.030  1.00  0.00     0.001 C 
ENDBRANCH  19  23
ENDBRANCH  11  17
ENDBRANCH   4   7
ENDBRANCH   2   3
ENDBRANCH   1   2
BRANCH   1  28
ATOM     28  C   UNL A   1      33.280  29.235  25.015  1.00  0.00     0.118 C 
BRANCH  28  29
ATOM     29  N   UNL A   1      32.763  30.495  25.518  1.00  0.00    -0.352 N 
ATOM     30  C   UNL A   1      33.049  31.136  26.693  1.00  0.00     0.251 C 
ATOM     31  H   UNL A   1      32.118  30.952  24.931  1.00  0.00     0.163 HD
ATOM     32  O   UNL A   1      32.262  31.980  27.131  1.00  0.00    -0.269 OA
BRANCH  30  33
ATOM     33  C   UNL A   1      34.286  30.832  27.442  1.00  0.00     0.039 A 
ATOM     34  C   UNL A   1      34.450  29.561  28.001  1.00  0.00     0.014 A 
ATOM     35  C   UNL A   1      35.256  31.816  27.656  1.00  0.00     0.014 A 
ATOM     36  C   UNL A   1      35.597  29.269  28.742  1.00  0.00     0.010 A 
ATOM     37  C   UNL A   1      36.437  31.500  28.321  1.00  0.00     0.010 A 
ATOM     38  C   UNL A   1      36.610  30.230  28.891  1.00  0.00    -0.014 A 
BRANCH  38  39
ATOM     39  C   UNL A   1      37.843  29.941  29.667  1.00  0.00     0.031 A 
ATOM     40  C   UNL A   1      38.869  28.987  29.118  1.00  0.00     0.074 A 
ATOM     41  C   UNL A   1      38.006  30.486  30.887  1.00  0.00     0.049 A 
ATOM     42  N   UNL A   1      39.968  28.540  29.674  1.00  0.00    -0.248 NA
ATOM     43  C   UNL A   1      38.612  28.435  27.778  1.00  0.00     0.031 C 
ATOM     44  C   UNL A   1      37.058  31.387  31.544  1.00  0.00     0.029 A 
ATOM     45  N   UNL A   1      39.023  30.353  31.799  1.00  0.00    -0.354 N 
ATOM     46  C   UNL A   1      40.515  27.645  28.764  1.00  0.00     0.074 A 
ATOM     47  C   UNL A   1      39.604  27.568  27.644  1.00  0.00     0.031 C 
ATOM     48  C   UNL A   1      37.547  31.742  32.744  1.00  0.00     0.029 A 
ATOM     49  C   UNL A   1      38.823  31.065  32.955  1.00  0.00     0.049 A 
ATOM     50  H   UNL A   1      39.821  29.799  31.638  1.00  0.00     0.167 HD
ATOM     51  C   UNL A   1      41.684  26.967  28.845  1.00  0.00     0.037 A 
ATOM     52  C   UNL A   1      39.580  31.154  34.065  1.00  0.00     0.037 A 
ATOM     53  C   UNL A   1      42.604  27.076  29.946  1.00  0.00     0.049 A 
ATOM     54  C   UNL A   1      40.879  30.398  34.124  1.00  0.00     0.074 A 
ATOM     55  C   UNL A   1      43.845  26.483  30.098  1.00  0.00     0.029 A 
ATOM     56  N   UNL A   1      42.379  27.831  31.087  1.00  0.00    -0.354 N 
ATOM     57  N   UNL A   1      41.419  29.608  33.228  1.00  0.00    -0.248 NA
ATOM     58  C   UNL A   1      41.679  30.552  35.348  1.00  0.00     0.031 C 
ATOM     59  C   UNL A   1      44.353  26.845  31.349  1.00  0.00     0.029 A 
ATOM     60  C   UNL A   1      43.451  27.705  31.956  1.00  0.00     0.049 A 
ATOM     61  H   UNL A   1      41.577  28.377  31.255  1.00  0.00     0.167 HD
ATOM     62  C   UNL A   1      42.633  29.196  33.764  1.00  0.00     0.074 A 
ATOM     63  C   UNL A   1      42.756  29.836  35.056  1.00  0.00     0.031 C 
ATOM     64  C   UNL A   1      43.561  28.363  33.232  1.00  0.00     0.037 A 
BRANCH  51  65
ATOM     65  C   UNL A   1      42.043  26.054  27.707  1.00  0.00     0.064 A 
ATOM     66  C   UNL A   1      42.895  26.468  26.671  1.00  0.00     0.173 A 
ATOM     67  C   UNL A   1      41.565  24.735  27.674  1.00  0.00     0.173 A 
ATOM     68  F   UNL A   1      43.371  27.721  26.649  1.00  0.00    -0.203 F 
ATOM     69  C   UNL A   1      43.231  25.604  25.631  1.00  0.00     0.198 A 
ATOM     70  C   UNL A   1      41.928  23.865  26.649  1.00  0.00     0.198 A 
ATOM     71  F   UNL A   1      40.751  24.285  28.642  1.00  0.00    -0.203 F 
ATOM     72  F   UNL A   1      44.007  26.038  24.628  1.00  0.00    -0.200 F 
ATOM     73  C   UNL A   1      42.754  24.302  25.624  1.00  0.00     0.200 A 
ATOM     74  F   UNL A   1      41.478  22.603  26.652  1.00  0.00    -0.200 F 
ATOM     75  F   UNL A   1      43.087  23.470  24.628  1.00  0.00    -0.200 F 
ENDBRANCH  51  65
BRANCH  52  76
ATOM     76  C   UNL A   1      39.144  32.012  35.198  1.00  0.00     0.064 A 
ATOM     77  C   UNL A   1      38.444  31.467  36.284  1.00  0.00     0.173 A 
ATOM     78  C   UNL A   1      39.409  33.389  35.218  1.00  0.00     0.173 A 
ATOM     79  F   UNL A   1      38.151  30.159  36.302  1.00  0.00    -0.203 F 
ATOM     80  C   UNL A   1      38.005  32.270  37.334  1.00  0.00     0.198 A 
ATOM     81  C   UNL A   1      38.995  34.187  36.283  1.00  0.00     0.198 A 
ATOM     82  F   UNL A   1      40.080  33.959  34.207  1.00  0.00    -0.203 F 
ATOM     83  F   UNL A   1      37.296  31.732  38.335  1.00  0.00    -0.200 F 
ATOM     84  C   UNL A   1      38.285  33.628  37.335  1.00  0.00     0.200 A 
ATOM     85  F   UNL A   1      39.280  35.495  36.288  1.00  0.00    -0.200 F 
ATOM     86  F   UNL A   1      37.864  34.401  38.347  1.00  0.00    -0.200 F 
ENDBRANCH  52  76
BRANCH  64  87
ATOM     87  C   UNL A   1      44.809  28.128  34.031  1.00  0.00     0.064 A 
ATOM     88  C   UNL A   1      44.930  27.042  34.910  1.00  0.00     0.173 A 
ATOM     89  C   UNL A   1      45.915  28.980  33.881  1.00  0.00     0.173 A 
ATOM     90  F   UNL A   1      43.896  26.210  35.099  1.00  0.00    -0.203 F 
ATOM     91  C   UNL A   1      46.103  26.832  35.629  1.00  0.00     0.198 A 
ATOM     92  C   UNL A   1      47.097  28.748  34.577  1.00  0.00     0.198 A 
ATOM     93  F   UNL A   1      45.853  30.028  33.046  1.00  0.00    -0.203 F 
ATOM     94  F   UNL A   1      46.180  25.817  36.499  1.00  0.00    -0.200 F 
ATOM     95  C   UNL A   1      47.188  27.680  35.456  1.00  0.00     0.200 A 
ATOM     96  F   UNL A   1      48.149  29.559  34.397  1.00  0.00    -0.200 F 
ATOM     97  F   UNL A   1      48.320  27.470  36.143  1.00  0.00    -0.200 F 
ENDBRANCH  64  87
ENDBRANCH  38  39
ENDBRANCH  30  33
ENDBRANCH  28  29
ENDBRANCH   1  28
TORSDOF 13
ENDMDL
MODEL 3
REMARK VINA RESULT:     -12.1      2.019      3.366
REMARK SMILES C[NH2+][C@]1(C(=O)NCCCNC(=O)c2ccc(-c3c4nc(c(-c5c(F)c(F)c(F)c(F)c5F)c5ccc([nH]5)c(-c5c(F)c(F)c(F)c(F)c5F)c5nc(c(-c6c(F)c(F)c(F)c(F)c6F)c6ccc3[nH]6)C=C5)C=C4)cc2)CCC[C@H]([N@H+]2CCC[C@@H]2C2CCCC2)C1
REMARK SMILES IDX 8 1 7 2 6 3 4 4 5 5 3 7 76 8 90 9 77 10 79 11 78 12 2 13
REMARK SMILES IDX 1 14 80 17 81 18 84 19 82 21 83 22 85 23 86 24 89 25 87 26
REMARK SMILES IDX 88 27 9 28 10 29 11 30 12 32 13 33 14 34 75 35 15 36 74 37
REMARK SMILES IDX 16 38 17 39 18 40 68 41 19 42 73 43 67 44 69 45 20 46 72 47
REMARK SMILES IDX 66 48 65 49 21 51 53 52 33 53 52 54 34 55 37 56 51 57 70 58
REMARK SMILES IDX 35 59 36 60 50 62 71 63 38 64 22 65 23 66 31 67 24 68 25 69
REMARK SMILES IDX 29 70 32 71 26 72 27 73 30 74 28 75 54 76 55 77 63 78 56 79
REMARK SMILES IDX 57 80 61 81 64 82 58 83 59 84 62 85 60 86 39 87 40 88 48 89
REMARK SMILES IDX 41 90 42 91 46 92 49 93 43 94 44 95 47 96 45 97
REMARK H PARENT 6 6 2 15 2 16 80 20 10 31 69 50 37 61
REMARK Flexibility Score: inf
ROOT
ATOM      1  C   UNL A   1      31.454  32.231  26.519  1.00  0.00     0.042 C 
ENDROOT
BRANCH   1   2
ATOM      2  C   UNL A   1      31.485  30.772  26.024  1.00  0.00     0.118 C 
BRANCH   2   3
ATOM      3  N   UNL A   1      31.447  29.763  27.073  1.00  0.00    -0.351 N 
ATOM      4  C   UNL A   1      31.665  28.419  27.107  1.00  0.00     0.281 C 
ATOM      5  O   UNL A   1      31.541  27.910  28.232  1.00  0.00    -0.268 OA
ATOM      6  H   UNL A   1      31.208  30.134  27.954  1.00  0.00     0.163 HD
BRANCH   4   7
ATOM      7  C   UNL A   1      31.966  27.513  25.834  1.00  0.00     0.181 C 
ATOM      8  C   UNL A   1      30.918  27.903  24.739  1.00  0.00     0.079 C 
ATOM      9  C   UNL A   1      33.398  27.656  25.309  1.00  0.00     0.144 C 
ATOM     10  C   UNL A   1      31.366  28.199  23.291  1.00  0.00     0.013 C 
ATOM     11  C   UNL A   1      33.633  27.285  23.821  1.00  0.00     0.191 C 
ATOM     12  C   UNL A   1      32.856  28.356  23.048  1.00  0.00     0.065 C 
BRANCH   7  13
ATOM     13  N   UNL A   1      31.715  26.103  26.292  1.00  0.00    -0.336 N 
ATOM     14  C   UNL A   1      30.556  25.416  25.721  1.00  0.00     0.331 C 
ATOM     15  H   UNL A   1      32.542  25.553  26.062  1.00  0.00     0.346 HD
ATOM     16  H   UNL A   1      31.512  26.180  27.288  1.00  0.00     0.346 HD
ENDBRANCH   7  13
BRANCH  11  17
ATOM     17  N   UNL A   1      33.425  26.033  23.067  1.00  0.00    -0.330 N 
ATOM     18  C   UNL A   1      33.217  26.269  21.636  1.00  0.00     0.262 C 
ATOM     19  C   UNL A   1      33.967  24.660  23.202  1.00  0.00     0.187 C 
ATOM     20  H   UNL A   1      32.724  25.873  23.790  1.00  0.00     0.348 HD
ATOM     21  C   UNL A   1      32.538  24.983  21.247  1.00  0.00     0.067 C 
ATOM     22  C   UNL A   1      33.364  23.935  21.973  1.00  0.00     0.071 C 
BRANCH  19  23
ATOM     23  C   UNL A   1      33.710  23.833  24.480  1.00  0.00     0.047 C 
ATOM     24  C   UNL A   1      33.630  22.303  24.525  1.00  0.00     0.010 C 
ATOM     25  C   UNL A   1      34.662  24.079  25.657  1.00  0.00     0.010 C 
ATOM     26  C   UNL A   1      33.370  22.040  26.017  1.00  0.00     0.001 C 
ATOM     27  C   UNL A   1      34.065  23.189  26.756  1.00  0.00     0.001 C 
ENDBRANCH  19  23
ENDBRANCH  11  17
ENDBRANCH   4   7
ENDBRANCH   2   3
ENDBRANCH   1   2
BRANCH   1  28
ATOM     28  C   UNL A   1      32.718  32.693  27.228  1.00  0.00     0.118 C 
BRANCH  28  29
ATOM     29  N   UNL A   1      32.615  34.085  27.629  1.00  0.00    -0.352 N 
ATOM     30  C   UNL A   1      33.151  34.708  28.723  1.00  0.00     0.251 C 
ATOM     31  H   UNL A   1      32.086  34.660  27.030  1.00  0.00     0.163 HD
ATOM     32  O   UNL A   1      32.668  35.775  29.111  1.00  0.00    -0.269 OA
BRANCH  30  33
ATOM     33  C   UNL A   1      34.302  34.121  29.443  1.00  0.00     0.039 A 
ATOM     34  C   UNL A   1      35.597  34.394  28.995  1.00  0.00     0.014 A 
ATOM     35  C   UNL A   1      34.105  33.246  30.515  1.00  0.00     0.014 A 
ATOM     36  C   UNL A   1      36.693  33.818  29.642  1.00  0.00     0.010 A 
ATOM     37  C   UNL A   1      35.199  32.741  31.213  1.00  0.00     0.010 A 
ATOM     38  C   UNL A   1      36.504  33.003  30.770  1.00  0.00    -0.014 A 
BRANCH  38  39
ATOM     39  C   UNL A   1      37.652  32.386  31.480  1.00  0.00     0.031 A 
ATOM     40  C   UNL A   1      38.392  31.235  30.854  1.00  0.00     0.074 A 
ATOM     41  C   UNL A   1      37.987  32.819  32.710  1.00  0.00     0.049 A 
ATOM     42  N   UNL A   1      39.365  30.508  31.346  1.00  0.00    -0.248 NA
ATOM     43  C   UNL A   1      37.962  30.824  29.508  1.00  0.00     0.031 C 
ATOM     44  C   UNL A   1      37.313  33.896  33.440  1.00  0.00     0.029 A 
ATOM     45  N   UNL A   1      38.970  32.400  33.571  1.00  0.00    -0.354 N 
ATOM     46  C   UNL A   1      39.643  29.548  30.381  1.00  0.00     0.074 A 
ATOM     47  C   UNL A   1      38.704  29.746  29.300  1.00  0.00     0.031 C 
ATOM     48  C   UNL A   1      37.915  34.065  34.628  1.00  0.00     0.029 A 
ATOM     49  C   UNL A   1      38.991  33.087  34.760  1.00  0.00     0.049 A 
ATOM     50  H   UNL A   1      39.600  31.675  33.356  1.00  0.00     0.167 HD
ATOM     51  C   UNL A   1      40.611  28.601  30.387  1.00  0.00     0.037 A 
ATOM     52  C   UNL A   1      39.784  32.939  35.837  1.00  0.00     0.037 A 
ATOM     53  C   UNL A   1      41.566  28.431  31.450  1.00  0.00     0.049 A 
ATOM     54  C   UNL A   1      40.858  31.885  35.813  1.00  0.00     0.074 A 
ATOM     55  C   UNL A   1      42.627  27.546  31.526  1.00  0.00     0.029 A 
ATOM     56  N   UNL A   1      41.574  29.167  32.626  1.00  0.00    -0.354 N 
ATOM     57  N   UNL A   1      41.155  31.028  34.867  1.00  0.00    -0.248 NA
ATOM     58  C   UNL A   1      41.712  31.784  37.005  1.00  0.00     0.031 C 
ATOM     59  C   UNL A   1      43.251  27.717  32.766  1.00  0.00     0.029 A 
ATOM     60  C   UNL A   1      42.611  28.744  33.441  1.00  0.00     0.049 A 
ATOM     61  H   UNL A   1      40.937  29.885  32.848  1.00  0.00     0.167 HD
ATOM     62  C   UNL A   1      42.247  30.308  35.334  1.00  0.00     0.074 A 
ATOM     63  C   UNL A   1      42.568  30.840  36.641  1.00  0.00     0.031 C 
ATOM     64  C   UNL A   1      42.922  29.297  34.734  1.00  0.00     0.037 A 
BRANCH  51  65
ATOM     65  C   UNL A   1      40.695  27.680  29.204  1.00  0.00     0.064 A 
ATOM     66  C   UNL A   1      39.830  26.583  29.060  1.00  0.00     0.173 A 
ATOM     67  C   UNL A   1      41.623  27.920  28.178  1.00  0.00     0.173 A 
ATOM     68  F   UNL A   1      38.932  26.303  30.016  1.00  0.00    -0.203 F 
ATOM     69  C   UNL A   1      39.910  25.747  27.949  1.00  0.00     0.198 A 
ATOM     70  C   UNL A   1      41.679  27.099  27.054  1.00  0.00     0.198 A 
ATOM     71  F   UNL A   1      42.470  28.956  28.261  1.00  0.00    -0.203 F 
ATOM     72  F   UNL A   1      39.105  24.679  27.859  1.00  0.00    -0.200 F 
ATOM     73  C   UNL A   1      40.828  26.010  26.943  1.00  0.00     0.200 A 
ATOM     74  F   UNL A   1      42.557  27.362  26.076  1.00  0.00    -0.200 F 
ATOM     75  F   UNL A   1      40.896  25.209  25.871  1.00  0.00    -0.200 F 
ENDBRANCH  51  65
BRANCH  52  76
ATOM     76  C   UNL A   1      39.611  33.826  37.018  1.00  0.00     0.064 A 
ATOM     77  C   UNL A   1      40.231  35.083  37.069  1.00  0.00     0.173 A 
ATOM     78  C   UNL A   1      38.832  33.437  38.117  1.00  0.00     0.173 A 
ATOM     79  F   UNL A   1      41.001  35.491  36.051  1.00  0.00    -0.203 F 
ATOM     80  C   UNL A   1      40.100  35.905  38.186  1.00  0.00     0.198 A 
ATOM     81  C   UNL A   1      38.676  34.274  39.221  1.00  0.00     0.198 A 
ATOM     82  F   UNL A   1      38.212  32.249  38.115  1.00  0.00    -0.203 F 
ATOM     83  F   UNL A   1      40.743  37.079  38.230  1.00  0.00    -0.200 F 
ATOM     84  C   UNL A   1      39.318  35.503  39.258  1.00  0.00     0.200 A 
ATOM     85  F   UNL A   1      37.908  33.888  40.248  1.00  0.00    -0.200 F 
ATOM     86  F   UNL A   1      39.189  36.295  40.332  1.00  0.00    -0.200 F 
ENDBRANCH  52  76
BRANCH  64  87
ATOM     87  C   UNL A   1      44.101  28.728  35.469  1.00  0.00     0.064 A 
ATOM     88  C   UNL A   1      45.396  29.234  35.292  1.00  0.00     0.173 A 
ATOM     89  C   UNL A   1      43.920  27.689  36.395  1.00  0.00     0.173 A 
ATOM     90  F   UNL A   1      45.621  30.216  34.407  1.00  0.00    -0.203 F 
ATOM     91  C   UNL A   1      46.473  28.704  35.997  1.00  0.00     0.198 A 
ATOM     92  C   UNL A   1      44.994  27.182  37.121  1.00  0.00     0.198 A 
ATOM     93  F   UNL A   1      42.699  27.175  36.606  1.00  0.00    -0.203 F 
ATOM     94  F   UNL A   1      47.709  29.169  35.777  1.00  0.00    -0.200 F 
ATOM     95  C   UNL A   1      46.270  27.684  36.916  1.00  0.00     0.200 A 
ATOM     96  F   UNL A   1      44.794  26.207  38.019  1.00  0.00    -0.200 F 
ATOM     97  F   UNL A   1      47.307  27.181  37.599  1.00  0.00    -0.200 F 
ENDBRANCH  64  87
ENDBRANCH  38  39
ENDBRANCH  30  33
ENDBRANCH  28  29
ENDBRANCH   1  28
TORSDOF 13
ENDMDL
