MODEL 1
REMARK VINA RESULT:     -13.8      0.000      0.000
REMARK SMILES CC(C)[C@H](NC(=O)[C@H](Cc1ccccc1)n1c(=O)[nH]c2ccccc2c1=O)C(=O)NCCCNC(=O)c1ccc(-c2c3nc(c(-c4c(F)c(F)c(F)c(F)c4F)c4ccc([nH]4)c(-c4c(F)c(F)c(F)c(F)c4F)c4nc(c(-c5c(F)c(F)c(F)c(F)c5F)c5ccc2[nH]5)C=C4)C=C3)cc1
REMARK SMILES IDX 31 1 30 2 28 3 29 4 4 6 2 7 1 8 3 9 5 10 6 11 7 13 8 14
REMARK SMILES IDX 16 15 17 16 26 17 18 18 19 19 25 20 27 21 20 22 24 24 21 25
REMARK SMILES IDX 23 26 22 27 9 28 10 29 11 30 15 31 12 32 14 33 13 34 32 35
REMARK SMILES IDX 33 36 34 37 35 38 36 40 37 41 38 42 99 43 39 44 98 45 40 46
REMARK SMILES IDX 41 47 42 48 92 49 43 50 97 51 91 52 93 53 44 54 96 55 90 56
REMARK SMILES IDX 89 57 45 59 77 60 57 61 76 62 58 63 61 64 75 65 94 66 59 67
REMARK SMILES IDX 60 68 74 70 95 71 62 72 46 73 47 74 55 75 48 76 49 77 53 78
REMARK SMILES IDX 56 79 50 80 51 81 54 82 52 83 78 84 79 85 87 86 80 87 81 88
REMARK SMILES IDX 85 89 88 90 82 91 83 92 86 93 84 94 63 95 64 96 72 97 65 98
REMARK SMILES IDX 66 99 70 100 73 101 67 102 68 103 71 104 69 105
REMARK H PARENT 30 5 5 12 19 23 34 39 93 58 61 69
REMARK Flexibility Score: inf
ROOT
ATOM      1  C   UNL A   1      36.606  20.894  25.093  1.00  0.00     0.117 C 
ENDROOT
BRANCH   1   2
ATOM      2  N   UNL A   1      35.337  20.295  24.772  1.00  0.00    -0.354 N 
ATOM      3  C   UNL A   1      34.124  20.891  24.627  1.00  0.00     0.242 C 
ATOM      4  O   UNL A   1      33.191  20.175  24.245  1.00  0.00    -0.273 OA
ATOM      5  H   UNL A   1      35.349  19.318  24.641  1.00  0.00     0.163 HD
BRANCH   3   6
ATOM      6  C   UNL A   1      33.914  22.423  24.803  1.00  0.00     0.173 C 
BRANCH   6   7
ATOM      7  C   UNL A   1      32.845  22.815  25.822  1.00  0.00     0.015 C 
ATOM      8  C   UNL A   1      31.401  22.450  25.475  1.00  0.00     0.010 C 
ATOM      9  C   UNL A   1      33.197  22.227  27.193  1.00  0.00     0.010 C 
ENDBRANCH   6   7
BRANCH   6  10
ATOM     10  N   UNL A   1      33.898  23.168  23.519  1.00  0.00    -0.342 N 
ATOM     11  C   UNL A   1      33.690  24.399  22.992  1.00  0.00     0.244 C 
ATOM     12  H   UNL A   1      34.118  22.544  22.789  1.00  0.00     0.164 HD
ATOM     13  O   UNL A   1      33.282  24.307  21.822  1.00  0.00    -0.273 OA
BRANCH  11  14
ATOM     14  C   UNL A   1      33.655  25.788  23.716  1.00  0.00     0.189 C 
BRANCH  14  15
ATOM     15  N   UNL A   1      32.653  26.800  23.332  1.00  0.00    -0.247 N 
ATOM     16  C   UNL A   1      33.086  28.020  22.852  1.00  0.00     0.329 A 
ATOM     17  C   UNL A   1      31.301  26.446  23.378  1.00  0.00     0.264 A 
ATOM     18  O   UNL A   1      34.231  28.443  22.975  1.00  0.00    -0.248 OA
ATOM     19  N   UNL A   1      32.152  28.813  22.241  1.00  0.00    -0.307 N 
ATOM     20  C   UNL A   1      30.326  27.507  23.073  1.00  0.00     0.064 A 
ATOM     21  O   UNL A   1      30.884  25.335  23.702  1.00  0.00    -0.268 OA
ATOM     22  C   UNL A   1      30.781  28.625  22.391  1.00  0.00     0.055 A 
ATOM     23  H   UNL A   1      32.465  29.550  21.669  1.00  0.00     0.171 HD
ATOM     24  C   UNL A   1      28.997  27.433  23.499  1.00  0.00     0.016 A 
ATOM     25  C   UNL A   1      29.888  29.616  21.989  1.00  0.00     0.027 A 
ATOM     26  C   UNL A   1      28.118  28.469  23.182  1.00  0.00     0.001 A 
ATOM     27  C   UNL A   1      28.553  29.538  22.395  1.00  0.00     0.002 A 
ENDBRANCH  14  15
BRANCH  14  28
ATOM     28  C   UNL A   1      33.862  25.708  25.268  1.00  0.00     0.071 C 
BRANCH  28  29
ATOM     29  C   UNL A   1      33.308  26.830  26.117  1.00  0.00    -0.045 A 
ATOM     30  C   UNL A   1      32.009  26.741  26.640  1.00  0.00     0.004 A 
ATOM     31  C   UNL A   1      34.036  28.002  26.343  1.00  0.00     0.004 A 
ATOM     32  C   UNL A   1      31.402  27.843  27.240  1.00  0.00     0.000 A 
ATOM     33  C   UNL A   1      33.423  29.114  26.925  1.00  0.00     0.000 A 
ATOM     34  C   UNL A   1      32.099  29.041  27.350  1.00  0.00     0.000 A 
ENDBRANCH  28  29
ENDBRANCH  14  28
ENDBRANCH  11  14
ENDBRANCH   6  10
ENDBRANCH   3   6
ENDBRANCH   1   2
BRANCH   1  35
ATOM     35  C   UNL A   1      37.739  19.878  25.032  1.00  0.00     0.042 C 
BRANCH  35  36
ATOM     36  C   UNL A   1      38.990  20.356  25.751  1.00  0.00     0.118 C 
BRANCH  36  37
ATOM     37  N   UNL A   1      39.988  19.301  25.863  1.00  0.00    -0.352 N 
ATOM     38  C   UNL A   1      41.342  19.390  26.083  1.00  0.00     0.251 C 
ATOM     39  H   UNL A   1      39.641  18.385  25.768  1.00  0.00     0.163 HD
ATOM     40  O   UNL A   1      42.043  18.396  25.982  1.00  0.00    -0.269 OA
BRANCH  38  41
ATOM     41  C   UNL A   1      41.950  20.698  26.409  1.00  0.00     0.039 A 
ATOM     42  C   UNL A   1      42.310  21.547  25.360  1.00  0.00     0.014 A 
ATOM     43  C   UNL A   1      42.166  21.085  27.734  1.00  0.00     0.014 A 
ATOM     44  C   UNL A   1      42.832  22.810  25.642  1.00  0.00     0.010 A 
ATOM     45  C   UNL A   1      42.599  22.376  28.013  1.00  0.00     0.010 A 
ATOM     46  C   UNL A   1      42.945  23.248  26.972  1.00  0.00    -0.014 A 
BRANCH  46  47
ATOM     47  C   UNL A   1      43.429  24.612  27.294  1.00  0.00     0.031 A 
ATOM     48  C   UNL A   1      42.466  25.654  27.792  1.00  0.00     0.074 A 
ATOM     49  C   UNL A   1      44.717  24.930  27.063  1.00  0.00     0.049 A 
ATOM     50  N   UNL A   1      42.675  26.920  28.048  1.00  0.00    -0.248 NA
ATOM     51  C   UNL A   1      41.072  25.226  27.997  1.00  0.00     0.031 C 
ATOM     52  C   UNL A   1      45.729  24.022  26.520  1.00  0.00     0.029 A 
ATOM     53  N   UNL A   1      45.395  26.111  27.240  1.00  0.00    -0.354 N 
ATOM     54  C   UNL A   1      41.440  27.440  28.416  1.00  0.00     0.074 A 
ATOM     55  C   UNL A   1      40.477  26.368  28.304  1.00  0.00     0.031 C 
ATOM     56  C   UNL A   1      46.900  24.672  26.425  1.00  0.00     0.029 A 
ATOM     57  C   UNL A   1      46.714  26.052  26.860  1.00  0.00     0.049 A 
ATOM     58  H   UNL A   1      44.975  26.924  27.604  1.00  0.00     0.167 HD
ATOM     59  C   UNL A   1      41.146  28.694  28.830  1.00  0.00     0.037 A 
ATOM     60  C   UNL A   1      47.661  27.009  26.852  1.00  0.00     0.037 A 
ATOM     61  C   UNL A   1      42.120  29.742  28.981  1.00  0.00     0.049 A 
ATOM     62  C   UNL A   1      47.309  28.387  27.343  1.00  0.00     0.074 A 
ATOM     63  C   UNL A   1      41.941  31.018  29.484  1.00  0.00     0.029 A 
ATOM     64  N   UNL A   1      43.457  29.633  28.626  1.00  0.00    -0.354 N 
ATOM     65  N   UNL A   1      46.159  28.842  27.777  1.00  0.00    -0.248 NA
ATOM     66  C   UNL A   1      48.388  29.383  27.352  1.00  0.00     0.031 C 
ATOM     67  C   UNL A   1      43.157  31.701  29.382  1.00  0.00     0.029 A 
ATOM     68  C   UNL A   1      44.108  30.831  28.872  1.00  0.00     0.049 A 
ATOM     69  H   UNL A   1      43.879  28.825  28.256  1.00  0.00     0.167 HD
ATOM     70  C   UNL A   1      46.382  30.164  28.137  1.00  0.00     0.074 A 
ATOM     71  C   UNL A   1      47.783  30.433  27.887  1.00  0.00     0.031 C 
ATOM     72  C   UNL A   1      45.506  31.076  28.625  1.00  0.00     0.037 A 
BRANCH  59  73
ATOM     73  C   UNL A   1      39.714  29.009  29.155  1.00  0.00     0.064 A 
ATOM     74  C   UNL A   1      38.817  29.467  28.177  1.00  0.00     0.173 A 
ATOM     75  C   UNL A   1      39.218  28.793  30.449  1.00  0.00     0.173 A 
ATOM     76  F   UNL A   1      39.242  29.701  26.926  1.00  0.00    -0.203 F 
ATOM     77  C   UNL A   1      37.484  29.718  28.490  1.00  0.00     0.198 A 
ATOM     78  C   UNL A   1      37.877  29.015  30.750  1.00  0.00     0.198 A 
ATOM     79  F   UNL A   1      40.031  28.352  31.421  1.00  0.00    -0.203 F 
ATOM     80  F   UNL A   1      36.655  30.195  27.549  1.00  0.00    -0.200 F 
ATOM     81  C   UNL A   1      37.012  29.483  29.772  1.00  0.00     0.200 A 
ATOM     82  F   UNL A   1      37.419  28.773  31.987  1.00  0.00    -0.200 F 
ATOM     83  F   UNL A   1      35.725  29.711  30.067  1.00  0.00    -0.200 F 
ENDBRANCH  59  73
BRANCH  60  84
ATOM     84  C   UNL A   1      49.034  26.697  26.371  1.00  0.00     0.064 A 
ATOM     85  C   UNL A   1      50.017  26.222  27.249  1.00  0.00     0.173 A 
ATOM     86  C   UNL A   1      49.396  26.885  25.028  1.00  0.00     0.173 A 
ATOM     87  F   UNL A   1      49.727  26.044  28.547  1.00  0.00    -0.203 F 
ATOM     88  C   UNL A   1      51.317  25.978  26.812  1.00  0.00     0.198 A 
ATOM     89  C   UNL A   1      50.687  26.608  24.585  1.00  0.00     0.198 A 
ATOM     90  F   UNL A   1      48.491  27.331  24.145  1.00  0.00    -0.203 F 
ATOM     91  F   UNL A   1      52.252  25.581  27.686  1.00  0.00    -0.200 F 
ATOM     92  C   UNL A   1      51.650  26.165  25.479  1.00  0.00     0.200 A 
ATOM     93  F   UNL A   1      51.000  26.777  23.293  1.00  0.00    -0.200 F 
ATOM     94  F   UNL A   1      52.900  25.932  25.059  1.00  0.00    -0.200 F 
ENDBRANCH  60  84
BRANCH  72  95
ATOM     95  C   UNL A   1      46.043  32.438  28.958  1.00  0.00     0.064 A 
ATOM     96  C   UNL A   1      46.577  32.730  30.221  1.00  0.00     0.173 A 
ATOM     97  C   UNL A   1      46.061  33.449  27.985  1.00  0.00     0.173 A 
ATOM     98  F   UNL A   1      46.570  31.802  31.189  1.00  0.00    -0.203 F 
ATOM     99  C   UNL A   1      47.086  33.994  30.506  1.00  0.00     0.198 A 
ATOM    100  C   UNL A   1      46.601  34.701  28.264  1.00  0.00     0.198 A 
ATOM    101  F   UNL A   1      45.570  33.218  26.759  1.00  0.00    -0.203 F 
ATOM    102  F   UNL A   1      47.546  34.267  31.735  1.00  0.00    -0.200 F 
ATOM    103  C   UNL A   1      47.106  34.976  29.526  1.00  0.00     0.200 A 
ATOM    104  F   UNL A   1      46.635  35.642  27.310  1.00  0.00    -0.200 F 
ATOM    105  F   UNL A   1      47.604  36.188  29.799  1.00  0.00    -0.200 F 
ENDBRANCH  72  95
ENDBRANCH  46  47
ENDBRANCH  38  41
ENDBRANCH  36  37
ENDBRANCH  35  36
ENDBRANCH   1  35
TORSDOF 16
ENDMDL
MODEL 2
REMARK VINA RESULT:     -13.6      4.430      8.423
REMARK SMILES CC(C)[C@H](NC(=O)[C@H](Cc1ccccc1)n1c(=O)[nH]c2ccccc2c1=O)C(=O)NCCCNC(=O)c1ccc(-c2c3nc(c(-c4c(F)c(F)c(F)c(F)c4F)c4ccc([nH]4)c(-c4c(F)c(F)c(F)c(F)c4F)c4nc(c(-c5c(F)c(F)c(F)c(F)c5F)c5ccc2[nH]5)C=C4)C=C3)cc1
REMARK SMILES IDX 31 1 30 2 28 3 29 4 4 6 2 7 1 8 3 9 5 10 6 11 7 13 8 14
REMARK SMILES IDX 16 15 17 16 26 17 18 18 19 19 25 20 27 21 20 22 24 24 21 25
REMARK SMILES IDX 23 26 22 27 9 28 10 29 11 30 15 31 12 32 14 33 13 34 32 35
REMARK SMILES IDX 33 36 34 37 35 38 36 40 37 41 38 42 99 43 39 44 98 45 40 46
REMARK SMILES IDX 41 47 42 48 92 49 43 50 97 51 91 52 93 53 44 54 96 55 90 56
REMARK SMILES IDX 89 57 45 59 77 60 57 61 76 62 58 63 61 64 75 65 94 66 59 67
REMARK SMILES IDX 60 68 74 70 95 71 62 72 46 73 47 74 55 75 48 76 49 77 53 78
REMARK SMILES IDX 56 79 50 80 51 81 54 82 52 83 78 84 79 85 87 86 80 87 81 88
REMARK SMILES IDX 85 89 88 90 82 91 83 92 86 93 84 94 63 95 64 96 72 97 65 98
REMARK SMILES IDX 66 99 70 100 73 101 67 102 68 103 71 104 69 105
REMARK H PARENT 30 5 5 12 19 23 34 39 93 58 61 69
REMARK Flexibility Score: inf
ROOT
ATOM      1  C   UNL A   1      32.645  27.322  26.479  1.00  0.00     0.117 C 
ENDROOT
BRANCH   1   2
ATOM      2  N   UNL A   1      31.616  26.425  26.935  1.00  0.00    -0.354 N 
ATOM      3  C   UNL A   1      30.725  25.706  26.202  1.00  0.00     0.242 C 
ATOM      4  O   UNL A   1      29.999  24.919  26.820  1.00  0.00    -0.273 OA
ATOM      5  H   UNL A   1      31.548  26.317  27.912  1.00  0.00     0.163 HD
BRANCH   3   6
ATOM      6  C   UNL A   1      30.681  25.755  24.647  1.00  0.00     0.173 C 
BRANCH   6   7
ATOM      7  C   UNL A   1      29.869  26.908  24.060  1.00  0.00     0.015 C 
ATOM      8  C   UNL A   1      30.382  27.515  22.754  1.00  0.00     0.010 C 
ATOM      9  C   UNL A   1      28.411  26.471  23.873  1.00  0.00     0.010 C 
ENDBRANCH   6   7
BRANCH   6  10
ATOM     10  N   UNL A   1      30.476  24.425  24.020  1.00  0.00    -0.342 N 
ATOM     11  C   UNL A   1      31.125  23.284  23.682  1.00  0.00     0.244 C 
ATOM     12  H   UNL A   1      29.531  24.342  23.757  1.00  0.00     0.164 HD
ATOM     13  O   UNL A   1      30.574  22.745  22.707  1.00  0.00    -0.273 OA
BRANCH  11  14
ATOM     14  C   UNL A   1      32.518  22.759  24.169  1.00  0.00     0.189 C 
BRANCH  14  15
ATOM     15  N   UNL A   1      32.686  21.344  24.549  1.00  0.00    -0.247 N 
ATOM     16  C   UNL A   1      32.914  21.031  25.875  1.00  0.00     0.329 A 
ATOM     17  C   UNL A   1      32.512  20.367  23.563  1.00  0.00     0.264 A 
ATOM     18  O   UNL A   1      33.263  21.842  26.725  1.00  0.00    -0.248 OA
ATOM     19  N   UNL A   1      32.776  19.716  26.233  1.00  0.00    -0.307 N 
ATOM     20  C   UNL A   1      32.774  18.972  23.958  1.00  0.00     0.064 A 
ATOM     21  O   UNL A   1      32.207  20.605  22.397  1.00  0.00    -0.268 OA
ATOM     22  C   UNL A   1      32.776  18.674  25.312  1.00  0.00     0.055 A 
ATOM     23  H   UNL A   1      32.673  19.500  27.188  1.00  0.00     0.171 HD
ATOM     24  C   UNL A   1      33.069  17.983  23.017  1.00  0.00     0.016 A 
ATOM     25  C   UNL A   1      32.920  17.356  25.741  1.00  0.00     0.027 A 
ATOM     26  C   UNL A   1      33.310  16.677  23.448  1.00  0.00     0.001 A 
ATOM     27  C   UNL A   1      33.196  16.358  24.803  1.00  0.00     0.002 A 
ENDBRANCH  14  15
BRANCH  14  28
ATOM     28  C   UNL A   1      33.735  23.308  23.346  1.00  0.00     0.071 C 
BRANCH  28  29
ATOM     29  C   UNL A   1      35.087  23.351  24.020  1.00  0.00    -0.045 A 
ATOM     30  C   UNL A   1      36.110  22.486  23.601  1.00  0.00     0.004 A 
ATOM     31  C   UNL A   1      35.332  24.190  25.112  1.00  0.00     0.004 A 
ATOM     32  C   UNL A   1      37.285  22.356  24.339  1.00  0.00     0.000 A 
ATOM     33  C   UNL A   1      36.500  24.048  25.864  1.00  0.00     0.000 A 
ATOM     34  C   UNL A   1      37.464  23.114  25.492  1.00  0.00     0.000 A 
ENDBRANCH  28  29
ENDBRANCH  14  28
ENDBRANCH  11  14
ENDBRANCH   6  10
ENDBRANCH   3   6
ENDBRANCH   1   2
BRANCH   1  35
ATOM     35  C   UNL A   1      32.107  28.730  26.257  1.00  0.00     0.042 C 
BRANCH  35  36
ATOM     36  C   UNL A   1      33.193  29.711  25.849  1.00  0.00     0.118 C 
BRANCH  36  37
ATOM     37  N   UNL A   1      32.920  31.057  26.337  1.00  0.00    -0.352 N 
ATOM     38  C   UNL A   1      33.546  31.779  27.324  1.00  0.00     0.251 C 
ATOM     39  H   UNL A   1      32.174  31.520  25.891  1.00  0.00     0.163 HD
ATOM     40  O   UNL A   1      33.068  32.835  27.704  1.00  0.00    -0.269 OA
BRANCH  38  41
ATOM     41  C   UNL A   1      34.782  31.257  27.946  1.00  0.00     0.039 A 
ATOM     42  C   UNL A   1      35.887  32.105  28.051  1.00  0.00     0.014 A 
ATOM     43  C   UNL A   1      34.855  29.945  28.420  1.00  0.00     0.014 A 
ATOM     44  C   UNL A   1      37.045  31.655  28.685  1.00  0.00     0.010 A 
ATOM     45  C   UNL A   1      35.975  29.530  29.132  1.00  0.00     0.010 A 
ATOM     46  C   UNL A   1      37.084  30.376  29.264  1.00  0.00    -0.014 A 
BRANCH  46  47
ATOM     47  C   UNL A   1      38.278  29.904  30.006  1.00  0.00     0.031 A 
ATOM     48  C   UNL A   1      38.549  30.411  31.395  1.00  0.00     0.074 A 
ATOM     49  C   UNL A   1      39.153  29.080  29.398  1.00  0.00     0.049 A 
ATOM     50  N   UNL A   1      39.577  30.184  32.173  1.00  0.00    -0.248 NA
ATOM     51  C   UNL A   1      37.551  31.324  31.976  1.00  0.00     0.031 C 
ATOM     52  C   UNL A   1      39.029  28.574  28.029  1.00  0.00     0.029 A 
ATOM     53  N   UNL A   1      40.332  28.536  29.845  1.00  0.00    -0.354 N 
ATOM     54  C   UNL A   1      39.360  30.944  33.316  1.00  0.00     0.074 A 
ATOM     55  C   UNL A   1      38.130  31.675  33.113  1.00  0.00     0.031 C 
ATOM     56  C   UNL A   1      40.077  27.780  27.756  1.00  0.00     0.029 A 
ATOM     57  C   UNL A   1      40.967  27.754  28.912  1.00  0.00     0.049 A 
ATOM     58  H   UNL A   1      40.687  28.691  30.750  1.00  0.00     0.167 HD
ATOM     59  C   UNL A   1      40.111  31.005  34.440  1.00  0.00     0.037 A 
ATOM     60  C   UNL A   1      42.143  27.103  28.977  1.00  0.00     0.037 A 
ATOM     61  C   UNL A   1      41.310  30.238  34.650  1.00  0.00     0.049 A 
ATOM     62  C   UNL A   1      42.943  27.168  30.251  1.00  0.00     0.074 A 
ATOM     63  C   UNL A   1      42.091  30.155  35.789  1.00  0.00     0.029 A 
ATOM     64  N   UNL A   1      41.902  29.423  33.696  1.00  0.00    -0.354 N 
ATOM     65  N   UNL A   1      42.680  27.816  31.360  1.00  0.00    -0.248 NA
ATOM     66  C   UNL A   1      44.198  26.407  30.285  1.00  0.00     0.031 C 
ATOM     67  C   UNL A   1      43.188  29.334  35.507  1.00  0.00     0.029 A 
ATOM     68  C   UNL A   1      43.057  28.857  34.212  1.00  0.00     0.049 A 
ATOM     69  H   UNL A   1      41.554  29.269  32.789  1.00  0.00     0.167 HD
ATOM     70  C   UNL A   1      43.719  27.518  32.231  1.00  0.00     0.074 A 
ATOM     71  C   UNL A   1      44.607  26.616  31.528  1.00  0.00     0.031 C 
ATOM     72  C   UNL A   1      43.923  27.954  33.498  1.00  0.00     0.037 A 
BRANCH  59  73
ATOM     73  C   UNL A   1      39.662  31.928  35.536  1.00  0.00     0.064 A 
ATOM     74  C   UNL A   1      40.127  33.249  35.627  1.00  0.00     0.173 A 
ATOM     75  C   UNL A   1      38.709  31.502  36.473  1.00  0.00     0.173 A 
ATOM     76  F   UNL A   1      41.047  33.703  34.763  1.00  0.00    -0.203 F 
ATOM     77  C   UNL A   1      39.670  34.101  36.629  1.00  0.00     0.198 A 
ATOM     78  C   UNL A   1      38.232  32.367  37.454  1.00  0.00     0.198 A 
ATOM     79  F   UNL A   1      38.228  30.250  36.430  1.00  0.00    -0.203 F 
ATOM     80  F   UNL A   1      40.159  35.346  36.722  1.00  0.00    -0.200 F 
ATOM     81  C   UNL A   1      38.716  33.664  37.536  1.00  0.00     0.200 A 
ATOM     82  F   UNL A   1      37.299  31.946  38.321  1.00  0.00    -0.200 F 
ATOM     83  F   UNL A   1      38.267  34.490  38.490  1.00  0.00    -0.200 F 
ENDBRANCH  59  73
BRANCH  60  84
ATOM     84  C   UNL A   1      42.633  26.324  27.808  1.00  0.00     0.064 A 
ATOM     85  C   UNL A   1      43.535  26.884  26.893  1.00  0.00     0.173 A 
ATOM     86  C   UNL A   1      42.195  25.012  27.571  1.00  0.00     0.173 A 
ATOM     87  F   UNL A   1      43.969  28.141  27.064  1.00  0.00    -0.203 F 
ATOM     88  C   UNL A   1      43.955  26.175  25.769  1.00  0.00     0.198 A 
ATOM     89  C   UNL A   1      42.642  24.292  26.466  1.00  0.00     0.198 A 
ATOM     90  F   UNL A   1      41.337  24.427  28.420  1.00  0.00    -0.203 F 
ATOM     91  F   UNL A   1      44.771  26.756  24.880  1.00  0.00    -0.200 F 
ATOM     92  C   UNL A   1      43.513  24.877  25.560  1.00  0.00     0.200 A 
ATOM     93  F   UNL A   1      42.223  23.034  26.274  1.00  0.00    -0.200 F 
ATOM     94  F   UNL A   1      43.916  24.197  24.479  1.00  0.00    -0.200 F 
ENDBRANCH  60  84
BRANCH  72  95
ATOM     95  C   UNL A   1      45.132  27.434  34.220  1.00  0.00     0.064 A 
ATOM     96  C   UNL A   1      46.355  28.119  34.197  1.00  0.00     0.173 A 
ATOM     97  C   UNL A   1      45.052  26.256  34.980  1.00  0.00     0.173 A 
ATOM     98  F   UNL A   1      46.488  29.242  33.475  1.00  0.00    -0.203 F 
ATOM     99  C   UNL A   1      47.461  27.630  34.887  1.00  0.00     0.198 A 
ATOM    100  C   UNL A   1      46.150  25.788  35.694  1.00  0.00     0.198 A 
ATOM    101  F   UNL A   1      43.903  25.567  35.041  1.00  0.00    -0.203 F 
ATOM    102  F   UNL A   1      48.634  28.274  34.810  1.00  0.00    -0.200 F 
ATOM    103  C   UNL A   1      47.356  26.471  35.641  1.00  0.00     0.200 A 
ATOM    104  F   UNL A   1      46.041  24.678  36.436  1.00  0.00    -0.200 F 
ATOM    105  F   UNL A   1      48.419  26.007  36.311  1.00  0.00    -0.200 F 
ENDBRANCH  72  95
ENDBRANCH  46  47
ENDBRANCH  38  41
ENDBRANCH  36  37
ENDBRANCH  35  36
ENDBRANCH   1  35
TORSDOF 16
ENDMDL
MODEL 3
REMARK VINA RESULT:     -13.5      4.952     10.518
REMARK SMILES CC(C)[C@H](NC(=O)[C@H](Cc1ccccc1)n1c(=O)[nH]c2ccccc2c1=O)C(=O)NCCCNC(=O)c1ccc(-c2c3nc(c(-c4c(F)c(F)c(F)c(F)c4F)c4ccc([nH]4)c(-c4c(F)c(F)c(F)c(F)c4F)c4nc(c(-c5c(F)c(F)c(F)c(F)c5F)c5ccc2[nH]5)C=C4)C=C3)cc1
REMARK SMILES IDX 31 1 30 2 28 3 29 4 4 6 2 7 1 8 3 9 5 10 6 11 7 13 8 14
REMARK SMILES IDX 16 15 17 16 26 17 18 18 19 19 25 20 27 21 20 22 24 24 21 25
REMARK SMILES IDX 23 26 22 27 9 28 10 29 11 30 15 31 12 32 14 33 13 34 32 35
REMARK SMILES IDX 33 36 34 37 35 38 36 40 37 41 38 42 99 43 39 44 98 45 40 46
REMARK SMILES IDX 41 47 42 48 92 49 43 50 97 51 91 52 93 53 44 54 96 55 90 56
REMARK SMILES IDX 89 57 45 59 77 60 57 61 76 62 58 63 61 64 75 65 94 66 59 67
REMARK SMILES IDX 60 68 74 70 95 71 62 72 46 73 47 74 55 75 48 76 49 77 53 78
REMARK SMILES IDX 56 79 50 80 51 81 54 82 52 83 78 84 79 85 87 86 80 87 81 88
REMARK SMILES IDX 85 89 88 90 82 91 83 92 86 93 84 94 63 95 64 96 72 97 65 98
REMARK SMILES IDX 66 99 70 100 73 101 67 102 68 103 71 104 69 105
REMARK H PARENT 30 5 5 12 19 23 34 39 93 58 61 69
REMARK Flexibility Score: inf
ROOT
ATOM      1  C   UNL A   1      31.891  29.497  26.916  1.00  0.00     0.117 C 
ENDROOT
BRANCH   1   2
ATOM      2  N   UNL A   1      32.999  29.096  26.089  1.00  0.00    -0.354 N 
ATOM      3  C   UNL A   1      33.063  28.087  25.179  1.00  0.00     0.242 C 
ATOM      4  O   UNL A   1      34.100  28.002  24.512  1.00  0.00    -0.273 OA
ATOM      5  H   UNL A   1      33.824  29.624  26.197  1.00  0.00     0.163 HD
BRANCH   3   6
ATOM      6  C   UNL A   1      31.860  27.147  24.881  1.00  0.00     0.173 C 
BRANCH   6   7
ATOM      7  C   UNL A   1      30.662  27.824  24.214  1.00  0.00     0.015 C 
ATOM      8  C   UNL A   1      30.974  28.863  23.136  1.00  0.00     0.010 C 
ATOM      9  C   UNL A   1      29.726  26.759  23.632  1.00  0.00     0.010 C 
ENDBRANCH   6   7
BRANCH   6  10
ATOM     10  N   UNL A   1      31.549  26.216  25.995  1.00  0.00    -0.342 N 
ATOM     11  C   UNL A   1      31.908  25.025  26.532  1.00  0.00     0.244 C 
ATOM     12  H   UNL A   1      30.822  26.602  26.536  1.00  0.00     0.164 HD
ATOM     13  O   UNL A   1      30.946  24.510  27.127  1.00  0.00    -0.273 OA
BRANCH  11  14
ATOM     14  C   UNL A   1      33.204  24.182  26.285  1.00  0.00     0.189 C 
BRANCH  14  15
ATOM     15  N   UNL A   1      33.107  22.740  25.990  1.00  0.00    -0.247 N 
ATOM     16  C   UNL A   1      33.550  21.833  26.933  1.00  0.00     0.329 A 
ATOM     17  C   UNL A   1      32.478  22.346  24.804  1.00  0.00     0.264 A 
ATOM     18  O   UNL A   1      34.272  22.122  27.881  1.00  0.00    -0.248 OA
ATOM     19  N   UNL A   1      33.183  20.526  26.757  1.00  0.00    -0.307 N 
ATOM     20  C   UNL A   1      32.477  20.904  24.501  1.00  0.00     0.064 A 
ATOM     21  O   UNL A   1      31.981  23.122  23.991  1.00  0.00    -0.268 OA
ATOM     22  C   UNL A   1      32.718  20.024  25.546  1.00  0.00     0.055 A 
ATOM     23  H   UNL A   1      33.252  19.913  27.524  1.00  0.00     0.171 HD
ATOM     24  C   UNL A   1      32.299  20.424  23.200  1.00  0.00     0.016 A 
ATOM     25  C   UNL A   1      32.633  18.649  25.340  1.00  0.00     0.027 A 
ATOM     26  C   UNL A   1      32.309  19.047  22.972  1.00  0.00     0.001 A 
ATOM     27  C   UNL A   1      32.435  18.162  24.045  1.00  0.00     0.002 A 
ENDBRANCH  14  15
BRANCH  14  28
ATOM     28  C   UNL A   1      34.280  24.903  25.399  1.00  0.00     0.071 C 
BRANCH  28  29
ATOM     29  C   UNL A   1      35.484  24.105  24.954  1.00  0.00    -0.045 A 
ATOM     30  C   UNL A   1      35.566  23.633  23.635  1.00  0.00     0.004 A 
ATOM     31  C   UNL A   1      36.501  23.758  25.848  1.00  0.00     0.004 A 
ATOM     32  C   UNL A   1      36.553  22.722  23.261  1.00  0.00     0.000 A 
ATOM     33  C   UNL A   1      37.478  22.830  25.482  1.00  0.00     0.000 A 
ATOM     34  C   UNL A   1      37.489  22.294  24.196  1.00  0.00     0.000 A 
ENDBRANCH  28  29
ENDBRANCH  14  28
ENDBRANCH  11  14
ENDBRANCH   6  10
ENDBRANCH   3   6
ENDBRANCH   1   2
BRANCH   1  35
ATOM     35  C   UNL A   1      31.611  30.990  26.794  1.00  0.00     0.042 C 
BRANCH  35  36
ATOM     36  C   UNL A   1      32.861  31.834  26.978  1.00  0.00     0.118 C 
BRANCH  36  37
ATOM     37  N   UNL A   1      32.539  33.221  27.289  1.00  0.00    -0.352 N 
ATOM     38  C   UNL A   1      33.085  34.061  28.229  1.00  0.00     0.251 C 
ATOM     39  H   UNL A   1      31.822  33.616  26.742  1.00  0.00     0.163 HD
ATOM     40  O   UNL A   1      32.569  35.145  28.452  1.00  0.00    -0.269 OA
BRANCH  38  41
ATOM     41  C   UNL A   1      34.278  33.636  28.992  1.00  0.00     0.039 A 
ATOM     42  C   UNL A   1      34.104  32.780  30.082  1.00  0.00     0.014 A 
ATOM     43  C   UNL A   1      35.556  34.077  28.641  1.00  0.00     0.014 A 
ATOM     44  C   UNL A   1      35.219  32.319  30.782  1.00  0.00     0.010 A 
ATOM     45  C   UNL A   1      36.670  33.545  29.281  1.00  0.00     0.010 A 
ATOM     46  C   UNL A   1      36.513  32.668  30.363  1.00  0.00    -0.014 A 
BRANCH  46  47
ATOM     47  C   UNL A   1      37.714  32.132  31.047  1.00  0.00     0.031 A 
ATOM     48  C   UNL A   1      38.502  31.017  30.419  1.00  0.00     0.074 A 
ATOM     49  C   UNL A   1      38.046  32.598  32.267  1.00  0.00     0.049 A 
ATOM     50  N   UNL A   1      39.528  30.358  30.894  1.00  0.00    -0.248 NA
ATOM     51  C   UNL A   1      38.058  30.554  29.094  1.00  0.00     0.031 C 
ATOM     52  C   UNL A   1      37.318  33.633  33.004  1.00  0.00     0.029 A 
ATOM     53  N   UNL A   1      39.072  32.251  33.111  1.00  0.00    -0.354 N 
ATOM     54  C   UNL A   1      39.831  29.392  29.943  1.00  0.00     0.074 A 
ATOM     55  C   UNL A   1      38.854  29.516  28.885  1.00  0.00     0.031 C 
ATOM     56  C   UNL A   1      37.929  33.849  34.180  1.00  0.00     0.029 A 
ATOM     57  C   UNL A   1      39.066  32.941  34.298  1.00  0.00     0.049 A 
ATOM     58  H   UNL A   1      39.747  31.572  32.886  1.00  0.00     0.167 HD
ATOM     59  C   UNL A   1      40.848  28.499  29.945  1.00  0.00     0.037 A 
ATOM     60  C   UNL A   1      39.878  32.841  35.367  1.00  0.00     0.037 A 
ATOM     61  C   UNL A   1      41.842  28.413  30.981  1.00  0.00     0.049 A 
ATOM     62  C   UNL A   1      41.016  31.857  35.328  1.00  0.00     0.074 A 
ATOM     63  C   UNL A   1      42.967  27.609  31.031  1.00  0.00     0.029 A 
ATOM     64  N   UNL A   1      41.828  29.159  32.151  1.00  0.00    -0.354 N 
ATOM     65  N   UNL A   1      41.348  31.013  34.382  1.00  0.00    -0.248 NA
ATOM     66  C   UNL A   1      41.897  31.816  36.503  1.00  0.00     0.031 C 
ATOM     67  C   UNL A   1      43.604  27.826  32.257  1.00  0.00     0.029 A 
ATOM     68  C   UNL A   1      42.910  28.810  32.944  1.00  0.00     0.049 A 
ATOM     69  H   UNL A   1      41.152  29.835  32.383  1.00  0.00     0.167 HD
ATOM     70  C   UNL A   1      42.489  30.363  34.832  1.00  0.00     0.074 A 
ATOM     71  C   UNL A   1      42.803  30.924  36.130  1.00  0.00     0.031 C 
ATOM     72  C   UNL A   1      43.210  29.387  34.229  1.00  0.00     0.037 A 
BRANCH  59  73
ATOM     73  C   UNL A   1      40.944  27.541  28.793  1.00  0.00     0.064 A 
ATOM     74  C   UNL A   1      40.109  26.417  28.693  1.00  0.00     0.173 A 
ATOM     75  C   UNL A   1      41.844  27.783  27.744  1.00  0.00     0.173 A 
ATOM     76  F   UNL A   1      39.238  26.133  29.674  1.00  0.00    -0.203 F 
ATOM     77  C   UNL A   1      40.189  25.561  27.598  1.00  0.00     0.198 A 
ATOM     78  C   UNL A   1      41.899  26.942  26.636  1.00  0.00     0.198 A 
ATOM     79  F   UNL A   1      42.663  28.845  27.787  1.00  0.00    -0.203 F 
ATOM     80  F   UNL A   1      39.410  24.470  27.545  1.00  0.00    -0.200 F 
ATOM     81  C   UNL A   1      41.075  25.828  26.566  1.00  0.00     0.200 A 
ATOM     82  F   UNL A   1      42.747  27.211  25.633  1.00  0.00    -0.200 F 
ATOM     83  F   UNL A   1      41.139  25.011  25.506  1.00  0.00    -0.200 F 
ENDBRANCH  59  73
BRANCH  60  84
ATOM     84  C   UNL A   1      39.652  33.702  36.560  1.00  0.00     0.064 A 
ATOM     85  C   UNL A   1      38.866  33.259  37.633  1.00  0.00     0.173 A 
ATOM     86  C   UNL A   1      40.203  34.989  36.644  1.00  0.00     0.173 A 
ATOM     87  F   UNL A   1      38.301  32.043  37.592  1.00  0.00    -0.203 F 
ATOM     88  C   UNL A   1      38.611  34.082  38.728  1.00  0.00     0.198 A 
ATOM     89  C   UNL A   1      39.977  35.799  37.755  1.00  0.00     0.198 A 
ATOM     90  F   UNL A   1      40.970  35.458  35.649  1.00  0.00    -0.203 F 
ATOM     91  F   UNL A   1      37.807  33.656  39.711  1.00  0.00    -0.200 F 
ATOM     92  C   UNL A   1      39.172  35.349  38.791  1.00  0.00     0.200 A 
ATOM     93  F   UNL A   1      40.531  37.017  37.819  1.00  0.00    -0.200 F 
ATOM     94  F   UNL A   1      38.926  36.141  39.843  1.00  0.00    -0.200 F 
ENDBRANCH  60  84
BRANCH  72  95
ATOM     95  C   UNL A   1      44.431  28.889  34.947  1.00  0.00     0.064 A 
ATOM     96  C   UNL A   1      44.372  27.803  35.832  1.00  0.00     0.173 A 
ATOM     97  C   UNL A   1      45.682  29.480  34.712  1.00  0.00     0.173 A 
ATOM     98  F   UNL A   1      43.199  27.212  36.102  1.00  0.00    -0.203 F 
ATOM     99  C   UNL A   1      45.518  27.344  36.476  1.00  0.00     0.198 A 
ATOM    100  C   UNL A   1      46.830  28.997  35.332  1.00  0.00     0.198 A 
ATOM    101  F   UNL A   1      45.793  30.516  33.868  1.00  0.00    -0.203 F 
ATOM    102  F   UNL A   1      45.431  26.337  37.357  1.00  0.00    -0.200 F 
ATOM    103  C   UNL A   1      46.747  27.935  36.220  1.00  0.00     0.200 A 
ATOM    104  F   UNL A   1      48.018  29.558  35.069  1.00  0.00    -0.200 F 
ATOM    105  F   UNL A   1      47.849  27.486  36.833  1.00  0.00    -0.200 F 
ENDBRANCH  72  95
ENDBRANCH  46  47
ENDBRANCH  38  41
ENDBRANCH  36  37
ENDBRANCH  35  36
ENDBRANCH   1  35
TORSDOF 16
ENDMDL
