MODEL 1
REMARK VINA RESULT:     -11.7      0.000      0.000
REMARK SMILES CC(C)[C@H](NC(N)=O)C(=O)N[C@H](C)C(=O)NCCCNC(=O)c1ccc(-c2c3nc(c(-c4c(F)c(F)c(F)c(F)c4F)c4ccc([nH]4)c(-c4c(F)c(F)c(F)c(F)c4F)c4nc(c(-c5c(F)c(F)c(F)c(F)c5F)c5ccc2[nH]5)C=C4)C=C3)cc1
REMARK SMILES IDX 17 1 16 2 14 3 15 4 12 6 13 7 11 8 9 9 10 10 4 12 2 13 1 14
REMARK SMILES IDX 3 15 5 16 6 17 7 19 8 20 18 23 19 24 20 25 21 26 22 28 23 29
REMARK SMILES IDX 24 30 85 31 25 32 84 33 26 34 27 35 28 36 78 37 29 38 83 39
REMARK SMILES IDX 77 40 79 41 30 42 82 43 76 44 75 45 31 47 63 48 43 49 62 50
REMARK SMILES IDX 44 51 47 52 61 53 80 54 45 55 46 56 60 58 81 59 48 60 32 61
REMARK SMILES IDX 33 62 41 63 34 64 35 65 39 66 42 67 36 68 37 69 40 70 38 71
REMARK SMILES IDX 64 72 65 73 73 74 66 75 67 76 71 77 74 78 68 79 69 80 72 81
REMARK SMILES IDX 70 82 49 83 50 84 58 85 51 86 52 87 56 88 59 89 53 90 54 91
REMARK SMILES IDX 57 92 55 93
REMARK H PARENT 16 5 11 11 5 18 7 21 7 22 20 27 79 46 47 57
REMARK Flexibility Score: inf
ROOT
ATOM      1  C   UNL A   1      31.662  30.346  26.341  1.00  0.00     0.117 C 
ENDROOT
BRANCH   1   2
ATOM      2  N   UNL A   1      32.411  30.031  25.142  1.00  0.00    -0.354 N 
ATOM      3  C   UNL A   1      32.079  29.275  24.063  1.00  0.00     0.242 C 
ATOM      4  O   UNL A   1      32.997  29.025  23.274  1.00  0.00    -0.273 OA
ATOM      5  H   UNL A   1      33.310  30.429  25.104  1.00  0.00     0.163 HD
BRANCH   3   6
ATOM      6  C   UNL A   1      30.714  28.581  23.926  1.00  0.00     0.168 C 
ATOM      7  C   UNL A   1      29.800  29.553  23.178  1.00  0.00     0.041 C 
BRANCH   6   8
ATOM      8  N   UNL A   1      30.679  27.249  23.305  1.00  0.00    -0.343 N 
ATOM      9  C   UNL A   1      30.232  26.155  24.019  1.00  0.00     0.243 C 
ATOM     10  O   UNL A   1      29.017  25.997  24.137  1.00  0.00    -0.273 OA
ATOM     11  H   UNL A   1      30.977  27.136  22.373  1.00  0.00     0.164 HD
BRANCH   9  12
ATOM     12  C   UNL A   1      31.263  25.205  24.684  1.00  0.00     0.175 C 
BRANCH  12  13
ATOM     13  C   UNL A   1      32.611  25.025  23.949  1.00  0.00     0.015 C 
ATOM     14  C   UNL A   1      33.868  25.210  24.788  1.00  0.00     0.010 C 
ATOM     15  C   UNL A   1      32.676  23.658  23.258  1.00  0.00     0.010 C 
ENDBRANCH  12  13
BRANCH  12  16
ATOM     16  N   UNL A   1      30.625  23.945  25.063  1.00  0.00    -0.326 N 
ATOM     17  C   UNL A   1      30.664  23.550  26.369  1.00  0.00     0.312 C 
ATOM     18  H   UNL A   1      30.175  23.389  24.386  1.00  0.00     0.166 HD
ATOM     19  N   UNL A   1      29.863  22.509  26.666  1.00  0.00    -0.352 N 
ATOM     20  O   UNL A   1      31.318  24.097  27.249  1.00  0.00    -0.249 OA
ATOM     21  H   UNL A   1      29.339  22.073  25.956  1.00  0.00     0.161 HD
ATOM     22  H   UNL A   1      29.803  22.184  27.594  1.00  0.00     0.161 HD
ENDBRANCH  12  16
ENDBRANCH   9  12
ENDBRANCH   6   8
ENDBRANCH   3   6
ENDBRANCH   1   2
BRANCH   1  23
ATOM     23  C   UNL A   1      31.502  31.857  26.535  1.00  0.00     0.042 C 
BRANCH  23  24
ATOM     24  C   UNL A   1      32.661  32.556  27.261  1.00  0.00     0.118 C 
BRANCH  24  25
ATOM     25  N   UNL A   1      32.432  33.952  27.617  1.00  0.00    -0.352 N 
ATOM     26  C   UNL A   1      33.062  34.762  28.538  1.00  0.00     0.251 C 
ATOM     27  H   UNL A   1      31.705  34.388  27.117  1.00  0.00     0.163 HD
ATOM     28  O   UNL A   1      32.627  35.889  28.751  1.00  0.00    -0.269 OA
BRANCH  26  29
ATOM     29  C   UNL A   1      34.215  34.271  29.310  1.00  0.00     0.039 A 
ATOM     30  C   UNL A   1      34.000  33.516  30.468  1.00  0.00     0.014 A 
ATOM     31  C   UNL A   1      35.512  34.581  28.909  1.00  0.00     0.014 A 
ATOM     32  C   UNL A   1      35.091  32.996  31.165  1.00  0.00     0.010 A 
ATOM     33  C   UNL A   1      36.588  33.967  29.530  1.00  0.00     0.010 A 
ATOM     34  C   UNL A   1      36.392  33.177  30.671  1.00  0.00    -0.014 A 
BRANCH  34  35
ATOM     35  C   UNL A   1      37.584  32.587  31.326  1.00  0.00     0.031 A 
ATOM     36  C   UNL A   1      38.320  31.466  30.647  1.00  0.00     0.074 A 
ATOM     37  C   UNL A   1      37.919  32.969  32.572  1.00  0.00     0.049 A 
ATOM     38  N   UNL A   1      39.254  30.680  31.114  1.00  0.00    -0.248 NA
ATOM     39  C   UNL A   1      37.909  31.156  29.268  1.00  0.00     0.031 C 
ATOM     40  C   UNL A   1      37.252  34.013  33.349  1.00  0.00     0.029 A 
ATOM     41  N   UNL A   1      38.897  32.503  33.414  1.00  0.00    -0.354 N 
ATOM     42  C   UNL A   1      39.509  29.761  30.105  1.00  0.00     0.074 A 
ATOM     43  C   UNL A   1      38.588  30.046  29.028  1.00  0.00     0.031 C 
ATOM     44  C   UNL A   1      37.855  34.129  34.542  1.00  0.00     0.029 A 
ATOM     45  C   UNL A   1      38.918  33.134  34.632  1.00  0.00     0.049 A 
ATOM     46  H   UNL A   1      39.523  31.784  33.167  1.00  0.00     0.167 HD
ATOM     47  C   UNL A   1      40.448  28.784  30.069  1.00  0.00     0.037 A 
ATOM     48  C   UNL A   1      39.705  32.923  35.704  1.00  0.00     0.037 A 
ATOM     49  C   UNL A   1      41.386  28.539  31.132  1.00  0.00     0.049 A 
ATOM     50  C   UNL A   1      40.745  31.839  35.643  1.00  0.00     0.074 A 
ATOM     51  C   UNL A   1      42.424  27.627  31.178  1.00  0.00     0.029 A 
ATOM     52  N   UNL A   1      41.398  29.223  32.342  1.00  0.00    -0.354 N 
ATOM     53  N   UNL A   1      41.016  31.008  34.665  1.00  0.00    -0.248 NA
ATOM     54  C   UNL A   1      41.586  31.664  36.832  1.00  0.00     0.031 C 
ATOM     55  C   UNL A   1      43.037  27.728  32.432  1.00  0.00     0.029 A 
ATOM     56  C   UNL A   1      42.414  28.739  33.149  1.00  0.00     0.049 A 
ATOM     57  H   UNL A   1      40.776  29.944  32.589  1.00  0.00     0.167 HD
ATOM     58  C   UNL A   1      42.078  30.232  35.107  1.00  0.00     0.074 A 
ATOM     59  C   UNL A   1      42.406  30.699  36.440  1.00  0.00     0.031 C 
ATOM     60  C   UNL A   1      42.725  29.225  34.470  1.00  0.00     0.037 A 
BRANCH  47  61
ATOM     61  C   UNL A   1      40.492  27.916  28.843  1.00  0.00     0.064 A 
ATOM     62  C   UNL A   1      41.237  28.278  27.707  1.00  0.00     0.173 A 
ATOM     63  C   UNL A   1      39.767  26.716  28.791  1.00  0.00     0.173 A 
ATOM     64  F   UNL A   1      41.938  29.421  27.696  1.00  0.00    -0.203 F 
ATOM     65  C   UNL A   1      41.210  27.500  26.552  1.00  0.00     0.198 A 
ATOM     66  C   UNL A   1      39.774  25.921  27.646  1.00  0.00     0.198 A 
ATOM     67  F   UNL A   1      39.042  26.318  29.846  1.00  0.00    -0.203 F 
ATOM     68  F   UNL A   1      41.865  27.909  25.456  1.00  0.00    -0.200 F 
ATOM     69  C   UNL A   1      40.482  26.321  26.524  1.00  0.00     0.200 A 
ATOM     70  F   UNL A   1      39.080  24.775  27.625  1.00  0.00    -0.200 F 
ATOM     71  F   UNL A   1      40.452  25.577  25.410  1.00  0.00    -0.200 F 
ENDBRANCH  47  61
BRANCH  48  72
ATOM     72  C   UNL A   1      39.569  33.795  36.899  1.00  0.00     0.064 A 
ATOM     73  C   UNL A   1      40.225  35.033  36.953  1.00  0.00     0.173 A 
ATOM     74  C   UNL A   1      38.765  33.435  37.990  1.00  0.00     0.173 A 
ATOM     75  F   UNL A   1      41.017  35.413  35.941  1.00  0.00    -0.203 F 
ATOM     76  C   UNL A   1      40.089  35.874  38.055  1.00  0.00     0.198 A 
ATOM     77  C   UNL A   1      38.609  34.287  39.081  1.00  0.00     0.198 A 
ATOM     78  F   UNL A   1      38.108  32.265  37.983  1.00  0.00    -0.203 F 
ATOM     79  F   UNL A   1      40.750  37.038  38.092  1.00  0.00    -0.200 F 
ATOM     80  C   UNL A   1      39.275  35.504  39.115  1.00  0.00     0.200 A 
ATOM     81  F   UNL A   1      37.808  33.935  40.096  1.00  0.00    -0.200 F 
ATOM     82  F   UNL A   1      39.134  36.318  40.170  1.00  0.00    -0.200 F 
ENDBRANCH  48  72
BRANCH  60  83
ATOM     83  C   UNL A   1      43.878  28.589  35.190  1.00  0.00     0.064 A 
ATOM     84  C   UNL A   1      43.708  27.452  35.992  1.00  0.00     0.173 A 
ATOM     85  C   UNL A   1      45.175  29.102  35.040  1.00  0.00     0.173 A 
ATOM     86  F   UNL A   1      42.484  26.934  36.179  1.00  0.00    -0.203 F 
ATOM     87  C   UNL A   1      44.792  26.866  36.640  1.00  0.00     0.198 A 
ATOM     88  C   UNL A   1      46.261  28.496  35.664  1.00  0.00     0.198 A 
ATOM     89  F   UNL A   1      45.390  30.185  34.278  1.00  0.00    -0.203 F 
ATOM     90  F   UNL A   1      44.601  25.809  37.440  1.00  0.00    -0.200 F 
ATOM     91  C   UNL A   1      46.068  27.383  36.468  1.00  0.00     0.200 A 
ATOM     92  F   UNL A   1      47.495  28.987  35.485  1.00  0.00    -0.200 F 
ATOM     93  F   UNL A   1      47.112  26.812  37.086  1.00  0.00    -0.200 F 
ENDBRANCH  60  83
ENDBRANCH  34  35
ENDBRANCH  26  29
ENDBRANCH  24  25
ENDBRANCH  23  24
ENDBRANCH   1  23
TORSDOF 14
ENDMDL
MODEL 2
REMARK VINA RESULT:     -11.7      5.928     11.361
REMARK SMILES CC(C)[C@H](NC(N)=O)C(=O)N[C@H](C)C(=O)NCCCNC(=O)c1ccc(-c2c3nc(c(-c4c(F)c(F)c(F)c(F)c4F)c4ccc([nH]4)c(-c4c(F)c(F)c(F)c(F)c4F)c4nc(c(-c5c(F)c(F)c(F)c(F)c5F)c5ccc2[nH]5)C=C4)C=C3)cc1
REMARK SMILES IDX 17 1 16 2 14 3 15 4 12 6 13 7 11 8 9 9 10 10 4 12 2 13 1 14
REMARK SMILES IDX 3 15 5 16 6 17 7 19 8 20 18 23 19 24 20 25 21 26 22 28 23 29
REMARK SMILES IDX 24 30 85 31 25 32 84 33 26 34 27 35 28 36 78 37 29 38 83 39
REMARK SMILES IDX 77 40 79 41 30 42 82 43 76 44 75 45 31 47 63 48 43 49 62 50
REMARK SMILES IDX 44 51 47 52 61 53 80 54 45 55 46 56 60 58 81 59 48 60 32 61
REMARK SMILES IDX 33 62 41 63 34 64 35 65 39 66 42 67 36 68 37 69 40 70 38 71
REMARK SMILES IDX 64 72 65 73 73 74 66 75 67 76 71 77 74 78 68 79 69 80 72 81
REMARK SMILES IDX 70 82 49 83 50 84 58 85 51 86 52 87 56 88 59 89 53 90 54 91
REMARK SMILES IDX 57 92 55 93
REMARK H PARENT 16 5 11 11 5 18 7 21 7 22 20 27 79 46 47 57
REMARK Flexibility Score: inf
ROOT
ATOM      1  C   UNL A   1      37.286  21.222  24.638  1.00  0.00     0.117 C 
ENDROOT
BRANCH   1   2
ATOM      2  N   UNL A   1      36.384  21.469  25.743  1.00  0.00    -0.354 N 
ATOM      3  C   UNL A   1      35.029  21.397  25.814  1.00  0.00     0.242 C 
ATOM      4  O   UNL A   1      34.515  21.851  26.843  1.00  0.00    -0.273 OA
ATOM      5  H   UNL A   1      36.825  21.733  26.583  1.00  0.00     0.163 HD
BRANCH   3   6
ATOM      6  C   UNL A   1      34.157  20.988  24.616  1.00  0.00     0.168 C 
ATOM      7  C   UNL A   1      33.942  19.477  24.724  1.00  0.00     0.041 C 
BRANCH   6   8
ATOM      8  N   UNL A   1      32.877  21.684  24.426  1.00  0.00    -0.343 N 
ATOM      9  C   UNL A   1      32.656  22.449  23.299  1.00  0.00     0.243 C 
ATOM     10  O   UNL A   1      32.354  21.870  22.255  1.00  0.00    -0.273 OA
ATOM     11  H   UNL A   1      32.172  21.605  25.109  1.00  0.00     0.164 HD
BRANCH   9  12
ATOM     12  C   UNL A   1      32.845  23.988  23.370  1.00  0.00     0.175 C 
BRANCH  12  13
ATOM     13  C   UNL A   1      32.778  24.627  24.776  1.00  0.00     0.015 C 
ATOM     14  C   UNL A   1      33.990  25.442  25.206  1.00  0.00     0.010 C 
ATOM     15  C   UNL A   1      31.522  25.495  24.921  1.00  0.00     0.010 C 
ENDBRANCH  12  13
BRANCH  12  16
ATOM     16  N   UNL A   1      31.999  24.652  22.380  1.00  0.00    -0.326 N 
ATOM     17  C   UNL A   1      32.563  25.565  21.534  1.00  0.00     0.312 C 
ATOM     18  H   UNL A   1      31.038  24.445  22.323  1.00  0.00     0.166 HD
ATOM     19  N   UNL A   1      31.772  25.952  20.516  1.00  0.00    -0.352 N 
ATOM     20  O   UNL A   1      33.709  25.991  21.623  1.00  0.00    -0.249 OA
ATOM     21  H   UNL A   1      30.853  25.607  20.449  1.00  0.00     0.161 HD
ATOM     22  H   UNL A   1      32.113  26.579  19.839  1.00  0.00     0.161 HD
ENDBRANCH  12  16
ENDBRANCH   9  12
ENDBRANCH   6   8
ENDBRANCH   3   6
ENDBRANCH   1   2
BRANCH   1  23
ATOM     23  C   UNL A   1      38.156  19.984  24.875  1.00  0.00     0.042 C 
BRANCH  23  24
ATOM     24  C   UNL A   1      39.223  20.127  25.970  1.00  0.00     0.118 C 
BRANCH  24  25
ATOM     25  N   UNL A   1      40.273  19.113  25.964  1.00  0.00    -0.352 N 
ATOM     26  C   UNL A   1      41.637  19.228  26.123  1.00  0.00     0.251 C 
ATOM     27  H   UNL A   1      39.953  18.193  25.821  1.00  0.00     0.163 HD
ATOM     28  O   UNL A   1      42.350  18.241  25.972  1.00  0.00    -0.269 OA
BRANCH  26  29
ATOM     29  C   UNL A   1      42.255  20.532  26.418  1.00  0.00     0.039 A 
ATOM     30  C   UNL A   1      42.798  21.290  25.375  1.00  0.00     0.014 A 
ATOM     31  C   UNL A   1      42.327  20.994  27.729  1.00  0.00     0.014 A 
ATOM     32  C   UNL A   1      43.326  22.554  25.643  1.00  0.00     0.010 A 
ATOM     33  C   UNL A   1      42.740  22.294  27.977  1.00  0.00     0.010 A 
ATOM     34  C   UNL A   1      43.255  23.084  26.940  1.00  0.00    -0.014 A 
BRANCH  34  35
ATOM     35  C   UNL A   1      43.731  24.448  27.271  1.00  0.00     0.031 A 
ATOM     36  C   UNL A   1      42.752  25.468  27.782  1.00  0.00     0.074 A 
ATOM     37  C   UNL A   1      45.000  24.799  26.992  1.00  0.00     0.049 A 
ATOM     38  N   UNL A   1      42.902  26.756  27.947  1.00  0.00    -0.248 NA
ATOM     39  C   UNL A   1      41.402  24.975  28.101  1.00  0.00     0.031 C 
ATOM     40  C   UNL A   1      46.028  23.909  26.453  1.00  0.00     0.029 A 
ATOM     41  N   UNL A   1      45.636  26.009  27.106  1.00  0.00    -0.354 N 
ATOM     42  C   UNL A   1      41.659  27.229  28.346  1.00  0.00     0.074 A 
ATOM     43  C   UNL A   1      40.752  26.103  28.336  1.00  0.00     0.031 C 
ATOM     44  C   UNL A   1      47.173  24.594  26.308  1.00  0.00     0.029 A 
ATOM     45  C   UNL A   1      46.945  25.982  26.697  1.00  0.00     0.049 A 
ATOM     46  H   UNL A   1      45.194  26.820  27.449  1.00  0.00     0.167 HD
ATOM     47  C   UNL A   1      41.312  28.486  28.716  1.00  0.00     0.037 A 
ATOM     48  C   UNL A   1      47.855  26.972  26.636  1.00  0.00     0.037 A 
ATOM     49  C   UNL A   1      42.236  29.588  28.762  1.00  0.00     0.049 A 
ATOM     50  C   UNL A   1      47.453  28.358  27.057  1.00  0.00     0.074 A 
ATOM     51  C   UNL A   1      42.015  30.886  29.186  1.00  0.00     0.029 A 
ATOM     52  N   UNL A   1      43.567  29.514  28.370  1.00  0.00    -0.354 N 
ATOM     53  N   UNL A   1      46.290  28.787  27.484  1.00  0.00    -0.248 NA
ATOM     54  C   UNL A   1      48.489  29.395  26.987  1.00  0.00     0.031 C 
ATOM     55  C   UNL A   1      43.201  31.608  29.011  1.00  0.00     0.029 A 
ATOM     56  C   UNL A   1      44.175  30.749  28.525  1.00  0.00     0.049 A 
ATOM     57  H   UNL A   1      44.011  28.704  28.032  1.00  0.00     0.167 HD
ATOM     58  C   UNL A   1      46.460  30.136  27.763  1.00  0.00     0.074 A 
ATOM     59  C   UNL A   1      47.844  30.450  27.464  1.00  0.00     0.031 C 
ATOM     60  C   UNL A   1      45.556  31.035  28.226  1.00  0.00     0.037 A 
BRANCH  47  61
ATOM     61  C   UNL A   1      39.876  28.721  29.092  1.00  0.00     0.064 A 
ATOM     62  C   UNL A   1      38.923  29.141  28.149  1.00  0.00     0.173 A 
ATOM     63  C   UNL A   1      39.447  28.543  30.416  1.00  0.00     0.173 A 
ATOM     64  F   UNL A   1      39.280  29.339  26.871  1.00  0.00    -0.203 F 
ATOM     65  C   UNL A   1      37.613  29.424  28.527  1.00  0.00     0.198 A 
ATOM     66  C   UNL A   1      38.125  28.791  30.783  1.00  0.00     0.198 A 
ATOM     67  F   UNL A   1      40.311  28.139  31.358  1.00  0.00    -0.203 F 
ATOM     68  F   UNL A   1      36.745  29.899  27.623  1.00  0.00    -0.200 F 
ATOM     69  C   UNL A   1      37.215  29.245  29.842  1.00  0.00     0.200 A 
ATOM     70  F   UNL A   1      37.739  28.605  32.052  1.00  0.00    -0.200 F 
ATOM     71  F   UNL A   1      35.955  29.525  30.206  1.00  0.00    -0.200 F 
ENDBRANCH  47  61
BRANCH  48  72
ATOM     72  C   UNL A   1      49.245  26.668  26.209  1.00  0.00     0.064 A 
ATOM     73  C   UNL A   1      49.635  26.859  24.876  1.00  0.00     0.173 A 
ATOM     74  C   UNL A   1      50.216  26.218  27.115  1.00  0.00     0.173 A 
ATOM     75  F   UNL A   1      48.738  27.272  23.970  1.00  0.00    -0.203 F 
ATOM     76  C   UNL A   1      50.941  26.602  24.463  1.00  0.00     0.198 A 
ATOM     77  C   UNL A   1      51.528  25.985  26.707  1.00  0.00     0.198 A 
ATOM     78  F   UNL A   1      49.896  26.029  28.404  1.00  0.00    -0.203 F 
ATOM     79  F   UNL A   1      51.279  26.765  23.177  1.00  0.00    -0.200 F 
ATOM     80  C   UNL A   1      51.888  26.174  25.380  1.00  0.00     0.200 A 
ATOM     81  F   UNL A   1      52.445  25.588  27.599  1.00  0.00    -0.200 F 
ATOM     82  F   UNL A   1      53.148  25.939  24.986  1.00  0.00    -0.200 F 
ENDBRANCH  48  72
BRANCH  60  83
ATOM     83  C   UNL A   1      46.045  32.431  28.475  1.00  0.00     0.064 A 
ATOM     84  C   UNL A   1      45.946  33.431  27.498  1.00  0.00     0.173 A 
ATOM     85  C   UNL A   1      46.583  32.780  29.724  1.00  0.00     0.173 A 
ATOM     86  F   UNL A   1      45.454  33.143  26.284  1.00  0.00    -0.203 F 
ATOM     87  C   UNL A   1      46.391  34.725  27.754  1.00  0.00     0.198 A 
ATOM     88  C   UNL A   1      46.998  34.081  29.986  1.00  0.00     0.198 A 
ATOM     89  F   UNL A   1      46.693  31.859  30.693  1.00  0.00    -0.203 F 
ATOM     90  F   UNL A   1      46.331  35.655  26.790  1.00  0.00    -0.200 F 
ATOM     91  C   UNL A   1      46.908  35.052  28.999  1.00  0.00     0.200 A 
ATOM     92  F   UNL A   1      47.483  34.398  31.194  1.00  0.00    -0.200 F 
ATOM     93  F   UNL A   1      47.328  36.300  29.245  1.00  0.00    -0.200 F 
ENDBRANCH  60  83
ENDBRANCH  34  35
ENDBRANCH  26  29
ENDBRANCH  24  25
ENDBRANCH  23  24
ENDBRANCH   1  23
TORSDOF 14
ENDMDL
MODEL 3
REMARK VINA RESULT:     -11.6      1.350      2.952
REMARK SMILES CC(C)[C@H](NC(N)=O)C(=O)N[C@H](C)C(=O)NCCCNC(=O)c1ccc(-c2c3nc(c(-c4c(F)c(F)c(F)c(F)c4F)c4ccc([nH]4)c(-c4c(F)c(F)c(F)c(F)c4F)c4nc(c(-c5c(F)c(F)c(F)c(F)c5F)c5ccc2[nH]5)C=C4)C=C3)cc1
REMARK SMILES IDX 17 1 16 2 14 3 15 4 12 6 13 7 11 8 9 9 10 10 4 12 2 13 1 14
REMARK SMILES IDX 3 15 5 16 6 17 7 19 8 20 18 23 19 24 20 25 21 26 22 28 23 29
REMARK SMILES IDX 24 30 85 31 25 32 84 33 26 34 27 35 28 36 78 37 29 38 83 39
REMARK SMILES IDX 77 40 79 41 30 42 82 43 76 44 75 45 31 47 63 48 43 49 62 50
REMARK SMILES IDX 44 51 47 52 61 53 80 54 45 55 46 56 60 58 81 59 48 60 32 61
REMARK SMILES IDX 33 62 41 63 34 64 35 65 39 66 42 67 36 68 37 69 40 70 38 71
REMARK SMILES IDX 64 72 65 73 73 74 66 75 67 76 71 77 74 78 68 79 69 80 72 81
REMARK SMILES IDX 70 82 49 83 50 84 58 85 51 86 52 87 56 88 59 89 53 90 54 91
REMARK SMILES IDX 57 92 55 93
REMARK H PARENT 16 5 11 11 5 18 7 21 7 22 20 27 79 46 47 57
REMARK Flexibility Score: inf
ROOT
ATOM      1  C   UNL A   1      31.536  30.865  26.053  1.00  0.00     0.117 C 
ENDROOT
BRANCH   1   2
ATOM      2  N   UNL A   1      31.681  29.708  26.912  1.00  0.00    -0.354 N 
ATOM      3  C   UNL A   1      32.678  28.790  27.003  1.00  0.00     0.242 C 
ATOM      4  O   UNL A   1      32.439  27.797  27.700  1.00  0.00    -0.273 OA
ATOM      5  H   UNL A   1      30.931  29.562  27.533  1.00  0.00     0.163 HD
BRANCH   3   6
ATOM      6  C   UNL A   1      33.942  28.852  26.131  1.00  0.00     0.168 C 
ATOM      7  C   UNL A   1      35.137  28.856  27.087  1.00  0.00     0.041 C 
BRANCH   6   8
ATOM      8  N   UNL A   1      34.111  27.827  25.091  1.00  0.00    -0.343 N 
ATOM      9  C   UNL A   1      33.735  28.083  23.787  1.00  0.00     0.243 C 
ATOM     10  O   UNL A   1      34.496  28.747  23.083  1.00  0.00    -0.273 OA
ATOM     11  H   UNL A   1      34.495  26.951  25.325  1.00  0.00     0.164 HD
BRANCH   9  12
ATOM     12  C   UNL A   1      32.359  27.579  23.276  1.00  0.00     0.175 C 
BRANCH  12  13
ATOM     13  C   UNL A   1      32.256  26.072  22.946  1.00  0.00     0.015 C 
ATOM     14  C   UNL A   1      31.118  25.310  23.612  1.00  0.00     0.010 C 
ATOM     15  C   UNL A   1      32.179  25.850  21.431  1.00  0.00     0.010 C 
ENDBRANCH  12  13
BRANCH  12  16
ATOM     16  N   UNL A   1      31.858  28.450  22.215  1.00  0.00    -0.326 N 
ATOM     17  C   UNL A   1      30.728  29.183  22.440  1.00  0.00     0.312 C 
ATOM     18  H   UNL A   1      32.328  28.507  21.351  1.00  0.00     0.166 HD
ATOM     19  N   UNL A   1      30.471  30.120  21.507  1.00  0.00    -0.352 N 
ATOM     20  O   UNL A   1      30.000  29.070  23.419  1.00  0.00    -0.249 OA
ATOM     21  H   UNL A   1      31.059  30.207  20.723  1.00  0.00     0.161 HD
ATOM     22  H   UNL A   1      29.696  30.718  21.611  1.00  0.00     0.161 HD
ENDBRANCH  12  16
ENDBRANCH   9  12
ENDBRANCH   6   8
ENDBRANCH   3   6
ENDBRANCH   1   2
BRANCH   1  23
ATOM     23  C   UNL A   1      31.278  32.144  26.854  1.00  0.00     0.042 C 
BRANCH  23  24
ATOM     24  C   UNL A   1      32.534  32.898  27.315  1.00  0.00     0.118 C 
BRANCH  24  25
ATOM     25  N   UNL A   1      32.335  34.303  27.659  1.00  0.00    -0.352 N 
ATOM     26  C   UNL A   1      32.990  35.111  28.564  1.00  0.00     0.251 C 
ATOM     27  H   UNL A   1      31.612  34.747  27.161  1.00  0.00     0.163 HD
ATOM     28  O   UNL A   1      32.579  36.249  28.768  1.00  0.00    -0.269 OA
BRANCH  26  29
ATOM     29  C   UNL A   1      34.142  34.606  29.329  1.00  0.00     0.039 A 
ATOM     30  C   UNL A   1      33.933  34.004  30.575  1.00  0.00     0.014 A 
ATOM     31  C   UNL A   1      35.434  34.754  28.833  1.00  0.00     0.014 A 
ATOM     32  C   UNL A   1      35.016  33.468  31.273  1.00  0.00     0.010 A 
ATOM     33  C   UNL A   1      36.490  34.117  29.466  1.00  0.00     0.010 A 
ATOM     34  C   UNL A   1      36.296  33.478  30.699  1.00  0.00    -0.014 A 
BRANCH  34  35
ATOM     35  C   UNL A   1      37.471  32.859  31.357  1.00  0.00     0.031 A 
ATOM     36  C   UNL A   1      38.170  31.708  30.690  1.00  0.00     0.074 A 
ATOM     37  C   UNL A   1      37.821  33.245  32.598  1.00  0.00     0.049 A 
ATOM     38  N   UNL A   1      39.080  30.898  31.165  1.00  0.00    -0.248 NA
ATOM     39  C   UNL A   1      37.745  31.393  29.316  1.00  0.00     0.031 C 
ATOM     40  C   UNL A   1      37.189  34.319  33.363  1.00  0.00     0.029 A 
ATOM     41  N   UNL A   1      38.787  32.759  33.443  1.00  0.00    -0.354 N 
ATOM     42  C   UNL A   1      39.304  29.959  30.166  1.00  0.00     0.074 A 
ATOM     43  C   UNL A   1      38.389  30.260  29.088  1.00  0.00     0.031 C 
ATOM     44  C   UNL A   1      37.799  34.431  34.553  1.00  0.00     0.029 A 
ATOM     45  C   UNL A   1      38.832  33.404  34.653  1.00  0.00     0.049 A 
ATOM     46  H   UNL A   1      39.390  32.019  33.203  1.00  0.00     0.167 HD
ATOM     47  C   UNL A   1      40.211  28.953  30.140  1.00  0.00     0.037 A 
ATOM     48  C   UNL A   1      39.614  33.182  35.725  1.00  0.00     0.037 A 
ATOM     49  C   UNL A   1      41.144  28.693  31.203  1.00  0.00     0.049 A 
ATOM     50  C   UNL A   1      40.620  32.065  35.675  1.00  0.00     0.074 A 
ATOM     51  C   UNL A   1      42.153  27.748  31.258  1.00  0.00     0.029 A 
ATOM     52  N   UNL A   1      41.182  29.390  32.404  1.00  0.00    -0.354 N 
ATOM     53  N   UNL A   1      40.862  31.214  34.706  1.00  0.00    -0.248 NA
ATOM     54  C   UNL A   1      41.459  31.879  36.864  1.00  0.00     0.031 C 
ATOM     55  C   UNL A   1      42.773  27.846  32.509  1.00  0.00     0.029 A 
ATOM     56  C   UNL A   1      42.184  28.884  33.214  1.00  0.00     0.049 A 
ATOM     57  H   UNL A   1      40.583  30.134  32.644  1.00  0.00     0.167 HD
ATOM     58  C   UNL A   1      41.901  30.411  35.155  1.00  0.00     0.074 A 
ATOM     59  C   UNL A   1      42.247  30.884  36.481  1.00  0.00     0.031 C 
ATOM     60  C   UNL A   1      42.514  29.376  34.529  1.00  0.00     0.037 A 
BRANCH  47  61
ATOM     61  C   UNL A   1      40.225  28.070  28.924  1.00  0.00     0.064 A 
ATOM     62  C   UNL A   1      39.536  26.846  28.890  1.00  0.00     0.173 A 
ATOM     63  C   UNL A   1      40.949  28.440  27.781  1.00  0.00     0.173 A 
ATOM     64  F   UNL A   1      38.837  26.436  29.960  1.00  0.00    -0.203 F 
ATOM     65  C   UNL A   1      39.616  26.005  27.783  1.00  0.00     0.198 A 
ATOM     66  C   UNL A   1      40.996  27.613  26.660  1.00  0.00     0.198 A 
ATOM     67  F   UNL A   1      41.622  29.600  27.753  1.00  0.00    -0.203 F 
ATOM     68  F   UNL A   1      39.015  24.807  27.809  1.00  0.00    -0.200 F 
ATOM     69  C   UNL A   1      40.344  26.391  26.668  1.00  0.00     0.200 A 
ATOM     70  F   UNL A   1      41.689  27.994  25.578  1.00  0.00    -0.200 F 
ATOM     71  F   UNL A   1      40.426  25.578  25.606  1.00  0.00    -0.200 F 
ENDBRANCH  47  61
BRANCH  48  72
ATOM     72  C   UNL A   1      39.509  34.072  36.910  1.00  0.00     0.064 A 
ATOM     73  C   UNL A   1      38.740  33.689  38.018  1.00  0.00     0.173 A 
ATOM     74  C   UNL A   1      40.191  35.294  36.980  1.00  0.00     0.173 A 
ATOM     75  F   UNL A   1      38.058  32.536  37.992  1.00  0.00    -0.203 F 
ATOM     76  C   UNL A   1      38.650  34.500  39.148  1.00  0.00     0.198 A 
ATOM     77  C   UNL A   1      40.120  36.094  38.119  1.00  0.00     0.198 A 
ATOM     78  F   UNL A   1      40.948  35.702  35.949  1.00  0.00    -0.203 F 
ATOM     79  F   UNL A   1      37.885  34.123  40.181  1.00  0.00    -0.200 F 
ATOM     80  C   UNL A   1      39.347  35.698  39.201  1.00  0.00     0.200 A 
ATOM     81  F   UNL A   1      40.809  37.242  38.174  1.00  0.00    -0.200 F 
ATOM     82  F   UNL A   1      39.271  36.472  40.292  1.00  0.00    -0.200 F 
ENDBRANCH  48  72
BRANCH  60  83
ATOM     83  C   UNL A   1      43.649  28.714  35.253  1.00  0.00     0.064 A 
ATOM     84  C   UNL A   1      44.975  29.135  35.086  1.00  0.00     0.173 A 
ATOM     85  C   UNL A   1      43.397  27.671  36.158  1.00  0.00     0.173 A 
ATOM     86  F   UNL A   1      45.269  30.118  34.221  1.00  0.00    -0.203 F 
ATOM     87  C   UNL A   1      46.013  28.519  35.779  1.00  0.00     0.198 A 
ATOM     88  C   UNL A   1      44.433  27.078  36.872  1.00  0.00     0.198 A 
ATOM     89  F   UNL A   1      42.144  27.237  36.357  1.00  0.00    -0.203 F 
ATOM     90  F   UNL A   1      47.279  28.904  35.569  1.00  0.00    -0.200 F 
ATOM     91  C   UNL A   1      45.741  27.497  36.678  1.00  0.00     0.200 A 
ATOM     92  F   UNL A   1      44.167  26.101  37.750  1.00  0.00    -0.200 F 
ATOM     93  F   UNL A   1      46.741  26.911  37.351  1.00  0.00    -0.200 F 
ENDBRANCH  60  83
ENDBRANCH  34  35
ENDBRANCH  26  29
ENDBRANCH  24  25
ENDBRANCH  23  24
ENDBRANCH   1  23
TORSDOF 14
ENDMDL
