MODEL 1
REMARK VINA RESULT:     -13.3      0.000      0.000
REMARK SMILES Cc1ccc(S(=O)(=O)/C=C/C(=O)NCCCNC(=O)c2ccc(-c3c4nc(c(-c5c(F)c(F)c(F)c(F)c5F)c5ccc([nH]5)c(-c5c(F)c(F)c(F)c(F)c5F)c5nc(c(-c6c(F)c(F)c(F)c(F)c6F)c6ccc3[nH]6)C=C5)C=C4)cc2)cc1
REMARK SMILES IDX 15 1 14 2 13 3 11 4 12 5 10 7 9 8 6 9 7 10 8 11 5 12 1 13
REMARK SMILES IDX 2 14 3 15 84 16 4 17 83 18 16 19 17 20 18 21 19 23 20 24
REMARK SMILES IDX 21 25 82 26 22 27 81 28 23 29 24 30 25 31 75 32 26 33 80 34
REMARK SMILES IDX 74 35 76 36 27 37 79 38 73 39 72 40 28 42 60 43 40 44 59 45
REMARK SMILES IDX 41 46 44 47 58 48 77 49 42 50 43 51 57 53 78 54 45 55 29 56
REMARK SMILES IDX 30 57 38 58 31 59 32 60 36 61 39 62 33 63 34 64 37 65 35 66
REMARK SMILES IDX 61 67 62 68 70 69 63 70 64 71 68 72 71 73 65 74 66 75 69 76
REMARK SMILES IDX 67 77 46 78 47 79 55 80 48 81 49 82 53 83 56 84 50 85 51 86
REMARK SMILES IDX 54 87 52 88
REMARK H PARENT 13 6 17 22 76 41 44 52
REMARK Flexibility Score: inf
ROOT
ATOM      1  C   UNL A   1      32.318  30.013  26.809  1.00  0.00     0.042 C 
ENDROOT
BRANCH   1   2
ATOM      2  C   UNL A   1      32.033  29.274  25.504  1.00  0.00     0.118 C 
BRANCH   2   3
ATOM      3  N   UNL A   1      33.054  29.548  24.497  1.00  0.00    -0.352 N 
ATOM      4  C   UNL A   1      33.731  28.654  23.722  1.00  0.00     0.244 C 
ATOM      5  O   UNL A   1      34.562  29.004  22.893  1.00  0.00    -0.270 OA
ATOM      6  H   UNL A   1      33.280  30.497  24.359  1.00  0.00     0.163 HD
BRANCH   4   7
ATOM      7  C   UNL A   1      33.418  27.233  23.910  1.00  0.00     0.083 C 
ATOM      8  C   UNL A   1      33.588  26.406  22.871  1.00  0.00     0.117 C 
BRANCH   8   9
ATOM      9  S   UNL A   1      33.297  24.720  23.090  1.00  0.00     0.200 S 
ATOM     10  O   UNL A   1      33.281  24.080  21.795  1.00  0.00    -0.219 OA
ATOM     11  O   UNL A   1      32.160  24.590  23.994  1.00  0.00    -0.219 OA
BRANCH   9  12
ATOM     12  C   UNL A   1      34.700  24.066  23.964  1.00  0.00     0.071 A 
ATOM     13  C   UNL A   1      38.267  22.575  25.839  1.00  0.00     0.044 C 
ATOM     14  C   UNL A   1      37.018  23.092  25.189  1.00  0.00    -0.051 A 
ATOM     15  C   UNL A   1      36.763  22.815  23.840  1.00  0.00     0.005 A 
ATOM     16  C   UNL A   1      36.084  23.832  25.926  1.00  0.00     0.005 A 
ATOM     17  C   UNL A   1      35.611  23.306  23.226  1.00  0.00     0.021 A 
ATOM     18  C   UNL A   1      34.925  24.316  25.320  1.00  0.00     0.021 A 
ENDBRANCH   9  12
ENDBRANCH   8   9
ENDBRANCH   4   7
ENDBRANCH   2   3
ENDBRANCH   1   2
BRANCH   1  19
ATOM     19  C   UNL A   1      33.761  29.848  27.263  1.00  0.00     0.118 C 
BRANCH  19  20
ATOM     20  N   UNL A   1      34.292  30.990  28.001  1.00  0.00    -0.352 N 
ATOM     21  C   UNL A   1      35.425  31.090  28.789  1.00  0.00     0.251 C 
ATOM     22  H   UNL A   1      33.763  31.817  27.927  1.00  0.00     0.163 HD
ATOM     23  O   UNL A   1      35.657  32.133  29.393  1.00  0.00    -0.269 OA
BRANCH  21  24
ATOM     24  C   UNL A   1      36.424  29.993  28.803  1.00  0.00     0.039 A 
ATOM     25  C   UNL A   1      36.625  29.280  29.996  1.00  0.00     0.014 A 
ATOM     26  C   UNL A   1      37.275  29.787  27.725  1.00  0.00     0.014 A 
ATOM     27  C   UNL A   1      37.807  28.562  30.181  1.00  0.00     0.010 A 
ATOM     28  C   UNL A   1      38.495  29.191  27.949  1.00  0.00     0.010 A 
ATOM     29  C   UNL A   1      38.786  28.624  29.195  1.00  0.00    -0.014 A 
BRANCH  29  30
ATOM     30  C   UNL A   1      40.168  28.185  29.347  1.00  0.00     0.031 A 
ATOM     31  C   UNL A   1      40.587  26.872  28.809  1.00  0.00     0.074 A 
ATOM     32  C   UNL A   1      41.096  29.084  29.741  1.00  0.00     0.049 A 
ATOM     33  N   UNL A   1      41.754  26.350  28.970  1.00  0.00    -0.248 NA
ATOM     34  C   UNL A   1      39.678  26.012  28.062  1.00  0.00     0.031 C 
ATOM     35  C   UNL A   1      42.536  29.028  29.503  1.00  0.00     0.029 A 
ATOM     36  N   UNL A   1      40.933  30.172  30.616  1.00  0.00    -0.354 N 
ATOM     37  C   UNL A   1      41.847  25.239  28.162  1.00  0.00     0.074 A 
ATOM     38  C   UNL A   1      40.505  25.038  27.670  1.00  0.00     0.031 C 
ATOM     39  C   UNL A   1      43.157  29.805  30.403  1.00  0.00     0.029 A 
ATOM     40  C   UNL A   1      42.148  30.239  31.350  1.00  0.00     0.049 A 
ATOM     41  H   UNL A   1      40.148  30.759  30.702  1.00  0.00     0.167 HD
ATOM     42  C   UNL A   1      43.079  24.694  27.940  1.00  0.00     0.037 A 
ATOM     43  C   UNL A   1      42.176  29.976  32.691  1.00  0.00     0.037 A 
ATOM     44  C   UNL A   1      44.084  25.313  28.809  1.00  0.00     0.049 A 
ATOM     45  C   UNL A   1      43.049  28.809  33.101  1.00  0.00     0.074 A 
ATOM     46  C   UNL A   1      45.056  26.287  28.646  1.00  0.00     0.029 A 
ATOM     47  N   UNL A   1      43.979  25.104  30.170  1.00  0.00    -0.354 N 
ATOM     48  N   UNL A   1      43.644  28.007  32.264  1.00  0.00    -0.248 NA
ATOM     49  C   UNL A   1      43.225  28.388  34.493  1.00  0.00     0.031 C 
ATOM     50  C   UNL A   1      45.515  26.673  29.941  1.00  0.00     0.029 A 
ATOM     51  C   UNL A   1      44.825  25.929  30.881  1.00  0.00     0.049 A 
ATOM     52  H   UNL A   1      43.375  24.445  30.583  1.00  0.00     0.167 HD
ATOM     53  C   UNL A   1      44.190  26.960  32.953  1.00  0.00     0.074 A 
ATOM     54  C   UNL A   1      43.921  27.247  34.348  1.00  0.00     0.031 C 
ATOM     55  C   UNL A   1      44.773  25.898  32.330  1.00  0.00     0.037 A 
BRANCH  42  56
ATOM     56  C   UNL A   1      43.454  23.715  26.840  1.00  0.00     0.064 A 
ATOM     57  C   UNL A   1      43.025  22.368  26.913  1.00  0.00     0.173 A 
ATOM     58  C   UNL A   1      44.265  23.997  25.725  1.00  0.00     0.173 A 
ATOM     59  F   UNL A   1      42.174  21.953  27.862  1.00  0.00    -0.203 F 
ATOM     60  C   UNL A   1      43.449  21.387  26.012  1.00  0.00     0.198 A 
ATOM     61  C   UNL A   1      44.717  23.011  24.842  1.00  0.00     0.198 A 
ATOM     62  F   UNL A   1      44.617  25.239  25.395  1.00  0.00    -0.203 F 
ATOM     63  F   UNL A   1      43.014  20.127  26.148  1.00  0.00    -0.200 F 
ATOM     64  C   UNL A   1      44.319  21.702  24.991  1.00  0.00     0.200 A 
ATOM     65  F   UNL A   1      45.539  23.350  23.838  1.00  0.00    -0.200 F 
ATOM     66  F   UNL A   1      44.750  20.760  24.143  1.00  0.00    -0.200 F 
ENDBRANCH  42  56
BRANCH  43  67
ATOM     67  C   UNL A   1      40.903  30.349  33.363  1.00  0.00     0.064 A 
ATOM     68  C   UNL A   1      40.662  31.710  33.629  1.00  0.00     0.173 A 
ATOM     69  C   UNL A   1      39.805  29.481  33.345  1.00  0.00     0.173 A 
ATOM     70  F   UNL A   1      41.684  32.580  33.651  1.00  0.00    -0.203 F 
ATOM     71  C   UNL A   1      39.363  32.201  33.735  1.00  0.00     0.198 A 
ATOM     72  C   UNL A   1      38.508  29.976  33.471  1.00  0.00     0.198 A 
ATOM     73  F   UNL A   1      39.973  28.177  33.080  1.00  0.00    -0.203 F 
ATOM     74  F   UNL A   1      39.156  33.520  33.858  1.00  0.00    -0.200 F 
ATOM     75  C   UNL A   1      38.287  31.337  33.624  1.00  0.00     0.200 A 
ATOM     76  F   UNL A   1      37.464  29.145  33.337  1.00  0.00    -0.200 F 
ATOM     77  F   UNL A   1      37.036  31.820  33.616  1.00  0.00    -0.200 F 
ENDBRANCH  43  67
BRANCH  55  78
ATOM     78  C   UNL A   1      45.333  24.724  33.068  1.00  0.00     0.064 A 
ATOM     79  C   UNL A   1      44.546  23.612  33.400  1.00  0.00     0.173 A 
ATOM     80  C   UNL A   1      46.647  24.745  33.578  1.00  0.00     0.173 A 
ATOM     81  F   UNL A   1      43.279  23.522  32.968  1.00  0.00    -0.203 F 
ATOM     82  C   UNL A   1      45.047  22.580  34.194  1.00  0.00     0.198 A 
ATOM     83  C   UNL A   1      47.128  23.738  34.410  1.00  0.00     0.198 A 
ATOM     84  F   UNL A   1      47.499  25.732  33.262  1.00  0.00    -0.203 F 
ATOM     85  F   UNL A   1      44.279  21.515  34.463  1.00  0.00    -0.200 F 
ATOM     86  C   UNL A   1      46.329  22.652  34.715  1.00  0.00     0.200 A 
ATOM     87  F   UNL A   1      48.367  23.826  34.914  1.00  0.00    -0.200 F 
ATOM     88  F   UNL A   1      46.797  21.675  35.503  1.00  0.00    -0.200 F 
ENDBRANCH  55  78
ENDBRANCH  29  30
ENDBRANCH  21  24
ENDBRANCH  19  20
ENDBRANCH   1  19
TORSDOF 12
ENDMDL
MODEL 2
REMARK VINA RESULT:     -13.2      0.849      1.503
REMARK SMILES Cc1ccc(S(=O)(=O)/C=C/C(=O)NCCCNC(=O)c2ccc(-c3c4nc(c(-c5c(F)c(F)c(F)c(F)c5F)c5ccc([nH]5)c(-c5c(F)c(F)c(F)c(F)c5F)c5nc(c(-c6c(F)c(F)c(F)c(F)c6F)c6ccc3[nH]6)C=C5)C=C4)cc2)cc1
REMARK SMILES IDX 15 1 14 2 13 3 11 4 12 5 10 7 9 8 6 9 7 10 8 11 5 12 1 13
REMARK SMILES IDX 2 14 3 15 84 16 4 17 83 18 16 19 17 20 18 21 19 23 20 24
REMARK SMILES IDX 21 25 82 26 22 27 81 28 23 29 24 30 25 31 75 32 26 33 80 34
REMARK SMILES IDX 74 35 76 36 27 37 79 38 73 39 72 40 28 42 60 43 40 44 59 45
REMARK SMILES IDX 41 46 44 47 58 48 77 49 42 50 43 51 57 53 78 54 45 55 29 56
REMARK SMILES IDX 30 57 38 58 31 59 32 60 36 61 39 62 33 63 34 64 37 65 35 66
REMARK SMILES IDX 61 67 62 68 70 69 63 70 64 71 68 72 71 73 65 74 66 75 69 76
REMARK SMILES IDX 67 77 46 78 47 79 55 80 48 81 49 82 53 83 56 84 50 85 51 86
REMARK SMILES IDX 54 87 52 88
REMARK H PARENT 13 6 17 22 76 41 44 52
REMARK Flexibility Score: inf
ROOT
ATOM      1  C   UNL A   1      31.953  30.433  26.631  1.00  0.00     0.042 C 
ENDROOT
BRANCH   1   2
ATOM      2  C   UNL A   1      31.713  29.481  25.462  1.00  0.00     0.118 C 
BRANCH   2   3
ATOM      3  N   UNL A   1      32.697  29.672  24.401  1.00  0.00    -0.352 N 
ATOM      4  C   UNL A   1      33.291  28.723  23.624  1.00  0.00     0.244 C 
ATOM      5  O   UNL A   1      34.098  29.005  22.747  1.00  0.00    -0.270 OA
ATOM      6  H   UNL A   1      32.965  30.604  24.224  1.00  0.00     0.163 HD
BRANCH   4   7
ATOM      7  C   UNL A   1      32.914  27.326  23.869  1.00  0.00     0.083 C 
ATOM      8  C   UNL A   1      33.849  26.381  23.712  1.00  0.00     0.117 C 
BRANCH   8   9
ATOM      9  S   UNL A   1      33.448  24.742  24.066  1.00  0.00     0.200 S 
ATOM     10  O   UNL A   1      32.950  24.116  22.862  1.00  0.00    -0.219 OA
ATOM     11  O   UNL A   1      32.648  24.745  25.284  1.00  0.00    -0.219 OA
BRANCH   9  12
ATOM     12  C   UNL A   1      34.970  23.919  24.476  1.00  0.00     0.071 A 
ATOM     13  C   UNL A   1      38.537  21.892  25.753  1.00  0.00     0.044 C 
ATOM     14  C   UNL A   1      37.295  22.602  25.301  1.00  0.00    -0.051 A 
ATOM     15  C   UNL A   1      36.727  23.599  26.104  1.00  0.00     0.005 A 
ATOM     16  C   UNL A   1      36.707  22.296  24.067  1.00  0.00     0.005 A 
ATOM     17  C   UNL A   1      35.563  24.253  25.697  1.00  0.00     0.021 A 
ATOM     18  C   UNL A   1      35.549  22.953  23.650  1.00  0.00     0.021 A 
ENDBRANCH   9  12
ENDBRANCH   8   9
ENDBRANCH   4   7
ENDBRANCH   2   3
ENDBRANCH   1   2
BRANCH   1  19
ATOM     19  C   UNL A   1      33.289  30.182  27.314  1.00  0.00     0.118 C 
BRANCH  19  20
ATOM     20  N   UNL A   1      33.918  31.381  27.862  1.00  0.00    -0.352 N 
ATOM     21  C   UNL A   1      35.122  31.528  28.527  1.00  0.00     0.251 C 
ATOM     22  H   UNL A   1      33.405  32.212  27.741  1.00  0.00     0.163 HD
ATOM     23  O   UNL A   1      35.437  32.624  28.981  1.00  0.00    -0.269 OA
BRANCH  21  24
ATOM     24  C   UNL A   1      36.089  30.404  28.578  1.00  0.00     0.039 A 
ATOM     25  C   UNL A   1      36.278  29.734  29.797  1.00  0.00     0.014 A 
ATOM     26  C   UNL A   1      36.925  30.131  27.504  1.00  0.00     0.014 A 
ATOM     27  C   UNL A   1      37.440  28.989  30.003  1.00  0.00     0.010 A 
ATOM     28  C   UNL A   1      38.130  29.508  27.744  1.00  0.00     0.010 A 
ATOM     29  C   UNL A   1      38.413  28.983  29.010  1.00  0.00    -0.014 A 
BRANCH  29  30
ATOM     30  C   UNL A   1      39.783  28.510  29.171  1.00  0.00     0.031 A 
ATOM     31  C   UNL A   1      40.125  27.113  28.827  1.00  0.00     0.074 A 
ATOM     32  C   UNL A   1      40.763  29.416  29.380  1.00  0.00     0.049 A 
ATOM     33  N   UNL A   1      41.277  26.569  29.019  1.00  0.00    -0.248 NA
ATOM     34  C   UNL A   1      39.149  26.190  28.262  1.00  0.00     0.031 C 
ATOM     35  C   UNL A   1      42.187  29.259  29.094  1.00  0.00     0.029 A 
ATOM     36  N   UNL A   1      40.685  30.632  30.081  1.00  0.00    -0.354 N 
ATOM     37  C   UNL A   1      41.288  25.344  28.391  1.00  0.00     0.074 A 
ATOM     38  C   UNL A   1      39.917  25.131  27.993  1.00  0.00     0.031 C 
ATOM     39  C   UNL A   1      42.880  30.137  29.835  1.00  0.00     0.029 A 
ATOM     40  C   UNL A   1      41.935  30.756  30.744  1.00  0.00     0.049 A 
ATOM     41  H   UNL A   1      39.928  31.261  30.106  1.00  0.00     0.167 HD
ATOM     42  C   UNL A   1      42.487  24.715  28.206  1.00  0.00     0.037 A 
ATOM     43  C   UNL A   1      42.017  30.703  32.107  1.00  0.00     0.037 A 
ATOM     44  C   UNL A   1      43.556  25.415  28.924  1.00  0.00     0.049 A 
ATOM     45  C   UNL A   1      42.864  29.574  32.658  1.00  0.00     0.074 A 
ATOM     46  C   UNL A   1      44.555  26.307  28.571  1.00  0.00     0.029 A 
ATOM     47  N   UNL A   1      43.509  25.423  30.305  1.00  0.00    -0.354 N 
ATOM     48  N   UNL A   1      43.387  28.626  31.932  1.00  0.00    -0.248 NA
ATOM     49  C   UNL A   1      43.091  29.366  34.089  1.00  0.00     0.031 C 
ATOM     50  C   UNL A   1      45.090  26.867  29.769  1.00  0.00     0.029 A 
ATOM     51  C   UNL A   1      44.419  26.309  30.842  1.00  0.00     0.049 A 
ATOM     52  H   UNL A   1      42.900  24.864  30.840  1.00  0.00     0.167 HD
ATOM     53  C   UNL A   1      43.925  27.675  32.753  1.00  0.00     0.074 A 
ATOM     54  C   UNL A   1      43.735  28.185  34.096  1.00  0.00     0.031 C 
ATOM     55  C   UNL A   1      44.436  26.504  32.280  1.00  0.00     0.037 A 
BRANCH  42  56
ATOM     56  C   UNL A   1      42.770  23.563  27.257  1.00  0.00     0.064 A 
ATOM     57  C   UNL A   1      42.291  22.265  27.556  1.00  0.00     0.173 A 
ATOM     58  C   UNL A   1      43.539  23.632  26.080  1.00  0.00     0.173 A 
ATOM     59  F   UNL A   1      41.469  22.041  28.591  1.00  0.00    -0.203 F 
ATOM     60  C   UNL A   1      42.632  21.138  26.802  1.00  0.00     0.198 A 
ATOM     61  C   UNL A   1      43.910  22.501  25.345  1.00  0.00     0.198 A 
ATOM     62  F   UNL A   1      43.926  24.790  25.548  1.00  0.00    -0.203 F 
ATOM     63  F   UNL A   1      42.153  19.935  27.150  1.00  0.00    -0.200 F 
ATOM     64  C   UNL A   1      43.466  21.251  25.711  1.00  0.00     0.200 A 
ATOM     65  F   UNL A   1      44.697  22.643  24.268  1.00  0.00    -0.200 F 
ATOM     66  F   UNL A   1      43.818  20.171  25.003  1.00  0.00    -0.200 F 
ENDBRANCH  42  56
BRANCH  43  67
ATOM     67  C   UNL A   1      40.794  31.232  32.765  1.00  0.00     0.064 A 
ATOM     68  C   UNL A   1      40.629  32.628  32.846  1.00  0.00     0.173 A 
ATOM     69  C   UNL A   1      39.656  30.430  32.909  1.00  0.00     0.173 A 
ATOM     70  F   UNL A   1      41.692  33.437  32.709  1.00  0.00    -0.203 F 
ATOM     71  C   UNL A   1      39.362  33.197  32.928  1.00  0.00     0.198 A 
ATOM     72  C   UNL A   1      38.391  31.005  33.010  1.00  0.00     0.198 A 
ATOM     73  F   UNL A   1      39.750  29.095  32.824  1.00  0.00    -0.203 F 
ATOM     74  F   UNL A   1      39.223  34.529  32.872  1.00  0.00    -0.200 F 
ATOM     75  C   UNL A   1      38.241  32.385  32.978  1.00  0.00     0.200 A 
ATOM     76  F   UNL A   1      37.304  30.221  33.032  1.00  0.00    -0.200 F 
ATOM     77  F   UNL A   1      37.016  32.927  32.947  1.00  0.00    -0.200 F 
ENDBRANCH  43  67
BRANCH  55  78
ATOM     78  C   UNL A   1      44.985  25.434  33.168  1.00  0.00     0.064 A 
ATOM     79  C   UNL A   1      46.358  25.158  33.236  1.00  0.00     0.173 A 
ATOM     80  C   UNL A   1      44.130  24.566  33.875  1.00  0.00     0.173 A 
ATOM     81  F   UNL A   1      47.240  25.926  32.579  1.00  0.00    -0.203 F 
ATOM     82  C   UNL A   1      46.846  24.078  33.972  1.00  0.00     0.198 A 
ATOM     83  C   UNL A   1      44.614  23.460  34.569  1.00  0.00     0.198 A 
ATOM     84  F   UNL A   1      42.807  24.784  33.926  1.00  0.00    -0.203 F 
ATOM     85  F   UNL A   1      48.167  23.864  34.046  1.00  0.00    -0.200 F 
ATOM     86  C   UNL A   1      45.973  23.218  34.621  1.00  0.00     0.200 A 
ATOM     87  F   UNL A   1      43.757  22.633  35.184  1.00  0.00    -0.200 F 
ATOM     88  F   UNL A   1      46.441  22.163  35.301  1.00  0.00    -0.200 F 
ENDBRANCH  55  78
ENDBRANCH  29  30
ENDBRANCH  21  24
ENDBRANCH  19  20
ENDBRANCH   1  19
TORSDOF 12
ENDMDL
MODEL 3
REMARK VINA RESULT:     -13.1      3.995     10.128
REMARK SMILES Cc1ccc(S(=O)(=O)/C=C/C(=O)NCCCNC(=O)c2ccc(-c3c4nc(c(-c5c(F)c(F)c(F)c(F)c5F)c5ccc([nH]5)c(-c5c(F)c(F)c(F)c(F)c5F)c5nc(c(-c6c(F)c(F)c(F)c(F)c6F)c6ccc3[nH]6)C=C5)C=C4)cc2)cc1
REMARK SMILES IDX 15 1 14 2 13 3 11 4 12 5 10 7 9 8 6 9 7 10 8 11 5 12 1 13
REMARK SMILES IDX 2 14 3 15 84 16 4 17 83 18 16 19 17 20 18 21 19 23 20 24
REMARK SMILES IDX 21 25 82 26 22 27 81 28 23 29 24 30 25 31 75 32 26 33 80 34
REMARK SMILES IDX 74 35 76 36 27 37 79 38 73 39 72 40 28 42 60 43 40 44 59 45
REMARK SMILES IDX 41 46 44 47 58 48 77 49 42 50 43 51 57 53 78 54 45 55 29 56
REMARK SMILES IDX 30 57 38 58 31 59 32 60 36 61 39 62 33 63 34 64 37 65 35 66
REMARK SMILES IDX 61 67 62 68 70 69 63 70 64 71 68 72 71 73 65 74 66 75 69 76
REMARK SMILES IDX 67 77 46 78 47 79 55 80 48 81 49 82 53 83 56 84 50 85 51 86
REMARK SMILES IDX 54 87 52 88
REMARK H PARENT 13 6 17 22 76 41 44 52
REMARK Flexibility Score: inf
ROOT
ATOM      1  C   UNL A   1      37.389  21.683  25.017  1.00  0.00     0.042 C 
ENDROOT
BRANCH   1   2
ATOM      2  C   UNL A   1      35.865  21.656  25.106  1.00  0.00     0.118 C 
BRANCH   2   3
ATOM      3  N   UNL A   1      35.405  21.704  26.491  1.00  0.00    -0.352 N 
ATOM      4  C   UNL A   1      34.434  22.496  27.027  1.00  0.00     0.244 C 
ATOM      5  O   UNL A   1      34.121  22.438  28.209  1.00  0.00    -0.270 OA
ATOM      6  H   UNL A   1      35.852  21.086  27.115  1.00  0.00     0.163 HD
BRANCH   4   7
ATOM      7  C   UNL A   1      33.756  23.429  26.121  1.00  0.00     0.083 C 
ATOM      8  C   UNL A   1      32.578  23.938  26.502  1.00  0.00     0.117 C 
BRANCH   8   9
ATOM      9  S   UNL A   1      31.798  25.094  25.486  1.00  0.00     0.200 S 
ATOM     10  O   UNL A   1      30.376  25.046  25.736  1.00  0.00    -0.219 OA
ATOM     11  O   UNL A   1      32.320  24.907  24.138  1.00  0.00    -0.219 OA
BRANCH   9  12
ATOM     12  C   UNL A   1      32.354  26.697  26.014  1.00  0.00     0.071 A 
ATOM     13  C   UNL A   1      33.573  30.514  27.566  1.00  0.00     0.044 C 
ATOM     14  C   UNL A   1      33.149  29.184  27.017  1.00  0.00    -0.051 A 
ATOM     15  C   UNL A   1      31.849  28.715  27.244  1.00  0.00     0.005 A 
ATOM     16  C   UNL A   1      34.034  28.412  26.255  1.00  0.00     0.005 A 
ATOM     17  C   UNL A   1      31.453  27.472  26.750  1.00  0.00     0.021 A 
ATOM     18  C   UNL A   1      33.641  27.173  25.749  1.00  0.00     0.021 A 
ENDBRANCH   9  12
ENDBRANCH   8   9
ENDBRANCH   4   7
ENDBRANCH   2   3
ENDBRANCH   1   2
BRANCH   1  19
ATOM     19  C   UNL A   1      37.990  22.858  25.774  1.00  0.00     0.118 C 
BRANCH  19  20
ATOM     20  N   UNL A   1      39.363  22.645  26.221  1.00  0.00    -0.352 N 
ATOM     21  C   UNL A   1      40.297  23.553  26.687  1.00  0.00     0.251 C 
ATOM     22  H   UNL A   1      39.673  21.711  26.185  1.00  0.00     0.163 HD
ATOM     23  O   UNL A   1      41.437  23.177  26.943  1.00  0.00    -0.269 OA
BRANCH  21  24
ATOM     24  C   UNL A   1      39.893  24.945  27.002  1.00  0.00     0.039 A 
ATOM     25  C   UNL A   1      40.408  25.990  26.219  1.00  0.00     0.014 A 
ATOM     26  C   UNL A   1      39.170  25.237  28.152  1.00  0.00     0.014 A 
ATOM     27  C   UNL A   1      40.408  27.293  26.719  1.00  0.00     0.010 A 
ATOM     28  C   UNL A   1      39.283  26.492  28.705  1.00  0.00     0.010 A 
ATOM     29  C   UNL A   1      39.950  27.511  28.013  1.00  0.00    -0.014 A 
BRANCH  29  30
ATOM     30  C   UNL A   1      40.146  28.732  28.786  1.00  0.00     0.031 A 
ATOM     31  C   UNL A   1      39.095  29.773  28.795  1.00  0.00     0.074 A 
ATOM     32  C   UNL A   1      41.157  28.780  29.681  1.00  0.00     0.049 A 
ATOM     33  N   UNL A   1      39.205  30.924  29.365  1.00  0.00    -0.248 NA
ATOM     34  C   UNL A   1      37.822  29.600  28.108  1.00  0.00     0.031 C 
ATOM     35  C   UNL A   1      41.255  29.641  30.856  1.00  0.00     0.029 A 
ATOM     36  N   UNL A   1      42.418  28.164  29.599  1.00  0.00    -0.354 N 
ATOM     37  C   UNL A   1      37.971  31.534  29.352  1.00  0.00     0.074 A 
ATOM     38  C   UNL A   1      37.164  30.695  28.498  1.00  0.00     0.031 C 
ATOM     39  C   UNL A   1      42.544  29.743  31.216  1.00  0.00     0.029 A 
ATOM     40  C   UNL A   1      43.321  29.095  30.178  1.00  0.00     0.049 A 
ATOM     41  H   UNL A   1      42.628  27.279  29.222  1.00  0.00     0.167 HD
ATOM     42  C   UNL A   1      37.773  32.624  30.150  1.00  0.00     0.037 A 
ATOM     43  C   UNL A   1      44.276  29.714  29.420  1.00  0.00     0.037 A 
ATOM     44  C   UNL A   1      39.036  33.068  30.746  1.00  0.00     0.049 A 
ATOM     45  C   UNL A   1      44.175  31.224  29.365  1.00  0.00     0.074 A 
ATOM     46  C   UNL A   1      39.646  32.919  31.981  1.00  0.00     0.029 A 
ATOM     47  N   UNL A   1      40.006  33.573  29.901  1.00  0.00    -0.354 N 
ATOM     48  N   UNL A   1      43.196  31.915  29.877  1.00  0.00    -0.248 NA
ATOM     49  C   UNL A   1      45.119  32.065  28.625  1.00  0.00     0.031 C 
ATOM     50  C   UNL A   1      41.008  33.323  31.853  1.00  0.00     0.029 A 
ATOM     51  C   UNL A   1      41.217  33.721  30.544  1.00  0.00     0.049 A 
ATOM     52  H   UNL A   1      39.852  33.800  28.955  1.00  0.00     0.167 HD
ATOM     53  C   UNL A   1      43.314  33.220  29.490  1.00  0.00     0.074 A 
ATOM     54  C   UNL A   1      44.542  33.275  28.722  1.00  0.00     0.031 C 
ATOM     55  C   UNL A   1      42.367  34.157  29.775  1.00  0.00     0.037 A 
BRANCH  42  56
ATOM     56  C   UNL A   1      36.436  33.224  30.550  1.00  0.00     0.064 A 
ATOM     57  C   UNL A   1      35.622  33.855  29.578  1.00  0.00     0.173 A 
ATOM     58  C   UNL A   1      35.910  33.274  31.855  1.00  0.00     0.173 A 
ATOM     59  F   UNL A   1      35.932  33.820  28.274  1.00  0.00    -0.203 F 
ATOM     60  C   UNL A   1      34.451  34.547  29.902  1.00  0.00     0.198 A 
ATOM     61  C   UNL A   1      34.757  33.994  32.185  1.00  0.00     0.198 A 
ATOM     62  F   UNL A   1      36.443  32.589  32.865  1.00  0.00    -0.203 F 
ATOM     63  F   UNL A   1      33.736  35.133  28.932  1.00  0.00    -0.200 F 
ATOM     64  C   UNL A   1      34.032  34.642  31.211  1.00  0.00     0.200 A 
ATOM     65  F   UNL A   1      34.354  34.044  33.464  1.00  0.00    -0.200 F 
ATOM     66  F   UNL A   1      32.927  35.327  31.529  1.00  0.00    -0.200 F 
ENDBRANCH  42  56
BRANCH  43  67
ATOM     67  C   UNL A   1      44.738  28.862  28.293  1.00  0.00     0.064 A 
ATOM     68  C   UNL A   1      45.617  27.799  28.576  1.00  0.00     0.173 A 
ATOM     69  C   UNL A   1      44.022  28.816  27.091  1.00  0.00     0.173 A 
ATOM     70  F   UNL A   1      46.321  27.797  29.719  1.00  0.00    -0.203 F 
ATOM     71  C   UNL A   1      45.671  26.675  27.756  1.00  0.00     0.198 A 
ATOM     72  C   UNL A   1      44.095  27.697  26.264  1.00  0.00     0.198 A 
ATOM     73  F   UNL A   1      43.158  29.792  26.777  1.00  0.00    -0.203 F 
ATOM     74  F   UNL A   1      46.418  25.622  28.116  1.00  0.00    -0.200 F 
ATOM     75  C   UNL A   1      44.886  26.612  26.618  1.00  0.00     0.200 A 
ATOM     76  F   UNL A   1      43.315  27.623  25.176  1.00  0.00    -0.200 F 
ATOM     77  F   UNL A   1      44.852  25.490  25.885  1.00  0.00    -0.200 F 
ENDBRANCH  43  67
BRANCH  55  78
ATOM     78  C   UNL A   1      42.459  35.578  29.319  1.00  0.00     0.064 A 
ATOM     79  C   UNL A   1      41.907  36.004  28.103  1.00  0.00     0.173 A 
ATOM     80  C   UNL A   1      43.223  36.523  30.033  1.00  0.00     0.173 A 
ATOM     81  F   UNL A   1      41.179  35.162  27.353  1.00  0.00    -0.203 F 
ATOM     82  C   UNL A   1      42.105  37.302  27.631  1.00  0.00     0.198 A 
ATOM     83  C   UNL A   1      43.461  37.802  29.537  1.00  0.00     0.198 A 
ATOM     84  F   UNL A   1      43.737  36.232  31.237  1.00  0.00    -0.203 F 
ATOM     85  F   UNL A   1      41.534  37.688  26.482  1.00  0.00    -0.200 F 
ATOM     86  C   UNL A   1      42.899  38.194  28.337  1.00  0.00     0.200 A 
ATOM     87  F   UNL A   1      44.237  38.649  30.227  1.00  0.00    -0.200 F 
ATOM     88  F   UNL A   1      43.114  39.429  27.867  1.00  0.00    -0.200 F 
ENDBRANCH  55  78
ENDBRANCH  29  30
ENDBRANCH  21  24
ENDBRANCH  19  20
ENDBRANCH   1  19
TORSDOF 12
ENDMDL
