MODEL 1
REMARK VINA RESULT:     -11.3      0.000      0.000
REMARK SMILES C[C@H](C(=O)NCCCNC(=O)c1ccc(-c2c3nc(c(-c4c(F)c(F)c(F)c(F)c4F)c4ccc([nH]4)c(-c4c(F)c(F)c(F)c(F)c4F)c4nc(c(-c5c(F)c(F)c(F)c(F)c5F)c5ccc2[nH]5)C=C4)C=C3)cc1)[C@H](C)c1ccoc1
REMARK SMILES IDX 7 1 6 2 5 3 3 4 4 5 2 7 1 8 75 9 76 10 77 11 78 12 81 13
REMARK SMILES IDX 79 14 80 15 8 16 9 17 10 18 11 20 12 21 13 22 74 23 14 24
REMARK SMILES IDX 73 25 15 26 16 27 17 28 67 29 18 30 72 31 66 32 68 33 19 34
REMARK SMILES IDX 71 35 65 36 64 37 20 39 52 40 32 41 51 42 33 43 36 44 50 45
REMARK SMILES IDX 69 46 34 47 35 48 49 50 70 51 37 52 21 53 22 54 30 55 23 56
REMARK SMILES IDX 24 57 28 58 31 59 25 60 26 61 29 62 27 63 53 64 54 65 62 66
REMARK SMILES IDX 55 67 56 68 60 69 63 70 57 71 58 72 61 73 59 74 38 75 39 76
REMARK SMILES IDX 47 77 40 78 41 79 45 80 48 81 42 82 43 83 46 84 44 85
REMARK H PARENT 5 6 9 19 68 38 36 49
REMARK Flexibility Score: inf
ROOT
ATOM      1  C   UNL A   1      31.406  32.284  26.756  1.00  0.00     0.042 C 
ENDROOT
BRANCH   1   2
ATOM      2  C   UNL A   1      31.622  30.913  26.126  1.00  0.00     0.117 C 
BRANCH   2   3
ATOM      3  N   UNL A   1      31.625  29.867  27.132  1.00  0.00    -0.356 N 
ATOM      4  C   UNL A   1      31.772  28.519  26.998  1.00  0.00     0.223 C 
ATOM      5  O   UNL A   1      31.610  27.828  28.005  1.00  0.00    -0.275 OA
ATOM      6  H   UNL A   1      31.499  30.180  28.057  1.00  0.00     0.163 HD
BRANCH   4   7
ATOM      7  C   UNL A   1      32.121  27.906  25.640  1.00  0.00     0.082 C 
ATOM      8  C   UNL A   1      33.222  26.860  25.873  1.00  0.00     0.019 C 
BRANCH   7   9
ATOM      9  C   UNL A   1      30.831  27.363  24.945  1.00  0.00     0.031 C 
ATOM     10  C   UNL A   1      30.866  25.871  24.578  1.00  0.00     0.014 C 
BRANCH   9  11
ATOM     11  C   UNL A   1      30.407  28.165  23.732  1.00  0.00    -0.006 A 
ATOM     12  C   UNL A   1      31.138  29.116  22.960  1.00  0.00     0.046 A 
ATOM     13  C   UNL A   1      29.165  28.098  23.121  1.00  0.00     0.198 A 
ATOM     14  C   UNL A   1      30.276  29.595  22.001  1.00  0.00     0.195 A 
ATOM     15  O   UNL A   1      29.074  28.975  22.093  1.00  0.00    -0.472 OA
ENDBRANCH   9  11
ENDBRANCH   7   9
ENDBRANCH   4   7
ENDBRANCH   2   3
ENDBRANCH   1   2
BRANCH   1  16
ATOM     16  C   UNL A   1      32.696  32.998  27.134  1.00  0.00     0.118 C 
BRANCH  16  17
ATOM     17  N   UNL A   1      32.460  34.335  27.656  1.00  0.00    -0.352 N 
ATOM     18  C   UNL A   1      33.016  34.968  28.737  1.00  0.00     0.251 C 
ATOM     19  H   UNL A   1      31.798  34.866  27.157  1.00  0.00     0.163 HD
ATOM     20  O   UNL A   1      32.538  36.035  29.126  1.00  0.00    -0.269 OA
BRANCH  18  21
ATOM     21  C   UNL A   1      34.171  34.382  29.452  1.00  0.00     0.039 A 
ATOM     22  C   UNL A   1      33.938  33.671  30.634  1.00  0.00     0.014 A 
ATOM     23  C   UNL A   1      35.480  34.561  28.995  1.00  0.00     0.014 A 
ATOM     24  C   UNL A   1      35.007  33.096  31.325  1.00  0.00     0.010 A 
ATOM     25  C   UNL A   1      36.538  33.924  29.643  1.00  0.00     0.010 A 
ATOM     26  C   UNL A   1      36.312  33.193  30.819  1.00  0.00    -0.014 A 
BRANCH  26  27
ATOM     27  C   UNL A   1      37.457  32.547  31.510  1.00  0.00     0.031 A 
ATOM     28  C   UNL A   1      38.179  31.396  30.867  1.00  0.00     0.074 A 
ATOM     29  C   UNL A   1      37.811  32.960  32.743  1.00  0.00     0.049 A 
ATOM     30  N   UNL A   1      39.148  30.654  31.341  1.00  0.00    -0.248 NA
ATOM     31  C   UNL A   1      37.736  31.012  29.516  1.00  0.00     0.031 C 
ATOM     32  C   UNL A   1      37.166  34.042  33.488  1.00  0.00     0.029 A 
ATOM     33  N   UNL A   1      38.796  32.514  33.588  1.00  0.00    -0.354 N 
ATOM     34  C   UNL A   1      39.419  29.711  30.358  1.00  0.00     0.074 A 
ATOM     35  C   UNL A   1      38.480  29.941  29.281  1.00  0.00     0.031 C 
ATOM     36  C   UNL A   1      37.789  34.192  34.669  1.00  0.00     0.029 A 
ATOM     37  C   UNL A   1      38.848  33.195  34.780  1.00  0.00     0.049 A 
ATOM     38  H   UNL A   1      39.408  31.776  33.361  1.00  0.00     0.167 HD
ATOM     39  C   UNL A   1      40.379  28.756  30.344  1.00  0.00     0.037 A 
ATOM     40  C   UNL A   1      39.656  33.028  35.844  1.00  0.00     0.037 A 
ATOM     41  C   UNL A   1      41.329  28.546  31.406  1.00  0.00     0.049 A 
ATOM     42  C   UNL A   1      40.708  31.953  35.807  1.00  0.00     0.074 A 
ATOM     43  C   UNL A   1      42.366  27.632  31.469  1.00  0.00     0.029 A 
ATOM     44  N   UNL A   1      41.356  29.263  32.593  1.00  0.00    -0.354 N 
ATOM     45  N   UNL A   1      40.984  31.097  34.854  1.00  0.00    -0.248 NA
ATOM     46  C   UNL A   1      41.563  31.824  36.996  1.00  0.00     0.031 C 
ATOM     47  C   UNL A   1      42.997  27.770  32.710  1.00  0.00     0.029 A 
ATOM     48  C   UNL A   1      42.383  28.802  33.401  1.00  0.00     0.049 A 
ATOM     49  H   UNL A   1      40.737  29.992  32.827  1.00  0.00     0.167 HD
ATOM     50  C   UNL A   1      42.059  30.349  35.313  1.00  0.00     0.074 A 
ATOM     51  C   UNL A   1      42.394  30.860  36.626  1.00  0.00     0.031 C 
ATOM     52  C   UNL A   1      42.710  29.329  34.701  1.00  0.00     0.037 A 
BRANCH  39  53
ATOM     53  C   UNL A   1      40.458  27.869  29.136  1.00  0.00     0.064 A 
ATOM     54  C   UNL A   1      39.696  26.695  29.038  1.00  0.00     0.173 A 
ATOM     55  C   UNL A   1      41.275  28.213  28.049  1.00  0.00     0.173 A 
ATOM     56  F   UNL A   1      38.908  26.315  30.055  1.00  0.00    -0.203 F 
ATOM     57  C   UNL A   1      39.770  25.884  27.908  1.00  0.00     0.198 A 
ATOM     58  C   UNL A   1      41.324  27.415  26.908  1.00  0.00     0.198 A 
ATOM     59  F   UNL A   1      42.020  29.328  28.087  1.00  0.00    -0.203 F 
ATOM     60  F   UNL A   1      39.070  24.743  27.858  1.00  0.00    -0.200 F 
ATOM     61  C   UNL A   1      40.578  26.248  26.842  1.00  0.00     0.200 A 
ATOM     62  F   UNL A   1      42.096  27.775  25.873  1.00  0.00    -0.200 F 
ATOM     63  F   UNL A   1      40.643  25.470  25.753  1.00  0.00    -0.200 F 
ENDBRANCH  39  53
BRANCH  40  64
ATOM     64  C   UNL A   1      39.522  33.923  37.022  1.00  0.00     0.064 A 
ATOM     65  C   UNL A   1      40.145  35.179  37.040  1.00  0.00     0.173 A 
ATOM     66  C   UNL A   1      38.771  33.549  38.144  1.00  0.00     0.173 A 
ATOM     67  F   UNL A   1      40.892  35.571  35.998  1.00  0.00    -0.203 F 
ATOM     68  C   UNL A   1      40.036  36.020  38.145  1.00  0.00     0.198 A 
ATOM     69  C   UNL A   1      38.640  34.403  39.239  1.00  0.00     0.198 A 
ATOM     70  F   UNL A   1      38.153  32.360  38.174  1.00  0.00    -0.203 F 
ATOM     71  F   UNL A   1      40.676  37.197  38.154  1.00  0.00    -0.200 F 
ATOM     72  C   UNL A   1      39.278  35.634  39.241  1.00  0.00     0.200 A 
ATOM     73  F   UNL A   1      37.897  34.032  40.290  1.00  0.00    -0.200 F 
ATOM     74  F   UNL A   1      39.169  36.445  40.301  1.00  0.00    -0.200 F 
ENDBRANCH  40  64
BRANCH  52  75
ATOM     75  C   UNL A   1      43.874  28.722  35.428  1.00  0.00     0.064 A 
ATOM     76  C   UNL A   1      43.705  27.668  36.337  1.00  0.00     0.173 A 
ATOM     77  C   UNL A   1      45.178  29.174  35.179  1.00  0.00     0.173 A 
ATOM     78  F   UNL A   1      42.476  27.210  36.620  1.00  0.00    -0.203 F 
ATOM     79  C   UNL A   1      44.799  27.104  36.988  1.00  0.00     0.198 A 
ATOM     80  C   UNL A   1      46.272  28.589  35.811  1.00  0.00     0.198 A 
ATOM     81  F   UNL A   1      45.393  30.176  34.314  1.00  0.00    -0.203 F 
ATOM     82  F   UNL A   1      44.610  26.127  37.887  1.00  0.00    -0.200 F 
ATOM     83  C   UNL A   1      46.081  27.559  36.719  1.00  0.00     0.200 A 
ATOM     84  F   UNL A   1      47.511  29.023  35.540  1.00  0.00    -0.200 F 
ATOM     85  F   UNL A   1      47.133  27.010  37.342  1.00  0.00    -0.200 F 
ENDBRANCH  52  75
ENDBRANCH  26  27
ENDBRANCH  18  21
ENDBRANCH  16  17
ENDBRANCH   1  16
TORSDOF 12
ENDMDL
MODEL 2
REMARK VINA RESULT:     -11.2      3.902     10.005
REMARK SMILES C[C@H](C(=O)NCCCNC(=O)c1ccc(-c2c3nc(c(-c4c(F)c(F)c(F)c(F)c4F)c4ccc([nH]4)c(-c4c(F)c(F)c(F)c(F)c4F)c4nc(c(-c5c(F)c(F)c(F)c(F)c5F)c5ccc2[nH]5)C=C4)C=C3)cc1)[C@H](C)c1ccoc1
REMARK SMILES IDX 7 1 6 2 5 3 3 4 4 5 2 7 1 8 75 9 76 10 77 11 78 12 81 13
REMARK SMILES IDX 79 14 80 15 8 16 9 17 10 18 11 20 12 21 13 22 74 23 14 24
REMARK SMILES IDX 73 25 15 26 16 27 17 28 67 29 18 30 72 31 66 32 68 33 19 34
REMARK SMILES IDX 71 35 65 36 64 37 20 39 52 40 32 41 51 42 33 43 36 44 50 45
REMARK SMILES IDX 69 46 34 47 35 48 49 50 70 51 37 52 21 53 22 54 30 55 23 56
REMARK SMILES IDX 24 57 28 58 31 59 25 60 26 61 29 62 27 63 53 64 54 65 62 66
REMARK SMILES IDX 55 67 56 68 60 69 63 70 57 71 58 72 61 73 59 74 38 75 39 76
REMARK SMILES IDX 47 77 40 78 41 79 45 80 48 81 42 82 43 83 46 84 44 85
REMARK H PARENT 5 6 9 19 68 38 36 49
REMARK Flexibility Score: inf
ROOT
ATOM      1  C   UNL A   1      33.791  33.993  28.467  1.00  0.00     0.042 C 
ENDROOT
BRANCH   1   2
ATOM      2  C   UNL A   1      34.048  34.893  29.670  1.00  0.00     0.117 C 
BRANCH   2   3
ATOM      3  N   UNL A   1      33.549  34.291  30.893  1.00  0.00    -0.356 N 
ATOM      4  C   UNL A   1      34.204  33.959  32.040  1.00  0.00     0.223 C 
ATOM      5  O   UNL A   1      33.571  33.338  32.896  1.00  0.00    -0.275 OA
ATOM      6  H   UNL A   1      32.586  34.091  30.893  1.00  0.00     0.163 HD
BRANCH   4   7
ATOM      7  C   UNL A   1      35.671  34.345  32.238  1.00  0.00     0.082 C 
ATOM      8  C   UNL A   1      35.891  34.578  33.741  1.00  0.00     0.019 C 
BRANCH   7   9
ATOM      9  C   UNL A   1      36.605  33.271  31.593  1.00  0.00     0.031 C 
ATOM     10  C   UNL A   1      37.144  32.207  32.562  1.00  0.00     0.014 C 
BRANCH   9  11
ATOM     11  C   UNL A   1      37.760  33.858  30.806  1.00  0.00    -0.006 A 
ATOM     12  C   UNL A   1      37.974  33.913  29.397  1.00  0.00     0.046 A 
ATOM     13  C   UNL A   1      38.863  34.492  31.354  1.00  0.00     0.198 A 
ATOM     14  C   UNL A   1      39.203  34.501  29.206  1.00  0.00     0.195 A 
ATOM     15  O   UNL A   1      39.746  34.858  30.395  1.00  0.00    -0.472 OA
ENDBRANCH   9  11
ENDBRANCH   7   9
ENDBRANCH   4   7
ENDBRANCH   2   3
ENDBRANCH   1   2
BRANCH   1  16
ATOM     16  C   UNL A   1      34.742  32.809  28.370  1.00  0.00     0.118 C 
BRANCH  16  17
ATOM     17  N   UNL A   1      34.055  31.569  28.042  1.00  0.00    -0.352 N 
ATOM     18  C   UNL A   1      34.554  30.302  27.883  1.00  0.00     0.251 C 
ATOM     19  H   UNL A   1      33.083  31.653  27.914  1.00  0.00     0.163 HD
ATOM     20  O   UNL A   1      33.831  29.421  27.416  1.00  0.00    -0.269 OA
BRANCH  18  21
ATOM     21  C   UNL A   1      35.952  29.982  28.249  1.00  0.00     0.039 A 
ATOM     22  C   UNL A   1      36.225  29.569  29.557  1.00  0.00     0.014 A 
ATOM     23  C   UNL A   1      36.997  30.126  27.333  1.00  0.00     0.014 A 
ATOM     24  C   UNL A   1      37.532  29.247  29.929  1.00  0.00     0.010 A 
ATOM     25  C   UNL A   1      38.289  29.734  27.682  1.00  0.00     0.010 A 
ATOM     26  C   UNL A   1      38.570  29.299  28.986  1.00  0.00    -0.014 A 
BRANCH  26  27
ATOM     27  C   UNL A   1      39.958  28.914  29.347  1.00  0.00     0.031 A 
ATOM     28  C   UNL A   1      40.794  29.818  30.209  1.00  0.00     0.074 A 
ATOM     29  C   UNL A   1      40.486  27.777  28.853  1.00  0.00     0.049 A 
ATOM     30  N   UNL A   1      42.048  29.696  30.569  1.00  0.00    -0.248 NA
ATOM     31  C   UNL A   1      40.142  31.036  30.715  1.00  0.00     0.031 C 
ATOM     32  C   UNL A   1      39.789  26.834  27.977  1.00  0.00     0.029 A 
ATOM     33  N   UNL A   1      41.732  27.225  29.011  1.00  0.00    -0.354 N 
ATOM     34  C   UNL A   1      42.334  30.823  31.328  1.00  0.00     0.074 A 
ATOM     35  C   UNL A   1      41.142  31.643  31.336  1.00  0.00     0.031 C 
ATOM     36  C   UNL A   1      40.609  25.808  27.697  1.00  0.00     0.029 A 
ATOM     37  C   UNL A   1      41.898  26.040  28.338  1.00  0.00     0.049 A 
ATOM     38  H   UNL A   1      42.440  27.640  29.556  1.00  0.00     0.167 HD
ATOM     39  C   UNL A   1      43.480  31.134  31.980  1.00  0.00     0.037 A 
ATOM     40  C   UNL A   1      42.974  25.234  28.246  1.00  0.00     0.037 A 
ATOM     41  C   UNL A   1      44.657  30.304  31.992  1.00  0.00     0.049 A 
ATOM     42  C   UNL A   1      44.237  25.607  28.971  1.00  0.00     0.074 A 
ATOM     43  C   UNL A   1      45.853  30.512  32.656  1.00  0.00     0.029 A 
ATOM     44  N   UNL A   1      44.784  29.105  31.307  1.00  0.00    -0.354 N 
ATOM     45  N   UNL A   1      44.483  26.653  29.721  1.00  0.00    -0.248 NA
ATOM     46  C   UNL A   1      45.374  24.685  28.837  1.00  0.00     0.031 C 
ATOM     47  C   UNL A   1      46.717  29.457  32.342  1.00  0.00     0.029 A 
ATOM     48  C   UNL A   1      46.043  28.568  31.520  1.00  0.00     0.049 A 
ATOM     49  H   UNL A   1      44.082  28.695  30.751  1.00  0.00     0.167 HD
ATOM     50  C   UNL A   1      45.787  26.502  30.172  1.00  0.00     0.074 A 
ATOM     51  C   UNL A   1      46.278  25.257  29.620  1.00  0.00     0.031 C 
ATOM     52  C   UNL A   1      46.512  27.322  30.971  1.00  0.00     0.037 A 
BRANCH  39  53
ATOM     53  C   UNL A   1      43.515  32.425  32.744  1.00  0.00     0.064 A 
ATOM     54  C   UNL A   1      43.927  33.623  32.141  1.00  0.00     0.173 A 
ATOM     55  C   UNL A   1      43.098  32.475  34.083  1.00  0.00     0.173 A 
ATOM     56  F   UNL A   1      44.347  33.628  30.866  1.00  0.00    -0.203 F 
ATOM     57  C   UNL A   1      43.947  34.818  32.857  1.00  0.00     0.198 A 
ATOM     58  C   UNL A   1      43.091  33.677  34.787  1.00  0.00     0.198 A 
ATOM     59  F   UNL A   1      42.688  31.360  34.707  1.00  0.00    -0.203 F 
ATOM     60  F   UNL A   1      44.391  35.939  32.274  1.00  0.00    -0.200 F 
ATOM     61  C   UNL A   1      43.522  34.845  34.176  1.00  0.00     0.200 A 
ATOM     62  F   UNL A   1      42.668  33.704  36.059  1.00  0.00    -0.200 F 
ATOM     63  F   UNL A   1      43.535  35.996  34.862  1.00  0.00    -0.200 F 
ENDBRANCH  39  53
BRANCH  40  64
ATOM     64  C   UNL A   1      42.889  23.976  27.460  1.00  0.00     0.064 A 
ATOM     65  C   UNL A   1      42.447  22.787  28.058  1.00  0.00     0.173 A 
ATOM     66  C   UNL A   1      43.242  23.934  26.104  1.00  0.00     0.173 A 
ATOM     67  F   UNL A   1      42.120  22.774  29.358  1.00  0.00    -0.203 F 
ATOM     68  C   UNL A   1      42.377  21.600  27.333  1.00  0.00     0.198 A 
ATOM     69  C   UNL A   1      43.145  22.751  25.373  1.00  0.00     0.198 A 
ATOM     70  F   UNL A   1      43.667  25.045  25.485  1.00  0.00    -0.203 F 
ATOM     71  F   UNL A   1      41.991  20.469  27.939  1.00  0.00    -0.200 F 
ATOM     72  C   UNL A   1      42.719  21.585  25.989  1.00  0.00     0.200 A 
ATOM     73  F   UNL A   1      43.466  22.743  24.072  1.00  0.00    -0.200 F 
ATOM     74  F   UNL A   1      42.647  20.444  25.291  1.00  0.00    -0.200 F 
ENDBRANCH  40  64
BRANCH  52  75
ATOM     75  C   UNL A   1      47.902  26.881  31.328  1.00  0.00     0.064 A 
ATOM     76  C   UNL A   1      48.146  26.026  32.412  1.00  0.00     0.173 A 
ATOM     77  C   UNL A   1      48.995  27.288  30.550  1.00  0.00     0.173 A 
ATOM     78  F   UNL A   1      47.135  25.622  33.196  1.00  0.00    -0.203 F 
ATOM     79  C   UNL A   1      49.441  25.612  32.718  1.00  0.00     0.198 A 
ATOM     80  C   UNL A   1      50.284  26.850  30.841  1.00  0.00     0.198 A 
ATOM     81  F   UNL A   1      48.813  28.101  29.499  1.00  0.00    -0.203 F 
ATOM     82  F   UNL A   1      49.657  24.830  33.785  1.00  0.00    -0.200 F 
ATOM     83  C   UNL A   1      50.506  26.018  31.928  1.00  0.00     0.200 A 
ATOM     84  F   UNL A   1      51.311  27.233  30.070  1.00  0.00    -0.200 F 
ATOM     85  F   UNL A   1      51.750  25.612  32.219  1.00  0.00    -0.200 F 
ENDBRANCH  52  75
ENDBRANCH  26  27
ENDBRANCH  18  21
ENDBRANCH  16  17
ENDBRANCH   1  16
TORSDOF 12
ENDMDL
MODEL 3
REMARK VINA RESULT:     -11.2      5.562     10.233
REMARK SMILES C[C@H](C(=O)NCCCNC(=O)c1ccc(-c2c3nc(c(-c4c(F)c(F)c(F)c(F)c4F)c4ccc([nH]4)c(-c4c(F)c(F)c(F)c(F)c4F)c4nc(c(-c5c(F)c(F)c(F)c(F)c5F)c5ccc2[nH]5)C=C4)C=C3)cc1)[C@H](C)c1ccoc1
REMARK SMILES IDX 7 1 6 2 5 3 3 4 4 5 2 7 1 8 75 9 76 10 77 11 78 12 81 13
REMARK SMILES IDX 79 14 80 15 8 16 9 17 10 18 11 20 12 21 13 22 74 23 14 24
REMARK SMILES IDX 73 25 15 26 16 27 17 28 67 29 18 30 72 31 66 32 68 33 19 34
REMARK SMILES IDX 71 35 65 36 64 37 20 39 52 40 32 41 51 42 33 43 36 44 50 45
REMARK SMILES IDX 69 46 34 47 35 48 49 50 70 51 37 52 21 53 22 54 30 55 23 56
REMARK SMILES IDX 24 57 28 58 31 59 25 60 26 61 29 62 27 63 53 64 54 65 62 66
REMARK SMILES IDX 55 67 56 68 60 69 63 70 57 71 58 72 61 73 59 74 38 75 39 76
REMARK SMILES IDX 47 77 40 78 41 79 45 80 48 81 42 82 43 83 46 84 44 85
REMARK H PARENT 5 6 9 19 68 38 36 49
REMARK Flexibility Score: inf
ROOT
ATOM      1  C   UNL A   1      41.782  21.053  26.127  1.00  0.00     0.042 C 
ENDROOT
BRANCH   1   2
ATOM      2  C   UNL A   1      42.635  22.248  25.718  1.00  0.00     0.117 C 
BRANCH   2   3
ATOM      3  N   UNL A   1      44.039  21.889  25.636  1.00  0.00    -0.356 N 
ATOM      4  C   UNL A   1      45.145  22.566  26.053  1.00  0.00     0.223 C 
ATOM      5  O   UNL A   1      46.244  22.098  25.751  1.00  0.00    -0.275 OA
ATOM      6  H   UNL A   1      44.221  21.020  25.211  1.00  0.00     0.163 HD
BRANCH   4   7
ATOM      7  C   UNL A   1      45.007  23.860  26.859  1.00  0.00     0.082 C 
ATOM      8  C   UNL A   1      44.584  23.474  28.285  1.00  0.00     0.019 C 
BRANCH   7   9
ATOM      9  C   UNL A   1      46.322  24.698  26.765  1.00  0.00     0.031 C 
ATOM     10  C   UNL A   1      46.952  25.080  28.113  1.00  0.00     0.014 C 
BRANCH   9  11
ATOM     11  C   UNL A   1      46.195  25.939  25.904  1.00  0.00    -0.006 A 
ATOM     12  C   UNL A   1      47.199  26.841  25.442  1.00  0.00     0.046 A 
ATOM     13  C   UNL A   1      45.011  26.432  25.377  1.00  0.00     0.198 A 
ATOM     14  C   UNL A   1      46.550  27.832  24.743  1.00  0.00     0.195 A 
ATOM     15  O   UNL A   1      45.218  27.584  24.698  1.00  0.00    -0.472 OA
ENDBRANCH   9  11
ENDBRANCH   7   9
ENDBRANCH   4   7
ENDBRANCH   2   3
ENDBRANCH   1   2
BRANCH   1  16
ATOM     16  C   UNL A   1      40.595  21.417  27.008  1.00  0.00     0.118 C 
BRANCH  16  17
ATOM     17  N   UNL A   1      39.402  21.723  26.234  1.00  0.00    -0.352 N 
ATOM     18  C   UNL A   1      38.679  22.884  26.155  1.00  0.00     0.251 C 
ATOM     19  H   UNL A   1      39.061  20.981  25.684  1.00  0.00     0.163 HD
ATOM     20  O   UNL A   1      37.585  22.879  25.586  1.00  0.00    -0.269 OA
BRANCH  18  21
ATOM     21  C   UNL A   1      39.184  24.139  26.753  1.00  0.00     0.039 A 
ATOM     22  C   UNL A   1      39.971  24.988  25.968  1.00  0.00     0.014 A 
ATOM     23  C   UNL A   1      38.928  24.466  28.088  1.00  0.00     0.014 A 
ATOM     24  C   UNL A   1      40.452  26.186  26.501  1.00  0.00     0.010 A 
ATOM     25  C   UNL A   1      39.345  25.696  28.596  1.00  0.00     0.010 A 
ATOM     26  C   UNL A   1      40.118  26.563  27.811  1.00  0.00    -0.014 A 
BRANCH  26  27
ATOM     27  C   UNL A   1      40.577  27.855  28.381  1.00  0.00     0.031 A 
ATOM     28  C   UNL A   1      42.028  28.063  28.712  1.00  0.00     0.074 A 
ATOM     29  C   UNL A   1      39.679  28.822  28.653  1.00  0.00     0.049 A 
ATOM     30  N   UNL A   1      42.612  29.086  29.285  1.00  0.00    -0.248 NA
ATOM     31  C   UNL A   1      42.946  26.962  28.376  1.00  0.00     0.031 C 
ATOM     32  C   UNL A   1      38.239  28.729  28.411  1.00  0.00     0.029 A 
ATOM     33  N   UNL A   1      39.845  30.070  29.199  1.00  0.00    -0.354 N 
ATOM     34  C   UNL A   1      43.954  28.747  29.389  1.00  0.00     0.074 A 
ATOM     35  C   UNL A   1      44.094  27.404  28.869  1.00  0.00     0.031 C 
ATOM     36  C   UNL A   1      37.657  29.880  28.783  1.00  0.00     0.029 A 
ATOM     37  C   UNL A   1      38.673  30.776  29.324  1.00  0.00     0.049 A 
ATOM     38  H   UNL A   1      40.721  30.427  29.474  1.00  0.00     0.167 HD
ATOM     39  C   UNL A   1      44.982  29.497  29.855  1.00  0.00     0.037 A 
ATOM     40  C   UNL A   1      38.445  32.005  29.825  1.00  0.00     0.037 A 
ATOM     41  C   UNL A   1      44.845  30.842  30.349  1.00  0.00     0.049 A 
ATOM     42  C   UNL A   1      39.602  32.812  30.346  1.00  0.00     0.074 A 
ATOM     43  C   UNL A   1      45.831  31.700  30.805  1.00  0.00     0.029 A 
ATOM     44  N   UNL A   1      43.643  31.527  30.451  1.00  0.00    -0.354 N 
ATOM     45  N   UNL A   1      40.874  32.499  30.399  1.00  0.00    -0.248 NA
ATOM     46  C   UNL A   1      39.292  34.149  30.874  1.00  0.00     0.031 C 
ATOM     47  C   UNL A   1      45.221  32.889  31.217  1.00  0.00     0.029 A 
ATOM     48  C   UNL A   1      43.860  32.791  30.976  1.00  0.00     0.049 A 
ATOM     49  H   UNL A   1      42.764  31.167  30.189  1.00  0.00     0.167 HD
ATOM     50  C   UNL A   1      41.517  33.604  30.937  1.00  0.00     0.074 A 
ATOM     51  C   UNL A   1      40.498  34.602  31.184  1.00  0.00     0.031 C 
ATOM     52  C   UNL A   1      42.835  33.776  31.204  1.00  0.00     0.037 A 
BRANCH  39  53
ATOM     53  C   UNL A   1      46.350  28.881  29.844  1.00  0.00     0.064 A 
ATOM     54  C   UNL A   1      46.845  28.176  30.952  1.00  0.00     0.173 A 
ATOM     55  C   UNL A   1      47.162  28.964  28.703  1.00  0.00     0.173 A 
ATOM     56  F   UNL A   1      46.114  28.078  32.072  1.00  0.00    -0.203 F 
ATOM     57  C   UNL A   1      48.114  27.601  30.928  1.00  0.00     0.198 A 
ATOM     58  C   UNL A   1      48.418  28.362  28.672  1.00  0.00     0.198 A 
ATOM     59  F   UNL A   1      46.736  29.621  27.614  1.00  0.00    -0.203 F 
ATOM     60  F   UNL A   1      48.584  26.974  32.014  1.00  0.00    -0.200 F 
ATOM     61  C   UNL A   1      48.896  27.688  29.786  1.00  0.00     0.200 A 
ATOM     62  F   UNL A   1      49.168  28.436  27.563  1.00  0.00    -0.200 F 
ATOM     63  F   UNL A   1      50.113  27.128  29.761  1.00  0.00    -0.200 F 
ENDBRANCH  39  53
BRANCH  40  64
ATOM     64  C   UNL A   1      37.067  32.558  29.828  1.00  0.00     0.064 A 
ATOM     65  C   UNL A   1      36.238  32.409  30.949  1.00  0.00     0.173 A 
ATOM     66  C   UNL A   1      36.551  33.246  28.721  1.00  0.00     0.173 A 
ATOM     67  F   UNL A   1      36.680  31.738  32.024  1.00  0.00    -0.203 F 
ATOM     68  C   UNL A   1      34.940  32.913  30.957  1.00  0.00     0.198 A 
ATOM     69  C   UNL A   1      35.261  33.774  28.740  1.00  0.00     0.198 A 
ATOM     70  F   UNL A   1      37.305  33.419  27.626  1.00  0.00    -0.203 F 
ATOM     71  F   UNL A   1      34.155  32.720  32.025  1.00  0.00    -0.200 F 
ATOM     72  C   UNL A   1      34.455  33.601  29.855  1.00  0.00     0.200 A 
ATOM     73  F   UNL A   1      34.800  34.449  27.678  1.00  0.00    -0.200 F 
ATOM     74  F   UNL A   1      33.208  34.090  29.864  1.00  0.00    -0.200 F 
ENDBRANCH  40  64
BRANCH  52  75
ATOM     75  C   UNL A   1      43.257  35.106  31.758  1.00  0.00     0.064 A 
ATOM     76  C   UNL A   1      43.731  36.131  30.928  1.00  0.00     0.173 A 
ATOM     77  C   UNL A   1      43.145  35.368  33.131  1.00  0.00     0.173 A 
ATOM     78  F   UNL A   1      43.871  35.924  29.610  1.00  0.00    -0.203 F 
ATOM     79  C   UNL A   1      44.100  37.366  31.457  1.00  0.00     0.198 A 
ATOM     80  C   UNL A   1      43.488  36.613  33.653  1.00  0.00     0.198 A 
ATOM     81  F   UNL A   1      42.691  34.423  33.967  1.00  0.00    -0.203 F 
ATOM     82  F   UNL A   1      44.593  38.317  30.651  1.00  0.00    -0.200 F 
ATOM     83  C   UNL A   1      43.971  37.607  32.816  1.00  0.00     0.200 A 
ATOM     84  F   UNL A   1      43.351  36.849  34.965  1.00  0.00    -0.200 F 
ATOM     85  F   UNL A   1      44.320  38.799  33.322  1.00  0.00    -0.200 F 
ENDBRANCH  52  75
ENDBRANCH  26  27
ENDBRANCH  18  21
ENDBRANCH  16  17
ENDBRANCH   1  16
TORSDOF 12
ENDMDL
