MODEL 1
REMARK VINA RESULT:     -13.4      0.000      0.000
REMARK SMILES CC(C)Cc1ccc(S(=O)(=O)Nc2cnc(N3CCCC3)c(C(=O)NCCCNC(=O)c3ccc(-c4c5nc(c(-c6c(F)c(F)c(F)c(F)c6F)c6ccc([nH]6)c(-c6c(F)c(F)c(F)c(F)c6F)c6nc(c(-c7c(F)c(F)c(F)c(F)c7F)c7ccc4[nH]7)C=C6)C=C5)cc3)c2)cc1
REMARK SMILES IDX 23 1 24 2 25 3 22 5 13 6 14 7 95 8 15 9 16 10 12 11 9 13
REMARK SMILES IDX 10 14 11 15 8 16 5 17 6 18 97 19 7 20 96 21 4 22 2 23 1 24
REMARK SMILES IDX 3 25 17 26 18 27 21 28 19 29 20 30 26 31 27 32 28 33 29 34
REMARK SMILES IDX 30 35 31 37 32 38 33 39 94 40 34 41 93 42 35 43 36 44 37 45
REMARK SMILES IDX 87 46 38 47 92 48 86 49 88 50 39 51 91 52 85 53 84 54 40 56
REMARK SMILES IDX 72 57 52 58 71 59 53 60 56 61 70 62 89 63 54 64 55 65 69 67
REMARK SMILES IDX 90 68 57 69 41 70 42 71 50 72 43 73 44 74 48 75 51 76 45 77
REMARK SMILES IDX 46 78 49 79 47 80 73 81 74 82 82 83 75 84 76 85 80 86 83 87
REMARK SMILES IDX 77 88 78 89 81 90 79 91 58 92 59 93 67 94 60 95 61 96 65 97
REMARK SMILES IDX 68 98 62 99 63 100 66 101 64 102
REMARK H PARENT 25 4 12 12 29 36 88 55 56 66
REMARK Flexibility Score: inf
ROOT
ATOM      1  C   UNL A   1      31.648  28.285  26.532  1.00  0.00     0.255 C 
ATOM      2  O   UNL A   1      31.184  27.666  27.489  1.00  0.00    -0.269 OA
ATOM      3  N   UNL A   1      31.503  29.640  26.662  1.00  0.00    -0.352 N 
ATOM      4  H   UNL A   1      31.102  29.879  27.529  1.00  0.00     0.163 HD
ENDROOT
BRANCH   1   5
ATOM      5  C   UNL A   1      32.344  27.610  25.385  1.00  0.00     0.084 A 
ATOM      6  C   UNL A   1      33.931  25.938  24.674  1.00  0.00     0.068 A 
ATOM      7  C   UNL A   1      33.326  25.958  23.431  1.00  0.00     0.140 A 
ATOM      8  C   UNL A   1      33.530  26.891  25.598  1.00  0.00     0.046 A 
ATOM      9  N   UNL A   1      32.264  26.729  23.137  1.00  0.00    -0.236 NA
ATOM     10  C   UNL A   1      31.737  27.524  24.109  1.00  0.00     0.141 A 
BRANCH   6  11
ATOM     11  N   UNL A   1      34.804  24.858  24.983  1.00  0.00    -0.278 N 
ATOM     12  H   UNL A   1      35.682  24.823  24.537  1.00  0.00     0.180 HD
BRANCH  11  13
ATOM     13  S   UNL A   1      34.411  23.634  26.074  1.00  0.00     0.261 S 
ATOM     14  O   UNL A   1      33.266  24.100  26.838  1.00  0.00    -0.201 OA
ATOM     15  O   UNL A   1      35.654  23.291  26.726  1.00  0.00    -0.201 OA
BRANCH  13  16
ATOM     16  C   UNL A   1      33.865  22.166  25.209  1.00  0.00     0.087 A 
ATOM     17  C   UNL A   1      33.064  19.611  24.319  1.00  0.00    -0.048 A 
ATOM     18  C   UNL A   1      34.401  19.859  24.653  1.00  0.00     0.005 A 
ATOM     19  C   UNL A   1      32.154  20.677  24.361  1.00  0.00     0.005 A 
ATOM     20  C   UNL A   1      34.796  21.121  25.109  1.00  0.00     0.022 A 
ATOM     21  C   UNL A   1      32.556  21.956  24.774  1.00  0.00     0.022 A 
BRANCH  17  22
ATOM     22  C   UNL A   1      32.609  18.218  23.928  1.00  0.00     0.038 C 
BRANCH  22  23
ATOM     23  C   UNL A   1      33.598  17.096  24.323  1.00  0.00    -0.013 C 
ATOM     24  C   UNL A   1      32.892  15.921  25.001  1.00  0.00     0.008 C 
ATOM     25  C   UNL A   1      34.344  16.578  23.091  1.00  0.00     0.008 C 
ENDBRANCH  22  23
ENDBRANCH  17  22
ENDBRANCH  13  16
ENDBRANCH  11  13
ENDBRANCH   6  11
BRANCH  10  26
ATOM     26  N   UNL A   1      30.559  28.121  23.767  1.00  0.00    -0.356 N 
ATOM     27  C   UNL A   1      30.472  29.287  22.903  1.00  0.00     0.118 C 
ATOM     28  C   UNL A   1      29.313  27.367  23.724  1.00  0.00     0.118 C 
ATOM     29  C   UNL A   1      29.022  29.697  23.127  1.00  0.00     0.023 C 
ATOM     30  C   UNL A   1      28.300  28.353  23.126  1.00  0.00     0.023 C 
ENDBRANCH  10  26
ENDBRANCH   1   5
BRANCH   3  31
ATOM     31  C   UNL A   1      31.782  30.817  25.862  1.00  0.00     0.118 C 
BRANCH  31  32
ATOM     32  C   UNL A   1      31.408  32.077  26.627  1.00  0.00     0.042 C 
BRANCH  32  33
ATOM     33  C   UNL A   1      32.610  32.714  27.318  1.00  0.00     0.118 C 
BRANCH  33  34
ATOM     34  N   UNL A   1      32.392  34.123  27.624  1.00  0.00    -0.352 N 
ATOM     35  C   UNL A   1      32.967  34.894  28.601  1.00  0.00     0.251 C 
ATOM     36  H   UNL A   1      31.740  34.584  27.048  1.00  0.00     0.163 HD
ATOM     37  O   UNL A   1      32.527  36.011  28.852  1.00  0.00    -0.269 OA
BRANCH  35  38
ATOM     38  C   UNL A   1      34.115  34.361  29.357  1.00  0.00     0.039 A 
ATOM     39  C   UNL A   1      33.882  33.677  30.551  1.00  0.00     0.014 A 
ATOM     40  C   UNL A   1      35.417  34.532  28.877  1.00  0.00     0.014 A 
ATOM     41  C   UNL A   1      34.956  33.112  31.239  1.00  0.00     0.010 A 
ATOM     42  C   UNL A   1      36.476  33.910  29.525  1.00  0.00     0.010 A 
ATOM     43  C   UNL A   1      36.257  33.200  30.715  1.00  0.00    -0.014 A 
BRANCH  43  44
ATOM     44  C   UNL A   1      37.406  32.567  31.404  1.00  0.00     0.031 A 
ATOM     45  C   UNL A   1      38.130  31.422  30.754  1.00  0.00     0.074 A 
ATOM     46  C   UNL A   1      37.747  32.975  32.639  1.00  0.00     0.049 A 
ATOM     47  N   UNL A   1      39.104  30.686  31.222  1.00  0.00    -0.248 NA
ATOM     48  C   UNL A   1      37.674  31.032  29.410  1.00  0.00     0.031 C 
ATOM     49  C   UNL A   1      37.081  34.037  33.395  1.00  0.00     0.029 A 
ATOM     50  N   UNL A   1      38.735  32.536  33.484  1.00  0.00    -0.354 N 
ATOM     51  C   UNL A   1      39.361  29.735  30.245  1.00  0.00     0.074 A 
ATOM     52  C   UNL A   1      38.411  29.956  29.177  1.00  0.00     0.031 C 
ATOM     53  C   UNL A   1      37.692  34.182  34.581  1.00  0.00     0.029 A 
ATOM     54  C   UNL A   1      38.772  33.206  34.682  1.00  0.00     0.049 A 
ATOM     55  H   UNL A   1      39.359  31.810  33.252  1.00  0.00     0.167 HD
ATOM     56  C   UNL A   1      40.318  28.778  30.230  1.00  0.00     0.037 A 
ATOM     57  C   UNL A   1      39.588  33.047  35.740  1.00  0.00     0.037 A 
ATOM     58  C   UNL A   1      41.288  28.588  31.276  1.00  0.00     0.049 A 
ATOM     59  C   UNL A   1      40.668  32.002  35.683  1.00  0.00     0.074 A 
ATOM     60  C   UNL A   1      42.342  27.695  31.327  1.00  0.00     0.029 A 
ATOM     61  N   UNL A   1      41.321  29.315  32.458  1.00  0.00    -0.354 N 
ATOM     62  N   UNL A   1      40.944  31.151  34.725  1.00  0.00    -0.248 NA
ATOM     63  C   UNL A   1      41.555  31.902  36.850  1.00  0.00     0.031 C 
ATOM     64  C   UNL A   1      42.997  27.860  32.552  1.00  0.00     0.029 A 
ATOM     65  C   UNL A   1      42.372  28.883  33.249  1.00  0.00     0.049 A 
ATOM     66  H   UNL A   1      40.692  30.033  32.697  1.00  0.00     0.167 HD
ATOM     67  C   UNL A   1      42.047  30.431  35.162  1.00  0.00     0.074 A 
ATOM     68  C   UNL A   1      42.399  30.955  36.465  1.00  0.00     0.031 C 
ATOM     69  C   UNL A   1      42.709  29.424  34.540  1.00  0.00     0.037 A 
BRANCH  56  70
ATOM     70  C   UNL A   1      40.369  27.869  29.037  1.00  0.00     0.064 A 
ATOM     71  C   UNL A   1      39.640  26.672  28.996  1.00  0.00     0.173 A 
ATOM     72  C   UNL A   1      41.136  28.212  27.914  1.00  0.00     0.173 A 
ATOM     73  F   UNL A   1      38.904  26.293  30.051  1.00  0.00    -0.203 F 
ATOM     74  C   UNL A   1      39.699  25.836  27.884  1.00  0.00     0.198 A 
ATOM     75  C   UNL A   1      41.171  27.387  26.792  1.00  0.00     0.198 A 
ATOM     76  F   UNL A   1      41.849  29.348  27.901  1.00  0.00    -0.203 F 
ATOM     77  F   UNL A   1      39.033  24.673  27.886  1.00  0.00    -0.200 F 
ATOM     78  C   UNL A   1      40.459  26.196  26.781  1.00  0.00     0.200 A 
ATOM     79  F   UNL A   1      41.898  27.741  25.724  1.00  0.00    -0.200 F 
ATOM     80  F   UNL A   1      40.512  25.393  25.711  1.00  0.00    -0.200 F 
ENDBRANCH  56  70
BRANCH  57  81
ATOM     81  C   UNL A   1      39.440  33.927  36.927  1.00  0.00     0.064 A 
ATOM     82  C   UNL A   1      40.057  35.185  36.966  1.00  0.00     0.173 A 
ATOM     83  C   UNL A   1      38.679  33.536  38.037  1.00  0.00     0.173 A 
ATOM     84  F   UNL A   1      40.811  35.592  35.935  1.00  0.00    -0.203 F 
ATOM     85  C   UNL A   1      39.931  36.012  38.079  1.00  0.00     0.198 A 
ATOM     86  C   UNL A   1      38.536  34.374  39.140  1.00  0.00     0.198 A 
ATOM     87  F   UNL A   1      38.066  32.342  38.044  1.00  0.00    -0.203 F 
ATOM     88  F   UNL A   1      40.563  37.194  38.107  1.00  0.00    -0.200 F 
ATOM     89  C   UNL A   1      39.167  35.608  39.164  1.00  0.00     0.200 A 
ATOM     90  F   UNL A   1      37.787  33.986  40.182  1.00  0.00    -0.200 F 
ATOM     91  F   UNL A   1      39.045  36.406  40.233  1.00  0.00    -0.200 F 
ENDBRANCH  57  81
BRANCH  69  92
ATOM     92  C   UNL A   1      43.895  28.846  35.250  1.00  0.00     0.064 A 
ATOM     93  C   UNL A   1      43.766  27.753  36.120  1.00  0.00     0.173 A 
ATOM     94  C   UNL A   1      45.178  29.366  35.028  1.00  0.00     0.173 A 
ATOM     95  F   UNL A   1      42.556  27.233  36.375  1.00  0.00    -0.203 F 
ATOM     96  C   UNL A   1      44.879  27.217  36.761  1.00  0.00     0.198 A 
ATOM     97  C   UNL A   1      46.292  28.811  35.651  1.00  0.00     0.198 A 
ATOM     98  F   UNL A   1      45.352  30.407  34.200  1.00  0.00    -0.203 F 
ATOM     99  F   UNL A   1      44.728  26.200  37.620  1.00  0.00    -0.200 F 
ATOM    100  C   UNL A   1      46.140  27.741  36.521  1.00  0.00     0.200 A 
ATOM    101  F   UNL A   1      47.511  29.312  35.411  1.00  0.00    -0.200 F 
ATOM    102  F   UNL A   1      47.212  27.220  37.134  1.00  0.00    -0.200 F 
ENDBRANCH  69  92
ENDBRANCH  43  44
ENDBRANCH  35  38
ENDBRANCH  33  34
ENDBRANCH  32  33
ENDBRANCH  31  32
ENDBRANCH   3  31
TORSDOF 16
ENDMDL
MODEL 2
REMARK VINA RESULT:     -13.3      0.590      2.045
REMARK SMILES CC(C)Cc1ccc(S(=O)(=O)Nc2cnc(N3CCCC3)c(C(=O)NCCCNC(=O)c3ccc(-c4c5nc(c(-c6c(F)c(F)c(F)c(F)c6F)c6ccc([nH]6)c(-c6c(F)c(F)c(F)c(F)c6F)c6nc(c(-c7c(F)c(F)c(F)c(F)c7F)c7ccc4[nH]7)C=C6)C=C5)cc3)c2)cc1
REMARK SMILES IDX 23 1 24 2 25 3 22 5 13 6 14 7 95 8 15 9 16 10 12 11 9 13
REMARK SMILES IDX 10 14 11 15 8 16 5 17 6 18 97 19 7 20 96 21 4 22 2 23 1 24
REMARK SMILES IDX 3 25 17 26 18 27 21 28 19 29 20 30 26 31 27 32 28 33 29 34
REMARK SMILES IDX 30 35 31 37 32 38 33 39 94 40 34 41 93 42 35 43 36 44 37 45
REMARK SMILES IDX 87 46 38 47 92 48 86 49 88 50 39 51 91 52 85 53 84 54 40 56
REMARK SMILES IDX 72 57 52 58 71 59 53 60 56 61 70 62 89 63 54 64 55 65 69 67
REMARK SMILES IDX 90 68 57 69 41 70 42 71 50 72 43 73 44 74 48 75 51 76 45 77
REMARK SMILES IDX 46 78 49 79 47 80 73 81 74 82 82 83 75 84 76 85 80 86 83 87
REMARK SMILES IDX 77 88 78 89 81 90 79 91 58 92 59 93 67 94 60 95 61 96 65 97
REMARK SMILES IDX 68 98 62 99 63 100 66 101 64 102
REMARK H PARENT 25 4 12 12 29 36 88 55 56 66
REMARK Flexibility Score: inf
ROOT
ATOM      1  C   UNL A   1      31.655  28.263  26.554  1.00  0.00     0.255 C 
ATOM      2  O   UNL A   1      31.190  27.673  27.528  1.00  0.00    -0.269 OA
ATOM      3  N   UNL A   1      31.506  29.621  26.639  1.00  0.00    -0.352 N 
ATOM      4  H   UNL A   1      31.102  29.887  27.496  1.00  0.00     0.163 HD
ENDROOT
BRANCH   1   5
ATOM      5  C   UNL A   1      32.357  27.553  25.431  1.00  0.00     0.084 A 
ATOM      6  C   UNL A   1      33.948  25.862  24.778  1.00  0.00     0.068 A 
ATOM      7  C   UNL A   1      33.348  25.842  23.533  1.00  0.00     0.140 A 
ATOM      8  C   UNL A   1      33.543  26.843  25.671  1.00  0.00     0.046 A 
ATOM      9  N   UNL A   1      32.287  26.603  23.211  1.00  0.00    -0.236 NA
ATOM     10  C   UNL A   1      31.755  27.427  24.155  1.00  0.00     0.141 A 
BRANCH   6  11
ATOM     11  N   UNL A   1      34.821  24.793  25.125  1.00  0.00    -0.278 N 
ATOM     12  H   UNL A   1      35.167  24.751  26.047  1.00  0.00     0.180 HD
BRANCH  11  13
ATOM     13  S   UNL A   1      35.293  23.594  24.038  1.00  0.00     0.261 S 
ATOM     14  O   UNL A   1      36.710  23.359  24.257  1.00  0.00    -0.201 OA
ATOM     15  O   UNL A   1      34.797  24.028  22.752  1.00  0.00    -0.201 OA
BRANCH  13  16
ATOM     16  C   UNL A   1      34.472  22.047  24.406  1.00  0.00     0.087 A 
ATOM     17  C   UNL A   1      33.184  19.536  24.457  1.00  0.00    -0.048 A 
ATOM     18  C   UNL A   1      32.521  20.664  23.958  1.00  0.00     0.005 A 
ATOM     19  C   UNL A   1      34.466  19.700  25.002  1.00  0.00     0.005 A 
ATOM     20  C   UNL A   1      33.164  21.906  23.919  1.00  0.00     0.022 A 
ATOM     21  C   UNL A   1      35.097  20.953  25.005  1.00  0.00     0.022 A 
BRANCH  17  22
ATOM     22  C   UNL A   1      32.532  18.168  24.403  1.00  0.00     0.038 C 
BRANCH  22  23
ATOM     23  C   UNL A   1      33.527  16.990  24.512  1.00  0.00    -0.013 C 
ATOM     24  C   UNL A   1      32.900  15.770  25.188  1.00  0.00     0.008 C 
ATOM     25  C   UNL A   1      34.030  16.579  23.126  1.00  0.00     0.008 C 
ENDBRANCH  22  23
ENDBRANCH  17  22
ENDBRANCH  13  16
ENDBRANCH  11  13
ENDBRANCH   6  11
BRANCH  10  26
ATOM     26  N   UNL A   1      30.577  28.012  23.791  1.00  0.00    -0.356 N 
ATOM     27  C   UNL A   1      30.494  29.157  22.900  1.00  0.00     0.118 C 
ATOM     28  C   UNL A   1      29.335  27.252  23.754  1.00  0.00     0.118 C 
ATOM     29  C   UNL A   1      29.040  29.567  23.102  1.00  0.00     0.023 C 
ATOM     30  C   UNL A   1      28.323  28.221  23.126  1.00  0.00     0.023 C 
ENDBRANCH  10  26
ENDBRANCH   1   5
BRANCH   3  31
ATOM     31  C   UNL A   1      31.785  30.773  25.803  1.00  0.00     0.118 C 
BRANCH  31  32
ATOM     32  C   UNL A   1      31.403  32.055  26.525  1.00  0.00     0.042 C 
BRANCH  32  33
ATOM     33  C   UNL A   1      32.580  32.669  27.279  1.00  0.00     0.118 C 
BRANCH  33  34
ATOM     34  N   UNL A   1      32.374  34.081  27.575  1.00  0.00    -0.352 N 
ATOM     35  C   UNL A   1      32.959  34.856  28.544  1.00  0.00     0.251 C 
ATOM     36  H   UNL A   1      31.722  34.543  26.999  1.00  0.00     0.163 HD
ATOM     37  O   UNL A   1      32.528  35.977  28.788  1.00  0.00    -0.269 OA
BRANCH  35  38
ATOM     38  C   UNL A   1      34.107  34.320  29.298  1.00  0.00     0.039 A 
ATOM     39  C   UNL A   1      33.871  33.588  30.463  1.00  0.00     0.014 A 
ATOM     40  C   UNL A   1      35.412  34.537  28.845  1.00  0.00     0.014 A 
ATOM     41  C   UNL A   1      34.947  33.022  31.147  1.00  0.00     0.010 A 
ATOM     42  C   UNL A   1      36.475  33.914  29.486  1.00  0.00     0.010 A 
ATOM     43  C   UNL A   1      36.253  33.156  30.647  1.00  0.00    -0.014 A 
BRANCH  43  44
ATOM     44  C   UNL A   1      37.405  32.523  31.330  1.00  0.00     0.031 A 
ATOM     45  C   UNL A   1      38.135  31.388  30.671  1.00  0.00     0.074 A 
ATOM     46  C   UNL A   1      37.745  32.923  32.569  1.00  0.00     0.049 A 
ATOM     47  N   UNL A   1      39.113  30.652  31.133  1.00  0.00    -0.248 NA
ATOM     48  C   UNL A   1      37.681  31.006  29.323  1.00  0.00     0.031 C 
ATOM     49  C   UNL A   1      37.073  33.975  33.333  1.00  0.00     0.029 A 
ATOM     50  N   UNL A   1      38.735  32.482  33.409  1.00  0.00    -0.354 N 
ATOM     51  C   UNL A   1      39.374  29.710  30.148  1.00  0.00     0.074 A 
ATOM     52  C   UNL A   1      38.423  29.936  29.081  1.00  0.00     0.031 C 
ATOM     53  C   UNL A   1      37.684  34.114  34.521  1.00  0.00     0.029 A 
ATOM     54  C   UNL A   1      38.769  33.142  34.613  1.00  0.00     0.049 A 
ATOM     55  H   UNL A   1      39.362  31.761  33.172  1.00  0.00     0.167 HD
ATOM     56  C   UNL A   1      40.336  28.758  30.125  1.00  0.00     0.037 A 
ATOM     57  C   UNL A   1      39.586  32.979  35.670  1.00  0.00     0.037 A 
ATOM     58  C   UNL A   1      41.306  28.565  31.169  1.00  0.00     0.049 A 
ATOM     59  C   UNL A   1      40.671  31.940  35.604  1.00  0.00     0.074 A 
ATOM     60  C   UNL A   1      42.365  27.676  31.212  1.00  0.00     0.029 A 
ATOM     61  N   UNL A   1      41.336  29.283  32.357  1.00  0.00    -0.354 N 
ATOM     62  N   UNL A   1      40.951  31.098  34.639  1.00  0.00    -0.248 NA
ATOM     63  C   UNL A   1      41.558  31.835  36.770  1.00  0.00     0.031 C 
ATOM     64  C   UNL A   1      43.020  27.835  32.439  1.00  0.00     0.029 A 
ATOM     65  C   UNL A   1      42.390  28.849  33.144  1.00  0.00     0.049 A 
ATOM     66  H   UNL A   1      40.703  29.995  32.602  1.00  0.00     0.167 HD
ATOM     67  C   UNL A   1      42.057  30.380  35.070  1.00  0.00     0.074 A 
ATOM     68  C   UNL A   1      42.406  30.895  36.377  1.00  0.00     0.031 C 
ATOM     69  C   UNL A   1      42.724  29.382  34.440  1.00  0.00     0.037 A 
BRANCH  56  70
ATOM     70  C   UNL A   1      40.391  27.860  28.925  1.00  0.00     0.064 A 
ATOM     71  C   UNL A   1      41.178  28.176  27.808  1.00  0.00     0.173 A 
ATOM     72  C   UNL A   1      39.669  26.658  28.902  1.00  0.00     0.173 A 
ATOM     73  F   UNL A   1      41.876  29.321  27.776  1.00  0.00    -0.203 F 
ATOM     74  C   UNL A   1      41.218  27.336  26.699  1.00  0.00     0.198 A 
ATOM     75  C   UNL A   1      39.733  25.806  27.802  1.00  0.00     0.198 A 
ATOM     76  F   UNL A   1      38.904  26.306  29.946  1.00  0.00    -0.203 F 
ATOM     77  F   UNL A   1      41.938  27.682  25.623  1.00  0.00    -0.200 F 
ATOM     78  C   UNL A   1      40.501  26.149  26.698  1.00  0.00     0.200 A 
ATOM     79  F   UNL A   1      39.047  24.655  27.806  1.00  0.00    -0.200 F 
ATOM     80  F   UNL A   1      40.542  25.339  25.633  1.00  0.00    -0.200 F 
ENDBRANCH  56  70
BRANCH  57  81
ATOM     81  C   UNL A   1      39.433  33.849  36.863  1.00  0.00     0.064 A 
ATOM     82  C   UNL A   1      38.682  33.424  37.967  1.00  0.00     0.173 A 
ATOM     83  C   UNL A   1      40.037  35.113  36.928  1.00  0.00     0.173 A 
ATOM     84  F   UNL A   1      38.070  32.231  37.940  1.00  0.00    -0.203 F 
ATOM     85  C   UNL A   1      38.526  34.238  39.086  1.00  0.00     0.198 A 
ATOM     86  C   UNL A   1      39.898  35.916  38.058  1.00  0.00     0.198 A 
ATOM     87  F   UNL A   1      40.769  35.562  35.898  1.00  0.00    -0.203 F 
ATOM     88  F   UNL A   1      37.771  33.824  40.113  1.00  0.00    -0.200 F 
ATOM     89  C   UNL A   1      39.138  35.481  39.133  1.00  0.00     0.200 A 
ATOM     90  F   UNL A   1      40.501  37.113  38.105  1.00  0.00    -0.200 F 
ATOM     91  F   UNL A   1      38.990  36.262  40.211  1.00  0.00    -0.200 F 
ENDBRANCH  57  81
BRANCH  69  92
ATOM     92  C   UNL A   1      43.913  28.803  35.145  1.00  0.00     0.064 A 
ATOM     93  C   UNL A   1      45.197  29.342  34.978  1.00  0.00     0.173 A 
ATOM     94  C   UNL A   1      43.759  27.722  36.025  1.00  0.00     0.173 A 
ATOM     95  F   UNL A   1      45.395  30.366  34.134  1.00  0.00    -0.203 F 
ATOM     96  C   UNL A   1      46.289  28.803  35.652  1.00  0.00     0.198 A 
ATOM     97  C   UNL A   1      44.849  27.202  36.716  1.00  0.00     0.198 A 
ATOM     98  F   UNL A   1      42.549  27.177  36.222  1.00  0.00    -0.203 F 
ATOM     99  F   UNL A   1      47.514  29.307  35.447  1.00  0.00    -0.200 F 
ATOM    100  C   UNL A   1      46.114  27.739  36.524  1.00  0.00     0.200 A 
ATOM    101  F   UNL A   1      44.677  26.181  37.567  1.00  0.00    -0.200 F 
ATOM    102  F   UNL A   1      47.165  27.225  37.177  1.00  0.00    -0.200 F 
ENDBRANCH  69  92
ENDBRANCH  43  44
ENDBRANCH  35  38
ENDBRANCH  33  34
ENDBRANCH  32  33
ENDBRANCH  31  32
ENDBRANCH   3  31
TORSDOF 16
ENDMDL
MODEL 3
REMARK VINA RESULT:     -13.1      5.134     11.239
REMARK SMILES CC(C)Cc1ccc(S(=O)(=O)Nc2cnc(N3CCCC3)c(C(=O)NCCCNC(=O)c3ccc(-c4c5nc(c(-c6c(F)c(F)c(F)c(F)c6F)c6ccc([nH]6)c(-c6c(F)c(F)c(F)c(F)c6F)c6nc(c(-c7c(F)c(F)c(F)c(F)c7F)c7ccc4[nH]7)C=C6)C=C5)cc3)c2)cc1
REMARK SMILES IDX 23 1 24 2 25 3 22 5 13 6 14 7 95 8 15 9 16 10 12 11 9 13
REMARK SMILES IDX 10 14 11 15 8 16 5 17 6 18 97 19 7 20 96 21 4 22 2 23 1 24
REMARK SMILES IDX 3 25 17 26 18 27 21 28 19 29 20 30 26 31 27 32 28 33 29 34
REMARK SMILES IDX 30 35 31 37 32 38 33 39 94 40 34 41 93 42 35 43 36 44 37 45
REMARK SMILES IDX 87 46 38 47 92 48 86 49 88 50 39 51 91 52 85 53 84 54 40 56
REMARK SMILES IDX 72 57 52 58 71 59 53 60 56 61 70 62 89 63 54 64 55 65 69 67
REMARK SMILES IDX 90 68 57 69 41 70 42 71 50 72 43 73 44 74 48 75 51 76 45 77
REMARK SMILES IDX 46 78 49 79 47 80 73 81 74 82 82 83 75 84 76 85 80 86 83 87
REMARK SMILES IDX 77 88 78 89 81 90 79 91 58 92 59 93 67 94 60 95 61 96 65 97
REMARK SMILES IDX 68 98 62 99 63 100 66 101 64 102
REMARK H PARENT 25 4 12 12 29 36 88 55 56 66
REMARK Flexibility Score: inf
ROOT
ATOM      1  C   UNL A   1      34.761  22.339  24.117  1.00  0.00     0.255 C 
ATOM      2  O   UNL A   1      34.823  23.014  23.091  1.00  0.00    -0.269 OA
ATOM      3  N   UNL A   1      35.930  21.678  24.383  1.00  0.00    -0.352 N 
ATOM      4  H   UNL A   1      36.632  21.907  23.732  1.00  0.00     0.163 HD
ENDROOT
BRANCH   1   5
ATOM      5  C   UNL A   1      33.546  22.305  24.998  1.00  0.00     0.084 A 
ATOM      6  C   UNL A   1      31.858  23.561  26.179  1.00  0.00     0.068 A 
ATOM      7  C   UNL A   1      31.074  22.423  26.177  1.00  0.00     0.140 A 
ATOM      8  C   UNL A   1      33.163  23.443  25.725  1.00  0.00     0.046 A 
ATOM      9  N   UNL A   1      31.452  21.265  25.606  1.00  0.00    -0.236 NA
ATOM     10  C   UNL A   1      32.658  21.202  24.979  1.00  0.00     0.141 A 
BRANCH   6  11
ATOM     11  N   UNL A   1      31.242  24.805  26.491  1.00  0.00    -0.278 N 
ATOM     12  H   UNL A   1      30.350  24.794  26.910  1.00  0.00     0.180 HD
BRANCH  11  13
ATOM     13  S   UNL A   1      31.960  26.298  26.179  1.00  0.00     0.261 S 
ATOM     14  O   UNL A   1      33.289  26.027  25.658  1.00  0.00    -0.201 OA
ATOM     15  O   UNL A   1      31.775  27.070  27.386  1.00  0.00    -0.201 OA
BRANCH  13  16
ATOM     16  C   UNL A   1      31.085  27.163  24.880  1.00  0.00     0.087 A 
ATOM     17  C   UNL A   1      29.305  28.548  23.184  1.00  0.00    -0.048 A 
ATOM     18  C   UNL A   1      29.074  27.206  23.511  1.00  0.00     0.005 A 
ATOM     19  C   UNL A   1      30.477  29.159  23.653  1.00  0.00     0.005 A 
ATOM     20  C   UNL A   1      29.949  26.523  24.363  1.00  0.00     0.022 A 
ATOM     21  C   UNL A   1      31.379  28.464  24.472  1.00  0.00     0.022 A 
BRANCH  17  22
ATOM     22  C   UNL A   1      28.305  29.324  22.349  1.00  0.00     0.038 C 
BRANCH  22  23
ATOM     23  C   UNL A   1      28.508  30.856  22.382  1.00  0.00    -0.013 C 
ATOM     24  C   UNL A   1      28.173  31.509  21.040  1.00  0.00     0.008 C 
ATOM     25  C   UNL A   1      27.637  31.492  23.469  1.00  0.00     0.008 C 
ENDBRANCH  22  23
ENDBRANCH  17  22
ENDBRANCH  13  16
ENDBRANCH  11  13
ENDBRANCH   6  11
BRANCH  10  26
ATOM     26  N   UNL A   1      32.865  20.050  24.277  1.00  0.00    -0.356 N 
ATOM     27  C   UNL A   1      33.256  18.795  24.895  1.00  0.00     0.118 C 
ATOM     28  C   UNL A   1      32.183  19.801  23.014  1.00  0.00     0.118 C 
ATOM     29  C   UNL A   1      33.647  17.984  23.665  1.00  0.00     0.023 C 
ATOM     30  C   UNL A   1      32.549  18.351  22.671  1.00  0.00     0.023 C 
ENDBRANCH  10  26
ENDBRANCH   1   5
BRANCH   3  31
ATOM     31  C   UNL A   1      36.410  20.728  25.370  1.00  0.00     0.118 C 
BRANCH  31  32
ATOM     32  C   UNL A   1      37.696  20.073  24.890  1.00  0.00     0.042 C 
BRANCH  32  33
ATOM     33  C   UNL A   1      38.903  20.486  25.727  1.00  0.00     0.118 C 
BRANCH  33  34
ATOM     34  N   UNL A   1      39.873  19.407  25.873  1.00  0.00    -0.352 N 
ATOM     35  C   UNL A   1      41.228  19.483  26.072  1.00  0.00     0.251 C 
ATOM     36  H   UNL A   1      39.503  18.496  25.820  1.00  0.00     0.163 HD
ATOM     37  O   UNL A   1      41.928  18.482  25.974  1.00  0.00    -0.269 OA
BRANCH  35  38
ATOM     38  C   UNL A   1      41.836  20.787  26.393  1.00  0.00     0.039 A 
ATOM     39  C   UNL A   1      42.137  21.670  25.355  1.00  0.00     0.014 A 
ATOM     40  C   UNL A   1      42.098  21.135  27.723  1.00  0.00     0.014 A 
ATOM     41  C   UNL A   1      42.652  22.931  25.654  1.00  0.00     0.010 A 
ATOM     42  C   UNL A   1      42.543  22.415  28.023  1.00  0.00     0.010 A 
ATOM     43  C   UNL A   1      42.831  23.323  26.992  1.00  0.00    -0.014 A 
BRANCH  43  44
ATOM     44  C   UNL A   1      43.331  24.675  27.335  1.00  0.00     0.031 A 
ATOM     45  C   UNL A   1      42.396  25.691  27.928  1.00  0.00     0.074 A 
ATOM     46  C   UNL A   1      44.602  25.007  27.046  1.00  0.00     0.049 A 
ATOM     47  N   UNL A   1      42.616  26.946  28.224  1.00  0.00    -0.248 NA
ATOM     48  C   UNL A   1      41.018  25.244  28.192  1.00  0.00     0.031 C 
ATOM     49  C   UNL A   1      45.585  24.124  26.416  1.00  0.00     0.029 A 
ATOM     50  N   UNL A   1      45.283  26.182  27.233  1.00  0.00    -0.354 N 
ATOM     51  C   UNL A   1      41.405  27.442  28.685  1.00  0.00     0.074 A 
ATOM     52  C   UNL A   1      40.440  26.369  28.586  1.00  0.00     0.031 C 
ATOM     53  C   UNL A   1      46.749  24.782  26.290  1.00  0.00     0.029 A 
ATOM     54  C   UNL A   1      46.586  26.139  26.802  1.00  0.00     0.049 A 
ATOM     55  H   UNL A   1      44.876  26.982  27.640  1.00  0.00     0.167 HD
ATOM     56  C   UNL A   1      41.129  28.676  29.168  1.00  0.00     0.037 A 
ATOM     57  C   UNL A   1      47.538  27.089  26.818  1.00  0.00     0.037 A 
ATOM     58  C   UNL A   1      42.101  29.728  29.303  1.00  0.00     0.049 A 
ATOM     59  C   UNL A   1      47.216  28.440  27.396  1.00  0.00     0.074 A 
ATOM     60  C   UNL A   1      41.940  30.990  29.846  1.00  0.00     0.029 A 
ATOM     61  N   UNL A   1      43.424  29.632  28.894  1.00  0.00    -0.354 N 
ATOM     62  N   UNL A   1      46.083  28.878  27.890  1.00  0.00    -0.248 NA
ATOM     63  C   UNL A   1      48.306  29.424  27.425  1.00  0.00     0.031 C 
ATOM     64  C   UNL A   1      43.158  31.670  29.738  1.00  0.00     0.029 A 
ATOM     65  C   UNL A   1      44.088  30.818  29.162  1.00  0.00     0.049 A 
ATOM     66  H   UNL A   1      43.830  28.839  28.476  1.00  0.00     0.167 HD
ATOM     67  C   UNL A   1      46.329  30.178  28.309  1.00  0.00     0.074 A 
ATOM     68  C   UNL A   1      47.722  30.452  28.025  1.00  0.00     0.031 C 
ATOM     69  C   UNL A   1      45.477  31.066  28.878  1.00  0.00     0.037 A 
BRANCH  56  70
ATOM     70  C   UNL A   1      39.717  28.950  29.597  1.00  0.00     0.064 A 
ATOM     71  C   UNL A   1      38.759  29.441  28.698  1.00  0.00     0.173 A 
ATOM     72  C   UNL A   1      39.313  28.696  30.916  1.00  0.00     0.173 A 
ATOM     73  F   UNL A   1      39.101  29.713  27.430  1.00  0.00    -0.203 F 
ATOM     74  C   UNL A   1      37.454  29.694  29.110  1.00  0.00     0.198 A 
ATOM     75  C   UNL A   1      37.999  28.924  31.318  1.00  0.00     0.198 A 
ATOM     76  F   UNL A   1      40.188  28.223  31.815  1.00  0.00    -0.203 F 
ATOM     77  F   UNL A   1      36.569  30.209  28.245  1.00  0.00    -0.200 F 
ATOM     78  C   UNL A   1      37.073  29.431  30.417  1.00  0.00     0.200 A 
ATOM     79  F   UNL A   1      37.629  28.661  32.578  1.00  0.00    -0.200 F 
ATOM     80  F   UNL A   1      35.816  29.671  30.811  1.00  0.00    -0.200 F 
ENDBRANCH  56  70
BRANCH  57  81
ATOM     81  C   UNL A   1      48.898  26.782  26.308  1.00  0.00     0.064 A 
ATOM     82  C   UNL A   1      49.867  26.218  27.149  1.00  0.00     0.173 A 
ATOM     83  C   UNL A   1      49.255  27.038  24.977  1.00  0.00     0.173 A 
ATOM     84  F   UNL A   1      49.577  25.975  28.435  1.00  0.00    -0.203 F 
ATOM     85  C   UNL A   1      51.148  25.936  26.681  1.00  0.00     0.198 A 
ATOM     86  C   UNL A   1      50.530  26.735  24.505  1.00  0.00     0.198 A 
ATOM     87  F   UNL A   1      48.360  27.573  24.133  1.00  0.00    -0.203 F 
ATOM     88  F   UNL A   1      52.068  25.433  27.516  1.00  0.00    -0.200 F 
ATOM     89  C   UNL A   1      51.477  26.190  25.358  1.00  0.00     0.200 A 
ATOM     90  F   UNL A   1      50.840  26.971  23.222  1.00  0.00    -0.200 F 
ATOM     91  F   UNL A   1      52.709  25.916  24.908  1.00  0.00    -0.200 F 
ENDBRANCH  57  81
BRANCH  69  92
ATOM     92  C   UNL A   1      46.036  32.404  29.254  1.00  0.00     0.064 A 
ATOM     93  C   UNL A   1      45.993  33.491  28.368  1.00  0.00     0.173 A 
ATOM     94  C   UNL A   1      46.587  32.611  30.528  1.00  0.00     0.173 A 
ATOM     95  F   UNL A   1      45.490  33.336  27.134  1.00  0.00    -0.203 F 
ATOM     96  C   UNL A   1      46.503  34.732  28.737  1.00  0.00     0.198 A 
ATOM     97  C   UNL A   1      47.072  33.861  30.901  1.00  0.00     0.198 A 
ATOM     98  F   UNL A   1      46.644  31.603  31.411  1.00  0.00    -0.203 F 
ATOM     99  F   UNL A   1      46.489  35.746  27.861  1.00  0.00    -0.200 F 
ATOM    100  C   UNL A   1      47.036  34.918  30.004  1.00  0.00     0.200 A 
ATOM    101  F   UNL A   1      47.577  34.041  32.129  1.00  0.00    -0.200 F 
ATOM    102  F   UNL A   1      47.520  36.115  30.360  1.00  0.00    -0.200 F 
ENDBRANCH  69  92
ENDBRANCH  43  44
ENDBRANCH  35  38
ENDBRANCH  33  34
ENDBRANCH  32  33
ENDBRANCH  31  32
ENDBRANCH   3  31
TORSDOF 16
ENDMDL
