MODEL 1
REMARK VINA RESULT:     -11.6      0.000      0.000
REMARK SMILES C[NH2+][C@](C)(CCSc1ccncc1)C(=O)NCCCNC(=O)c1ccc(-c2c3nc(c(-c4c(F)c(F)c(F)c(F)c4F)c4ccc([nH]4)c(-c4c(F)c(F)c(F)c(F)c4F)c4nc(c(-c5c(F)c(F)c(F)c(F)c5F)c5ccc2[nH]5)C=C4)C=C3)cc1
REMARK SMILES IDX 17 1 16 2 14 3 15 4 3 6 4 7 2 8 1 9 5 12 6 13 7 14 8 15 9 16
REMARK SMILES IDX 13 17 10 18 12 19 11 20 18 21 19 22 20 23 21 24 22 26 23 27
REMARK SMILES IDX 24 28 85 29 25 30 84 31 26 32 27 33 28 34 78 35 29 36 83 37
REMARK SMILES IDX 77 38 79 39 30 40 82 41 76 42 75 43 31 45 63 46 43 47 62 48
REMARK SMILES IDX 44 49 47 50 61 51 80 52 45 53 46 54 60 56 81 57 48 58 32 59
REMARK SMILES IDX 33 60 41 61 34 62 35 63 39 64 42 65 36 66 37 67 40 68 38 69
REMARK SMILES IDX 64 70 65 71 73 72 66 73 67 74 71 75 74 76 68 77 69 78 72 79
REMARK SMILES IDX 70 80 49 81 50 82 58 83 51 84 52 85 56 86 59 87 53 88 54 89
REMARK SMILES IDX 57 90 55 91
REMARK H PARENT 16 5 2 10 2 11 20 25 79 44 47 55
REMARK Flexibility Score: inf
ROOT
ATOM      1  C   UNL A   1      31.493  30.509  26.229  1.00  0.00     0.118 C 
ENDROOT
BRANCH   1   2
ATOM      2  N   UNL A   1      32.602  30.134  25.371  1.00  0.00    -0.351 N 
ATOM      3  C   UNL A   1      32.850  28.976  24.687  1.00  0.00     0.281 C 
ATOM      4  O   UNL A   1      33.626  29.069  23.731  1.00  0.00    -0.268 OA
ATOM      5  H   UNL A   1      33.290  30.830  25.263  1.00  0.00     0.163 HD
BRANCH   3   6
ATOM      6  C   UNL A   1      32.116  27.634  25.017  1.00  0.00     0.173 C 
ATOM      7  C   UNL A   1      31.991  27.465  26.555  1.00  0.00     0.090 C 
BRANCH   6   8
ATOM      8  N   UNL A   1      33.100  26.605  24.569  1.00  0.00    -0.336 N 
ATOM      9  C   UNL A   1      33.832  25.861  25.566  1.00  0.00     0.331 C 
ATOM     10  H   UNL A   1      32.588  25.926  24.004  1.00  0.00     0.346 HD
ATOM     11  H   UNL A   1      33.819  27.145  24.086  1.00  0.00     0.346 HD
ENDBRANCH   6   8
BRANCH   6  12
ATOM     12  C   UNL A   1      30.700  27.536  24.379  1.00  0.00     0.090 C 
BRANCH  12  13
ATOM     13  C   UNL A   1      30.290  28.519  23.260  1.00  0.00     0.082 C 
BRANCH  13  14
ATOM     14  S   UNL A   1      28.506  28.764  22.924  1.00  0.00    -0.126 SA
BRANCH  14  15
ATOM     15  C   UNL A   1      28.371  30.504  22.542  1.00  0.00     0.010 A 
ATOM     16  C   UNL A   1      28.051  30.860  21.230  1.00  0.00     0.035 A 
ATOM     17  C   UNL A   1      28.561  31.516  23.476  1.00  0.00     0.035 A 
ATOM     18  C   UNL A   1      28.018  32.204  20.895  1.00  0.00     0.112 A 
ATOM     19  C   UNL A   1      28.491  32.833  23.047  1.00  0.00     0.112 A 
ATOM     20  N   UNL A   1      28.222  33.201  21.778  1.00  0.00    -0.265 NA
ENDBRANCH  14  15
ENDBRANCH  13  14
ENDBRANCH  12  13
ENDBRANCH   6  12
ENDBRANCH   3   6
ENDBRANCH   1   2
BRANCH   1  21
ATOM     21  C   UNL A   1      31.389  32.008  26.510  1.00  0.00     0.042 C 
BRANCH  21  22
ATOM     22  C   UNL A   1      32.594  32.623  27.213  1.00  0.00     0.118 C 
BRANCH  22  23
ATOM     23  N   UNL A   1      32.385  34.015  27.585  1.00  0.00    -0.352 N 
ATOM     24  C   UNL A   1      32.997  34.798  28.526  1.00  0.00     0.251 C 
ATOM     25  H   UNL A   1      31.683  34.472  27.069  1.00  0.00     0.163 HD
ATOM     26  O   UNL A   1      32.515  35.905  28.789  1.00  0.00    -0.269 OA
BRANCH  24  27
ATOM     27  C   UNL A   1      34.196  34.343  29.260  1.00  0.00     0.039 A 
ATOM     28  C   UNL A   1      34.019  33.715  30.498  1.00  0.00     0.014 A 
ATOM     29  C   UNL A   1      35.488  34.562  28.777  1.00  0.00     0.014 A 
ATOM     30  C   UNL A   1      35.125  33.233  31.203  1.00  0.00     0.010 A 
ATOM     31  C   UNL A   1      36.586  34.018  29.447  1.00  0.00     0.010 A 
ATOM     32  C   UNL A   1      36.415  33.334  30.659  1.00  0.00    -0.014 A 
BRANCH  32  33
ATOM     33  C   UNL A   1      37.576  32.675  31.315  1.00  0.00     0.031 A 
ATOM     34  C   UNL A   1      38.277  31.514  30.666  1.00  0.00     0.074 A 
ATOM     35  C   UNL A   1      37.955  33.089  32.541  1.00  0.00     0.049 A 
ATOM     36  N   UNL A   1      39.256  30.777  31.130  1.00  0.00    -0.248 NA
ATOM     37  C   UNL A   1      37.806  31.113  29.332  1.00  0.00     0.031 C 
ATOM     38  C   UNL A   1      37.329  34.177  33.296  1.00  0.00     0.029 A 
ATOM     39  N   UNL A   1      38.947  32.638  33.376  1.00  0.00    -0.354 N 
ATOM     40  C   UNL A   1      39.510  29.822  30.153  1.00  0.00     0.074 A 
ATOM     41  C   UNL A   1      38.558  30.048  29.087  1.00  0.00     0.031 C 
ATOM     42  C   UNL A   1      37.958  34.317  34.473  1.00  0.00     0.029 A 
ATOM     43  C   UNL A   1      39.001  33.302  34.578  1.00  0.00     0.049 A 
ATOM     44  H   UNL A   1      39.562  31.907  33.138  1.00  0.00     0.167 HD
ATOM     45  C   UNL A   1      40.461  28.857  30.144  1.00  0.00     0.037 A 
ATOM     46  C   UNL A   1      39.787  33.105  35.655  1.00  0.00     0.037 A 
ATOM     47  C   UNL A   1      41.424  28.652  31.196  1.00  0.00     0.049 A 
ATOM     48  C   UNL A   1      40.819  32.009  35.619  1.00  0.00     0.074 A 
ATOM     49  C   UNL A   1      42.474  27.750  31.236  1.00  0.00     0.029 A 
ATOM     50  N   UNL A   1      41.450  29.348  32.394  1.00  0.00    -0.354 N 
ATOM     51  N   UNL A   1      41.102  31.170  34.654  1.00  0.00    -0.248 NA
ATOM     52  C   UNL A   1      41.641  31.835  36.825  1.00  0.00     0.031 C 
ATOM     53  C   UNL A   1      43.099  27.860  32.482  1.00  0.00     0.029 A 
ATOM     54  C   UNL A   1      42.475  28.870  33.196  1.00  0.00     0.049 A 
ATOM     55  H   UNL A   1      40.832  30.074  32.640  1.00  0.00     0.167 HD
ATOM     56  C   UNL A   1      42.149  30.388  35.125  1.00  0.00     0.074 A 
ATOM     57  C   UNL A   1      42.466  30.868  36.452  1.00  0.00     0.031 C 
ATOM     58  C   UNL A   1      42.785  29.359  34.514  1.00  0.00     0.037 A 
BRANCH  45  59
ATOM     59  C   UNL A   1      40.523  27.939  28.957  1.00  0.00     0.064 A 
ATOM     60  C   UNL A   1      39.750  26.771  28.889  1.00  0.00     0.173 A 
ATOM     61  C   UNL A   1      41.294  28.282  27.836  1.00  0.00     0.173 A 
ATOM     62  F   UNL A   1      39.000  26.397  29.936  1.00  0.00    -0.203 F 
ATOM     63  C   UNL A   1      39.755  25.974  27.747  1.00  0.00     0.198 A 
ATOM     64  C   UNL A   1      41.277  27.498  26.686  1.00  0.00     0.198 A 
ATOM     65  F   UNL A   1      42.045  29.394  27.846  1.00  0.00    -0.203 F 
ATOM     66  F   UNL A   1      39.029  24.849  27.715  1.00  0.00    -0.200 F 
ATOM     67  C   UNL A   1      40.510  26.343  26.643  1.00  0.00     0.200 A 
ATOM     68  F   UNL A   1      41.992  27.865  25.614  1.00  0.00    -0.200 F 
ATOM     69  F   UNL A   1      40.497  25.586  25.538  1.00  0.00    -0.200 F 
ENDBRANCH  45  59
BRANCH  46  70
ATOM     70  C   UNL A   1      39.629  33.954  36.865  1.00  0.00     0.064 A 
ATOM     71  C   UNL A   1      38.847  33.528  37.949  1.00  0.00     0.173 A 
ATOM     72  C   UNL A   1      40.220  35.223  36.950  1.00  0.00     0.173 A 
ATOM     73  F   UNL A   1      38.242  32.331  37.908  1.00  0.00    -0.203 F 
ATOM     74  C   UNL A   1      38.637  34.351  39.054  1.00  0.00     0.198 A 
ATOM     75  C   UNL A   1      40.038  36.031  38.069  1.00  0.00     0.198 A 
ATOM     76  F   UNL A   1      40.980  35.678  35.943  1.00  0.00    -0.203 F 
ATOM     77  F   UNL A   1      37.834  33.944  40.046  1.00  0.00    -0.200 F 
ATOM     78  C   UNL A   1      39.235  35.600  39.115  1.00  0.00     0.200 A 
ATOM     79  F   UNL A   1      40.631  37.231  38.131  1.00  0.00    -0.200 F 
ATOM     80  F   UNL A   1      39.029  36.394  40.175  1.00  0.00    -0.200 F 
ENDBRANCH  46  70
BRANCH  58  81
ATOM     81  C   UNL A   1      43.905  28.701  35.265  1.00  0.00     0.064 A 
ATOM     82  C   UNL A   1      43.669  27.654  36.170  1.00  0.00     0.173 A 
ATOM     83  C   UNL A   1      45.234  29.099  35.057  1.00  0.00     0.173 A 
ATOM     84  F   UNL A   1      42.414  27.246  36.417  1.00  0.00    -0.203 F 
ATOM     85  C   UNL A   1      44.718  27.049  36.856  1.00  0.00     0.198 A 
ATOM     86  C   UNL A   1      46.284  28.471  35.721  1.00  0.00     0.198 A 
ATOM     87  F   UNL A   1      45.517  30.091  34.199  1.00  0.00    -0.203 F 
ATOM     88  F   UNL A   1      44.463  26.088  37.754  1.00  0.00    -0.200 F 
ATOM     89  C   UNL A   1      46.025  27.453  36.626  1.00  0.00     0.200 A 
ATOM     90  F   UNL A   1      47.547  28.852  35.486  1.00  0.00    -0.200 F 
ATOM     91  F   UNL A   1      47.035  26.866  37.284  1.00  0.00    -0.200 F 
ENDBRANCH  58  81
ENDBRANCH  32  33
ENDBRANCH  24  27
ENDBRANCH  22  23
ENDBRANCH  21  22
ENDBRANCH   1  21
TORSDOF 15
ENDMDL
MODEL 2
REMARK VINA RESULT:     -11.5      0.642      7.599
REMARK SMILES C[NH2+][C@](C)(CCSc1ccncc1)C(=O)NCCCNC(=O)c1ccc(-c2c3nc(c(-c4c(F)c(F)c(F)c(F)c4F)c4ccc([nH]4)c(-c4c(F)c(F)c(F)c(F)c4F)c4nc(c(-c5c(F)c(F)c(F)c(F)c5F)c5ccc2[nH]5)C=C4)C=C3)cc1
REMARK SMILES IDX 17 1 16 2 14 3 15 4 3 6 4 7 2 8 1 9 5 12 6 13 7 14 8 15 9 16
REMARK SMILES IDX 13 17 10 18 12 19 11 20 18 21 19 22 20 23 21 24 22 26 23 27
REMARK SMILES IDX 24 28 85 29 25 30 84 31 26 32 27 33 28 34 78 35 29 36 83 37
REMARK SMILES IDX 77 38 79 39 30 40 82 41 76 42 75 43 31 45 63 46 43 47 62 48
REMARK SMILES IDX 44 49 47 50 61 51 80 52 45 53 46 54 60 56 81 57 48 58 32 59
REMARK SMILES IDX 33 60 41 61 34 62 35 63 39 64 42 65 36 66 37 67 40 68 38 69
REMARK SMILES IDX 64 70 65 71 73 72 66 73 67 74 71 75 74 76 68 77 69 78 72 79
REMARK SMILES IDX 70 80 49 81 50 82 58 83 51 84 52 85 56 86 59 87 53 88 54 89
REMARK SMILES IDX 57 90 55 91
REMARK H PARENT 16 5 2 10 2 11 20 25 79 44 47 55
REMARK Flexibility Score: inf
ROOT
ATOM      1  C   UNL A   1      31.505  30.344  26.126  1.00  0.00     0.118 C 
ENDROOT
BRANCH   1   2
ATOM      2  N   UNL A   1      32.582  30.079  25.188  1.00  0.00    -0.351 N 
ATOM      3  C   UNL A   1      32.810  29.008  24.370  1.00  0.00     0.281 C 
ATOM      4  O   UNL A   1      33.546  29.216  23.401  1.00  0.00    -0.268 OA
ATOM      5  H   UNL A   1      33.261  30.790  25.133  1.00  0.00     0.163 HD
BRANCH   3   6
ATOM      6  C   UNL A   1      32.098  27.629  24.575  1.00  0.00     0.173 C 
ATOM      7  C   UNL A   1      32.365  27.107  26.013  1.00  0.00     0.090 C 
BRANCH   6   8
ATOM      8  N   UNL A   1      32.861  26.728  23.662  1.00  0.00    -0.336 N 
ATOM      9  C   UNL A   1      33.869  25.861  24.224  1.00  0.00     0.331 C 
ATOM     10  H   UNL A   1      32.179  26.131  23.192  1.00  0.00     0.346 HD
ATOM     11  H   UNL A   1      33.388  27.369  23.069  1.00  0.00     0.346 HD
ENDBRANCH   6   8
BRANCH   6  12
ATOM     12  C   UNL A   1      30.562  27.690  24.335  1.00  0.00     0.090 C 
BRANCH  12  13
ATOM     13  C   UNL A   1      30.014  28.176  22.975  1.00  0.00     0.082 C 
BRANCH  13  14
ATOM     14  S   UNL A   1      28.250  28.658  22.867  1.00  0.00    -0.126 SA
BRANCH  14  15
ATOM     15  C   UNL A   1      28.298  30.394  22.450  1.00  0.00     0.010 A 
ATOM     16  C   UNL A   1      28.673  31.295  23.449  1.00  0.00     0.035 A 
ATOM     17  C   UNL A   1      27.990  30.893  21.189  1.00  0.00     0.035 A 
ATOM     18  C   UNL A   1      28.642  32.651  23.168  1.00  0.00     0.112 A 
ATOM     19  C   UNL A   1      28.004  32.267  21.001  1.00  0.00     0.112 A 
ATOM     20  N   UNL A   1      28.325  33.159  21.961  1.00  0.00    -0.265 NA
ENDBRANCH  14  15
ENDBRANCH  13  14
ENDBRANCH  12  13
ENDBRANCH   6  12
ENDBRANCH   3   6
ENDBRANCH   1   2
BRANCH   1  21
ATOM     21  C   UNL A   1      31.381  31.808  26.549  1.00  0.00     0.042 C 
BRANCH  21  22
ATOM     22  C   UNL A   1      32.675  32.461  27.021  1.00  0.00     0.118 C 
BRANCH  22  23
ATOM     23  N   UNL A   1      32.489  33.834  27.467  1.00  0.00    -0.352 N 
ATOM     24  C   UNL A   1      33.089  34.545  28.471  1.00  0.00     0.251 C 
ATOM     25  H   UNL A   1      31.815  34.339  26.957  1.00  0.00     0.163 HD
ATOM     26  O   UNL A   1      32.626  35.648  28.782  1.00  0.00    -0.269 OA
BRANCH  24  27
ATOM     27  C   UNL A   1      34.252  34.017  29.214  1.00  0.00     0.039 A 
ATOM     28  C   UNL A   1      34.016  33.187  30.315  1.00  0.00     0.014 A 
ATOM     29  C   UNL A   1      35.564  34.358  28.876  1.00  0.00     0.014 A 
ATOM     30  C   UNL A   1      35.089  32.633  31.018  1.00  0.00     0.010 A 
ATOM     31  C   UNL A   1      36.635  33.749  29.534  1.00  0.00     0.010 A 
ATOM     32  C   UNL A   1      36.409  32.868  30.601  1.00  0.00    -0.014 A 
BRANCH  32  33
ATOM     33  C   UNL A   1      37.550  32.150  31.232  1.00  0.00     0.031 A 
ATOM     34  C   UNL A   1      38.052  32.540  32.594  1.00  0.00     0.074 A 
ATOM     35  C   UNL A   1      38.179  31.183  30.534  1.00  0.00     0.049 A 
ATOM     36  N   UNL A   1      39.079  32.071  33.260  1.00  0.00    -0.248 NA
ATOM     37  C   UNL A   1      37.320  33.606  33.294  1.00  0.00     0.031 C 
ATOM     38  C   UNL A   1      37.816  30.742  29.185  1.00  0.00     0.029 A 
ATOM     39  N   UNL A   1      39.265  30.405  30.853  1.00  0.00    -0.354 N 
ATOM     40  C   UNL A   1      39.122  32.791  34.447  1.00  0.00     0.074 A 
ATOM     41  C   UNL A   1      38.043  33.754  34.396  1.00  0.00     0.031 C 
ATOM     42  C   UNL A   1      38.652  29.766  28.799  1.00  0.00     0.029 A 
ATOM     43  C   UNL A   1      39.639  29.543  29.850  1.00  0.00     0.049 A 
ATOM     44  H   UNL A   1      39.732  30.460  31.718  1.00  0.00     0.167 HD
ATOM     45  C   UNL A   1      39.977  32.649  35.489  1.00  0.00     0.037 A 
ATOM     46  C   UNL A   1      40.672  28.682  29.775  1.00  0.00     0.037 A 
ATOM     47  C   UNL A   1      41.035  31.672  35.547  1.00  0.00     0.049 A 
ATOM     48  C   UNL A   1      41.617  28.564  30.942  1.00  0.00     0.074 A 
ATOM     49  C   UNL A   1      41.899  31.402  36.595  1.00  0.00     0.029 A 
ATOM     50  N   UNL A   1      41.378  30.812  34.516  1.00  0.00    -0.354 N 
ATOM     51  N   UNL A   1      41.594  29.192  32.092  1.00  0.00    -0.248 NA
ATOM     52  C   UNL A   1      42.730  27.616  30.799  1.00  0.00     0.031 C 
ATOM     53  C   UNL A   1      42.803  30.421  36.177  1.00  0.00     0.029 A 
ATOM     54  C   UNL A   1      42.467  30.038  34.889  1.00  0.00     0.049 A 
ATOM     55  H   UNL A   1      40.919  30.760  33.647  1.00  0.00     0.167 HD
ATOM     56  C   UNL A   1      42.670  28.698  32.817  1.00  0.00     0.074 A 
ATOM     57  C   UNL A   1      43.311  27.701  31.987  1.00  0.00     0.031 C 
ATOM     58  C   UNL A   1      43.093  29.044  34.056  1.00  0.00     0.037 A 
BRANCH  45  59
ATOM     59  C   UNL A   1      39.814  33.565  36.667  1.00  0.00     0.064 A 
ATOM     60  C   UNL A   1      40.441  34.818  36.717  1.00  0.00     0.173 A 
ATOM     61  C   UNL A   1      38.942  33.225  37.714  1.00  0.00     0.173 A 
ATOM     62  F   UNL A   1      41.287  35.188  35.744  1.00  0.00    -0.203 F 
ATOM     63  C   UNL A   1      40.214  35.692  37.777  1.00  0.00     0.198 A 
ATOM     64  C   UNL A   1      38.695  34.112  38.758  1.00  0.00     0.198 A 
ATOM     65  F   UNL A   1      38.309  32.043  37.709  1.00  0.00    -0.203 F 
ATOM     66  F   UNL A   1      40.845  36.873  37.817  1.00  0.00    -0.200 F 
ATOM     67  C   UNL A   1      39.333  35.343  38.791  1.00  0.00     0.200 A 
ATOM     68  F   UNL A   1      37.832  33.780  39.727  1.00  0.00    -0.200 F 
ATOM     69  F   UNL A   1      39.099  36.194  39.799  1.00  0.00    -0.200 F 
ENDBRANCH  45  59
BRANCH  46  70
ATOM     70  C   UNL A   1      40.882  27.866  28.549  1.00  0.00     0.064 A 
ATOM     71  C   UNL A   1      41.667  28.343  27.490  1.00  0.00     0.173 A 
ATOM     72  C   UNL A   1      40.272  26.613  28.393  1.00  0.00     0.173 A 
ATOM     73  F   UNL A   1      42.254  29.545  27.581  1.00  0.00    -0.203 F 
ATOM     74  C   UNL A   1      41.806  27.613  26.311  1.00  0.00     0.198 A 
ATOM     75  C   UNL A   1      40.439  25.868  27.228  1.00  0.00     0.198 A 
ATOM     76  F   UNL A   1      39.513  26.107  29.377  1.00  0.00    -0.203 F 
ATOM     77  F   UNL A   1      42.511  28.122  25.290  1.00  0.00    -0.200 F 
ATOM     78  C   UNL A   1      41.196  26.376  26.182  1.00  0.00     0.200 A 
ATOM     79  F   UNL A   1      39.860  24.666  27.114  1.00  0.00    -0.200 F 
ATOM     80  F   UNL A   1      41.325  25.676  25.047  1.00  0.00    -0.200 F 
ENDBRANCH  46  70
BRANCH  58  81
ATOM     81  C   UNL A   1      44.291  28.322  34.601  1.00  0.00     0.064 A 
ATOM     82  C   UNL A   1      44.165  27.107  35.291  1.00  0.00     0.173 A 
ATOM     83  C   UNL A   1      45.582  28.834  34.405  1.00  0.00     0.173 A 
ATOM     84  F   UNL A   1      42.951  26.583  35.520  1.00  0.00    -0.203 F 
ATOM     85  C   UNL A   1      45.285  26.446  35.789  1.00  0.00     0.198 A 
ATOM     86  C   UNL A   1      46.703  28.154  34.875  1.00  0.00     0.198 A 
ATOM     87  F   UNL A   1      45.760  29.989  33.747  1.00  0.00    -0.203 F 
ATOM     88  F   UNL A   1      45.136  25.315  36.491  1.00  0.00    -0.200 F 
ATOM     89  C   UNL A   1      46.553  26.966  35.574  1.00  0.00     0.200 A 
ATOM     90  F   UNL A   1      47.928  28.650  34.653  1.00  0.00    -0.200 F 
ATOM     91  F   UNL A   1      47.631  26.325  36.048  1.00  0.00    -0.200 F 
ENDBRANCH  58  81
ENDBRANCH  32  33
ENDBRANCH  24  27
ENDBRANCH  22  23
ENDBRANCH  21  22
ENDBRANCH   1  21
TORSDOF 15
ENDMDL
MODEL 3
REMARK VINA RESULT:     -11.4      6.897     12.127
REMARK SMILES C[NH2+][C@](C)(CCSc1ccncc1)C(=O)NCCCNC(=O)c1ccc(-c2c3nc(c(-c4c(F)c(F)c(F)c(F)c4F)c4ccc([nH]4)c(-c4c(F)c(F)c(F)c(F)c4F)c4nc(c(-c5c(F)c(F)c(F)c(F)c5F)c5ccc2[nH]5)C=C4)C=C3)cc1
REMARK SMILES IDX 17 1 16 2 14 3 15 4 3 6 4 7 2 8 1 9 5 12 6 13 7 14 8 15 9 16
REMARK SMILES IDX 13 17 10 18 12 19 11 20 18 21 19 22 20 23 21 24 22 26 23 27
REMARK SMILES IDX 24 28 85 29 25 30 84 31 26 32 27 33 28 34 78 35 29 36 83 37
REMARK SMILES IDX 77 38 79 39 30 40 82 41 76 42 75 43 31 45 63 46 43 47 62 48
REMARK SMILES IDX 44 49 47 50 61 51 80 52 45 53 46 54 60 56 81 57 48 58 32 59
REMARK SMILES IDX 33 60 41 61 34 62 35 63 39 64 42 65 36 66 37 67 40 68 38 69
REMARK SMILES IDX 64 70 65 71 73 72 66 73 67 74 71 75 74 76 68 77 69 78 72 79
REMARK SMILES IDX 70 80 49 81 50 82 58 83 51 84 52 85 56 86 59 87 53 88 54 89
REMARK SMILES IDX 57 90 55 91
REMARK H PARENT 16 5 2 10 2 11 20 25 79 44 47 55
REMARK Flexibility Score: inf
ROOT
ATOM      1  C   UNL A   1      36.845  20.281  25.001  1.00  0.00     0.118 C 
ENDROOT
BRANCH   1   2
ATOM      2  N   UNL A   1      37.116  21.700  25.156  1.00  0.00    -0.351 N 
ATOM      3  C   UNL A   1      36.336  22.709  25.650  1.00  0.00     0.281 C 
ATOM      4  O   UNL A   1      36.938  23.711  26.046  1.00  0.00    -0.268 OA
ATOM      5  H   UNL A   1      38.010  21.981  24.857  1.00  0.00     0.163 HD
BRANCH   3   6
ATOM      6  C   UNL A   1      34.786  22.568  25.810  1.00  0.00     0.173 C 
ATOM      7  C   UNL A   1      34.143  23.972  25.980  1.00  0.00     0.090 C 
BRANCH   6   8
ATOM      8  N   UNL A   1      34.654  21.892  27.134  1.00  0.00    -0.336 N 
ATOM      9  C   UNL A   1      33.565  22.270  28.002  1.00  0.00     0.331 C 
ATOM     10  H   UNL A   1      34.561  20.892  26.952  1.00  0.00     0.346 HD
ATOM     11  H   UNL A   1      35.489  22.184  27.643  1.00  0.00     0.346 HD
ENDBRANCH   6   8
BRANCH   6  12
ATOM     12  C   UNL A   1      34.108  21.843  24.611  1.00  0.00     0.090 C 
BRANCH  12  13
ATOM     13  C   UNL A   1      32.869  20.953  24.851  1.00  0.00     0.082 C 
BRANCH  13  14
ATOM     14  S   UNL A   1      32.294  19.873  23.487  1.00  0.00    -0.126 SA
BRANCH  14  15
ATOM     15  C   UNL A   1      32.858  18.244  23.956  1.00  0.00     0.010 A 
ATOM     16  C   UNL A   1      32.511  17.773  25.224  1.00  0.00     0.035 A 
ATOM     17  C   UNL A   1      33.615  17.423  23.127  1.00  0.00     0.035 A 
ATOM     18  C   UNL A   1      33.005  16.546  25.636  1.00  0.00     0.112 A 
ATOM     19  C   UNL A   1      34.048  16.202  23.625  1.00  0.00     0.112 A 
ATOM     20  N   UNL A   1      33.759  15.743  24.859  1.00  0.00    -0.265 NA
ENDBRANCH  14  15
ENDBRANCH  13  14
ENDBRANCH  12  13
ENDBRANCH   6  12
ENDBRANCH   3   6
ENDBRANCH   1   2
BRANCH   1  21
ATOM     21  C   UNL A   1      38.093  19.401  24.953  1.00  0.00     0.042 C 
BRANCH  21  22
ATOM     22  C   UNL A   1      39.285  19.917  25.752  1.00  0.00     0.118 C 
BRANCH  22  23
ATOM     23  N   UNL A   1      40.373  18.954  25.836  1.00  0.00    -0.352 N 
ATOM     24  C   UNL A   1      41.718  19.128  26.026  1.00  0.00     0.251 C 
ATOM     25  H   UNL A   1      40.094  18.016  25.739  1.00  0.00     0.163 HD
ATOM     26  O   UNL A   1      42.474  18.163  25.870  1.00  0.00    -0.269 OA
BRANCH  24  27
ATOM     27  C   UNL A   1      42.292  20.443  26.380  1.00  0.00     0.039 A 
ATOM     28  C   UNL A   1      42.879  21.207  25.364  1.00  0.00     0.014 A 
ATOM     29  C   UNL A   1      42.306  20.916  27.694  1.00  0.00     0.014 A 
ATOM     30  C   UNL A   1      43.395  22.473  25.649  1.00  0.00     0.010 A 
ATOM     31  C   UNL A   1      42.758  22.209  27.965  1.00  0.00     0.010 A 
ATOM     32  C   UNL A   1      43.293  23.008  26.943  1.00  0.00    -0.014 A 
BRANCH  32  33
ATOM     33  C   UNL A   1      43.682  24.417  27.222  1.00  0.00     0.031 A 
ATOM     34  C   UNL A   1      42.669  25.420  27.698  1.00  0.00     0.074 A 
ATOM     35  C   UNL A   1      44.949  24.806  26.975  1.00  0.00     0.049 A 
ATOM     36  N   UNL A   1      42.819  26.703  27.918  1.00  0.00    -0.248 NA
ATOM     37  C   UNL A   1      41.305  24.926  27.940  1.00  0.00     0.031 C 
ATOM     38  C   UNL A   1      46.016  23.937  26.471  1.00  0.00     0.029 A 
ATOM     39  N   UNL A   1      45.555  26.031  27.101  1.00  0.00    -0.354 N 
ATOM     40  C   UNL A   1      41.571  27.170  28.312  1.00  0.00     0.074 A 
ATOM     41  C   UNL A   1      40.666  26.042  28.265  1.00  0.00     0.031 C 
ATOM     42  C   UNL A   1      47.144  24.653  26.343  1.00  0.00     0.029 A 
ATOM     43  C   UNL A   1      46.873  26.038  26.711  1.00  0.00     0.049 A 
ATOM     44  H   UNL A   1      45.089  26.831  27.438  1.00  0.00     0.167 HD
ATOM     45  C   UNL A   1      41.221  28.423  28.693  1.00  0.00     0.037 A 
ATOM     46  C   UNL A   1      47.760  27.049  26.638  1.00  0.00     0.037 A 
ATOM     47  C   UNL A   1      42.131  29.537  28.763  1.00  0.00     0.049 A 
ATOM     48  C   UNL A   1      47.331  28.434  27.047  1.00  0.00     0.074 A 
ATOM     49  C   UNL A   1      41.882  30.823  29.213  1.00  0.00     0.029 A 
ATOM     50  N   UNL A   1      43.458  29.503  28.366  1.00  0.00    -0.354 N 
ATOM     51  N   UNL A   1      46.171  28.841  27.498  1.00  0.00    -0.248 NA
ATOM     52  C   UNL A   1      48.339  29.498  26.938  1.00  0.00     0.031 C 
ATOM     53  C   UNL A   1      43.043  31.583  29.033  1.00  0.00     0.029 A 
ATOM     54  C   UNL A   1      44.031  30.757  28.526  1.00  0.00     0.049 A 
ATOM     55  H   UNL A   1      43.925  28.708  28.021  1.00  0.00     0.167 HD
ATOM     56  C   UNL A   1      46.316  30.199  27.749  1.00  0.00     0.074 A 
ATOM     57  C   UNL A   1      47.683  30.541  27.423  1.00  0.00     0.031 C 
ATOM     58  C   UNL A   1      45.396  31.084  28.202  1.00  0.00     0.037 A 
BRANCH  45  59
ATOM     59  C   UNL A   1      39.789  28.671  29.071  1.00  0.00     0.064 A 
ATOM     60  C   UNL A   1      39.328  28.464  30.380  1.00  0.00     0.173 A 
ATOM     61  C   UNL A   1      38.893  29.213  28.137  1.00  0.00     0.173 A 
ATOM     62  F   UNL A   1      40.144  27.943  31.308  1.00  0.00    -0.203 F 
ATOM     63  C   UNL A   1      38.018  28.778  30.736  1.00  0.00     0.198 A 
ATOM     64  C   UNL A   1      37.593  29.551  28.503  1.00  0.00     0.198 A 
ATOM     65  F   UNL A   1      39.286  29.439  26.875  1.00  0.00    -0.203 F 
ATOM     66  F   UNL A   1      37.592  28.547  31.984  1.00  0.00    -0.200 F 
ATOM     67  C   UNL A   1      37.155  29.331  29.801  1.00  0.00     0.200 A 
ATOM     68  F   UNL A   1      36.766  30.101  27.603  1.00  0.00    -0.200 F 
ATOM     69  F   UNL A   1      35.903  29.652  30.151  1.00  0.00    -0.200 F 
ENDBRANCH  45  59
BRANCH  46  70
ATOM     70  C   UNL A   1      49.142  26.801  26.149  1.00  0.00     0.064 A 
ATOM     71  C   UNL A   1      49.476  26.990  24.800  1.00  0.00     0.173 A 
ATOM     72  C   UNL A   1      50.147  26.332  27.007  1.00  0.00     0.173 A 
ATOM     73  F   UNL A   1      48.545  27.417  23.933  1.00  0.00    -0.203 F 
ATOM     74  C   UNL A   1      50.751  26.689  24.324  1.00  0.00     0.198 A 
ATOM     75  C   UNL A   1      51.430  26.064  26.538  1.00  0.00     0.198 A 
ATOM     76  F   UNL A   1      49.883  26.136  28.308  1.00  0.00    -0.203 F 
ATOM     77  F   UNL A   1      51.023  26.820  23.018  1.00  0.00    -0.200 F 
ATOM     78  C   UNL A   1      51.728  26.230  25.193  1.00  0.00     0.200 A 
ATOM     79  F   UNL A   1      52.376  25.635  27.384  1.00  0.00    -0.200 F 
ATOM     80  F   UNL A   1      52.952  25.935  24.735  1.00  0.00    -0.200 F 
ENDBRANCH  46  70
BRANCH  58  81
ATOM     81  C   UNL A   1      45.845  32.503  28.398  1.00  0.00     0.064 A 
ATOM     82  C   UNL A   1      46.405  32.937  29.609  1.00  0.00     0.173 A 
ATOM     83  C   UNL A   1      45.741  33.434  27.353  1.00  0.00     0.173 A 
ATOM     84  F   UNL A   1      46.511  32.090  30.645  1.00  0.00    -0.203 F 
ATOM     85  C   UNL A   1      46.820  34.255  29.775  1.00  0.00     0.198 A 
ATOM     86  C   UNL A   1      46.187  34.743  27.512  1.00  0.00     0.198 A 
ATOM     87  F   UNL A   1      45.218  33.071  26.173  1.00  0.00    -0.203 F 
ATOM     88  F   UNL A   1      47.304  34.659  30.958  1.00  0.00    -0.200 F 
ATOM     89  C   UNL A   1      46.718  35.155  28.725  1.00  0.00     0.200 A 
ATOM     90  F   UNL A   1      46.101  35.607  26.491  1.00  0.00    -0.200 F 
ATOM     91  F   UNL A   1      47.124  36.423  28.884  1.00  0.00    -0.200 F 
ENDBRANCH  58  81
ENDBRANCH  32  33
ENDBRANCH  24  27
ENDBRANCH  22  23
ENDBRANCH  21  22
ENDBRANCH   1  21
TORSDOF 15
ENDMDL
