MODEL 1
REMARK VINA RESULT:     -13.0      0.000      0.000
REMARK SMILES CC[C@]1(C(=O)NCCCNC(=O)c2ccc(-c3c4nc(c(-c5c(F)c(F)c(F)c(F)c5F)c5ccc([nH]5)c(-c5c(F)c(F)c(F)c(F)c5F)c5nc(c(-c6c(F)c(F)c(F)c(F)c6F)c6ccc3[nH]6)C=C5)C=C4)cc2)CCC[N@@H+]([C@@H]2CCC[C@H](S(C)(=O)=O)C2)C1
REMARK SMILES IDX 8 1 7 2 6 3 4 4 5 5 3 7 76 8 90 9 77 10 79 11 78 12 2 14
REMARK SMILES IDX 1 15 80 16 81 17 89 18 82 19 84 20 83 21 85 22 86 23 87 24
REMARK SMILES IDX 88 25 9 26 10 27 11 28 12 30 13 31 14 32 75 33 15 34 74 35
REMARK SMILES IDX 16 36 17 37 18 38 68 39 19 40 73 41 67 42 69 43 20 44 72 45
REMARK SMILES IDX 66 46 65 47 21 49 53 50 33 51 52 52 34 53 37 54 51 55 70 56
REMARK SMILES IDX 35 57 36 58 50 60 71 61 38 62 22 63 23 64 31 65 24 66 25 67
REMARK SMILES IDX 29 68 32 69 26 70 27 71 30 72 28 73 54 74 55 75 63 76 56 77
REMARK SMILES IDX 57 78 61 79 64 80 58 81 59 82 62 83 60 84 39 85 40 86 48 87
REMARK SMILES IDX 41 88 42 89 46 90 49 91 43 92 44 93 47 94 45 95
REMARK H PARENT 6 6 79 13 10 29 69 48 37 59
REMARK Flexibility Score: inf
ROOT
ATOM      1  C   UNL A   1      31.488  32.034  26.737  1.00  0.00     0.042 C 
ENDROOT
BRANCH   1   2
ATOM      2  C   UNL A   1      31.823  30.700  26.088  1.00  0.00     0.117 C 
BRANCH   2   3
ATOM      3  N   UNL A   1      31.708  29.594  27.028  1.00  0.00    -0.355 N 
ATOM      4  C   UNL A   1      31.644  28.241  26.863  1.00  0.00     0.231 C 
ATOM      5  O   UNL A   1      31.380  27.607  27.887  1.00  0.00    -0.274 OA
ATOM      6  H   UNL A   1      31.668  29.879  27.970  1.00  0.00     0.163 HD
BRANCH   4   7
ATOM      7  C   UNL A   1      31.846  27.566  25.486  1.00  0.00     0.098 C 
ATOM      8  C   UNL A   1      33.076  28.241  24.827  1.00  0.00     0.028 C 
ATOM      9  C   UNL A   1      32.030  26.024  25.693  1.00  0.00     0.279 C 
ATOM     10  C   UNL A   1      33.643  27.408  23.696  1.00  0.00     0.063 C 
ATOM     11  N   UNL A   1      32.839  25.284  24.699  1.00  0.00    -0.332 N 
ATOM     12  C   UNL A   1      34.006  26.022  24.205  1.00  0.00     0.262 C 
ATOM     13  H   UNL A   1      32.246  25.190  23.875  1.00  0.00     0.348 HD
BRANCH   7  14
ATOM     14  C   UNL A   1      30.638  27.800  24.512  1.00  0.00     0.019 C 
ATOM     15  C   UNL A   1      29.693  26.627  24.263  1.00  0.00     0.005 C 
ENDBRANCH   7  14
BRANCH  11  16
ATOM     16  C   UNL A   1      33.151  23.898  25.150  1.00  0.00     0.185 C 
ATOM     17  C   UNL A   1      33.006  23.663  26.673  1.00  0.00     0.065 C 
ATOM     18  C   UNL A   1      34.551  23.465  24.666  1.00  0.00     0.084 C 
ATOM     19  C   UNL A   1      33.365  22.235  27.068  1.00  0.00     0.007 C 
ATOM     20  C   UNL A   1      34.962  22.057  25.125  1.00  0.00     0.114 C 
ATOM     21  C   UNL A   1      34.781  21.883  26.634  1.00  0.00     0.020 C 
BRANCH  20  22
ATOM     22  S   UNL A   1      36.679  21.766  24.631  1.00  0.00     0.150 S 
ATOM     23  C   UNL A   1      37.658  22.694  25.788  1.00  0.00     0.158 C 
ATOM     24  O   UNL A   1      36.972  20.363  24.864  1.00  0.00    -0.229 OA
ATOM     25  O   UNL A   1      36.887  22.355  23.323  1.00  0.00    -0.229 OA
ENDBRANCH  20  22
ENDBRANCH  11  16
ENDBRANCH   4   7
ENDBRANCH   2   3
ENDBRANCH   1   2
BRANCH   1  26
ATOM     26  C   UNL A   1      32.696  32.748  27.324  1.00  0.00     0.118 C 
BRANCH  26  27
ATOM     27  N   UNL A   1      32.429  34.148  27.623  1.00  0.00    -0.352 N 
ATOM     28  C   UNL A   1      32.981  34.964  28.579  1.00  0.00     0.251 C 
ATOM     29  H   UNL A   1      31.749  34.574  27.052  1.00  0.00     0.163 HD
ATOM     30  O   UNL A   1      32.487  36.062  28.809  1.00  0.00    -0.269 OA
BRANCH  28  31
ATOM     31  C   UNL A   1      34.155  34.505  29.350  1.00  0.00     0.039 A 
ATOM     32  C   UNL A   1      33.956  33.937  30.610  1.00  0.00     0.014 A 
ATOM     33  C   UNL A   1      35.445  34.622  28.827  1.00  0.00     0.014 A 
ATOM     34  C   UNL A   1      35.044  33.411  31.309  1.00  0.00     0.010 A 
ATOM     35  C   UNL A   1      36.512  34.014  29.480  1.00  0.00     0.010 A 
ATOM     36  C   UNL A   1      36.323  33.400  30.727  1.00  0.00    -0.014 A 
BRANCH  36  37
ATOM     37  C   UNL A   1      37.469  32.736  31.396  1.00  0.00     0.031 A 
ATOM     38  C   UNL A   1      38.142  31.557  30.752  1.00  0.00     0.074 A 
ATOM     39  C   UNL A   1      37.845  33.144  32.623  1.00  0.00     0.049 A 
ATOM     40  N   UNL A   1      39.105  30.800  31.215  1.00  0.00    -0.248 NA
ATOM     41  C   UNL A   1      37.647  31.154  29.426  1.00  0.00     0.031 C 
ATOM     42  C   UNL A   1      37.226  34.236  33.378  1.00  0.00     0.029 A 
ATOM     43  N   UNL A   1      38.829  32.679  33.460  1.00  0.00    -0.354 N 
ATOM     44  C   UNL A   1      39.316  29.826  30.249  1.00  0.00     0.074 A 
ATOM     45  C   UNL A   1      38.346  30.052  29.200  1.00  0.00     0.031 C 
ATOM     46  C   UNL A   1      37.857  34.370  34.555  1.00  0.00     0.029 A 
ATOM     47  C   UNL A   1      38.895  33.349  34.657  1.00  0.00     0.049 A 
ATOM     48  H   UNL A   1      39.431  31.936  33.224  1.00  0.00     0.167 HD
ATOM     49  C   UNL A   1      40.250  28.845  30.230  1.00  0.00     0.037 A 
ATOM     50  C   UNL A   1      39.692  33.154  35.724  1.00  0.00     0.037 A 
ATOM     51  C   UNL A   1      41.228  28.641  31.266  1.00  0.00     0.049 A 
ATOM     52  C   UNL A   1      40.722  32.058  35.678  1.00  0.00     0.074 A 
ATOM     53  C   UNL A   1      42.272  27.733  31.300  1.00  0.00     0.029 A 
ATOM     54  N   UNL A   1      41.277  29.352  32.457  1.00  0.00    -0.354 N 
ATOM     55  N   UNL A   1      40.975  31.201  34.719  1.00  0.00    -0.248 NA
ATOM     56  C   UNL A   1      41.582  31.907  36.860  1.00  0.00     0.031 C 
ATOM     57  C   UNL A   1      42.915  27.854  32.537  1.00  0.00     0.029 A 
ATOM     58  C   UNL A   1      42.310  28.877  33.249  1.00  0.00     0.049 A 
ATOM     59  H   UNL A   1      40.667  30.085  32.703  1.00  0.00     0.167 HD
ATOM     60  C   UNL A   1      42.030  30.421  35.171  1.00  0.00     0.074 A 
ATOM     61  C   UNL A   1      42.385  30.923  36.482  1.00  0.00     0.031 C 
ATOM     62  C   UNL A   1      42.646  29.382  34.557  1.00  0.00     0.037 A 
BRANCH  49  63
ATOM     63  C   UNL A   1      40.255  27.913  29.052  1.00  0.00     0.064 A 
ATOM     64  C   UNL A   1      40.985  28.196  27.888  1.00  0.00     0.173 A 
ATOM     65  C   UNL A   1      39.545  26.703  29.100  1.00  0.00     0.173 A 
ATOM     66  F   UNL A   1      41.674  29.342  27.784  1.00  0.00    -0.203 F 
ATOM     67  C   UNL A   1      40.976  27.321  26.804  1.00  0.00     0.198 A 
ATOM     68  C   UNL A   1      39.565  25.815  28.028  1.00  0.00     0.198 A 
ATOM     69  F   UNL A   1      38.834  26.378  30.191  1.00  0.00    -0.203 F 
ATOM     70  F   UNL A   1      41.637  27.640  25.682  1.00  0.00    -0.200 F 
ATOM     71  C   UNL A   1      40.273  26.128  26.878  1.00  0.00     0.200 A 
ATOM     72  F   UNL A   1      38.896  24.657  28.107  1.00  0.00    -0.200 F 
ATOM     73  F   UNL A   1      40.270  25.284  25.836  1.00  0.00    -0.200 F 
ENDBRANCH  49  63
BRANCH  50  74
ATOM     74  C   UNL A   1      39.553  34.026  36.920  1.00  0.00     0.064 A 
ATOM     75  C   UNL A   1      38.781  33.626  38.018  1.00  0.00     0.173 A 
ATOM     76  C   UNL A   1      40.199  35.269  36.994  1.00  0.00     0.173 A 
ATOM     77  F   UNL A   1      38.128  32.455  37.987  1.00  0.00    -0.203 F 
ATOM     78  C   UNL A   1      38.646  34.443  39.139  1.00  0.00     0.198 A 
ATOM     79  C   UNL A   1      40.087  36.072  38.127  1.00  0.00     0.198 A 
ATOM     80  F   UNL A   1      40.957  35.695  35.973  1.00  0.00    -0.203 F 
ATOM     81  F   UNL A   1      37.867  34.055  40.158  1.00  0.00    -0.200 F 
ATOM     82  C   UNL A   1      39.305  35.662  39.196  1.00  0.00     0.200 A 
ATOM     83  F   UNL A   1      40.741  37.240  38.184  1.00  0.00    -0.200 F 
ATOM     84  F   UNL A   1      39.183  36.443  40.277  1.00  0.00    -0.200 F 
ENDBRANCH  50  74
BRANCH  62  85
ATOM     85  C   UNL A   1      43.781  28.725  35.289  1.00  0.00     0.064 A 
ATOM     86  C   UNL A   1      45.107  29.158  35.129  1.00  0.00     0.173 A 
ATOM     87  C   UNL A   1      43.537  27.680  36.192  1.00  0.00     0.173 A 
ATOM     88  F   UNL A   1      45.395  30.144  34.264  1.00  0.00    -0.203 F 
ATOM     89  C   UNL A   1      46.147  28.553  35.829  1.00  0.00     0.198 A 
ATOM     90  C   UNL A   1      44.575  27.099  36.914  1.00  0.00     0.198 A 
ATOM     91  F   UNL A   1      42.288  27.232  36.386  1.00  0.00    -0.203 F 
ATOM     92  F   UNL A   1      47.410  28.951  35.624  1.00  0.00    -0.200 F 
ATOM     93  C   UNL A   1      45.880  27.530  36.726  1.00  0.00     0.200 A 
ATOM     94  F   UNL A   1      44.314  26.121  37.792  1.00  0.00    -0.200 F 
ATOM     95  F   UNL A   1      46.881  26.955  37.406  1.00  0.00    -0.200 F 
ENDBRANCH  62  85
ENDBRANCH  36  37
ENDBRANCH  28  31
ENDBRANCH  26  27
ENDBRANCH   1  26
TORSDOF 13
ENDMDL
MODEL 2
REMARK VINA RESULT:     -13.0      0.074      1.122
REMARK SMILES CC[C@]1(C(=O)NCCCNC(=O)c2ccc(-c3c4nc(c(-c5c(F)c(F)c(F)c(F)c5F)c5ccc([nH]5)c(-c5c(F)c(F)c(F)c(F)c5F)c5nc(c(-c6c(F)c(F)c(F)c(F)c6F)c6ccc3[nH]6)C=C5)C=C4)cc2)CCC[N@@H+]([C@@H]2CCC[C@H](S(C)(=O)=O)C2)C1
REMARK SMILES IDX 8 1 7 2 6 3 4 4 5 5 3 7 76 8 90 9 77 10 79 11 78 12 2 14
REMARK SMILES IDX 1 15 80 16 81 17 89 18 82 19 84 20 83 21 85 22 86 23 87 24
REMARK SMILES IDX 88 25 9 26 10 27 11 28 12 30 13 31 14 32 75 33 15 34 74 35
REMARK SMILES IDX 16 36 17 37 18 38 68 39 19 40 73 41 67 42 69 43 20 44 72 45
REMARK SMILES IDX 66 46 65 47 21 49 53 50 33 51 52 52 34 53 37 54 51 55 70 56
REMARK SMILES IDX 35 57 36 58 50 60 71 61 38 62 22 63 23 64 31 65 24 66 25 67
REMARK SMILES IDX 29 68 32 69 26 70 27 71 30 72 28 73 54 74 55 75 63 76 56 77
REMARK SMILES IDX 57 78 61 79 64 80 58 81 59 82 62 83 60 84 39 85 40 86 48 87
REMARK SMILES IDX 41 88 42 89 46 90 49 91 43 92 44 93 47 94 45 95
REMARK H PARENT 6 6 79 13 10 29 69 48 37 59
REMARK Flexibility Score: inf
ROOT
ATOM      1  C   UNL A   1      31.490  32.048  26.769  1.00  0.00     0.042 C 
ENDROOT
BRANCH   1   2
ATOM      2  C   UNL A   1      31.823  30.716  26.114  1.00  0.00     0.117 C 
BRANCH   2   3
ATOM      3  N   UNL A   1      31.735  29.610  27.057  1.00  0.00    -0.355 N 
ATOM      4  C   UNL A   1      31.693  28.256  26.895  1.00  0.00     0.231 C 
ATOM      5  O   UNL A   1      31.449  27.619  27.922  1.00  0.00    -0.274 OA
ATOM      6  H   UNL A   1      31.697  29.896  27.999  1.00  0.00     0.163 HD
BRANCH   4   7
ATOM      7  C   UNL A   1      31.896  27.583  25.517  1.00  0.00     0.098 C 
ATOM      8  C   UNL A   1      33.140  28.243  24.870  1.00  0.00     0.028 C 
ATOM      9  C   UNL A   1      32.059  26.037  25.722  1.00  0.00     0.279 C 
ATOM     10  C   UNL A   1      33.704  27.406  23.740  1.00  0.00     0.063 C 
ATOM     11  N   UNL A   1      32.865  25.290  24.731  1.00  0.00    -0.332 N 
ATOM     12  C   UNL A   1      34.046  26.014  24.248  1.00  0.00     0.262 C 
ATOM     13  H   UNL A   1      32.277  25.206  23.902  1.00  0.00     0.348 HD
BRANCH   7  14
ATOM     14  C   UNL A   1      30.699  27.835  24.535  1.00  0.00     0.019 C 
ATOM     15  C   UNL A   1      29.758  26.666  24.252  1.00  0.00     0.005 C 
ENDBRANCH   7  14
BRANCH  11  16
ATOM     16  C   UNL A   1      33.156  23.899  25.181  1.00  0.00     0.185 C 
ATOM     17  C   UNL A   1      33.002  23.663  26.702  1.00  0.00     0.065 C 
ATOM     18  C   UNL A   1      34.551  23.447  24.701  1.00  0.00     0.084 C 
ATOM     19  C   UNL A   1      33.339  22.228  27.096  1.00  0.00     0.007 C 
ATOM     20  C   UNL A   1      34.940  22.031  25.159  1.00  0.00     0.114 C 
ATOM     21  C   UNL A   1      34.751  21.858  26.666  1.00  0.00     0.020 C 
BRANCH  20  22
ATOM     22  S   UNL A   1      36.655  21.718  24.670  1.00  0.00     0.150 S 
ATOM     23  C   UNL A   1      37.641  22.654  25.814  1.00  0.00     0.158 C 
ATOM     24  O   UNL A   1      36.935  20.316  24.925  1.00  0.00    -0.229 OA
ATOM     25  O   UNL A   1      36.870  22.285  23.354  1.00  0.00    -0.229 OA
ENDBRANCH  20  22
ENDBRANCH  11  16
ENDBRANCH   4   7
ENDBRANCH   2   3
ENDBRANCH   1   2
BRANCH   1  26
ATOM     26  C   UNL A   1      32.703  32.768  27.339  1.00  0.00     0.118 C 
BRANCH  26  27
ATOM     27  N   UNL A   1      32.433  34.168  27.641  1.00  0.00    -0.352 N 
ATOM     28  C   UNL A   1      32.981  34.981  28.601  1.00  0.00     0.251 C 
ATOM     29  H   UNL A   1      31.754  34.593  27.070  1.00  0.00     0.163 HD
ATOM     30  O   UNL A   1      32.484  36.079  28.833  1.00  0.00    -0.269 OA
BRANCH  28  31
ATOM     31  C   UNL A   1      34.154  34.523  29.374  1.00  0.00     0.039 A 
ATOM     32  C   UNL A   1      33.956  33.985  30.648  1.00  0.00     0.014 A 
ATOM     33  C   UNL A   1      35.442  34.609  28.840  1.00  0.00     0.014 A 
ATOM     34  C   UNL A   1      35.040  33.458  31.351  1.00  0.00     0.010 A 
ATOM     35  C   UNL A   1      36.504  34.000  29.499  1.00  0.00     0.010 A 
ATOM     36  C   UNL A   1      36.315  33.416  30.760  1.00  0.00    -0.014 A 
BRANCH  36  37
ATOM     37  C   UNL A   1      37.455  32.750  31.436  1.00  0.00     0.031 A 
ATOM     38  C   UNL A   1      38.131  31.570  30.796  1.00  0.00     0.074 A 
ATOM     39  C   UNL A   1      37.825  33.157  32.666  1.00  0.00     0.049 A 
ATOM     40  N   UNL A   1      39.090  30.811  31.264  1.00  0.00    -0.248 NA
ATOM     41  C   UNL A   1      37.644  31.169  29.467  1.00  0.00     0.031 C 
ATOM     42  C   UNL A   1      37.203  34.249  33.417  1.00  0.00     0.029 A 
ATOM     43  N   UNL A   1      38.803  32.690  33.508  1.00  0.00    -0.354 N 
ATOM     44  C   UNL A   1      39.306  29.838  30.299  1.00  0.00     0.074 A 
ATOM     45  C   UNL A   1      38.343  30.066  29.244  1.00  0.00     0.031 C 
ATOM     46  C   UNL A   1      37.826  34.382  34.598  1.00  0.00     0.029 A 
ATOM     47  C   UNL A   1      38.862  33.359  34.706  1.00  0.00     0.049 A 
ATOM     48  H   UNL A   1      39.405  31.946  33.276  1.00  0.00     0.167 HD
ATOM     49  C   UNL A   1      40.238  28.855  30.285  1.00  0.00     0.037 A 
ATOM     50  C   UNL A   1      39.653  33.162  35.778  1.00  0.00     0.037 A 
ATOM     51  C   UNL A   1      41.210  28.650  31.327  1.00  0.00     0.049 A 
ATOM     52  C   UNL A   1      40.681  32.065  35.738  1.00  0.00     0.074 A 
ATOM     53  C   UNL A   1      42.252  27.740  31.367  1.00  0.00     0.029 A 
ATOM     54  N   UNL A   1      41.253  29.360  32.519  1.00  0.00    -0.354 N 
ATOM     55  N   UNL A   1      40.939  31.208  34.780  1.00  0.00    -0.248 NA
ATOM     56  C   UNL A   1      41.533  31.913  36.925  1.00  0.00     0.031 C 
ATOM     57  C   UNL A   1      42.887  27.860  32.608  1.00  0.00     0.029 A 
ATOM     58  C   UNL A   1      42.280  28.883  33.317  1.00  0.00     0.049 A 
ATOM     59  H   UNL A   1      40.642  30.094  32.761  1.00  0.00     0.167 HD
ATOM     60  C   UNL A   1      41.990  30.427  35.238  1.00  0.00     0.074 A 
ATOM     61  C   UNL A   1      42.338  30.927  36.552  1.00  0.00     0.031 C 
ATOM     62  C   UNL A   1      42.609  29.387  34.627  1.00  0.00     0.037 A 
BRANCH  49  63
ATOM     63  C   UNL A   1      40.249  27.924  29.107  1.00  0.00     0.064 A 
ATOM     64  C   UNL A   1      39.528  26.721  29.108  1.00  0.00     0.173 A 
ATOM     65  C   UNL A   1      40.966  28.255  27.946  1.00  0.00     0.173 A 
ATOM     66  F   UNL A   1      38.834  26.350  30.194  1.00  0.00    -0.203 F 
ATOM     67  C   UNL A   1      39.552  25.868  28.008  1.00  0.00     0.198 A 
ATOM     68  C   UNL A   1      40.961  27.417  26.835  1.00  0.00     0.198 A 
ATOM     69  F   UNL A   1      41.669  29.397  27.887  1.00  0.00    -0.203 F 
ATOM     70  F   UNL A   1      38.901  24.698  28.054  1.00  0.00    -0.200 F 
ATOM     71  C   UNL A   1      40.262  26.220  26.869  1.00  0.00     0.200 A 
ATOM     72  F   UNL A   1      41.636  27.765  25.731  1.00  0.00    -0.200 F 
ATOM     73  F   UNL A   1      40.279  25.401  25.808  1.00  0.00    -0.200 F 
ENDBRANCH  49  63
BRANCH  50  74
ATOM     74  C   UNL A   1      39.508  34.034  36.973  1.00  0.00     0.064 A 
ATOM     75  C   UNL A   1      38.768  33.614  38.086  1.00  0.00     0.173 A 
ATOM     76  C   UNL A   1      40.116  35.297  37.033  1.00  0.00     0.173 A 
ATOM     77  F   UNL A   1      38.151  32.423  38.070  1.00  0.00    -0.203 F 
ATOM     78  C   UNL A   1      38.627  34.431  39.207  1.00  0.00     0.198 A 
ATOM     79  C   UNL A   1      39.999  36.100  38.165  1.00  0.00     0.198 A 
ATOM     80  F   UNL A   1      40.842  35.742  35.997  1.00  0.00    -0.203 F 
ATOM     81  F   UNL A   1      37.879  34.022  40.241  1.00  0.00    -0.200 F 
ATOM     82  C   UNL A   1      39.249  35.670  39.249  1.00  0.00     0.200 A 
ATOM     83  F   UNL A   1      40.617  37.288  38.207  1.00  0.00    -0.200 F 
ATOM     84  F   UNL A   1      39.121  36.450  40.329  1.00  0.00    -0.200 F 
ENDBRANCH  50  74
BRANCH  62  85
ATOM     85  C   UNL A   1      43.738  28.728  35.366  1.00  0.00     0.064 A 
ATOM     86  C   UNL A   1      45.069  29.138  35.189  1.00  0.00     0.173 A 
ATOM     87  C   UNL A   1      43.484  27.706  36.292  1.00  0.00     0.173 A 
ATOM     88  F   UNL A   1      45.366  30.100  34.302  1.00  0.00    -0.203 F 
ATOM     89  C   UNL A   1      46.104  28.531  35.895  1.00  0.00     0.198 A 
ATOM     90  C   UNL A   1      44.518  27.124  37.019  1.00  0.00     0.198 A 
ATOM     91  F   UNL A   1      42.229  27.281  36.503  1.00  0.00    -0.203 F 
ATOM     92  F   UNL A   1      47.372  28.906  35.674  1.00  0.00    -0.200 F 
ATOM     93  C   UNL A   1      45.828  27.531  36.815  1.00  0.00     0.200 A 
ATOM     94  F   UNL A   1      44.247  26.169  37.919  1.00  0.00    -0.200 F 
ATOM     95  F   UNL A   1      46.824  26.955  37.500  1.00  0.00    -0.200 F 
ENDBRANCH  62  85
ENDBRANCH  36  37
ENDBRANCH  28  31
ENDBRANCH  26  27
ENDBRANCH   1  26
TORSDOF 13
ENDMDL
MODEL 3
REMARK VINA RESULT:     -12.9      0.060      1.122
REMARK SMILES CC[C@]1(C(=O)NCCCNC(=O)c2ccc(-c3c4nc(c(-c5c(F)c(F)c(F)c(F)c5F)c5ccc([nH]5)c(-c5c(F)c(F)c(F)c(F)c5F)c5nc(c(-c6c(F)c(F)c(F)c(F)c6F)c6ccc3[nH]6)C=C5)C=C4)cc2)CCC[N@@H+]([C@@H]2CCC[C@H](S(C)(=O)=O)C2)C1
REMARK SMILES IDX 8 1 7 2 6 3 4 4 5 5 3 7 76 8 90 9 77 10 79 11 78 12 2 14
REMARK SMILES IDX 1 15 80 16 81 17 89 18 82 19 84 20 83 21 85 22 86 23 87 24
REMARK SMILES IDX 88 25 9 26 10 27 11 28 12 30 13 31 14 32 75 33 15 34 74 35
REMARK SMILES IDX 16 36 17 37 18 38 68 39 19 40 73 41 67 42 69 43 20 44 72 45
REMARK SMILES IDX 66 46 65 47 21 49 53 50 33 51 52 52 34 53 37 54 51 55 70 56
REMARK SMILES IDX 35 57 36 58 50 60 71 61 38 62 22 63 23 64 31 65 24 66 25 67
REMARK SMILES IDX 29 68 32 69 26 70 27 71 30 72 28 73 54 74 55 75 63 76 56 77
REMARK SMILES IDX 57 78 61 79 64 80 58 81 59 82 62 83 60 84 39 85 40 86 48 87
REMARK SMILES IDX 41 88 42 89 46 90 49 91 43 92 44 93 47 94 45 95
REMARK H PARENT 6 6 79 13 10 29 69 48 37 59
REMARK Flexibility Score: inf
ROOT
ATOM      1  C   UNL A   1      31.503  32.015  26.812  1.00  0.00     0.042 C 
ENDROOT
BRANCH   1   2
ATOM      2  C   UNL A   1      31.823  30.689  26.140  1.00  0.00     0.117 C 
BRANCH   2   3
ATOM      3  N   UNL A   1      31.716  29.570  27.066  1.00  0.00    -0.355 N 
ATOM      4  C   UNL A   1      31.664  28.219  26.883  1.00  0.00     0.231 C 
ATOM      5  O   UNL A   1      31.404  27.569  27.898  1.00  0.00    -0.274 OA
ATOM      6  H   UNL A   1      31.671  29.842  28.011  1.00  0.00     0.163 HD
BRANCH   4   7
ATOM      7  C   UNL A   1      31.875  27.563  25.498  1.00  0.00     0.098 C 
ATOM      8  C   UNL A   1      33.110  28.248  24.857  1.00  0.00     0.028 C 
ATOM      9  C   UNL A   1      32.058  26.018  25.684  1.00  0.00     0.279 C 
ATOM     10  C   UNL A   1      33.684  27.431  23.717  1.00  0.00     0.063 C 
ATOM     11  N   UNL A   1      32.874  25.293  24.685  1.00  0.00    -0.332 N 
ATOM     12  C   UNL A   1      34.044  26.038  24.209  1.00  0.00     0.262 C 
ATOM     13  H   UNL A   1      32.286  25.211  23.855  1.00  0.00     0.348 HD
BRANCH   7  14
ATOM     14  C   UNL A   1      30.674  27.811  24.519  1.00  0.00     0.019 C 
ATOM     15  C   UNL A   1      29.686  26.667  24.308  1.00  0.00     0.005 C 
ENDBRANCH   7  14
BRANCH  11  16
ATOM     16  C   UNL A   1      33.183  23.900  25.118  1.00  0.00     0.185 C 
ATOM     17  C   UNL A   1      33.017  23.641  26.635  1.00  0.00     0.065 C 
ATOM     18  C   UNL A   1      34.591  23.478  24.648  1.00  0.00     0.084 C 
ATOM     19  C   UNL A   1      33.373  22.207  27.012  1.00  0.00     0.007 C 
ATOM     20  C   UNL A   1      34.999  22.064  25.090  1.00  0.00     0.114 C 
ATOM     21  C   UNL A   1      34.796  21.866  26.593  1.00  0.00     0.020 C 
BRANCH  20  22
ATOM     22  S   UNL A   1      36.724  21.785  24.616  1.00  0.00     0.150 S 
ATOM     23  C   UNL A   1      37.679  22.767  25.748  1.00  0.00     0.158 C 
ATOM     24  O   UNL A   1      37.037  20.396  24.897  1.00  0.00    -0.229 OA
ATOM     25  O   UNL A   1      36.931  22.334  23.291  1.00  0.00    -0.229 OA
ENDBRANCH  20  22
ENDBRANCH  11  16
ENDBRANCH   4   7
ENDBRANCH   2   3
ENDBRANCH   1   2
BRANCH   1  26
ATOM     26  C   UNL A   1      32.733  32.769  27.292  1.00  0.00     0.118 C 
BRANCH  26  27
ATOM     27  N   UNL A   1      32.448  34.162  27.612  1.00  0.00    -0.352 N 
ATOM     28  C   UNL A   1      32.983  34.968  28.585  1.00  0.00     0.251 C 
ATOM     29  H   UNL A   1      31.766  34.588  27.043  1.00  0.00     0.163 HD
ATOM     30  O   UNL A   1      32.474  36.057  28.829  1.00  0.00    -0.269 OA
BRANCH  28  31
ATOM     31  C   UNL A   1      34.157  34.511  29.356  1.00  0.00     0.039 A 
ATOM     32  C   UNL A   1      33.957  33.922  30.607  1.00  0.00     0.014 A 
ATOM     33  C   UNL A   1      35.449  34.649  28.844  1.00  0.00     0.014 A 
ATOM     34  C   UNL A   1      35.046  33.397  31.305  1.00  0.00     0.010 A 
ATOM     35  C   UNL A   1      36.519  34.043  29.494  1.00  0.00     0.010 A 
ATOM     36  C   UNL A   1      36.328  33.409  30.731  1.00  0.00    -0.014 A 
BRANCH  36  37
ATOM     37  C   UNL A   1      37.477  32.747  31.397  1.00  0.00     0.031 A 
ATOM     38  C   UNL A   1      38.152  31.570  30.752  1.00  0.00     0.074 A 
ATOM     39  C   UNL A   1      37.855  33.155  32.624  1.00  0.00     0.049 A 
ATOM     40  N   UNL A   1      39.118  30.815  31.212  1.00  0.00    -0.248 NA
ATOM     41  C   UNL A   1      37.656  31.167  29.427  1.00  0.00     0.031 C 
ATOM     42  C   UNL A   1      37.234  34.245  33.381  1.00  0.00     0.029 A 
ATOM     43  N   UNL A   1      38.841  32.693  33.459  1.00  0.00    -0.354 N 
ATOM     44  C   UNL A   1      39.330  29.842  30.245  1.00  0.00     0.074 A 
ATOM     45  C   UNL A   1      38.357  30.067  29.198  1.00  0.00     0.031 C 
ATOM     46  C   UNL A   1      37.867  34.380  34.557  1.00  0.00     0.029 A 
ATOM     47  C   UNL A   1      38.908  33.362  34.656  1.00  0.00     0.049 A 
ATOM     48  H   UNL A   1      39.444  31.951  33.221  1.00  0.00     0.167 HD
ATOM     49  C   UNL A   1      40.266  28.864  30.224  1.00  0.00     0.037 A 
ATOM     50  C   UNL A   1      39.708  33.168  35.722  1.00  0.00     0.037 A 
ATOM     51  C   UNL A   1      41.247  28.662  31.257  1.00  0.00     0.049 A 
ATOM     52  C   UNL A   1      40.740  32.075  35.673  1.00  0.00     0.074 A 
ATOM     53  C   UNL A   1      42.293  27.757  31.289  1.00  0.00     0.029 A 
ATOM     54  N   UNL A   1      41.296  29.372  32.449  1.00  0.00    -0.354 N 
ATOM     55  N   UNL A   1      40.993  31.219  34.713  1.00  0.00    -0.248 NA
ATOM     56  C   UNL A   1      41.602  31.926  36.853  1.00  0.00     0.031 C 
ATOM     57  C   UNL A   1      42.938  27.879  32.525  1.00  0.00     0.029 A 
ATOM     58  C   UNL A   1      42.332  28.900  33.239  1.00  0.00     0.049 A 
ATOM     59  H   UNL A   1      40.685  30.104  32.697  1.00  0.00     0.167 HD
ATOM     60  C   UNL A   1      42.051  30.442  35.163  1.00  0.00     0.074 A 
ATOM     61  C   UNL A   1      42.408  30.943  36.474  1.00  0.00     0.031 C 
ATOM     62  C   UNL A   1      42.669  29.404  34.547  1.00  0.00     0.037 A 
BRANCH  49  63
ATOM     63  C   UNL A   1      40.272  27.933  29.045  1.00  0.00     0.064 A 
ATOM     64  C   UNL A   1      41.007  28.214  27.884  1.00  0.00     0.173 A 
ATOM     65  C   UNL A   1      39.557  26.726  29.090  1.00  0.00     0.173 A 
ATOM     66  F   UNL A   1      41.700  29.357  27.783  1.00  0.00    -0.203 F 
ATOM     67  C   UNL A   1      40.998  27.340  26.800  1.00  0.00     0.198 A 
ATOM     68  C   UNL A   1      39.577  25.838  28.018  1.00  0.00     0.198 A 
ATOM     69  F   UNL A   1      38.841  26.403  30.178  1.00  0.00    -0.203 F 
ATOM     70  F   UNL A   1      41.663  27.657  25.680  1.00  0.00    -0.200 F 
ATOM     71  C   UNL A   1      40.290  26.149  26.870  1.00  0.00     0.200 A 
ATOM     72  F   UNL A   1      38.903  24.683  28.093  1.00  0.00    -0.200 F 
ATOM     73  F   UNL A   1      40.287  25.306  25.828  1.00  0.00    -0.200 F 
ENDBRANCH  49  63
BRANCH  50  74
ATOM     74  C   UNL A   1      39.569  34.039  36.918  1.00  0.00     0.064 A 
ATOM     75  C   UNL A   1      38.793  33.639  38.014  1.00  0.00     0.173 A 
ATOM     76  C   UNL A   1      40.218  35.280  36.996  1.00  0.00     0.173 A 
ATOM     77  F   UNL A   1      38.137  32.470  37.980  1.00  0.00    -0.203 F 
ATOM     78  C   UNL A   1      38.657  34.456  39.136  1.00  0.00     0.198 A 
ATOM     79  C   UNL A   1      40.106  36.082  38.129  1.00  0.00     0.198 A 
ATOM     80  F   UNL A   1      40.978  35.705  35.976  1.00  0.00    -0.203 F 
ATOM     81  F   UNL A   1      37.876  34.068  40.153  1.00  0.00    -0.200 F 
ATOM     82  C   UNL A   1      39.320  35.673  39.196  1.00  0.00     0.200 A 
ATOM     83  F   UNL A   1      40.762  37.248  38.189  1.00  0.00    -0.200 F 
ATOM     84  F   UNL A   1      39.197  36.453  40.278  1.00  0.00    -0.200 F 
ENDBRANCH  50  74
BRANCH  62  85
ATOM     85  C   UNL A   1      43.807  28.750  35.276  1.00  0.00     0.064 A 
ATOM     86  C   UNL A   1      43.593  27.693  36.174  1.00  0.00     0.173 A 
ATOM     87  C   UNL A   1      45.130  29.156  35.043  1.00  0.00     0.173 A 
ATOM     88  F   UNL A   1      42.346  27.278  36.442  1.00  0.00    -0.203 F 
ATOM     89  C   UNL A   1      44.660  27.083  36.828  1.00  0.00     0.198 A 
ATOM     90  C   UNL A   1      46.196  28.523  35.675  1.00  0.00     0.198 A 
ATOM     91  F   UNL A   1      45.390  30.159  34.191  1.00  0.00    -0.203 F 
ATOM     92  F   UNL A   1      44.428  26.107  37.717  1.00  0.00    -0.200 F 
ATOM     93  C   UNL A   1      45.960  27.492  36.573  1.00  0.00     0.200 A 
ATOM     94  F   UNL A   1      47.452  28.909  35.416  1.00  0.00    -0.200 F 
ATOM     95  F   UNL A   1      46.985  26.898  37.197  1.00  0.00    -0.200 F 
ENDBRANCH  62  85
ENDBRANCH  36  37
ENDBRANCH  28  31
ENDBRANCH  26  27
ENDBRANCH   1  26
TORSDOF 13
ENDMDL
