MODEL 1
REMARK VINA RESULT:     -12.1      0.000      0.000
REMARK SMILES CO[C@H]1C[C@H](C(=O)NCCCNC(=O)c2ccc(-c3c4nc(c(-c5c(F)c(F)c(F)c(F)c5F)c5ccc([nH]5)c(-c5c(F)c(F)c(F)c(F)c5F)c5nc(c(-c6c(F)c(F)c(F)c(F)c6F)c6ccc3[nH]6)C=C5)C=C4)cc2)N(C(=O)[C@H]2C=C[C@@H]([NH3+])C2)C1
REMARK SMILES IDX 9 1 8 2 6 3 7 4 5 6 3 7 4 8 87 9 78 10 2 11 1 12 79 13 80 14
REMARK SMILES IDX 81 15 82 16 86 17 83 18 84 19 85 20 10 24 11 25 12 26 13 27
REMARK SMILES IDX 14 29 15 30 16 31 77 32 17 33 76 34 18 35 19 36 20 37 70 38
REMARK SMILES IDX 21 39 75 40 69 41 71 42 22 43 74 44 68 45 67 46 23 48 55 49
REMARK SMILES IDX 35 50 54 51 36 52 39 53 53 54 72 55 37 56 38 57 52 59 73 60
REMARK SMILES IDX 40 61 24 62 25 63 33 64 26 65 27 66 31 67 34 68 28 69 29 70
REMARK SMILES IDX 32 71 30 72 56 73 57 74 65 75 58 76 59 77 63 78 66 79 60 80
REMARK SMILES IDX 61 81 64 82 62 83 41 84 42 85 50 86 43 87 44 88 48 89 51 90
REMARK SMILES IDX 45 91 46 92 49 93 47 94
REMARK H PARENT 8 5 85 21 85 22 85 23 12 28 71 47 39 58
REMARK Flexibility Score: inf
ROOT
ATOM      1  C   UNL A   1      31.121  30.807  25.398  1.00  0.00     0.117 C 
ENDROOT
BRANCH   1   2
ATOM      2  N   UNL A   1      32.377  30.088  25.475  1.00  0.00    -0.354 N 
ATOM      3  C   UNL A   1      32.959  29.171  24.658  1.00  0.00     0.242 C 
ATOM      4  O   UNL A   1      33.925  28.564  25.143  1.00  0.00    -0.273 OA
ATOM      5  H   UNL A   1      32.912  30.305  26.273  1.00  0.00     0.163 HD
BRANCH   3   6
ATOM      6  C   UNL A   1      32.402  28.720  23.285  1.00  0.00     0.177 C 
ATOM      7  C   UNL A   1      33.243  26.624  22.387  1.00  0.00     0.139 C 
ATOM      8  C   UNL A   1      33.503  28.129  22.404  1.00  0.00     0.069 C 
ATOM      9  C   UNL A   1      31.732  26.519  22.564  1.00  0.00     0.152 C 
ATOM     10  N   UNL A   1      31.310  27.749  23.221  1.00  0.00    -0.327 N 
BRANCH   7  11
ATOM     11  O   UNL A   1      33.665  26.006  21.177  1.00  0.00    -0.380 OA
ATOM     12  C   UNL A   1      32.579  25.517  20.397  1.00  0.00     0.195 C 
ENDBRANCH   7  11
BRANCH  10  13
ATOM     13  C   UNL A   1      29.961  27.935  23.433  1.00  0.00     0.230 C 
ATOM     14  O   UNL A   1      29.401  27.345  24.367  1.00  0.00    -0.274 OA
BRANCH  13  15
ATOM     15  C   UNL A   1      29.098  28.798  22.499  1.00  0.00     0.107 C 
ATOM     16  C   UNL A   1      27.872  29.404  23.097  1.00  0.00    -0.012 C 
ATOM     17  C   UNL A   1      29.849  29.992  21.889  1.00  0.00     0.087 C 
ATOM     18  C   UNL A   1      27.738  30.689  22.747  1.00  0.00     0.033 C 
ATOM     19  C   UNL A   1      28.846  31.158  21.865  1.00  0.00     0.205 C 
BRANCH  19  20
ATOM     20  N   UNL A   1      29.435  32.391  22.355  1.00  0.00    -0.352 N 
ATOM     21  H   UNL A   1      30.451  32.340  22.272  1.00  0.00     0.345 HD
ATOM     22  H   UNL A   1      29.180  32.524  23.334  1.00  0.00     0.345 HD
ATOM     23  H   UNL A   1      29.088  33.176  21.804  1.00  0.00     0.345 HD
ENDBRANCH  19  20
ENDBRANCH  13  15
ENDBRANCH  10  13
ENDBRANCH   3   6
ENDBRANCH   1   2
BRANCH   1  24
ATOM     24  C   UNL A   1      31.044  31.899  26.467  1.00  0.00     0.042 C 
BRANCH  24  25
ATOM     25  C   UNL A   1      32.396  32.441  26.916  1.00  0.00     0.118 C 
BRANCH  25  26
ATOM     26  N   UNL A   1      32.314  33.822  27.365  1.00  0.00    -0.352 N 
ATOM     27  C   UNL A   1      33.018  34.489  28.338  1.00  0.00     0.251 C 
ATOM     28  H   UNL A   1      31.644  34.369  26.895  1.00  0.00     0.163 HD
ATOM     29  O   UNL A   1      32.641  35.605  28.684  1.00  0.00    -0.269 OA
BRANCH  27  30
ATOM     30  C   UNL A   1      34.213  33.893  28.983  1.00  0.00     0.039 A 
ATOM     31  C   UNL A   1      34.041  32.751  29.775  1.00  0.00     0.014 A 
ATOM     32  C   UNL A   1      35.477  34.477  28.886  1.00  0.00     0.014 A 
ATOM     33  C   UNL A   1      35.135  32.178  30.432  1.00  0.00     0.010 A 
ATOM     34  C   UNL A   1      36.582  33.864  29.479  1.00  0.00     0.010 A 
ATOM     35  C   UNL A   1      36.420  32.718  30.272  1.00  0.00    -0.014 A 
BRANCH  35  36
ATOM     36  C   UNL A   1      37.597  32.118  30.951  1.00  0.00     0.031 A 
ATOM     37  C   UNL A   1      38.419  31.067  30.254  1.00  0.00     0.074 A 
ATOM     38  C   UNL A   1      37.899  32.478  32.213  1.00  0.00     0.049 A 
ATOM     39  N   UNL A   1      39.435  30.372  30.703  1.00  0.00    -0.248 NA
ATOM     40  C   UNL A   1      38.028  30.731  28.876  1.00  0.00     0.031 C 
ATOM     41  C   UNL A   1      37.160  33.455  33.012  1.00  0.00     0.029 A 
ATOM     42  N   UNL A   1      38.903  32.054  33.050  1.00  0.00    -0.354 N 
ATOM     43  C   UNL A   1      39.786  29.507  29.675  1.00  0.00     0.074 A 
ATOM     44  C   UNL A   1      38.846  29.729  28.597  1.00  0.00     0.031 C 
ATOM     45  C   UNL A   1      37.748  33.575  34.214  1.00  0.00     0.029 A 
ATOM     46  C   UNL A   1      38.882  32.659  34.282  1.00  0.00     0.049 A 
ATOM     47  H   UNL A   1      39.573  31.383  32.790  1.00  0.00     0.167 HD
ATOM     48  C   UNL A   1      40.813  28.624  29.624  1.00  0.00     0.037 A 
ATOM     49  C   UNL A   1      39.688  32.491  35.349  1.00  0.00     0.037 A 
ATOM     50  C   UNL A   1      41.768  28.431  30.683  1.00  0.00     0.049 A 
ATOM     51  C   UNL A   1      40.828  31.514  35.264  1.00  0.00     0.074 A 
ATOM     52  C   UNL A   1      42.877  27.603  30.707  1.00  0.00     0.029 A 
ATOM     53  N   UNL A   1      41.728  29.080  31.908  1.00  0.00    -0.354 N 
ATOM     54  N   UNL A   1      41.183  30.741  34.266  1.00  0.00    -0.248 NA
ATOM     55  C   UNL A   1      41.686  31.393  36.451  1.00  0.00     0.031 C 
ATOM     56  C   UNL A   1      43.489  27.725  31.959  1.00  0.00     0.029 A 
ATOM     57  C   UNL A   1      42.785  28.661  32.700  1.00  0.00     0.049 A 
ATOM     58  H   UNL A   1      41.050  29.742  32.175  1.00  0.00     0.167 HD
ATOM     59  C   UNL A   1      42.316  30.062  34.693  1.00  0.00     0.074 A 
ATOM     60  C   UNL A   1      42.599  30.525  36.037  1.00  0.00     0.031 C 
ATOM     61  C   UNL A   1      43.056  29.139  34.032  1.00  0.00     0.037 A 
BRANCH  48  62
ATOM     62  C   UNL A   1      40.956  27.801  28.376  1.00  0.00     0.064 A 
ATOM     63  C   UNL A   1      40.328  26.553  28.241  1.00  0.00     0.173 A 
ATOM     64  C   UNL A   1      41.712  28.275  27.293  1.00  0.00     0.173 A 
ATOM     65  F   UNL A   1      39.605  26.049  29.253  1.00  0.00    -0.203 F 
ATOM     66  C   UNL A   1      40.480  25.796  27.083  1.00  0.00     0.198 A 
ATOM     67  C   UNL A   1      41.836  27.528  26.124  1.00  0.00     0.198 A 
ATOM     68  F   UNL A   1      42.328  29.464  27.366  1.00  0.00    -0.203 F 
ATOM     69  F   UNL A   1      39.914  24.583  26.999  1.00  0.00    -0.200 F 
ATOM     70  C   UNL A   1      41.227  26.286  26.023  1.00  0.00     0.200 A 
ATOM     71  F   UNL A   1      42.549  28.008  25.096  1.00  0.00    -0.200 F 
ATOM     72  F   UNL A   1      41.370  25.556  24.908  1.00  0.00    -0.200 F 
ENDBRANCH  48  62
BRANCH  49  73
ATOM     73  C   UNL A   1      39.465  33.296  36.577  1.00  0.00     0.064 A 
ATOM     74  C   UNL A   1      38.618  32.833  37.594  1.00  0.00     0.173 A 
ATOM     75  C   UNL A   1      40.093  34.536  36.763  1.00  0.00     0.173 A 
ATOM     76  F   UNL A   1      37.980  31.663  37.450  1.00  0.00    -0.203 F 
ATOM     77  C   UNL A   1      38.399  33.586  38.745  1.00  0.00     0.198 A 
ATOM     78  C   UNL A   1      39.892  35.276  37.926  1.00  0.00     0.198 A 
ATOM     79  F   UNL A   1      40.916  35.021  35.822  1.00  0.00    -0.203 F 
ATOM     80  F   UNL A   1      37.556  33.137  39.686  1.00  0.00    -0.200 F 
ATOM     81  C   UNL A   1      39.040  34.804  38.914  1.00  0.00     0.200 A 
ATOM     82  F   UNL A   1      40.525  36.445  38.092  1.00  0.00    -0.200 F 
ATOM     83  F   UNL A   1      38.833  35.525  40.024  1.00  0.00    -0.200 F 
ENDBRANCH  49  73
BRANCH  61  84
ATOM     84  C   UNL A   1      44.261  28.593  34.739  1.00  0.00     0.064 A 
ATOM     85  C   UNL A   1      44.196  27.421  35.506  1.00  0.00     0.173 A 
ATOM     86  C   UNL A   1      45.505  29.232  34.616  1.00  0.00     0.173 A 
ATOM     87  F   UNL A   1      43.025  26.785  35.666  1.00  0.00    -0.203 F 
ATOM     88  C   UNL A   1      45.326  26.920  36.144  1.00  0.00     0.198 A 
ATOM     89  C   UNL A   1      46.639  28.714  35.233  1.00  0.00     0.198 A 
ATOM     90  F   UNL A   1      45.621  30.353  33.888  1.00  0.00    -0.203 F 
ATOM     91  F   UNL A   1      45.232  25.823  36.909  1.00  0.00    -0.200 F 
ATOM     92  C   UNL A   1      46.548  27.563  36.003  1.00  0.00     0.200 A 
ATOM     93  F   UNL A   1      47.821  29.328  35.087  1.00  0.00    -0.200 F 
ATOM     94  F   UNL A   1      47.637  27.076  36.613  1.00  0.00    -0.200 F 
ENDBRANCH  61  84
ENDBRANCH  35  36
ENDBRANCH  27  30
ENDBRANCH  25  26
ENDBRANCH  24  25
ENDBRANCH   1  24
TORSDOF 14
ENDMDL
MODEL 2
REMARK VINA RESULT:     -12.1      0.548      7.497
REMARK SMILES CO[C@H]1C[C@H](C(=O)NCCCNC(=O)c2ccc(-c3c4nc(c(-c5c(F)c(F)c(F)c(F)c5F)c5ccc([nH]5)c(-c5c(F)c(F)c(F)c(F)c5F)c5nc(c(-c6c(F)c(F)c(F)c(F)c6F)c6ccc3[nH]6)C=C5)C=C4)cc2)N(C(=O)[C@H]2C=C[C@@H]([NH3+])C2)C1
REMARK SMILES IDX 9 1 8 2 6 3 7 4 5 6 3 7 4 8 87 9 78 10 2 11 1 12 79 13 80 14
REMARK SMILES IDX 81 15 82 16 86 17 83 18 84 19 85 20 10 24 11 25 12 26 13 27
REMARK SMILES IDX 14 29 15 30 16 31 77 32 17 33 76 34 18 35 19 36 20 37 70 38
REMARK SMILES IDX 21 39 75 40 69 41 71 42 22 43 74 44 68 45 67 46 23 48 55 49
REMARK SMILES IDX 35 50 54 51 36 52 39 53 53 54 72 55 37 56 38 57 52 59 73 60
REMARK SMILES IDX 40 61 24 62 25 63 33 64 26 65 27 66 31 67 34 68 28 69 29 70
REMARK SMILES IDX 32 71 30 72 56 73 57 74 65 75 58 76 59 77 63 78 66 79 60 80
REMARK SMILES IDX 61 81 64 82 62 83 41 84 42 85 50 86 43 87 44 88 48 89 51 90
REMARK SMILES IDX 45 91 46 92 49 93 47 94
REMARK H PARENT 8 5 85 21 85 22 85 23 12 28 71 47 39 58
REMARK Flexibility Score: inf
ROOT
ATOM      1  C   UNL A   1      31.048  30.700  25.382  1.00  0.00     0.117 C 
ENDROOT
BRANCH   1   2
ATOM      2  N   UNL A   1      32.353  30.073  25.453  1.00  0.00    -0.354 N 
ATOM      3  C   UNL A   1      32.989  29.188  24.641  1.00  0.00     0.242 C 
ATOM      4  O   UNL A   1      34.001  28.658  25.123  1.00  0.00    -0.273 OA
ATOM      5  H   UNL A   1      32.880  30.339  26.241  1.00  0.00     0.163 HD
BRANCH   3   6
ATOM      6  C   UNL A   1      32.450  28.679  23.282  1.00  0.00     0.177 C 
ATOM      7  C   UNL A   1      33.293  26.541  22.491  1.00  0.00     0.139 C 
ATOM      8  C   UNL A   1      33.561  28.043  22.444  1.00  0.00     0.069 C 
ATOM      9  C   UNL A   1      31.779  26.451  22.650  1.00  0.00     0.152 C 
ATOM     10  N   UNL A   1      31.353  27.712  23.245  1.00  0.00    -0.327 N 
BRANCH   7  11
ATOM     11  O   UNL A   1      33.728  25.867  21.317  1.00  0.00    -0.380 OA
ATOM     12  C   UNL A   1      32.662  25.564  20.424  1.00  0.00     0.195 C 
ENDBRANCH   7  11
BRANCH  10  13
ATOM     13  C   UNL A   1      30.002  27.913  23.428  1.00  0.00     0.230 C 
ATOM     14  O   UNL A   1      29.420  27.346  24.362  1.00  0.00    -0.274 OA
BRANCH  13  15
ATOM     15  C   UNL A   1      29.165  28.767  22.462  1.00  0.00     0.107 C 
ATOM     16  C   UNL A   1      27.911  29.359  23.014  1.00  0.00    -0.012 C 
ATOM     17  C   UNL A   1      29.925  29.970  21.881  1.00  0.00     0.087 C 
ATOM     18  C   UNL A   1      27.775  30.642  22.659  1.00  0.00     0.033 C 
ATOM     19  C   UNL A   1      28.911  31.124  21.819  1.00  0.00     0.205 C 
BRANCH  19  20
ATOM     20  N   UNL A   1      29.466  32.364  22.331  1.00  0.00    -0.352 N 
ATOM     21  H   UNL A   1      29.058  33.153  21.829  1.00  0.00     0.345 HD
ATOM     22  H   UNL A   1      30.477  32.363  22.199  1.00  0.00     0.345 HD
ATOM     23  H   UNL A   1      29.253  32.447  23.325  1.00  0.00     0.345 HD
ENDBRANCH  19  20
ENDBRANCH  13  15
ENDBRANCH  10  13
ENDBRANCH   3   6
ENDBRANCH   1   2
BRANCH   1  24
ATOM     24  C   UNL A   1      31.013  31.995  26.195  1.00  0.00     0.042 C 
BRANCH  24  25
ATOM     25  C   UNL A   1      32.314  32.322  26.921  1.00  0.00     0.118 C 
BRANCH  25  26
ATOM     26  N   UNL A   1      32.402  33.726  27.288  1.00  0.00    -0.352 N 
ATOM     27  C   UNL A   1      33.230  34.368  28.176  1.00  0.00     0.251 C 
ATOM     28  H   UNL A   1      31.763  34.314  26.823  1.00  0.00     0.163 HD
ATOM     29  O   UNL A   1      32.992  35.536  28.473  1.00  0.00    -0.269 OA
BRANCH  27  30
ATOM     30  C   UNL A   1      34.397  33.686  28.787  1.00  0.00     0.039 A 
ATOM     31  C   UNL A   1      34.168  32.537  29.556  1.00  0.00     0.014 A 
ATOM     32  C   UNL A   1      35.693  34.195  28.683  1.00  0.00     0.014 A 
ATOM     33  C   UNL A   1      35.235  31.884  30.181  1.00  0.00     0.010 A 
ATOM     34  C   UNL A   1      36.767  33.502  29.243  1.00  0.00     0.010 A 
ATOM     35  C   UNL A   1      36.547  32.349  30.012  1.00  0.00    -0.014 A 
BRANCH  35  36
ATOM     36  C   UNL A   1      37.696  31.663  30.658  1.00  0.00     0.031 A 
ATOM     37  C   UNL A   1      38.100  32.024  32.063  1.00  0.00     0.074 A 
ATOM     38  C   UNL A   1      38.410  30.754  29.967  1.00  0.00     0.049 A 
ATOM     39  N   UNL A   1      39.114  31.596  32.772  1.00  0.00    -0.248 NA
ATOM     40  C   UNL A   1      37.269  33.023  32.751  1.00  0.00     0.031 C 
ATOM     41  C   UNL A   1      38.146  30.344  28.588  1.00  0.00     0.029 A 
ATOM     42  N   UNL A   1      39.511  30.017  30.328  1.00  0.00    -0.354 N 
ATOM     43  C   UNL A   1      39.054  32.286  33.975  1.00  0.00     0.074 A 
ATOM     44  C   UNL A   1      37.933  33.198  33.883  1.00  0.00     0.031 C 
ATOM     45  C   UNL A   1      39.043  29.412  28.227  1.00  0.00     0.029 A 
ATOM     46  C   UNL A   1      39.966  29.186  29.335  1.00  0.00     0.049 A 
ATOM     47  H   UNL A   1      39.933  30.078  31.215  1.00  0.00     0.167 HD
ATOM     48  C   UNL A   1      39.846  32.158  35.067  1.00  0.00     0.037 A 
ATOM     49  C   UNL A   1      41.012  28.337  29.319  1.00  0.00     0.037 A 
ATOM     50  C   UNL A   1      40.938  31.226  35.171  1.00  0.00     0.049 A 
ATOM     51  C   UNL A   1      41.869  28.202  30.548  1.00  0.00     0.074 A 
ATOM     52  C   UNL A   1      41.764  30.978  36.253  1.00  0.00     0.029 A 
ATOM     53  N   UNL A   1      41.353  30.382  34.151  1.00  0.00    -0.354 N 
ATOM     54  N   UNL A   1      41.769  28.822  31.699  1.00  0.00    -0.248 NA
ATOM     55  C   UNL A   1      42.981  27.243  30.478  1.00  0.00     0.031 C 
ATOM     56  C   UNL A   1      42.701  30.009  35.877  1.00  0.00     0.029 A 
ATOM     57  C   UNL A   1      42.432  29.623  34.574  1.00  0.00     0.049 A 
ATOM     58  H   UNL A   1      40.941  30.330  33.257  1.00  0.00     0.167 HD
ATOM     59  C   UNL A   1      42.784  28.312  32.497  1.00  0.00     0.074 A 
ATOM     60  C   UNL A   1      43.481  27.320  31.704  1.00  0.00     0.031 C 
ATOM     61  C   UNL A   1      43.109  28.635  33.773  1.00  0.00     0.037 A 
BRANCH  48  62
ATOM     62  C   UNL A   1      39.556  33.048  36.242  1.00  0.00     0.064 A 
ATOM     63  C   UNL A   1      40.198  34.284  36.405  1.00  0.00     0.173 A 
ATOM     64  C   UNL A   1      38.606  32.671  37.204  1.00  0.00     0.173 A 
ATOM     65  F   UNL A   1      41.124  34.686  35.519  1.00  0.00    -0.203 F 
ATOM     66  C   UNL A   1      39.928  35.094  37.505  1.00  0.00     0.198 A 
ATOM     67  C   UNL A   1      38.316  33.497  38.287  1.00  0.00     0.198 A 
ATOM     68  F   UNL A   1      37.957  31.502  37.093  1.00  0.00    -0.203 F 
ATOM     69  F   UNL A   1      40.594  36.245  37.667  1.00  0.00    -0.200 F 
ATOM     70  C   UNL A   1      38.983  34.703  38.441  1.00  0.00     0.200 A 
ATOM     71  F   UNL A   1      37.394  33.123  39.185  1.00  0.00    -0.200 F 
ATOM     72  F   UNL A   1      38.722  35.485  39.498  1.00  0.00    -0.200 F 
ENDBRANCH  48  62
BRANCH  49  73
ATOM     73  C   UNL A   1      41.283  27.520  28.109  1.00  0.00     0.064 A 
ATOM     74  C   UNL A   1      42.110  28.005  27.087  1.00  0.00     0.173 A 
ATOM     75  C   UNL A   1      40.728  26.242  27.950  1.00  0.00     0.173 A 
ATOM     76  F   UNL A   1      42.646  29.231  27.186  1.00  0.00    -0.203 F 
ATOM     77  C   UNL A   1      42.363  27.248  25.945  1.00  0.00     0.198 A 
ATOM     78  C   UNL A   1      41.002  25.476  26.819  1.00  0.00     0.198 A 
ATOM     79  F   UNL A   1      39.934  25.731  28.902  1.00  0.00    -0.203 F 
ATOM     80  F   UNL A   1      43.128  27.751  24.967  1.00  0.00    -0.200 F 
ATOM     81  C   UNL A   1      41.814  25.981  25.815  1.00  0.00     0.200 A 
ATOM     82  F   UNL A   1      40.481  24.247  26.703  1.00  0.00    -0.200 F 
ATOM     83  F   UNL A   1      42.062  25.251  24.719  1.00  0.00    -0.200 F 
ENDBRANCH  49  73
BRANCH  61  84
ATOM     84  C   UNL A   1      44.247  27.887  34.401  1.00  0.00     0.064 A 
ATOM     85  C   UNL A   1      44.048  26.669  35.067  1.00  0.00     0.173 A 
ATOM     86  C   UNL A   1      45.558  28.378  34.303  1.00  0.00     0.173 A 
ATOM     87  F   UNL A   1      42.810  26.168  35.201  1.00  0.00    -0.203 F 
ATOM     88  C   UNL A   1      45.117  25.981  35.632  1.00  0.00     0.198 A 
ATOM     89  C   UNL A   1      46.628  27.674  34.846  1.00  0.00     0.198 A 
ATOM     90  F   UNL A   1      45.801  29.536  33.670  1.00  0.00    -0.203 F 
ATOM     91  F   UNL A   1      44.899  24.841  36.303  1.00  0.00    -0.200 F 
ATOM     92  C   UNL A   1      46.406  26.480  35.517  1.00  0.00     0.200 A 
ATOM     93  F   UNL A   1      47.875  28.151  34.724  1.00  0.00    -0.200 F 
ATOM     94  F   UNL A   1      47.435  25.813  36.057  1.00  0.00    -0.200 F 
ENDBRANCH  61  84
ENDBRANCH  35  36
ENDBRANCH  27  30
ENDBRANCH  25  26
ENDBRANCH  24  25
ENDBRANCH   1  24
TORSDOF 14
ENDMDL
MODEL 3
REMARK VINA RESULT:     -12.0      0.393      7.487
REMARK SMILES CO[C@H]1C[C@H](C(=O)NCCCNC(=O)c2ccc(-c3c4nc(c(-c5c(F)c(F)c(F)c(F)c5F)c5ccc([nH]5)c(-c5c(F)c(F)c(F)c(F)c5F)c5nc(c(-c6c(F)c(F)c(F)c(F)c6F)c6ccc3[nH]6)C=C5)C=C4)cc2)N(C(=O)[C@H]2C=C[C@@H]([NH3+])C2)C1
REMARK SMILES IDX 9 1 8 2 6 3 7 4 5 6 3 7 4 8 87 9 78 10 2 11 1 12 79 13 80 14
REMARK SMILES IDX 81 15 82 16 86 17 83 18 84 19 85 20 10 24 11 25 12 26 13 27
REMARK SMILES IDX 14 29 15 30 16 31 77 32 17 33 76 34 18 35 19 36 20 37 70 38
REMARK SMILES IDX 21 39 75 40 69 41 71 42 22 43 74 44 68 45 67 46 23 48 55 49
REMARK SMILES IDX 35 50 54 51 36 52 39 53 53 54 72 55 37 56 38 57 52 59 73 60
REMARK SMILES IDX 40 61 24 62 25 63 33 64 26 65 27 66 31 67 34 68 28 69 29 70
REMARK SMILES IDX 32 71 30 72 56 73 57 74 65 75 58 76 59 77 63 78 66 79 60 80
REMARK SMILES IDX 61 81 64 82 62 83 41 84 42 85 50 86 43 87 44 88 48 89 51 90
REMARK SMILES IDX 45 91 46 92 49 93 47 94
REMARK H PARENT 8 5 85 21 85 22 85 23 12 28 71 47 39 58
REMARK Flexibility Score: inf
ROOT
ATOM      1  C   UNL A   1      31.059  30.864  25.343  1.00  0.00     0.117 C 
ENDROOT
BRANCH   1   2
ATOM      2  N   UNL A   1      32.304  30.141  25.511  1.00  0.00    -0.354 N 
ATOM      3  C   UNL A   1      32.898  29.160  24.783  1.00  0.00     0.242 C 
ATOM      4  O   UNL A   1      33.843  28.583  25.341  1.00  0.00    -0.273 OA
ATOM      5  H   UNL A   1      32.818  30.414  26.305  1.00  0.00     0.163 HD
BRANCH   3   6
ATOM      6  C   UNL A   1      32.375  28.611  23.432  1.00  0.00     0.177 C 
ATOM      7  C   UNL A   1      33.268  26.477  22.689  1.00  0.00     0.139 C 
ATOM      8  C   UNL A   1      33.503  27.983  22.612  1.00  0.00     0.069 C 
ATOM      9  C   UNL A   1      31.756  26.357  22.844  1.00  0.00     0.152 C 
ATOM     10  N   UNL A   1      31.301  27.619  23.412  1.00  0.00    -0.327 N 
BRANCH   7  11
ATOM     11  O   UNL A   1      33.723  25.789  21.529  1.00  0.00    -0.380 OA
ATOM     12  C   UNL A   1      32.720  25.670  20.526  1.00  0.00     0.195 C 
ENDBRANCH   7  11
BRANCH  10  13
ATOM     13  C   UNL A   1      29.945  27.794  23.587  1.00  0.00     0.230 C 
ATOM     14  O   UNL A   1      29.369  27.219  24.519  1.00  0.00    -0.274 OA
BRANCH  13  15
ATOM     15  C   UNL A   1      29.096  28.628  22.613  1.00  0.00     0.107 C 
ATOM     16  C   UNL A   1      27.875  29.272  23.179  1.00  0.00    -0.012 C 
ATOM     17  C   UNL A   1      29.864  29.786  21.957  1.00  0.00     0.087 C 
ATOM     18  C   UNL A   1      27.757  30.542  22.774  1.00  0.00     0.033 C 
ATOM     19  C   UNL A   1      28.875  30.961  21.879  1.00  0.00     0.205 C 
BRANCH  19  20
ATOM     20  N   UNL A   1      29.476  32.208  22.320  1.00  0.00    -0.352 N 
ATOM     21  H   UNL A   1      30.445  32.041  22.592  1.00  0.00     0.345 HD
ATOM     22  H   UNL A   1      28.956  32.571  23.119  1.00  0.00     0.345 HD
ATOM     23  H   UNL A   1      29.449  32.886  21.560  1.00  0.00     0.345 HD
ENDBRANCH  19  20
ENDBRANCH  13  15
ENDBRANCH  10  13
ENDBRANCH   3   6
ENDBRANCH   1   2
BRANCH   1  24
ATOM     24  C   UNL A   1      30.969  32.042  26.315  1.00  0.00     0.042 C 
BRANCH  24  25
ATOM     25  C   UNL A   1      32.297  32.443  26.948  1.00  0.00     0.118 C 
BRANCH  25  26
ATOM     26  N   UNL A   1      32.294  33.822  27.409  1.00  0.00    -0.352 N 
ATOM     27  C   UNL A   1      33.066  34.450  28.355  1.00  0.00     0.251 C 
ATOM     28  H   UNL A   1      31.630  34.401  26.970  1.00  0.00     0.163 HD
ATOM     29  O   UNL A   1      32.753  35.579  28.724  1.00  0.00    -0.269 OA
BRANCH  27  30
ATOM     30  C   UNL A   1      34.260  33.797  28.947  1.00  0.00     0.039 A 
ATOM     31  C   UNL A   1      34.065  32.716  29.814  1.00  0.00     0.014 A 
ATOM     32  C   UNL A   1      35.553  34.276  28.725  1.00  0.00     0.014 A 
ATOM     33  C   UNL A   1      35.160  32.094  30.423  1.00  0.00     0.010 A 
ATOM     34  C   UNL A   1      36.651  33.610  29.272  1.00  0.00     0.010 A 
ATOM     35  C   UNL A   1      36.465  32.524  30.139  1.00  0.00    -0.014 A 
BRANCH  35  36
ATOM     36  C   UNL A   1      37.644  31.870  30.766  1.00  0.00     0.031 A 
ATOM     37  C   UNL A   1      38.087  32.274  32.147  1.00  0.00     0.074 A 
ATOM     38  C   UNL A   1      38.348  30.953  30.077  1.00  0.00     0.049 A 
ATOM     39  N   UNL A   1      39.129  31.878  32.835  1.00  0.00    -0.248 NA
ATOM     40  C   UNL A   1      37.264  33.280  32.836  1.00  0.00     0.031 C 
ATOM     41  C   UNL A   1      38.046  30.503  28.719  1.00  0.00     0.029 A 
ATOM     42  N   UNL A   1      39.470  30.240  30.422  1.00  0.00    -0.354 N 
ATOM     43  C   UNL A   1      39.097  32.600  34.021  1.00  0.00     0.074 A 
ATOM     44  C   UNL A   1      37.961  33.494  33.940  1.00  0.00     0.031 C 
ATOM     45  C   UNL A   1      38.945  29.574  28.354  1.00  0.00     0.029 A 
ATOM     46  C   UNL A   1      39.905  29.389  29.437  1.00  0.00     0.049 A 
ATOM     47  H   UNL A   1      39.919  30.331  31.293  1.00  0.00     0.167 HD
ATOM     48  C   UNL A   1      39.925  32.512  35.090  1.00  0.00     0.037 A 
ATOM     49  C   UNL A   1      40.962  28.554  29.410  1.00  0.00     0.037 A 
ATOM     50  C   UNL A   1      41.032  31.597  35.183  1.00  0.00     0.049 A 
ATOM     51  C   UNL A   1      41.859  28.464  30.615  1.00  0.00     0.074 A 
ATOM     52  C   UNL A   1      41.895  31.389  36.245  1.00  0.00     0.029 A 
ATOM     53  N   UNL A   1      41.427  30.732  34.173  1.00  0.00    -0.354 N 
ATOM     54  N   UNL A   1      41.787  29.112  31.751  1.00  0.00    -0.248 NA
ATOM     55  C   UNL A   1      42.981  27.517  30.534  1.00  0.00     0.031 C 
ATOM     56  C   UNL A   1      42.833  30.423  35.865  1.00  0.00     0.029 A 
ATOM     57  C   UNL A   1      42.529  29.999  34.581  1.00  0.00     0.049 A 
ATOM     58  H   UNL A   1      40.988  30.651  33.295  1.00  0.00     0.167 HD
ATOM     59  C   UNL A   1      42.833  28.637  32.530  1.00  0.00     0.074 A 
ATOM     60  C   UNL A   1      43.519  27.634  31.741  1.00  0.00     0.031 C 
ATOM     61  C   UNL A   1      43.194  28.998  33.785  1.00  0.00     0.037 A 
BRANCH  48  62
ATOM     62  C   UNL A   1      39.659  33.429  36.249  1.00  0.00     0.064 A 
ATOM     63  C   UNL A   1      38.780  33.073  37.282  1.00  0.00     0.173 A 
ATOM     64  C   UNL A   1      40.310  34.669  36.340  1.00  0.00     0.173 A 
ATOM     65  F   UNL A   1      38.123  31.904  37.236  1.00  0.00    -0.203 F 
ATOM     66  C   UNL A   1      38.534  33.939  38.345  1.00  0.00     0.198 A 
ATOM     67  C   UNL A   1      40.085  35.519  37.420  1.00  0.00     0.198 A 
ATOM     68  F   UNL A   1      41.167  35.056  35.383  1.00  0.00    -0.203 F 
ATOM     69  F   UNL A   1      37.648  33.599  39.292  1.00  0.00    -0.200 F 
ATOM     70  C   UNL A   1      39.191  35.157  38.417  1.00  0.00     0.200 A 
ATOM     71  F   UNL A   1      40.729  36.691  37.494  1.00  0.00    -0.200 F 
ATOM     72  F   UNL A   1      38.955  35.987  39.442  1.00  0.00    -0.200 F 
ENDBRANCH  48  62
BRANCH  49  73
ATOM     73  C   UNL A   1      41.206  27.709  28.214  1.00  0.00     0.064 A 
ATOM     74  C   UNL A   1      42.001  28.174  27.157  1.00  0.00     0.173 A 
ATOM     75  C   UNL A   1      40.658  26.423  28.103  1.00  0.00     0.173 A 
ATOM     76  F   UNL A   1      42.529  29.405  27.211  1.00  0.00    -0.203 F 
ATOM     77  C   UNL A   1      42.228  27.389  26.029  1.00  0.00     0.198 A 
ATOM     78  C   UNL A   1      40.907  25.630  26.984  1.00  0.00     0.198 A 
ATOM     79  F   UNL A   1      39.894  25.930  29.089  1.00  0.00    -0.203 F 
ATOM     80  F   UNL A   1      42.961  27.873  25.016  1.00  0.00    -0.200 F 
ATOM     81  C   UNL A   1      41.686  26.116  25.945  1.00  0.00     0.200 A 
ATOM     82  F   UNL A   1      40.393  24.394  26.914  1.00  0.00    -0.200 F 
ATOM     83  F   UNL A   1      41.909  25.360  24.862  1.00  0.00    -0.200 F 
ENDBRANCH  49  73
BRANCH  61  84
ATOM     84  C   UNL A   1      44.362  28.283  34.396  1.00  0.00     0.064 A 
ATOM     85  C   UNL A   1      45.665  28.791  34.306  1.00  0.00     0.173 A 
ATOM     86  C   UNL A   1      44.168  27.090  35.110  1.00  0.00     0.173 A 
ATOM     87  F   UNL A   1      45.902  29.919  33.619  1.00  0.00    -0.203 F 
ATOM     88  C   UNL A   1      46.736  28.121  34.890  1.00  0.00     0.198 A 
ATOM     89  C   UNL A   1      45.236  26.437  35.716  1.00  0.00     0.198 A 
ATOM     90  F   UNL A   1      42.938  26.565  35.230  1.00  0.00    -0.203 F 
ATOM     91  F   UNL A   1      47.980  28.602  34.755  1.00  0.00    -0.200 F 
ATOM     92  C   UNL A   1      46.520  26.948  35.600  1.00  0.00     0.200 A 
ATOM     93  F   UNL A   1      45.026  25.310  36.411  1.00  0.00    -0.200 F 
ATOM     94  F   UNL A   1      47.552  26.308  36.166  1.00  0.00    -0.200 F 
ENDBRANCH  61  84
ENDBRANCH  35  36
ENDBRANCH  27  30
ENDBRANCH  25  26
ENDBRANCH  24  25
ENDBRANCH   1  24
TORSDOF 14
ENDMDL
