MODEL 1
REMARK VINA RESULT:     -13.3      0.000      0.000
REMARK SMILES O=C(NCCCNC(=O)c1cc(NC(=O)c2ccccc2Cl)ccc1N1CCC[C@H](C[NH+]2CCCC2)C1)c1ccc(-c2c3nc(c(-c4c(F)c(F)c(F)c(F)c4F)c4ccc([nH]4)c(-c4c(F)c(F)c(F)c(F)c4F)c4nc(c(-c5c(F)c(F)c(F)c(F)c5F)c5ccc2[nH]5)C=C4)C=C3)cc1
REMARK SMILES IDX 5 1 4 2 3 3 1 4 2 5 38 7 39 8 100 9 40 10 99 11 41 12 42 13
REMARK SMILES IDX 43 14 93 15 44 16 98 17 92 18 94 19 45 20 97 21 91 22 90 23
REMARK SMILES IDX 46 25 78 26 58 27 77 28 59 29 62 30 76 31 95 32 60 33 61 34
REMARK SMILES IDX 75 36 96 37 63 38 47 39 48 40 56 41 49 42 50 43 54 44 57 45
REMARK SMILES IDX 51 46 52 47 55 48 53 49 79 50 80 51 88 52 81 53 82 54 86 55
REMARK SMILES IDX 89 56 83 57 84 58 87 59 85 60 64 61 65 62 73 63 66 64 67 65
REMARK SMILES IDX 71 66 74 67 68 68 69 69 72 70 70 71 6 72 7 73 8 74 9 76
REMARK SMILES IDX 10 77 11 78 25 79 12 80 24 81 23 82 26 83 27 84 37 85 28 86
REMARK SMILES IDX 30 87 29 88 31 89 32 90 33 91 36 92 34 94 35 95 13 96 14 97
REMARK SMILES IDX 15 99 16 100 17 101 21 102 18 103 20 104 22 105 19 106
REMARK H PARENT 3 6 94 24 62 35 7 75 32 93 13 98
REMARK Flexibility Score: inf
ROOT
ATOM      1  C   UNL A   1      36.793  21.807  25.751  1.00  0.00     0.042 C 
ENDROOT
BRANCH   1   2
ATOM      2  C   UNL A   1      38.085  21.461  25.029  1.00  0.00     0.118 C 
BRANCH   2   3
ATOM      3  N   UNL A   1      38.935  20.516  25.751  1.00  0.00    -0.352 N 
ATOM      4  O   UNL A   1      40.659  19.740  26.972  1.00  0.00    -0.269 OA
ATOM      5  C   UNL A   1      40.022  20.707  26.574  1.00  0.00     0.251 C 
ATOM      6  H   UNL A   1      38.686  19.573  25.625  1.00  0.00     0.163 HD
BRANCH   5   7
ATOM      7  C   UNL A   1      40.455  22.073  26.946  1.00  0.00     0.039 A 
ATOM      8  C   UNL A   1      39.930  23.194  26.308  1.00  0.00     0.014 A 
ATOM      9  C   UNL A   1      41.409  22.238  27.957  1.00  0.00     0.014 A 
ATOM     10  C   UNL A   1      40.517  24.436  26.496  1.00  0.00     0.010 A 
ATOM     11  C   UNL A   1      41.904  23.515  28.247  1.00  0.00     0.010 A 
ATOM     12  C   UNL A   1      41.502  24.618  27.479  1.00  0.00    -0.014 A 
BRANCH  12  13
ATOM     13  C   UNL A   1      42.058  25.977  27.700  1.00  0.00     0.031 A 
ATOM     14  C   UNL A   1      43.380  26.382  27.108  1.00  0.00     0.074 A 
ATOM     15  C   UNL A   1      41.332  26.867  28.405  1.00  0.00     0.049 A 
ATOM     16  N   UNL A   1      44.013  27.526  27.210  1.00  0.00    -0.248 NA
ATOM     17  C   UNL A   1      44.091  25.377  26.305  1.00  0.00     0.031 C 
ATOM     18  C   UNL A   1      40.035  26.588  29.028  1.00  0.00     0.029 A 
ATOM     19  N   UNL A   1      41.562  28.185  28.699  1.00  0.00    -0.354 N 
ATOM     20  C   UNL A   1      45.205  27.365  26.517  1.00  0.00     0.074 A 
ATOM     21  C   UNL A   1      45.219  26.009  26.012  1.00  0.00     0.031 C 
ATOM     22  C   UNL A   1      39.557  27.713  29.576  1.00  0.00     0.029 A 
ATOM     23  C   UNL A   1      40.549  28.770  29.419  1.00  0.00     0.049 A 
ATOM     24  H   UNL A   1      42.375  28.667  28.422  1.00  0.00     0.167 HD
ATOM     25  C   UNL A   1      46.194  28.270  26.318  1.00  0.00     0.037 A 
ATOM     26  C   UNL A   1      40.437  30.013  29.922  1.00  0.00     0.037 A 
ATOM     27  C   UNL A   1      46.159  29.627  26.799  1.00  0.00     0.049 A 
ATOM     28  C   UNL A   1      41.553  30.989  29.699  1.00  0.00     0.074 A 
ATOM     29  C   UNL A   1      47.096  30.631  26.622  1.00  0.00     0.029 A 
ATOM     30  N   UNL A   1      45.128  30.173  27.551  1.00  0.00    -0.354 N 
ATOM     31  N   UNL A   1      42.672  30.825  29.036  1.00  0.00    -0.248 NA
ATOM     32  C   UNL A   1      41.397  32.318  30.301  1.00  0.00     0.031 C 
ATOM     33  C   UNL A   1      46.652  31.770  27.304  1.00  0.00     0.029 A 
ATOM     34  C   UNL A   1      45.416  31.492  27.865  1.00  0.00     0.049 A 
ATOM     35  H   UNL A   1      44.312  29.693  27.823  1.00  0.00     0.167 HD
ATOM     36  C   UNL A   1      43.349  32.031  29.130  1.00  0.00     0.074 A 
ATOM     37  C   UNL A   1      42.505  32.924  29.898  1.00  0.00     0.031 C 
ATOM     38  C   UNL A   1      44.563  32.366  28.629  1.00  0.00     0.037 A 
BRANCH  25  39
ATOM     39  C   UNL A   1      47.415  27.816  25.568  1.00  0.00     0.064 A 
ATOM     40  C   UNL A   1      47.472  27.827  24.167  1.00  0.00     0.173 A 
ATOM     41  C   UNL A   1      48.559  27.400  26.267  1.00  0.00     0.173 A 
ATOM     42  F   UNL A   1      46.402  28.204  23.451  1.00  0.00    -0.203 F 
ATOM     43  C   UNL A   1      48.619  27.414  23.493  1.00  0.00     0.198 A 
ATOM     44  C   UNL A   1      49.714  27.014  25.591  1.00  0.00     0.198 A 
ATOM     45  F   UNL A   1      48.562  27.376  27.609  1.00  0.00    -0.203 F 
ATOM     46  F   UNL A   1      48.635  27.390  22.153  1.00  0.00    -0.200 F 
ATOM     47  C   UNL A   1      49.741  27.013  24.204  1.00  0.00     0.200 A 
ATOM     48  F   UNL A   1      50.801  26.639  26.280  1.00  0.00    -0.200 F 
ATOM     49  F   UNL A   1      50.845  26.621  23.554  1.00  0.00    -0.200 F 
ENDBRANCH  25  39
BRANCH  26  50
ATOM     50  C   UNL A   1      39.224  30.380  30.694  1.00  0.00     0.064 A 
ATOM     51  C   UNL A   1      39.152  30.161  32.076  1.00  0.00     0.173 A 
ATOM     52  C   UNL A   1      38.128  30.996  30.070  1.00  0.00     0.173 A 
ATOM     53  F   UNL A   1      40.170  29.562  32.712  1.00  0.00    -0.203 F 
ATOM     54  C   UNL A   1      38.027  30.541  32.805  1.00  0.00     0.198 A 
ATOM     55  C   UNL A   1      37.016  31.401  30.805  1.00  0.00     0.198 A 
ATOM     56  F   UNL A   1      38.152  31.234  28.751  1.00  0.00    -0.203 F 
ATOM     57  F   UNL A   1      37.971  30.295  34.121  1.00  0.00    -0.200 F 
ATOM     58  C   UNL A   1      36.965  31.169  32.171  1.00  0.00     0.200 A 
ATOM     59  F   UNL A   1      36.003  32.027  30.192  1.00  0.00    -0.200 F 
ATOM     60  F   UNL A   1      35.891  31.550  32.876  1.00  0.00    -0.200 F 
ENDBRANCH  26  50
BRANCH  38  61
ATOM     61  C   UNL A   1      45.036  33.767  28.874  1.00  0.00     0.064 A 
ATOM     62  C   UNL A   1      45.813  34.093  29.995  1.00  0.00     0.173 A 
ATOM     63  C   UNL A   1      44.730  34.788  27.963  1.00  0.00     0.173 A 
ATOM     64  F   UNL A   1      46.116  33.153  30.904  1.00  0.00    -0.203 F 
ATOM     65  C   UNL A   1      46.249  35.398  30.206  1.00  0.00     0.198 A 
ATOM     66  C   UNL A   1      45.189  36.086  28.163  1.00  0.00     0.198 A 
ATOM     67  F   UNL A   1      43.991  34.524  26.875  1.00  0.00    -0.203 F 
ATOM     68  F   UNL A   1      46.952  35.699  31.307  1.00  0.00    -0.200 F 
ATOM     69  C   UNL A   1      45.943  36.391  29.287  1.00  0.00     0.200 A 
ATOM     70  F   UNL A   1      44.901  37.042  27.270  1.00  0.00    -0.200 F 
ATOM     71  F   UNL A   1      46.366  37.647  29.489  1.00  0.00    -0.200 F 
ENDBRANCH  38  61
ENDBRANCH  12  13
ENDBRANCH   5   7
ENDBRANCH   2   3
ENDBRANCH   1   2
BRANCH   1  72
ATOM     72  C   UNL A   1      36.220  23.156  25.367  1.00  0.00     0.118 C 
BRANCH  72  73
ATOM     73  N   UNL A   1      35.750  23.249  24.001  1.00  0.00    -0.352 N 
ATOM     74  C   UNL A   1      34.450  23.338  23.567  1.00  0.00     0.253 C 
ATOM     75  H   UNL A   1      36.444  23.247  23.302  1.00  0.00     0.163 HD
ATOM     76  O   UNL A   1      34.231  23.555  22.376  1.00  0.00    -0.269 OA
BRANCH  74  77
ATOM     77  C   UNL A   1      33.322  23.056  24.488  1.00  0.00     0.065 A 
ATOM     78  C   UNL A   1      33.017  24.140  25.328  1.00  0.00     0.042 A 
ATOM     79  C   UNL A   1      32.558  21.874  24.516  1.00  0.00     0.050 A 
ATOM     80  C   UNL A   1      31.873  24.153  26.114  1.00  0.00     0.042 A 
ATOM     81  C   UNL A   1      31.438  21.882  25.366  1.00  0.00     0.029 A 
ATOM     82  C   UNL A   1      31.095  22.999  26.146  1.00  0.00     0.028 A 
BRANCH  79  83
ATOM     83  N   UNL A   1      32.874  20.705  23.835  1.00  0.00    -0.370 N 
ATOM     84  C   UNL A   1      32.153  20.323  22.616  1.00  0.00     0.116 C 
ATOM     85  C   UNL A   1      34.097  19.979  24.189  1.00  0.00     0.126 C 
ATOM     86  C   UNL A   1      31.984  18.811  22.512  1.00  0.00     0.022 C 
ATOM     87  C   UNL A   1      33.816  18.471  24.234  1.00  0.00     0.064 C 
ATOM     88  C   UNL A   1      33.270  18.064  22.857  1.00  0.00     0.013 C 
BRANCH  87  89
ATOM     89  C   UNL A   1      32.899  18.166  25.449  1.00  0.00     0.267 C 
BRANCH  89  90
ATOM     90  N   UNL A   1      33.053  16.911  26.189  1.00  0.00    -0.335 N 
ATOM     91  C   UNL A   1      34.306  16.203  25.953  1.00  0.00     0.262 C 
ATOM     92  C   UNL A   1      31.962  15.950  26.072  1.00  0.00     0.262 C 
ATOM     93  H   UNL A   1      33.044  17.279  27.140  1.00  0.00     0.348 HD
ATOM     94  C   UNL A   1      33.953  15.078  25.001  1.00  0.00     0.067 C 
ATOM     95  C   UNL A   1      32.528  14.715  25.380  1.00  0.00     0.067 C 
ENDBRANCH  89  90
ENDBRANCH  87  89
ENDBRANCH  79  83
BRANCH  80  96
ATOM     96  N   UNL A   1      31.444  25.257  26.876  1.00  0.00    -0.322 N 
ATOM     97  C   UNL A   1      31.146  26.560  26.529  1.00  0.00     0.257 C 
ATOM     98  H   UNL A   1      31.335  25.063  27.836  1.00  0.00     0.170 HD
ATOM     99  O   UNL A   1      30.914  27.397  27.399  1.00  0.00    -0.269 OA
BRANCH  97 100
ATOM    100  C   UNL A   1      31.089  26.986  25.121  1.00  0.00     0.058 A 
ATOM    101  C   UNL A   1      29.889  26.756  24.432  1.00  0.00     0.015 A 
ATOM    102  C   UNL A   1      32.144  27.664  24.496  1.00  0.00     0.053 A 
ATOM    103  C   UNL A   1      29.714  27.279  23.151  1.00  0.00     0.001 A 
ATOM    104  C   UNL A   1      31.957  28.190  23.214  1.00  0.00     0.021 A 
ATOM    105  Cl  UNL A   1      33.670  27.925  25.260  1.00  0.00    -0.083 Cl
ATOM    106  C   UNL A   1      30.740  28.011  22.550  1.00  0.00     0.002 A 
ENDBRANCH  97 100
ENDBRANCH  80  96
ENDBRANCH  74  77
ENDBRANCH  72  73
ENDBRANCH   1  72
TORSDOF 15
ENDMDL
MODEL 2
REMARK VINA RESULT:     -13.2      3.822      9.417
REMARK SMILES O=C(NCCCNC(=O)c1cc(NC(=O)c2ccccc2Cl)ccc1N1CCC[C@H](C[NH+]2CCCC2)C1)c1ccc(-c2c3nc(c(-c4c(F)c(F)c(F)c(F)c4F)c4ccc([nH]4)c(-c4c(F)c(F)c(F)c(F)c4F)c4nc(c(-c5c(F)c(F)c(F)c(F)c5F)c5ccc2[nH]5)C=C4)C=C3)cc1
REMARK SMILES IDX 5 1 4 2 3 3 1 4 2 5 38 7 39 8 100 9 40 10 99 11 41 12 42 13
REMARK SMILES IDX 43 14 93 15 44 16 98 17 92 18 94 19 45 20 97 21 91 22 90 23
REMARK SMILES IDX 46 25 78 26 58 27 77 28 59 29 62 30 76 31 95 32 60 33 61 34
REMARK SMILES IDX 75 36 96 37 63 38 47 39 48 40 56 41 49 42 50 43 54 44 57 45
REMARK SMILES IDX 51 46 52 47 55 48 53 49 79 50 80 51 88 52 81 53 82 54 86 55
REMARK SMILES IDX 89 56 83 57 84 58 87 59 85 60 64 61 65 62 73 63 66 64 67 65
REMARK SMILES IDX 71 66 74 67 68 68 69 69 72 70 70 71 6 72 7 73 8 74 9 76
REMARK SMILES IDX 10 77 11 78 25 79 12 80 24 81 23 82 26 83 27 84 37 85 28 86
REMARK SMILES IDX 30 87 29 88 31 89 32 90 33 91 36 92 34 94 35 95 13 96 14 97
REMARK SMILES IDX 15 99 16 100 17 101 21 102 18 103 20 104 22 105 19 106
REMARK H PARENT 3 6 94 24 62 35 7 75 32 93 13 98
REMARK Flexibility Score: inf
ROOT
ATOM      1  C   UNL A   1      32.317  28.066  27.666  1.00  0.00     0.042 C 
ENDROOT
BRANCH   1   2
ATOM      2  C   UNL A   1      33.598  28.774  27.252  1.00  0.00     0.118 C 
BRANCH   2   3
ATOM      3  N   UNL A   1      33.655  30.179  27.650  1.00  0.00    -0.352 N 
ATOM      4  O   UNL A   1      34.416  32.069  28.604  1.00  0.00    -0.269 OA
ATOM      5  C   UNL A   1      34.647  30.921  28.250  1.00  0.00     0.251 C 
ATOM      6  H   UNL A   1      32.835  30.687  27.453  1.00  0.00     0.163 HD
BRANCH   5   7
ATOM      7  C   UNL A   1      35.978  30.327  28.513  1.00  0.00     0.039 A 
ATOM      8  C   UNL A   1      36.262  29.705  29.726  1.00  0.00     0.014 A 
ATOM      9  C   UNL A   1      36.965  30.393  27.523  1.00  0.00     0.014 A 
ATOM     10  C   UNL A   1      37.571  29.376  30.044  1.00  0.00     0.010 A 
ATOM     11  C   UNL A   1      38.257  29.930  27.796  1.00  0.00     0.010 A 
ATOM     12  C   UNL A   1      38.585  29.469  29.079  1.00  0.00    -0.014 A 
BRANCH  12  13
ATOM     13  C   UNL A   1      39.962  29.040  29.435  1.00  0.00     0.031 A 
ATOM     14  C   UNL A   1      40.811  29.852  30.373  1.00  0.00     0.074 A 
ATOM     15  C   UNL A   1      40.426  27.876  28.939  1.00  0.00     0.049 A 
ATOM     16  N   UNL A   1      42.035  29.625  30.783  1.00  0.00    -0.248 NA
ATOM     17  C   UNL A   1      40.219  31.082  30.919  1.00  0.00     0.031 C 
ATOM     18  C   UNL A   1      39.693  27.003  28.019  1.00  0.00     0.029 A 
ATOM     19  N   UNL A   1      41.607  27.215  29.150  1.00  0.00    -0.354 N 
ATOM     20  C   UNL A   1      42.369  30.696  31.602  1.00  0.00     0.074 A 
ATOM     21  C   UNL A   1      41.226  31.583  31.620  1.00  0.00     0.031 C 
ATOM     22  C   UNL A   1      40.412  25.895  27.794  1.00  0.00     0.029 A 
ATOM     23  C   UNL A   1      41.690  26.017  28.483  1.00  0.00     0.049 A 
ATOM     24  H   UNL A   1      42.327  27.564  29.724  1.00  0.00     0.167 HD
ATOM     25  C   UNL A   1      43.522  30.913  32.279  1.00  0.00     0.037 A 
ATOM     26  C   UNL A   1      42.694  25.124  28.410  1.00  0.00     0.037 A 
ATOM     27  C   UNL A   1      44.644  30.009  32.279  1.00  0.00     0.049 A 
ATOM     28  C   UNL A   1      43.964  25.397  29.158  1.00  0.00     0.074 A 
ATOM     29  C   UNL A   1      45.846  30.123  32.958  1.00  0.00     0.029 A 
ATOM     30  N   UNL A   1      44.702  28.820  31.565  1.00  0.00    -0.354 N 
ATOM     31  N   UNL A   1      44.263  26.410  29.933  1.00  0.00    -0.248 NA
ATOM     32  C   UNL A   1      45.039  24.408  29.014  1.00  0.00     0.031 C 
ATOM     33  C   UNL A   1      46.645  29.025  32.621  1.00  0.00     0.029 A 
ATOM     34  C   UNL A   1      45.925  28.202  31.771  1.00  0.00     0.049 A 
ATOM     35  H   UNL A   1      43.979  28.468  30.996  1.00  0.00     0.167 HD
ATOM     36  C   UNL A   1      45.555  26.179  30.379  1.00  0.00     0.074 A 
ATOM     37  C   UNL A   1      45.975  24.917  29.803  1.00  0.00     0.031 C 
ATOM     38  C   UNL A   1      46.325  26.946  31.189  1.00  0.00     0.037 A 
BRANCH  25  39
ATOM     39  C   UNL A   1      43.645  32.192  33.058  1.00  0.00     0.064 A 
ATOM     40  C   UNL A   1      43.262  32.280  34.404  1.00  0.00     0.173 A 
ATOM     41  C   UNL A   1      44.188  33.338  32.454  1.00  0.00     0.173 A 
ATOM     42  F   UNL A   1      42.726  31.219  35.025  1.00  0.00    -0.203 F 
ATOM     43  C   UNL A   1      43.397  33.473  35.111  1.00  0.00     0.198 A 
ATOM     44  C   UNL A   1      44.346  34.521  33.172  1.00  0.00     0.198 A 
ATOM     45  F   UNL A   1      44.576  33.307  31.171  1.00  0.00    -0.203 F 
ATOM     46  F   UNL A   1      42.984  33.546  36.384  1.00  0.00    -0.200 F 
ATOM     47  C   UNL A   1      43.943  34.591  34.497  1.00  0.00     0.200 A 
ATOM     48  F   UNL A   1      44.886  35.596  32.580  1.00  0.00    -0.200 F 
ATOM     49  F   UNL A   1      44.076  35.736  35.180  1.00  0.00    -0.200 F 
ENDBRANCH  25  39
BRANCH  26  50
ATOM     50  C   UNL A   1      42.524  23.903  27.584  1.00  0.00     0.064 A 
ATOM     51  C   UNL A   1      42.925  23.877  26.241  1.00  0.00     0.173 A 
ATOM     52  C   UNL A   1      41.994  22.725  28.132  1.00  0.00     0.173 A 
ATOM     53  F   UNL A   1      43.422  24.984  25.669  1.00  0.00    -0.203 F 
ATOM     54  C   UNL A   1      42.799  22.719  25.477  1.00  0.00     0.198 A 
ATOM     55  C   UNL A   1      41.896  21.560  27.375  1.00  0.00     0.198 A 
ATOM     56  F   UNL A   1      41.603  22.697  29.414  1.00  0.00    -0.203 F 
ATOM     57  F   UNL A   1      43.164  22.727  24.188  1.00  0.00    -0.200 F 
ATOM     58  C   UNL A   1      42.294  21.559  26.048  1.00  0.00     0.200 A 
ATOM     59  F   UNL A   1      41.429  20.437  27.937  1.00  0.00    -0.200 F 
ATOM     60  F   UNL A   1      42.190  20.441  25.317  1.00  0.00    -0.200 F 
ENDBRANCH  26  50
BRANCH  38  61
ATOM     61  C   UNL A   1      47.691  26.424  31.521  1.00  0.00     0.064 A 
ATOM     62  C   UNL A   1      47.916  25.625  32.651  1.00  0.00     0.173 A 
ATOM     63  C   UNL A   1      48.779  26.705  30.683  1.00  0.00     0.173 A 
ATOM     64  F   UNL A   1      46.909  25.345  33.492  1.00  0.00    -0.203 F 
ATOM     65  C   UNL A   1      49.189  25.144  32.943  1.00  0.00     0.198 A 
ATOM     66  C   UNL A   1      50.046  26.201  30.963  1.00  0.00     0.198 A 
ATOM     67  F   UNL A   1      48.612  27.463  29.589  1.00  0.00    -0.203 F 
ATOM     68  F   UNL A   1      49.393  24.421  34.052  1.00  0.00    -0.200 F 
ATOM     69  C   UNL A   1      50.251  25.426  32.095  1.00  0.00     0.200 A 
ATOM     70  F   UNL A   1      51.068  26.466  30.138  1.00  0.00    -0.200 F 
ATOM     71  F   UNL A   1      51.476  24.959  32.375  1.00  0.00    -0.200 F 
ENDBRANCH  38  61
ENDBRANCH  12  13
ENDBRANCH   5   7
ENDBRANCH   2   3
ENDBRANCH   1   2
BRANCH   1  72
ATOM     72  C   UNL A   1      32.031  26.808  26.873  1.00  0.00     0.118 C 
BRANCH  72  73
ATOM     73  N   UNL A   1      30.693  26.726  26.325  1.00  0.00    -0.352 N 
ATOM     74  C   UNL A   1      30.205  25.794  25.442  1.00  0.00     0.253 C 
ATOM     75  H   UNL A   1      30.060  27.421  26.620  1.00  0.00     0.163 HD
ATOM     76  O   UNL A   1      29.002  25.784  25.187  1.00  0.00    -0.269 OA
BRANCH  74  77
ATOM     77  C   UNL A   1      31.125  24.890  24.708  1.00  0.00     0.065 A 
ATOM     78  C   UNL A   1      31.125  23.580  25.216  1.00  0.00     0.042 A 
ATOM     79  C   UNL A   1      31.888  25.234  23.577  1.00  0.00     0.050 A 
ATOM     80  C   UNL A   1      31.756  22.540  24.548  1.00  0.00     0.042 A 
ATOM     81  C   UNL A   1      32.573  24.178  22.949  1.00  0.00     0.029 A 
ATOM     82  C   UNL A   1      32.506  22.857  23.418  1.00  0.00     0.028 A 
BRANCH  79  83
ATOM     83  N   UNL A   1      32.065  26.527  23.098  1.00  0.00    -0.370 N 
ATOM     84  C   UNL A   1      33.192  27.351  23.549  1.00  0.00     0.116 C 
ATOM     85  C   UNL A   1      31.273  26.979  21.951  1.00  0.00     0.126 C 
ATOM     86  C   UNL A   1      32.806  28.823  23.651  1.00  0.00     0.022 C 
ATOM     87  C   UNL A   1      30.771  28.409  22.193  1.00  0.00     0.064 C 
ATOM     88  C   UNL A   1      32.004  29.292  22.440  1.00  0.00     0.013 C 
BRANCH  87  89
ATOM     89  C   UNL A   1      29.710  28.386  23.327  1.00  0.00     0.267 C 
BRANCH  89  90
ATOM     90  N   UNL A   1      28.689  29.433  23.399  1.00  0.00    -0.335 N 
ATOM     91  C   UNL A   1      27.683  29.390  22.343  1.00  0.00     0.262 C 
ATOM     92  C   UNL A   1      29.172  30.805  23.508  1.00  0.00     0.262 C 
ATOM     93  H   UNL A   1      28.259  29.182  24.290  1.00  0.00     0.348 HD
ATOM     94  C   UNL A   1      28.088  30.475  21.366  1.00  0.00     0.067 C 
ATOM     95  C   UNL A   1      28.731  31.534  22.244  1.00  0.00     0.067 C 
ENDBRANCH  89  90
ENDBRANCH  87  89
ENDBRANCH  79  83
BRANCH  80  96
ATOM     96  N   UNL A   1      31.686  21.188  24.933  1.00  0.00    -0.322 N 
ATOM     97  C   UNL A   1      32.655  20.292  25.342  1.00  0.00     0.257 C 
ATOM     98  H   UNL A   1      30.777  20.810  24.906  1.00  0.00     0.170 HD
ATOM     99  O   UNL A   1      32.375  19.106  25.503  1.00  0.00    -0.269 OA
BRANCH  97 100
ATOM    100  C   UNL A   1      34.038  20.722  25.603  1.00  0.00     0.058 A 
ATOM    101  C   UNL A   1      35.027  20.264  24.720  1.00  0.00     0.015 A 
ATOM    102  C   UNL A   1      34.368  21.612  26.633  1.00  0.00     0.053 A 
ATOM    103  C   UNL A   1      36.326  20.763  24.815  1.00  0.00     0.001 A 
ATOM    104  C   UNL A   1      35.672  22.111  26.717  1.00  0.00     0.021 A 
ATOM    105  Cl  UNL A   1      33.217  22.165  27.795  1.00  0.00    -0.083 Cl
ATOM    106  C   UNL A   1      36.643  21.699  25.800  1.00  0.00     0.002 A 
ENDBRANCH  97 100
ENDBRANCH  80  96
ENDBRANCH  74  77
ENDBRANCH  72  73
ENDBRANCH   1  72
TORSDOF 15
ENDMDL
MODEL 3
REMARK VINA RESULT:     -13.0      0.363      6.912
REMARK SMILES O=C(NCCCNC(=O)c1cc(NC(=O)c2ccccc2Cl)ccc1N1CCC[C@H](C[NH+]2CCCC2)C1)c1ccc(-c2c3nc(c(-c4c(F)c(F)c(F)c(F)c4F)c4ccc([nH]4)c(-c4c(F)c(F)c(F)c(F)c4F)c4nc(c(-c5c(F)c(F)c(F)c(F)c5F)c5ccc2[nH]5)C=C4)C=C3)cc1
REMARK SMILES IDX 5 1 4 2 3 3 1 4 2 5 38 7 39 8 100 9 40 10 99 11 41 12 42 13
REMARK SMILES IDX 43 14 93 15 44 16 98 17 92 18 94 19 45 20 97 21 91 22 90 23
REMARK SMILES IDX 46 25 78 26 58 27 77 28 59 29 62 30 76 31 95 32 60 33 61 34
REMARK SMILES IDX 75 36 96 37 63 38 47 39 48 40 56 41 49 42 50 43 54 44 57 45
REMARK SMILES IDX 51 46 52 47 55 48 53 49 79 50 80 51 88 52 81 53 82 54 86 55
REMARK SMILES IDX 89 56 83 57 84 58 87 59 85 60 64 61 65 62 73 63 66 64 67 65
REMARK SMILES IDX 71 66 74 67 68 68 69 69 72 70 70 71 6 72 7 73 8 74 9 76
REMARK SMILES IDX 10 77 11 78 25 79 12 80 24 81 23 82 26 83 27 84 37 85 28 86
REMARK SMILES IDX 30 87 29 88 31 89 32 90 33 91 36 92 34 94 35 95 13 96 14 97
REMARK SMILES IDX 15 99 16 100 17 101 21 102 18 103 20 104 22 105 19 106
REMARK H PARENT 3 6 94 24 62 35 7 75 32 93 13 98
REMARK Flexibility Score: inf
ROOT
ATOM      1  C   UNL A   1      36.783  21.849  25.390  1.00  0.00     0.042 C 
ENDROOT
BRANCH   1   2
ATOM      2  C   UNL A   1      38.270  21.734  25.094  1.00  0.00     0.118 C 
BRANCH   2   3
ATOM      3  N   UNL A   1      38.981  20.803  25.967  1.00  0.00    -0.352 N 
ATOM      4  O   UNL A   1      40.509  20.034  27.429  1.00  0.00    -0.269 OA
ATOM      5  C   UNL A   1      39.974  21.000  26.900  1.00  0.00     0.251 C 
ATOM      6  H   UNL A   1      38.699  19.865  25.870  1.00  0.00     0.163 HD
BRANCH   5   7
ATOM      7  C   UNL A   1      40.431  22.367  27.237  1.00  0.00     0.039 A 
ATOM      8  C   UNL A   1      39.828  23.487  26.672  1.00  0.00     0.014 A 
ATOM      9  C   UNL A   1      41.487  22.533  28.140  1.00  0.00     0.014 A 
ATOM     10  C   UNL A   1      40.420  24.734  26.808  1.00  0.00     0.010 A 
ATOM     11  C   UNL A   1      41.998  23.812  28.387  1.00  0.00     0.010 A 
ATOM     12  C   UNL A   1      41.504  24.918  27.679  1.00  0.00    -0.014 A 
BRANCH  12  13
ATOM     13  C   UNL A   1      42.067  26.281  27.853  1.00  0.00     0.031 A 
ATOM     14  C   UNL A   1      41.338  27.328  28.648  1.00  0.00     0.074 A 
ATOM     15  C   UNL A   1      43.277  26.554  27.325  1.00  0.00     0.049 A 
ATOM     16  N   UNL A   1      41.685  28.568  28.892  1.00  0.00    -0.248 NA
ATOM     17  C   UNL A   1      40.049  26.943  29.241  1.00  0.00     0.031 C 
ATOM     18  C   UNL A   1      44.080  25.617  26.534  1.00  0.00     0.029 A 
ATOM     19  N   UNL A   1      44.053  27.681  27.388  1.00  0.00    -0.354 N 
ATOM     20  C   UNL A   1      40.645  29.117  29.632  1.00  0.00     0.074 A 
ATOM     21  C   UNL A   1      39.646  28.082  29.786  1.00  0.00     0.031 C 
ATOM     22  C   UNL A   1      45.257  26.184  26.239  1.00  0.00     0.029 A 
ATOM     23  C   UNL A   1      45.259  27.552  26.744  1.00  0.00     0.049 A 
ATOM     24  H   UNL A   1      43.774  28.504  27.851  1.00  0.00     0.167 HD
ATOM     25  C   UNL A   1      40.541  30.369  30.140  1.00  0.00     0.037 A 
ATOM     26  C   UNL A   1      46.250  28.441  26.555  1.00  0.00     0.037 A 
ATOM     27  C   UNL A   1      41.555  31.384  30.008  1.00  0.00     0.049 A 
ATOM     28  C   UNL A   1      46.101  29.823  27.116  1.00  0.00     0.074 A 
ATOM     29  C   UNL A   1      41.558  32.674  30.514  1.00  0.00     0.029 A 
ATOM     30  N   UNL A   1      42.750  31.224  29.321  1.00  0.00    -0.354 N 
ATOM     31  N   UNL A   1      45.117  30.326  27.819  1.00  0.00    -0.248 NA
ATOM     32  C   UNL A   1      47.196  30.765  26.849  1.00  0.00     0.031 C 
ATOM     33  C   UNL A   1      42.734  33.305  30.096  1.00  0.00     0.029 A 
ATOM     34  C   UNL A   1      43.487  32.396  29.371  1.00  0.00     0.049 A 
ATOM     35  H   UNL A   1      43.032  30.399  28.864  1.00  0.00     0.167 HD
ATOM     36  C   UNL A   1      45.474  31.638  28.090  1.00  0.00     0.074 A 
ATOM     37  C   UNL A   1      46.778  31.847  27.491  1.00  0.00     0.031 C 
ATOM     38  C   UNL A   1      44.783  32.585  28.770  1.00  0.00     0.037 A 
BRANCH  25  39
ATOM     39  C   UNL A   1      39.274  30.725  30.865  1.00  0.00     0.064 A 
ATOM     40  C   UNL A   1      39.134  30.540  32.249  1.00  0.00     0.173 A 
ATOM     41  C   UNL A   1      38.196  31.293  30.168  1.00  0.00     0.173 A 
ATOM     42  F   UNL A   1      40.129  29.989  32.960  1.00  0.00    -0.203 F 
ATOM     43  C   UNL A   1      37.955  30.889  32.903  1.00  0.00     0.198 A 
ATOM     44  C   UNL A   1      37.029  31.666  30.830  1.00  0.00     0.198 A 
ATOM     45  F   UNL A   1      38.279  31.498  28.845  1.00  0.00    -0.203 F 
ATOM     46  F   UNL A   1      37.827  30.662  34.218  1.00  0.00    -0.200 F 
ATOM     47  C   UNL A   1      36.905  31.457  32.195  1.00  0.00     0.200 A 
ATOM     48  F   UNL A   1      36.021  32.226  30.146  1.00  0.00    -0.200 F 
ATOM     49  F   UNL A   1      35.773  31.796  32.827  1.00  0.00    -0.200 F 
ENDBRANCH  25  39
BRANCH  26  50
ATOM     50  C   UNL A   1      47.455  28.038  25.788  1.00  0.00     0.064 A 
ATOM     51  C   UNL A   1      48.659  27.738  26.439  1.00  0.00     0.173 A 
ATOM     52  C   UNL A   1      47.415  27.905  24.391  1.00  0.00     0.173 A 
ATOM     53  F   UNL A   1      48.750  27.866  27.771  1.00  0.00    -0.203 F 
ATOM     54  C   UNL A   1      49.779  27.324  25.721  1.00  0.00     0.198 A 
ATOM     55  C   UNL A   1      48.527  27.463  23.678  1.00  0.00     0.198 A 
ATOM     56  F   UNL A   1      46.284  28.173  23.724  1.00  0.00    -0.203 F 
ATOM     57  F   UNL A   1      50.927  27.070  26.363  1.00  0.00    -0.200 F 
ATOM     58  C   UNL A   1      49.709  27.177  24.343  1.00  0.00     0.200 A 
ATOM     59  F   UNL A   1      48.446  27.302  22.351  1.00  0.00    -0.200 F 
ATOM     60  F   UNL A   1      50.781  26.762  23.655  1.00  0.00    -0.200 F 
ENDBRANCH  26  50
BRANCH  38  61
ATOM     61  C   UNL A   1      45.438  33.925  28.924  1.00  0.00     0.064 A 
ATOM     62  C   UNL A   1      46.291  34.204  30.000  1.00  0.00     0.173 A 
ATOM     63  C   UNL A   1      45.229  34.930  27.968  1.00  0.00     0.173 A 
ATOM     64  F   UNL A   1      46.507  33.280  30.949  1.00  0.00    -0.203 F 
ATOM     65  C   UNL A   1      46.896  35.452  30.126  1.00  0.00     0.198 A 
ATOM     66  C   UNL A   1      45.856  36.166  28.083  1.00  0.00     0.198 A 
ATOM     67  F   UNL A   1      44.423  34.708  26.919  1.00  0.00    -0.203 F 
ATOM     68  F   UNL A   1      47.672  35.714  31.187  1.00  0.00    -0.200 F 
ATOM     69  C   UNL A   1      46.683  36.428  29.164  1.00  0.00     0.200 A 
ATOM     70  F   UNL A   1      45.657  37.105  27.148  1.00  0.00    -0.200 F 
ATOM     71  F   UNL A   1      47.270  37.628  29.285  1.00  0.00    -0.200 F 
ENDBRANCH  38  61
ENDBRANCH  12  13
ENDBRANCH   5   7
ENDBRANCH   2   3
ENDBRANCH   1   2
BRANCH   1  72
ATOM     72  C   UNL A   1      36.199  23.209  25.071  1.00  0.00     0.118 C 
BRANCH  72  73
ATOM     73  N   UNL A   1      35.624  23.328  23.748  1.00  0.00    -0.352 N 
ATOM     74  C   UNL A   1      34.293  23.415  23.418  1.00  0.00     0.253 C 
ATOM     75  H   UNL A   1      36.261  23.349  22.998  1.00  0.00     0.163 HD
ATOM     76  O   UNL A   1      33.980  23.656  22.253  1.00  0.00    -0.269 OA
BRANCH  74  77
ATOM     77  C   UNL A   1      33.242  23.102  24.417  1.00  0.00     0.065 A 
ATOM     78  C   UNL A   1      32.947  24.187  25.259  1.00  0.00     0.042 A 
ATOM     79  C   UNL A   1      32.535  21.888  24.515  1.00  0.00     0.050 A 
ATOM     80  C   UNL A   1      31.858  24.166  26.120  1.00  0.00     0.042 A 
ATOM     81  C   UNL A   1      31.474  21.864  25.439  1.00  0.00     0.029 A 
ATOM     82  C   UNL A   1      31.135  22.979  26.221  1.00  0.00     0.028 A 
BRANCH  79  83
ATOM     83  N   UNL A   1      32.856  20.722  23.832  1.00  0.00    -0.370 N 
ATOM     84  C   UNL A   1      32.143  20.344  22.607  1.00  0.00     0.116 C 
ATOM     85  C   UNL A   1      34.077  19.995  24.192  1.00  0.00     0.126 C 
ATOM     86  C   UNL A   1      31.976  18.832  22.497  1.00  0.00     0.022 C 
ATOM     87  C   UNL A   1      33.796  18.486  24.231  1.00  0.00     0.064 C 
ATOM     88  C   UNL A   1      33.260  18.084  22.849  1.00  0.00     0.013 C 
BRANCH  87  89
ATOM     89  C   UNL A   1      32.870  18.177  25.438  1.00  0.00     0.267 C 
BRANCH  89  90
ATOM     90  N   UNL A   1      33.032  16.930  26.188  1.00  0.00    -0.335 N 
ATOM     91  C   UNL A   1      34.284  16.221  25.946  1.00  0.00     0.262 C 
ATOM     92  C   UNL A   1      31.941  15.966  26.090  1.00  0.00     0.262 C 
ATOM     93  H   UNL A   1      33.032  17.306  27.136  1.00  0.00     0.348 HD
ATOM     94  C   UNL A   1      33.922  15.087  25.008  1.00  0.00     0.067 C 
ATOM     95  C   UNL A   1      32.501  14.727  25.404  1.00  0.00     0.067 C 
ENDBRANCH  89  90
ENDBRANCH  87  89
ENDBRANCH  79  83
BRANCH  80  96
ATOM     96  N   UNL A   1      31.432  25.263  26.892  1.00  0.00    -0.322 N 
ATOM     97  C   UNL A   1      31.183  26.582  26.565  1.00  0.00     0.257 C 
ATOM     98  H   UNL A   1      31.284  25.051  27.842  1.00  0.00     0.170 HD
ATOM     99  O   UNL A   1      30.944  27.405  27.446  1.00  0.00    -0.269 OA
BRANCH  97 100
ATOM    100  C   UNL A   1      31.190  27.041  25.166  1.00  0.00     0.058 A 
ATOM    101  C   UNL A   1      30.041  26.782  24.404  1.00  0.00     0.015 A 
ATOM    102  C   UNL A   1      32.250  27.776  24.620  1.00  0.00     0.053 A 
ATOM    103  C   UNL A   1      29.918  27.330  23.128  1.00  0.00     0.001 A 
ATOM    104  C   UNL A   1      32.115  28.326  23.342  1.00  0.00     0.021 A 
ATOM    105  Cl  UNL A   1      33.718  28.077  25.477  1.00  0.00    -0.083 Cl
ATOM    106  C   UNL A   1      30.946  28.117  22.604  1.00  0.00     0.002 A 
ENDBRANCH  97 100
ENDBRANCH  80  96
ENDBRANCH  74  77
ENDBRANCH  72  73
ENDBRANCH   1  72
TORSDOF 15
ENDMDL
