MODEL 1
REMARK VINA RESULT:     -12.0      0.000      0.000
REMARK SMILES CC[C@H]1CCCC[C@@H]1C1(C(=O)NCCCNC(=O)c2ccc(-c3c4nc(c(-c5c(F)c(F)c(F)c(F)c5F)c5ccc([nH]5)c(-c5c(F)c(F)c(F)c(F)c5F)c5nc(c(-c6c(F)c(F)c(F)c(F)c6F)c6ccc3[nH]6)C=C5)C=C4)cc2)CC1
REMARK SMILES IDX 14 1 13 2 12 3 10 4 11 5 9 7 82 8 83 9 8 10 3 11 4 12 5 13
REMARK SMILES IDX 7 14 6 15 2 16 1 17 15 18 16 19 17 20 18 22 19 23 20 24
REMARK SMILES IDX 81 25 21 26 80 27 22 28 23 29 24 30 74 31 25 32 79 33 73 34
REMARK SMILES IDX 75 35 26 36 78 37 72 38 71 39 27 41 59 42 39 43 58 44 40 45
REMARK SMILES IDX 43 46 57 47 76 48 41 49 42 50 56 52 77 53 44 54 28 55 29 56
REMARK SMILES IDX 37 57 30 58 31 59 35 60 38 61 32 62 33 63 36 64 34 65 60 66
REMARK SMILES IDX 61 67 69 68 62 69 63 70 67 71 70 72 64 73 65 74 68 75 66 76
REMARK SMILES IDX 45 77 46 78 54 79 47 80 48 81 52 82 55 83 49 84 50 85 53 86
REMARK SMILES IDX 51 87
REMARK H PARENT 12 6 16 21 75 40 43 51
REMARK Flexibility Score: inf
ROOT
ATOM      1  C   UNL A   1      31.558  28.969  25.384  1.00  0.00     0.042 C 
ENDROOT
BRANCH   1   2
ATOM      2  C   UNL A   1      31.366  28.992  23.872  1.00  0.00     0.117 C 
BRANCH   2   3
ATOM      3  N   UNL A   1      32.616  28.877  23.151  1.00  0.00    -0.356 N 
ATOM      4  C   UNL A   1      33.352  27.854  22.631  1.00  0.00     0.226 C 
ATOM      5  O   UNL A   1      34.315  28.202  21.947  1.00  0.00    -0.274 OA
ATOM      6  H   UNL A   1      33.040  29.753  22.999  1.00  0.00     0.163 HD
BRANCH   4   7
ATOM      7  C   UNL A   1      33.079  26.362  22.821  1.00  0.00     0.052 C 
ATOM      8  C   UNL A   1      32.627  25.640  21.548  1.00  0.00     0.018 C 
ATOM      9  C   UNL A   1      31.698  25.738  22.716  1.00  0.00     0.018 C 
BRANCH   7  10
ATOM     10  C   UNL A   1      34.081  25.692  23.829  1.00  0.00     0.008 C 
ATOM     11  C   UNL A   1      34.254  24.144  23.819  1.00  0.00    -0.007 C 
ATOM     12  C   UNL A   1      33.246  23.408  24.724  1.00  0.00     0.004 C 
ATOM     13  C   UNL A   1      33.100  24.021  26.111  1.00  0.00     0.000 C 
ATOM     14  C   UNL A   1      33.864  26.257  25.251  1.00  0.00     0.005 C 
ATOM     15  C   UNL A   1      32.804  25.511  26.050  1.00  0.00     0.000 C 
BRANCH  11  16
ATOM     16  C   UNL A   1      35.697  23.753  24.251  1.00  0.00     0.000 C 
ATOM     17  C   UNL A   1      36.448  22.954  23.188  1.00  0.00     0.004 C 
ENDBRANCH  11  16
ENDBRANCH   7  10
ENDBRANCH   4   7
ENDBRANCH   2   3
ENDBRANCH   1   2
BRANCH   1  18
ATOM     18  C   UNL A   1      32.824  29.677  25.867  1.00  0.00     0.118 C 
BRANCH  18  19
ATOM     19  N   UNL A   1      32.582  31.047  26.307  1.00  0.00    -0.352 N 
ATOM     20  C   UNL A   1      33.254  31.834  27.206  1.00  0.00     0.251 C 
ATOM     21  H   UNL A   1      31.803  31.480  25.887  1.00  0.00     0.163 HD
ATOM     22  O   UNL A   1      32.763  32.899  27.577  1.00  0.00    -0.269 OA
BRANCH  20  23
ATOM     23  C   UNL A   1      34.550  31.395  27.753  1.00  0.00     0.039 A 
ATOM     24  C   UNL A   1      35.569  32.337  27.917  1.00  0.00     0.014 A 
ATOM     25  C   UNL A   1      34.761  30.060  28.103  1.00  0.00     0.014 A 
ATOM     26  C   UNL A   1      36.767  31.958  28.523  1.00  0.00     0.010 A 
ATOM     27  C   UNL A   1      35.922  29.700  28.778  1.00  0.00     0.010 A 
ATOM     28  C   UNL A   1      36.929  30.650  29.008  1.00  0.00    -0.014 A 
BRANCH  28  29
ATOM     29  C   UNL A   1      38.119  30.267  29.805  1.00  0.00     0.031 A 
ATOM     30  C   UNL A   1      39.126  29.300  29.255  1.00  0.00     0.074 A 
ATOM     31  C   UNL A   1      38.238  30.726  31.066  1.00  0.00     0.049 A 
ATOM     32  N   UNL A   1      40.185  28.790  29.833  1.00  0.00    -0.248 NA
ATOM     33  C   UNL A   1      38.898  28.822  27.884  1.00  0.00     0.031 C 
ATOM     34  C   UNL A   1      37.301  31.637  31.724  1.00  0.00     0.029 A 
ATOM     35  N   UNL A   1      39.190  30.481  32.023  1.00  0.00    -0.354 N 
ATOM     36  C   UNL A   1      40.739  27.922  28.902  1.00  0.00     0.074 A 
ATOM     37  C   UNL A   1      39.870  27.933  27.745  1.00  0.00     0.031 C 
ATOM     38  C   UNL A   1      37.742  31.903  32.963  1.00  0.00     0.029 A 
ATOM     39  C   UNL A   1      38.963  31.142  33.205  1.00  0.00     0.049 A 
ATOM     40  H   UNL A   1      39.962  29.889  31.876  1.00  0.00     0.167 HD
ATOM     41  C   UNL A   1      41.879  27.196  29.000  1.00  0.00     0.037 A 
ATOM     42  C   UNL A   1      39.658  31.129  34.358  1.00  0.00     0.037 A 
ATOM     43  C   UNL A   1      42.739  27.198  30.155  1.00  0.00     0.049 A 
ATOM     44  C   UNL A   1      40.892  30.276  34.459  1.00  0.00     0.074 A 
ATOM     45  C   UNL A   1      43.954  26.558  30.328  1.00  0.00     0.029 A 
ATOM     46  N   UNL A   1      42.465  27.859  31.344  1.00  0.00    -0.354 N 
ATOM     47  N   UNL A   1      41.456  29.525  33.546  1.00  0.00    -0.248 NA
ATOM     48  C   UNL A   1      41.582  30.268  35.756  1.00  0.00     0.031 C 
ATOM     49  C   UNL A   1      44.379  26.775  31.644  1.00  0.00     0.029 A 
ATOM     50  C   UNL A   1      43.463  27.604  32.272  1.00  0.00     0.049 A 
ATOM     51  H   UNL A   1      41.676  28.426  31.506  1.00  0.00     0.167 HD
ATOM     52  C   UNL A   1      42.580  28.974  34.144  1.00  0.00     0.074 A 
ATOM     53  C   UNL A   1      42.626  29.491  35.497  1.00  0.00     0.031 C 
ATOM     54  C   UNL A   1      43.492  28.118  33.620  1.00  0.00     0.037 A 
BRANCH  41  55
ATOM     55  C   UNL A   1      42.244  26.323  27.832  1.00  0.00     0.064 A 
ATOM     56  C   UNL A   1      43.175  26.729  26.863  1.00  0.00     0.173 A 
ATOM     57  C   UNL A   1      41.653  25.059  27.678  1.00  0.00     0.173 A 
ATOM     58  F   UNL A   1      43.764  27.931  26.955  1.00  0.00    -0.203 F 
ATOM     59  C   UNL A   1      43.463  25.927  25.761  1.00  0.00     0.198 A 
ATOM     60  C   UNL A   1      41.972  24.243  26.596  1.00  0.00     0.198 A 
ATOM     61  F   UNL A   1      40.764  24.613  28.579  1.00  0.00    -0.203 F 
ATOM     62  F   UNL A   1      44.300  26.370  24.814  1.00  0.00    -0.200 F 
ATOM     63  C   UNL A   1      42.865  24.683  25.631  1.00  0.00     0.200 A 
ATOM     64  F   UNL A   1      41.406  23.033  26.481  1.00  0.00    -0.200 F 
ATOM     65  F   UNL A   1      43.140  23.913  24.570  1.00  0.00    -0.200 F 
ENDBRANCH  41  55
BRANCH  42  66
ATOM     66  C   UNL A   1      39.216  31.978  35.494  1.00  0.00     0.064 A 
ATOM     67  C   UNL A   1      38.400  31.448  36.504  1.00  0.00     0.173 A 
ATOM     68  C   UNL A   1      39.612  33.319  35.612  1.00  0.00     0.173 A 
ATOM     69  F   UNL A   1      37.979  30.178  36.425  1.00  0.00    -0.203 F 
ATOM     70  C   UNL A   1      37.992  32.229  37.583  1.00  0.00     0.198 A 
ATOM     71  C   UNL A   1      39.227  34.090  36.706  1.00  0.00     0.198 A 
ATOM     72  F   UNL A   1      40.398  33.872  34.675  1.00  0.00    -0.203 F 
ATOM     73  F   UNL A   1      37.186  31.706  38.516  1.00  0.00    -0.200 F 
ATOM     74  C   UNL A   1      38.412  33.546  37.688  1.00  0.00     0.200 A 
ATOM     75  F   UNL A   1      39.649  35.357  36.812  1.00  0.00    -0.200 F 
ATOM     76  F   UNL A   1      38.030  34.292  38.733  1.00  0.00    -0.200 F 
ENDBRANCH  42  66
BRANCH  54  77
ATOM     77  C   UNL A   1      44.632  27.700  34.504  1.00  0.00     0.064 A 
ATOM     78  C   UNL A   1      44.569  26.535  35.283  1.00  0.00     0.173 A 
ATOM     79  C   UNL A   1      45.818  28.448  34.538  1.00  0.00     0.173 A 
ATOM     80  F   UNL A   1      43.451  25.794  35.301  1.00  0.00    -0.203 F 
ATOM     81  C   UNL A   1      45.645  26.148  36.080  1.00  0.00     0.198 A 
ATOM     82  C   UNL A   1      46.904  28.039  35.308  1.00  0.00     0.198 A 
ATOM     83  F   UNL A   1      45.932  29.568  33.809  1.00  0.00    -0.203 F 
ATOM     84  F   UNL A   1      45.545  25.057  36.852  1.00  0.00    -0.200 F 
ATOM     85  C   UNL A   1      46.814  26.893  36.084  1.00  0.00     0.200 A 
ATOM     86  F   UNL A   1      48.038  28.754  35.298  1.00  0.00    -0.200 F 
ATOM     87  F   UNL A   1      47.851  26.512  36.840  1.00  0.00    -0.200 F 
ENDBRANCH  54  77
ENDBRANCH  28  29
ENDBRANCH  20  23
ENDBRANCH  18  19
ENDBRANCH   1  18
TORSDOF 12
ENDMDL
MODEL 2
REMARK VINA RESULT:     -12.0      1.965      3.558
REMARK SMILES CC[C@H]1CCCC[C@@H]1C1(C(=O)NCCCNC(=O)c2ccc(-c3c4nc(c(-c5c(F)c(F)c(F)c(F)c5F)c5ccc([nH]5)c(-c5c(F)c(F)c(F)c(F)c5F)c5nc(c(-c6c(F)c(F)c(F)c(F)c6F)c6ccc3[nH]6)C=C5)C=C4)cc2)CC1
REMARK SMILES IDX 14 1 13 2 12 3 10 4 11 5 9 7 82 8 83 9 8 10 3 11 4 12 5 13
REMARK SMILES IDX 7 14 6 15 2 16 1 17 15 18 16 19 17 20 18 22 19 23 20 24
REMARK SMILES IDX 81 25 21 26 80 27 22 28 23 29 24 30 74 31 25 32 79 33 73 34
REMARK SMILES IDX 75 35 26 36 78 37 72 38 71 39 27 41 59 42 39 43 58 44 40 45
REMARK SMILES IDX 43 46 57 47 76 48 41 49 42 50 56 52 77 53 44 54 28 55 29 56
REMARK SMILES IDX 37 57 30 58 31 59 35 60 38 61 32 62 33 63 36 64 34 65 60 66
REMARK SMILES IDX 61 67 69 68 62 69 63 70 67 71 70 72 64 73 65 74 68 75 66 76
REMARK SMILES IDX 45 77 46 78 54 79 47 80 48 81 52 82 55 83 49 84 50 85 53 86
REMARK SMILES IDX 51 87
REMARK H PARENT 12 6 16 21 75 40 43 51
REMARK Flexibility Score: inf
ROOT
ATOM      1  C   UNL A   1      31.450  31.991  26.833  1.00  0.00     0.042 C 
ENDROOT
BRANCH   1   2
ATOM      2  C   UNL A   1      31.732  30.659  26.149  1.00  0.00     0.117 C 
BRANCH   2   3
ATOM      3  N   UNL A   1      32.993  30.079  26.558  1.00  0.00    -0.356 N 
ATOM      4  C   UNL A   1      33.670  28.927  26.289  1.00  0.00     0.226 C 
ATOM      5  O   UNL A   1      34.814  28.878  26.743  1.00  0.00    -0.274 OA
ATOM      6  H   UNL A   1      33.483  30.659  27.184  1.00  0.00     0.163 HD
BRANCH   4   7
ATOM      7  C   UNL A   1      33.139  27.736  25.491  1.00  0.00     0.052 C 
ATOM      8  C   UNL A   1      32.377  26.708  26.333  1.00  0.00     0.018 C 
ATOM      9  C   UNL A   1      33.652  26.316  25.656  1.00  0.00     0.018 C 
BRANCH   7  10
ATOM     10  C   UNL A   1      32.645  28.146  24.057  1.00  0.00     0.008 C 
ATOM     11  C   UNL A   1      31.163  27.883  23.656  1.00  0.00    -0.007 C 
ATOM     12  C   UNL A   1      30.928  26.482  23.060  1.00  0.00     0.004 C 
ATOM     13  C   UNL A   1      31.952  26.079  22.006  1.00  0.00     0.000 C 
ATOM     14  C   UNL A   1      33.647  27.655  22.988  1.00  0.00     0.005 C 
ATOM     15  C   UNL A   1      33.379  26.236  22.505  1.00  0.00     0.000 C 
BRANCH  11  16
ATOM     16  C   UNL A   1      30.676  28.952  22.634  1.00  0.00     0.000 C 
ATOM     17  C   UNL A   1      29.547  29.828  23.171  1.00  0.00     0.004 C 
ENDBRANCH  11  16
ENDBRANCH   7  10
ENDBRANCH   4   7
ENDBRANCH   2   3
ENDBRANCH   1   2
BRANCH   1  18
ATOM     18  C   UNL A   1      32.702  32.725  27.316  1.00  0.00     0.118 C 
BRANCH  18  19
ATOM     19  N   UNL A   1      32.459  34.130  27.625  1.00  0.00    -0.352 N 
ATOM     20  C   UNL A   1      33.019  34.953  28.568  1.00  0.00     0.251 C 
ATOM     21  H   UNL A   1      31.775  34.561  27.062  1.00  0.00     0.163 HD
ATOM     22  O   UNL A   1      32.528  36.058  28.789  1.00  0.00    -0.269 OA
BRANCH  20  23
ATOM     23  C   UNL A   1      34.194  34.506  29.338  1.00  0.00     0.039 A 
ATOM     24  C   UNL A   1      34.001  33.962  30.610  1.00  0.00     0.014 A 
ATOM     25  C   UNL A   1      35.480  34.624  28.809  1.00  0.00     0.014 A 
ATOM     26  C   UNL A   1      35.091  33.446  31.312  1.00  0.00     0.010 A 
ATOM     27  C   UNL A   1      36.553  34.039  29.472  1.00  0.00     0.010 A 
ATOM     28  C   UNL A   1      36.365  33.431  30.722  1.00  0.00    -0.014 A 
BRANCH  28  29
ATOM     29  C   UNL A   1      37.505  32.738  31.370  1.00  0.00     0.031 A 
ATOM     30  C   UNL A   1      38.184  31.586  30.690  1.00  0.00     0.074 A 
ATOM     31  C   UNL A   1      37.866  33.096  32.618  1.00  0.00     0.049 A 
ATOM     32  N   UNL A   1      39.143  30.812  31.133  1.00  0.00    -0.248 NA
ATOM     33  C   UNL A   1      37.702  31.240  29.345  1.00  0.00     0.031 C 
ATOM     34  C   UNL A   1      37.252  34.174  33.396  1.00  0.00     0.029 A 
ATOM     35  N   UNL A   1      38.826  32.588  33.455  1.00  0.00    -0.354 N 
ATOM     36  C   UNL A   1      39.368  29.881  30.128  1.00  0.00     0.074 A 
ATOM     37  C   UNL A   1      38.410  30.152  29.079  1.00  0.00     0.031 C 
ATOM     38  C   UNL A   1      37.874  34.269  34.581  1.00  0.00     0.029 A 
ATOM     39  C   UNL A   1      38.893  33.229  34.667  1.00  0.00     0.049 A 
ATOM     40  H   UNL A   1      39.412  31.836  33.208  1.00  0.00     0.167 HD
ATOM     41  C   UNL A   1      40.303  28.900  30.080  1.00  0.00     0.037 A 
ATOM     42  C   UNL A   1      39.683  32.997  35.733  1.00  0.00     0.037 A 
ATOM     43  C   UNL A   1      41.256  28.644  31.130  1.00  0.00     0.049 A 
ATOM     44  C   UNL A   1      40.678  31.872  35.675  1.00  0.00     0.074 A 
ATOM     45  C   UNL A   1      42.291  27.726  31.150  1.00  0.00     0.029 A 
ATOM     46  N   UNL A   1      41.278  29.296  32.355  1.00  0.00    -0.354 N 
ATOM     47  N   UNL A   1      40.942  31.050  34.689  1.00  0.00    -0.248 NA
ATOM     48  C   UNL A   1      41.480  31.639  36.883  1.00  0.00     0.031 C 
ATOM     49  C   UNL A   1      42.894  27.774  32.412  1.00  0.00     0.029 A 
ATOM     50  C   UNL A   1      42.277  28.767  33.157  1.00  0.00     0.049 A 
ATOM     51  H   UNL A   1      40.672  30.027  32.616  1.00  0.00     0.167 HD
ATOM     52  C   UNL A   1      41.957  30.221  35.144  1.00  0.00     0.074 A 
ATOM     53  C   UNL A   1      42.270  30.648  36.492  1.00  0.00     0.031 C 
ATOM     54  C   UNL A   1      42.574  29.197  34.502  1.00  0.00     0.037 A 
BRANCH  41  55
ATOM     55  C   UNL A   1      40.319  28.020  28.862  1.00  0.00     0.064 A 
ATOM     56  C   UNL A   1      39.613  26.808  28.812  1.00  0.00     0.173 A 
ATOM     57  C   UNL A   1      41.051  28.395  27.724  1.00  0.00     0.173 A 
ATOM     58  F   UNL A   1      38.903  26.396  29.874  1.00  0.00    -0.203 F 
ATOM     59  C   UNL A   1      39.680  25.982  27.692  1.00  0.00     0.198 A 
ATOM     60  C   UNL A   1      41.085  27.586  26.592  1.00  0.00     0.198 A 
ATOM     61  F   UNL A   1      41.736  29.548  27.710  1.00  0.00    -0.203 F 
ATOM     62  F   UNL A   1      39.056  24.796  27.699  1.00  0.00    -0.200 F 
ATOM     63  C   UNL A   1      40.411  26.374  26.582  1.00  0.00     0.200 A 
ATOM     64  F   UNL A   1      41.779  27.974  25.513  1.00  0.00    -0.200 F 
ATOM     65  F   UNL A   1      40.478  25.577  25.506  1.00  0.00    -0.200 F 
ENDBRANCH  41  55
BRANCH  42  66
ATOM     66  C   UNL A   1      39.583  33.874  36.928  1.00  0.00     0.064 A 
ATOM     67  C   UNL A   1      40.284  35.087  36.980  1.00  0.00     0.173 A 
ATOM     68  C   UNL A   1      38.776  33.538  38.025  1.00  0.00     0.173 A 
ATOM     69  F   UNL A   1      41.083  35.442  35.965  1.00  0.00    -0.203 F 
ATOM     70  C   UNL A   1      40.187  35.927  38.088  1.00  0.00     0.198 A 
ATOM     71  C   UNL A   1      38.657  34.392  39.119  1.00  0.00     0.198 A 
ATOM     72  F   UNL A   1      38.080  32.391  38.022  1.00  0.00    -0.203 F 
ATOM     73  F   UNL A   1      40.893  37.065  38.126  1.00  0.00    -0.200 F 
ATOM     74  C   UNL A   1      39.367  35.583  39.152  1.00  0.00     0.200 A 
ATOM     75  F   UNL A   1      37.851  34.065  40.138  1.00  0.00    -0.200 F 
ATOM     76  F   UNL A   1      39.264  36.398  40.211  1.00  0.00    -0.200 F 
ENDBRANCH  42  66
BRANCH  54  77
ATOM     77  C   UNL A   1      43.666  28.478  35.242  1.00  0.00     0.064 A 
ATOM     78  C   UNL A   1      43.403  27.342  36.021  1.00  0.00     0.173 A 
ATOM     79  C   UNL A   1      44.998  28.905  35.134  1.00  0.00     0.173 A 
ATOM     80  F   UNL A   1      42.143  26.904  36.172  1.00  0.00    -0.203 F 
ATOM     81  C   UNL A   1      44.431  26.673  36.681  1.00  0.00     0.198 A 
ATOM     82  C   UNL A   1      46.028  28.213  35.766  1.00  0.00     0.198 A 
ATOM     83  F   UNL A   1      45.306  29.984  34.397  1.00  0.00    -0.203 F 
ATOM     84  F   UNL A   1      44.150  25.618  37.458  1.00  0.00    -0.200 F 
ATOM     85  C   UNL A   1      45.742  27.102  36.545  1.00  0.00     0.200 A 
ATOM     86  F   UNL A   1      47.296  28.621  35.621  1.00  0.00    -0.200 F 
ATOM     87  F   UNL A   1      46.731  26.449  37.171  1.00  0.00    -0.200 F 
ENDBRANCH  54  77
ENDBRANCH  28  29
ENDBRANCH  20  23
ENDBRANCH  18  19
ENDBRANCH   1  18
TORSDOF 12
ENDMDL
MODEL 3
REMARK VINA RESULT:     -12.0      1.895      3.391
REMARK SMILES CC[C@H]1CCCC[C@@H]1C1(C(=O)NCCCNC(=O)c2ccc(-c3c4nc(c(-c5c(F)c(F)c(F)c(F)c5F)c5ccc([nH]5)c(-c5c(F)c(F)c(F)c(F)c5F)c5nc(c(-c6c(F)c(F)c(F)c(F)c6F)c6ccc3[nH]6)C=C5)C=C4)cc2)CC1
REMARK SMILES IDX 14 1 13 2 12 3 10 4 11 5 9 7 82 8 83 9 8 10 3 11 4 12 5 13
REMARK SMILES IDX 7 14 6 15 2 16 1 17 15 18 16 19 17 20 18 22 19 23 20 24
REMARK SMILES IDX 81 25 21 26 80 27 22 28 23 29 24 30 74 31 25 32 79 33 73 34
REMARK SMILES IDX 75 35 26 36 78 37 72 38 71 39 27 41 59 42 39 43 58 44 40 45
REMARK SMILES IDX 43 46 57 47 76 48 41 49 42 50 56 52 77 53 44 54 28 55 29 56
REMARK SMILES IDX 37 57 30 58 31 59 35 60 38 61 32 62 33 63 36 64 34 65 60 66
REMARK SMILES IDX 61 67 69 68 62 69 63 70 67 71 70 72 64 73 65 74 68 75 66 76
REMARK SMILES IDX 45 77 46 78 54 79 47 80 48 81 52 82 55 83 49 84 50 85 53 86
REMARK SMILES IDX 51 87
REMARK H PARENT 12 6 16 21 75 40 43 51
REMARK Flexibility Score: inf
ROOT
ATOM      1  C   UNL A   1      31.442  31.956  26.839  1.00  0.00     0.042 C 
ENDROOT
BRANCH   1   2
ATOM      2  C   UNL A   1      31.747  30.681  26.061  1.00  0.00     0.117 C 
BRANCH   2   3
ATOM      3  N   UNL A   1      32.968  30.040  26.500  1.00  0.00    -0.356 N 
ATOM      4  C   UNL A   1      33.767  29.040  26.032  1.00  0.00     0.226 C 
ATOM      5  O   UNL A   1      34.824  28.889  26.646  1.00  0.00    -0.274 OA
ATOM      6  H   UNL A   1      33.304  30.420  27.343  1.00  0.00     0.163 HD
BRANCH   4   7
ATOM      7  C   UNL A   1      33.464  28.128  24.843  1.00  0.00     0.052 C 
ATOM      8  C   UNL A   1      34.166  28.537  23.545  1.00  0.00     0.018 C 
ATOM      9  C   UNL A   1      32.673  28.567  23.624  1.00  0.00     0.018 C 
BRANCH   7  10
ATOM     10  C   UNL A   1      33.335  26.618  25.262  1.00  0.00     0.008 C 
ATOM     11  C   UNL A   1      33.225  25.526  24.158  1.00  0.00    -0.007 C 
ATOM     12  C   UNL A   1      31.778  25.261  23.698  1.00  0.00     0.004 C 
ATOM     13  C   UNL A   1      30.785  25.107  24.844  1.00  0.00     0.000 C 
ATOM     14  C   UNL A   1      32.262  26.462  26.363  1.00  0.00     0.005 C 
ATOM     15  C   UNL A   1      30.852  26.271  25.820  1.00  0.00     0.000 C 
BRANCH  11  16
ATOM     16  C   UNL A   1      33.850  24.188  24.649  1.00  0.00     0.000 C 
ATOM     17  C   UNL A   1      35.152  24.379  25.422  1.00  0.00     0.004 C 
ENDBRANCH  11  16
ENDBRANCH   7  10
ENDBRANCH   4   7
ENDBRANCH   2   3
ENDBRANCH   1   2
BRANCH   1  18
ATOM     18  C   UNL A   1      32.681  32.679  27.368  1.00  0.00     0.118 C 
BRANCH  18  19
ATOM     19  N   UNL A   1      32.444  34.090  27.654  1.00  0.00    -0.352 N 
ATOM     20  C   UNL A   1      33.012  34.928  28.578  1.00  0.00     0.251 C 
ATOM     21  H   UNL A   1      31.758  34.512  27.086  1.00  0.00     0.163 HD
ATOM     22  O   UNL A   1      32.524  36.038  28.782  1.00  0.00    -0.269 OA
BRANCH  20  23
ATOM     23  C   UNL A   1      34.189  34.492  29.350  1.00  0.00     0.039 A 
ATOM     24  C   UNL A   1      33.999  33.933  30.615  1.00  0.00     0.014 A 
ATOM     25  C   UNL A   1      35.476  34.635  28.828  1.00  0.00     0.014 A 
ATOM     26  C   UNL A   1      35.094  33.427  31.317  1.00  0.00     0.010 A 
ATOM     27  C   UNL A   1      36.555  34.060  29.490  1.00  0.00     0.010 A 
ATOM     28  C   UNL A   1      36.371  33.437  30.734  1.00  0.00    -0.014 A 
BRANCH  28  29
ATOM     29  C   UNL A   1      37.518  32.756  31.380  1.00  0.00     0.031 A 
ATOM     30  C   UNL A   1      38.194  31.596  30.709  1.00  0.00     0.074 A 
ATOM     31  C   UNL A   1      37.890  33.132  32.619  1.00  0.00     0.049 A 
ATOM     32  N   UNL A   1      39.159  30.831  31.154  1.00  0.00    -0.248 NA
ATOM     33  C   UNL A   1      37.701  31.231  29.374  1.00  0.00     0.031 C 
ATOM     34  C   UNL A   1      37.281  34.218  33.389  1.00  0.00     0.029 A 
ATOM     35  N   UNL A   1      38.859  32.638  33.454  1.00  0.00    -0.354 N 
ATOM     36  C   UNL A   1      39.377  29.886  30.160  1.00  0.00     0.074 A 
ATOM     37  C   UNL A   1      38.408  30.141  29.116  1.00  0.00     0.031 C 
ATOM     38  C   UNL A   1      37.913  34.332  34.567  1.00  0.00     0.029 A 
ATOM     39  C   UNL A   1      38.936  33.294  34.657  1.00  0.00     0.049 A 
ATOM     40  H   UNL A   1      39.444  31.884  33.213  1.00  0.00     0.167 HD
ATOM     41  C   UNL A   1      40.313  28.908  30.117  1.00  0.00     0.037 A 
ATOM     42  C   UNL A   1      39.736  33.079  35.718  1.00  0.00     0.037 A 
ATOM     43  C   UNL A   1      41.277  28.668  31.161  1.00  0.00     0.049 A 
ATOM     44  C   UNL A   1      40.733  31.955  35.667  1.00  0.00     0.074 A 
ATOM     45  C   UNL A   1      42.314  27.752  31.184  1.00  0.00     0.029 A 
ATOM     46  N   UNL A   1      41.308  29.336  32.376  1.00  0.00    -0.354 N 
ATOM     47  N   UNL A   1      40.990  31.121  34.689  1.00  0.00    -0.248 NA
ATOM     48  C   UNL A   1      41.546  31.741  36.871  1.00  0.00     0.031 C 
ATOM     49  C   UNL A   1      42.928  27.819  32.439  1.00  0.00     0.029 A 
ATOM     50  C   UNL A   1      42.316  28.821  33.177  1.00  0.00     0.049 A 
ATOM     51  H   UNL A   1      40.703  30.069  32.634  1.00  0.00     0.167 HD
ATOM     52  C   UNL A   1      42.011  30.300  35.146  1.00  0.00     0.074 A 
ATOM     53  C   UNL A   1      42.336  30.747  36.486  1.00  0.00     0.031 C 
ATOM     54  C   UNL A   1      42.624  29.270  34.513  1.00  0.00     0.037 A 
BRANCH  41  55
ATOM     55  C   UNL A   1      40.320  28.011  28.910  1.00  0.00     0.064 A 
ATOM     56  C   UNL A   1      39.610  26.800  28.880  1.00  0.00     0.173 A 
ATOM     57  C   UNL A   1      41.048  28.368  27.764  1.00  0.00     0.173 A 
ATOM     58  F   UNL A   1      38.903  26.406  29.951  1.00  0.00    -0.203 F 
ATOM     59  C   UNL A   1      39.668  25.959  27.772  1.00  0.00     0.198 A 
ATOM     60  C   UNL A   1      41.073  27.543  26.643  1.00  0.00     0.198 A 
ATOM     61  F   UNL A   1      41.738  29.518  27.731  1.00  0.00    -0.203 F 
ATOM     62  F   UNL A   1      39.040  24.776  27.797  1.00  0.00    -0.200 F 
ATOM     63  C   UNL A   1      40.396  26.333  26.652  1.00  0.00     0.200 A 
ATOM     64  F   UNL A   1      41.764  27.914  25.555  1.00  0.00    -0.200 F 
ATOM     65  F   UNL A   1      40.454  25.522  25.587  1.00  0.00    -0.200 F 
ENDBRANCH  41  55
BRANCH  42  66
ATOM     66  C   UNL A   1      39.645  33.972  36.902  1.00  0.00     0.064 A 
ATOM     67  C   UNL A   1      40.333  35.193  36.927  1.00  0.00     0.173 A 
ATOM     68  C   UNL A   1      38.858  33.644  38.016  1.00  0.00     0.173 A 
ATOM     69  F   UNL A   1      41.113  35.541  35.895  1.00  0.00    -0.203 F 
ATOM     70  C   UNL A   1      40.244  36.047  38.024  1.00  0.00     0.198 A 
ATOM     71  C   UNL A   1      38.747  34.512  39.100  1.00  0.00     0.198 A 
ATOM     72  F   UNL A   1      38.174  32.489  38.040  1.00  0.00    -0.203 F 
ATOM     73  F   UNL A   1      40.938  37.193  38.035  1.00  0.00    -0.200 F 
ATOM     74  C   UNL A   1      39.444  35.710  39.105  1.00  0.00     0.200 A 
ATOM     75  F   UNL A   1      37.960  34.191  40.136  1.00  0.00    -0.200 F 
ATOM     76  F   UNL A   1      39.349  36.539  40.154  1.00  0.00    -0.200 F 
ENDBRANCH  42  66
BRANCH  54  77
ATOM     77  C   UNL A   1      43.725  28.563  35.252  1.00  0.00     0.064 A 
ATOM     78  C   UNL A   1      45.058  28.994  35.174  1.00  0.00     0.173 A 
ATOM     79  C   UNL A   1      43.437  27.470  36.083  1.00  0.00     0.173 A 
ATOM     80  F   UNL A   1      45.390  30.023  34.380  1.00  0.00    -0.203 F 
ATOM     81  C   UNL A   1      46.063  28.343  35.885  1.00  0.00     0.198 A 
ATOM     82  C   UNL A   1      44.439  26.844  36.819  1.00  0.00     0.198 A 
ATOM     83  F   UNL A   1      42.178  27.020  36.197  1.00  0.00    -0.203 F 
ATOM     84  F   UNL A   1      47.336  28.743  35.759  1.00  0.00    -0.200 F 
ATOM     85  C   UNL A   1      45.752  27.276  36.714  1.00  0.00     0.200 A 
ATOM     86  F   UNL A   1      44.133  25.822  37.631  1.00  0.00    -0.200 F 
ATOM     87  F   UNL A   1      46.719  26.659  37.406  1.00  0.00    -0.200 F 
ENDBRANCH  54  77
ENDBRANCH  28  29
ENDBRANCH  20  23
ENDBRANCH  18  19
ENDBRANCH   1  18
TORSDOF 12
ENDMDL
