MODEL 1
REMARK VINA RESULT:     -11.5      0.000      0.000
REMARK SMILES Cc1cc(S(=O)(=O)N2CC(CC(=O)NCCCNC(=O)c3ccc(-c4c5nc(c(-c6c(F)c(F)c(F)c(F)c6F)c6ccc([nH]6)c(-c6c(F)c(F)c(F)c(F)c6F)c6nc(c(-c7c(F)c(F)c(F)c(F)c7F)c7ccc4[nH]7)C=C6)C=C5)cc3)C2)sc1Br
REMARK SMILES IDX 15 1 14 2 12 3 13 4 11 6 10 7 8 8 9 9 84 10 5 11 6 12 7 13
REMARK SMILES IDX 4 14 1 15 2 16 3 17 86 18 85 19 87 20 16 21 17 22 18 23
REMARK SMILES IDX 19 24 20 26 21 27 22 28 83 29 23 30 82 31 24 32 25 33 26 34
REMARK SMILES IDX 76 35 27 36 81 37 75 38 77 39 28 40 80 41 74 42 73 43 29 45
REMARK SMILES IDX 61 46 41 47 60 48 42 49 45 50 59 51 78 52 43 53 44 54 58 56
REMARK SMILES IDX 79 57 46 58 30 59 31 60 39 61 32 62 33 63 37 64 40 65 34 66
REMARK SMILES IDX 35 67 38 68 36 69 62 70 63 71 71 72 64 73 65 74 69 75 72 76
REMARK SMILES IDX 66 77 67 78 70 79 68 80 47 81 48 82 56 83 49 84 50 85 54 86
REMARK SMILES IDX 57 87 51 88 52 89 55 90 53 91
REMARK H PARENT 14 5 18 25 77 44 45 55
REMARK Flexibility Score: inf
ROOT
ATOM      1  C   UNL A   1      42.649  20.916  25.705  1.00  0.00     0.117 C 
ENDROOT
BRANCH   1   2
ATOM      2  N   UNL A   1      43.608  19.993  25.104  1.00  0.00    -0.356 N 
ATOM      3  C   UNL A   1      44.950  20.105  24.885  1.00  0.00     0.220 C 
ATOM      4  O   UNL A   1      45.518  19.203  24.269  1.00  0.00    -0.275 OA
ATOM      5  H   UNL A   1      43.218  19.139  24.804  1.00  0.00     0.163 HD
BRANCH   3   6
ATOM      6  C   UNL A   1      45.724  21.308  25.382  1.00  0.00     0.106 C 
BRANCH   6   7
ATOM      7  C   UNL A   1      45.785  22.469  24.395  1.00  0.00     0.029 C 
ATOM      8  N   UNL A   1      45.439  24.595  24.558  1.00  0.00    -0.196 NA
ATOM      9  C   UNL A   1      46.613  23.720  24.807  1.00  0.00     0.108 C 
ATOM     10  C   UNL A   1      44.578  23.413  24.403  1.00  0.00     0.108 C 
BRANCH   8  11
ATOM     11  S   UNL A   1      44.940  25.992  25.374  1.00  0.00     0.252 S 
ATOM     12  O   UNL A   1      43.497  26.009  25.344  1.00  0.00    -0.206 OA
ATOM     13  O   UNL A   1      45.751  27.097  24.900  1.00  0.00    -0.206 OA
BRANCH  11  14
ATOM     14  C   UNL A   1      45.344  25.817  27.104  1.00  0.00     0.136 A 
ATOM     15  C   UNL A   1      44.865  24.828  30.708  1.00  0.00     0.046 C 
ATOM     16  C   UNL A   1      45.416  25.342  29.416  1.00  0.00    -0.025 A 
ATOM     17  C   UNL A   1      44.632  25.404  28.214  1.00  0.00     0.038 A 
ATOM     18  C   UNL A   1      46.688  25.806  29.158  1.00  0.00     0.074 A 
ATOM     19  S   UNL A   1      46.939  26.259  27.540  1.00  0.00    -0.115 S 
ATOM     20  Br  UNL A   1      48.065  25.936  30.430  1.00  0.00    -0.039 Br
ENDBRANCH  11  14
ENDBRANCH   8  11
ENDBRANCH   6   7
ENDBRANCH   3   6
ENDBRANCH   1   2
BRANCH   1  21
ATOM     21  C   UNL A   1      42.280  20.519  27.141  1.00  0.00     0.042 C 
BRANCH  21  22
ATOM     22  C   UNL A   1      41.000  21.135  27.635  1.00  0.00     0.118 C 
BRANCH  22  23
ATOM     23  N   UNL A   1      40.048  21.504  26.588  1.00  0.00    -0.352 N 
ATOM     24  C   UNL A   1      39.319  22.687  26.504  1.00  0.00     0.251 C 
ATOM     25  H   UNL A   1      39.907  20.848  25.869  1.00  0.00     0.163 HD
ATOM     26  O   UNL A   1      38.324  22.774  25.798  1.00  0.00    -0.269 OA
BRANCH  24  27
ATOM     27  C   UNL A   1      39.787  23.841  27.298  1.00  0.00     0.039 A 
ATOM     28  C   UNL A   1      41.102  24.019  27.732  1.00  0.00     0.014 A 
ATOM     29  C   UNL A   1      38.846  24.834  27.512  1.00  0.00     0.014 A 
ATOM     30  C   UNL A   1      41.427  25.226  28.352  1.00  0.00     0.010 A 
ATOM     31  C   UNL A   1      39.279  26.107  27.680  1.00  0.00     0.010 A 
ATOM     32  C   UNL A   1      40.485  26.266  28.320  1.00  0.00    -0.014 A 
BRANCH  32  33
ATOM     33  C   UNL A   1      40.681  27.580  28.899  1.00  0.00     0.031 A 
ATOM     34  C   UNL A   1      41.761  28.354  28.264  1.00  0.00     0.074 A 
ATOM     35  C   UNL A   1      39.793  28.129  29.761  1.00  0.00     0.049 A 
ATOM     36  N   UNL A   1      42.913  28.615  28.774  1.00  0.00    -0.248 NA
ATOM     37  C   UNL A   1      41.628  28.729  26.849  1.00  0.00     0.031 C 
ATOM     38  C   UNL A   1      38.504  27.606  30.243  1.00  0.00     0.029 A 
ATOM     39  N   UNL A   1      39.835  29.359  30.339  1.00  0.00    -0.354 N 
ATOM     40  C   UNL A   1      43.588  29.370  27.825  1.00  0.00     0.074 A 
ATOM     41  C   UNL A   1      42.842  29.230  26.602  1.00  0.00     0.031 C 
ATOM     42  C   UNL A   1      37.808  28.591  30.856  1.00  0.00     0.029 A 
ATOM     43  C   UNL A   1      38.655  29.763  30.955  1.00  0.00     0.049 A 
ATOM     44  H   UNL A   1      40.643  29.921  30.323  1.00  0.00     0.167 HD
ATOM     45  C   UNL A   1      44.567  30.235  28.208  1.00  0.00     0.037 A 
ATOM     46  C   UNL A   1      38.410  30.991  31.482  1.00  0.00     0.037 A 
ATOM     47  C   UNL A   1      44.947  29.994  29.582  1.00  0.00     0.049 A 
ATOM     48  C   UNL A   1      39.738  31.613  31.747  1.00  0.00     0.074 A 
ATOM     49  C   UNL A   1      45.473  28.909  30.259  1.00  0.00     0.029 A 
ATOM     50  N   UNL A   1      44.393  30.803  30.548  1.00  0.00    -0.354 N 
ATOM     51  N   UNL A   1      40.566  31.162  32.652  1.00  0.00    -0.248 NA
ATOM     52  C   UNL A   1      40.348  32.377  30.668  1.00  0.00     0.031 C 
ATOM     53  C   UNL A   1      44.773  28.877  31.502  1.00  0.00     0.029 A 
ATOM     54  C   UNL A   1      43.936  29.991  31.557  1.00  0.00     0.049 A 
ATOM     55  H   UNL A   1      44.336  31.785  30.521  1.00  0.00     0.167 HD
ATOM     56  C   UNL A   1      41.811  31.199  32.040  1.00  0.00     0.074 A 
ATOM     57  C   UNL A   1      41.626  32.018  30.843  1.00  0.00     0.031 C 
ATOM     58  C   UNL A   1      42.793  30.311  32.382  1.00  0.00     0.037 A 
BRANCH  45  59
ATOM     59  C   UNL A   1      44.916  31.521  27.506  1.00  0.00     0.064 A 
ATOM     60  C   UNL A   1      46.183  31.633  26.898  1.00  0.00     0.173 A 
ATOM     61  C   UNL A   1      44.204  32.730  27.656  1.00  0.00     0.173 A 
ATOM     62  F   UNL A   1      46.946  30.547  26.703  1.00  0.00    -0.203 F 
ATOM     63  C   UNL A   1      46.736  32.871  26.569  1.00  0.00     0.198 A 
ATOM     64  C   UNL A   1      44.739  33.959  27.275  1.00  0.00     0.198 A 
ATOM     65  F   UNL A   1      43.022  32.795  28.275  1.00  0.00    -0.203 F 
ATOM     66  F   UNL A   1      47.999  32.937  26.125  1.00  0.00    -0.200 F 
ATOM     67  C   UNL A   1      46.018  34.034  26.768  1.00  0.00     0.200 A 
ATOM     68  F   UNL A   1      44.031  35.077  27.489  1.00  0.00    -0.200 F 
ATOM     69  F   UNL A   1      46.571  35.228  26.520  1.00  0.00    -0.200 F 
ENDBRANCH  45  59
BRANCH  46  70
ATOM     70  C   UNL A   1      37.142  31.765  31.467  1.00  0.00     0.064 A 
ATOM     71  C   UNL A   1      36.522  32.183  32.659  1.00  0.00     0.173 A 
ATOM     72  C   UNL A   1      36.660  32.353  30.280  1.00  0.00     0.173 A 
ATOM     73  F   UNL A   1      36.945  31.708  33.840  1.00  0.00    -0.203 F 
ATOM     74  C   UNL A   1      35.505  33.146  32.663  1.00  0.00     0.198 A 
ATOM     75  C   UNL A   1      35.643  33.312  30.286  1.00  0.00     0.198 A 
ATOM     76  F   UNL A   1      37.229  32.081  29.098  1.00  0.00    -0.203 F 
ATOM     77  F   UNL A   1      34.981  33.562  33.825  1.00  0.00    -0.200 F 
ATOM     78  C   UNL A   1      35.076  33.719  31.478  1.00  0.00     0.200 A 
ATOM     79  F   UNL A   1      35.265  33.884  29.134  1.00  0.00    -0.200 F 
ATOM     80  F   UNL A   1      34.148  34.688  31.486  1.00  0.00    -0.200 F 
ENDBRANCH  46  70
BRANCH  58  81
ATOM     81  C   UNL A   1      42.569  29.439  33.589  1.00  0.00     0.064 A 
ATOM     82  C   UNL A   1      41.969  28.166  33.546  1.00  0.00     0.173 A 
ATOM     83  C   UNL A   1      43.132  29.836  34.808  1.00  0.00     0.173 A 
ATOM     84  F   UNL A   1      41.501  27.663  32.399  1.00  0.00    -0.203 F 
ATOM     85  C   UNL A   1      41.898  27.355  34.677  1.00  0.00     0.198 A 
ATOM     86  C   UNL A   1      43.093  29.009  35.929  1.00  0.00     0.198 A 
ATOM     87  F   UNL A   1      43.772  31.012  34.899  1.00  0.00    -0.203 F 
ATOM     88  F   UNL A   1      41.314  26.150  34.605  1.00  0.00    -0.200 F 
ATOM     89  C   UNL A   1      42.467  27.776  35.867  1.00  0.00     0.200 A 
ATOM     90  F   UNL A   1      43.691  29.399  37.063  1.00  0.00    -0.200 F 
ATOM     91  F   UNL A   1      42.437  26.980  36.946  1.00  0.00    -0.200 F 
ENDBRANCH  58  81
ENDBRANCH  32  33
ENDBRANCH  24  27
ENDBRANCH  22  23
ENDBRANCH  21  22
ENDBRANCH   1  21
TORSDOF 13
ENDMDL
MODEL 2
REMARK VINA RESULT:     -11.5      4.380      6.659
REMARK SMILES Cc1cc(S(=O)(=O)N2CC(CC(=O)NCCCNC(=O)c3ccc(-c4c5nc(c(-c6c(F)c(F)c(F)c(F)c6F)c6ccc([nH]6)c(-c6c(F)c(F)c(F)c(F)c6F)c6nc(c(-c7c(F)c(F)c(F)c(F)c7F)c7ccc4[nH]7)C=C6)C=C5)cc3)C2)sc1Br
REMARK SMILES IDX 15 1 14 2 12 3 13 4 11 6 10 7 8 8 9 9 84 10 5 11 6 12 7 13
REMARK SMILES IDX 4 14 1 15 2 16 3 17 86 18 85 19 87 20 16 21 17 22 18 23
REMARK SMILES IDX 19 24 20 26 21 27 22 28 83 29 23 30 82 31 24 32 25 33 26 34
REMARK SMILES IDX 76 35 27 36 81 37 75 38 77 39 28 40 80 41 74 42 73 43 29 45
REMARK SMILES IDX 61 46 41 47 60 48 42 49 45 50 59 51 78 52 43 53 44 54 58 56
REMARK SMILES IDX 79 57 46 58 30 59 31 60 39 61 32 62 33 63 37 64 40 65 34 66
REMARK SMILES IDX 35 67 38 68 36 69 62 70 63 71 71 72 64 73 65 74 69 75 72 76
REMARK SMILES IDX 66 77 67 78 70 79 68 80 47 81 48 82 56 83 49 84 50 85 54 86
REMARK SMILES IDX 57 87 51 88 52 89 55 90 53 91
REMARK H PARENT 14 5 18 25 77 44 45 55
REMARK Flexibility Score: inf
ROOT
ATOM      1  C   UNL A   1      36.870  22.317  25.327  1.00  0.00     0.117 C 
ENDROOT
BRANCH   1   2
ATOM      2  N   UNL A   1      35.966  22.067  26.446  1.00  0.00    -0.356 N 
ATOM      3  C   UNL A   1      34.750  21.449  26.500  1.00  0.00     0.220 C 
ATOM      4  O   UNL A   1      34.143  21.448  27.571  1.00  0.00    -0.275 OA
ATOM      5  H   UNL A   1      36.290  22.402  27.314  1.00  0.00     0.163 HD
BRANCH   3   6
ATOM      6  C   UNL A   1      34.158  20.784  25.276  1.00  0.00     0.106 C 
BRANCH   6   7
ATOM      7  C   UNL A   1      33.006  21.552  24.637  1.00  0.00     0.029 C 
ATOM      8  N   UNL A   1      31.702  23.136  25.314  1.00  0.00    -0.196 NA
ATOM      9  C   UNL A   1      33.055  23.105  24.700  1.00  0.00     0.108 C 
ATOM     10  C   UNL A   1      31.737  21.676  25.488  1.00  0.00     0.108 C 
BRANCH   8  11
ATOM     11  S   UNL A   1      31.071  24.184  26.484  1.00  0.00     0.252 S 
ATOM     12  O   UNL A   1      32.054  24.288  27.536  1.00  0.00    -0.206 OA
ATOM     13  O   UNL A   1      29.694  23.799  26.729  1.00  0.00    -0.206 OA
BRANCH  11  14
ATOM     14  C   UNL A   1      30.986  25.828  25.794  1.00  0.00     0.136 A 
ATOM     15  C   UNL A   1      31.754  29.499  25.442  1.00  0.00     0.046 C 
ATOM     16  C   UNL A   1      31.227  28.113  25.250  1.00  0.00    -0.025 A 
ATOM     17  C   UNL A   1      31.473  27.058  26.193  1.00  0.00     0.038 A 
ATOM     18  C   UNL A   1      30.472  27.627  24.204  1.00  0.00     0.074 A 
ATOM     19  S   UNL A   1      30.110  25.972  24.331  1.00  0.00    -0.115 S 
ATOM     20  Br  UNL A   1      29.880  28.644  22.739  1.00  0.00    -0.039 Br
ENDBRANCH  11  14
ENDBRANCH   8  11
ENDBRANCH   6   7
ENDBRANCH   3   6
ENDBRANCH   1   2
BRANCH   1  21
ATOM     21  C   UNL A   1      38.261  21.710  25.555  1.00  0.00     0.042 C 
BRANCH  21  22
ATOM     22  C   UNL A   1      39.125  22.499  26.500  1.00  0.00     0.118 C 
BRANCH  22  23
ATOM     23  N   UNL A   1      40.482  21.981  26.675  1.00  0.00    -0.352 N 
ATOM     24  C   UNL A   1      41.657  22.726  26.725  1.00  0.00     0.251 C 
ATOM     25  H   UNL A   1      40.573  21.006  26.766  1.00  0.00     0.163 HD
ATOM     26  O   UNL A   1      42.749  22.205  26.542  1.00  0.00    -0.269 OA
BRANCH  24  27
ATOM     27  C   UNL A   1      41.545  24.171  27.007  1.00  0.00     0.039 A 
ATOM     28  C   UNL A   1      40.621  25.024  26.400  1.00  0.00     0.014 A 
ATOM     29  C   UNL A   1      42.362  24.643  28.019  1.00  0.00     0.014 A 
ATOM     30  C   UNL A   1      40.538  26.335  26.868  1.00  0.00     0.010 A 
ATOM     31  C   UNL A   1      41.952  25.722  28.729  1.00  0.00     0.010 A 
ATOM     32  C   UNL A   1      41.227  26.668  28.044  1.00  0.00    -0.014 A 
BRANCH  32  33
ATOM     33  C   UNL A   1      41.224  27.977  28.666  1.00  0.00     0.031 A 
ATOM     34  C   UNL A   1      42.326  28.847  28.223  1.00  0.00     0.074 A 
ATOM     35  C   UNL A   1      40.170  28.433  29.384  1.00  0.00     0.049 A 
ATOM     36  N   UNL A   1      43.359  29.182  28.913  1.00  0.00    -0.248 NA
ATOM     37  C   UNL A   1      42.388  29.250  26.810  1.00  0.00     0.031 C 
ATOM     38  C   UNL A   1      38.868  27.801  29.647  1.00  0.00     0.029 A 
ATOM     39  N   UNL A   1      40.024  29.646  29.979  1.00  0.00    -0.354 N 
ATOM     40  C   UNL A   1      44.113  30.011  28.094  1.00  0.00     0.074 A 
ATOM     41  C   UNL A   1      43.582  29.848  26.767  1.00  0.00     0.031 C 
ATOM     42  C   UNL A   1      38.008  28.713  30.156  1.00  0.00     0.029 A 
ATOM     43  C   UNL A   1      38.733  29.943  30.405  1.00  0.00     0.049 A 
ATOM     44  H   UNL A   1      40.777  30.269  30.100  1.00  0.00     0.167 HD
ATOM     45  C   UNL A   1      44.947  30.937  28.642  1.00  0.00     0.037 A 
ATOM     46  C   UNL A   1      38.311  31.134  30.905  1.00  0.00     0.037 A 
ATOM     47  C   UNL A   1      45.124  30.689  30.055  1.00  0.00     0.049 A 
ATOM     48  C   UNL A   1      39.527  31.847  31.388  1.00  0.00     0.074 A 
ATOM     49  C   UNL A   1      45.621  29.629  30.790  1.00  0.00     0.029 A 
ATOM     50  N   UNL A   1      44.363  31.426  30.932  1.00  0.00    -0.354 N 
ATOM     51  N   UNL A   1      40.235  31.436  32.405  1.00  0.00    -0.248 NA
ATOM     52  C   UNL A   1      40.238  32.685  30.430  1.00  0.00     0.031 C 
ATOM     53  C   UNL A   1      44.740  29.510  31.906  1.00  0.00     0.029 A 
ATOM     54  C   UNL A   1      43.818  30.555  31.844  1.00  0.00     0.049 A 
ATOM     55  H   UNL A   1      44.233  32.402  30.910  1.00  0.00     0.167 HD
ATOM     56  C   UNL A   1      41.555  31.584  32.000  1.00  0.00     0.074 A 
ATOM     57  C   UNL A   1      41.496  32.420  30.801  1.00  0.00     0.031 C 
ATOM     58  C   UNL A   1      42.538  30.765  32.481  1.00  0.00     0.037 A 
BRANCH  45  59
ATOM     59  C   UNL A   1      45.299  32.265  28.023  1.00  0.00     0.064 A 
ATOM     60  C   UNL A   1      44.272  33.210  27.830  1.00  0.00     0.173 A 
ATOM     61  C   UNL A   1      46.508  32.533  27.346  1.00  0.00     0.173 A 
ATOM     62  F   UNL A   1      43.081  33.056  28.428  1.00  0.00    -0.203 F 
ATOM     63  C   UNL A   1      44.410  34.280  26.945  1.00  0.00     0.198 A 
ATOM     64  C   UNL A   1      46.660  33.633  26.504  1.00  0.00     0.198 A 
ATOM     65  F   UNL A   1      47.549  31.694  27.374  1.00  0.00    -0.203 F 
ATOM     66  F   UNL A   1      43.359  35.071  26.689  1.00  0.00    -0.200 F 
ATOM     67  C   UNL A   1      45.601  34.484  26.274  1.00  0.00     0.200 A 
ATOM     68  F   UNL A   1      47.818  33.806  25.852  1.00  0.00    -0.200 F 
ATOM     69  F   UNL A   1      45.714  35.466  25.371  1.00  0.00    -0.200 F 
ENDBRANCH  45  59
BRANCH  46  70
ATOM     70  C   UNL A   1      37.004  31.810  30.700  1.00  0.00     0.064 A 
ATOM     71  C   UNL A   1      36.033  31.853  31.716  1.00  0.00     0.173 A 
ATOM     72  C   UNL A   1      36.790  32.668  29.603  1.00  0.00     0.173 A 
ATOM     73  F   UNL A   1      36.176  31.102  32.818  1.00  0.00    -0.203 F 
ATOM     74  C   UNL A   1      34.934  32.720  31.650  1.00  0.00     0.198 A 
ATOM     75  C   UNL A   1      35.693  33.530  29.537  1.00  0.00     0.198 A 
ATOM     76  F   UNL A   1      37.692  32.758  28.616  1.00  0.00    -0.203 F 
ATOM     77  F   UNL A   1      34.062  32.776  32.667  1.00  0.00    -0.200 F 
ATOM     78  C   UNL A   1      34.772  33.567  30.567  1.00  0.00     0.200 A 
ATOM     79  F   UNL A   1      35.570  34.370  28.499  1.00  0.00    -0.200 F 
ATOM     80  F   UNL A   1      33.757  34.442  30.532  1.00  0.00    -0.200 F 
ENDBRANCH  46  70
BRANCH  58  81
ATOM     81  C   UNL A   1      42.197  29.846  33.624  1.00  0.00     0.064 A 
ATOM     82  C   UNL A   1      41.747  28.521  33.467  1.00  0.00     0.173 A 
ATOM     83  C   UNL A   1      42.494  30.267  34.926  1.00  0.00     0.173 A 
ATOM     84  F   UNL A   1      41.541  28.002  32.253  1.00  0.00    -0.203 F 
ATOM     85  C   UNL A   1      41.563  27.680  34.563  1.00  0.00     0.198 A 
ATOM     86  C   UNL A   1      42.344  29.414  36.016  1.00  0.00     0.198 A 
ATOM     87  F   UNL A   1      42.985  31.499  35.135  1.00  0.00    -0.203 F 
ATOM     88  F   UNL A   1      41.126  26.425  34.382  1.00  0.00    -0.200 F 
ATOM     89  C   UNL A   1      41.868  28.126  35.837  1.00  0.00     0.200 A 
ATOM     90  F   UNL A   1      42.693  29.834  37.241  1.00  0.00    -0.200 F 
ATOM     91  F   UNL A   1      41.732  27.306  36.889  1.00  0.00    -0.200 F 
ENDBRANCH  58  81
ENDBRANCH  32  33
ENDBRANCH  24  27
ENDBRANCH  22  23
ENDBRANCH  21  22
ENDBRANCH   1  21
TORSDOF 13
ENDMDL
MODEL 3
REMARK VINA RESULT:     -11.5      4.354     10.193
REMARK SMILES Cc1cc(S(=O)(=O)N2CC(CC(=O)NCCCNC(=O)c3ccc(-c4c5nc(c(-c6c(F)c(F)c(F)c(F)c6F)c6ccc([nH]6)c(-c6c(F)c(F)c(F)c(F)c6F)c6nc(c(-c7c(F)c(F)c(F)c(F)c7F)c7ccc4[nH]7)C=C6)C=C5)cc3)C2)sc1Br
REMARK SMILES IDX 15 1 14 2 12 3 13 4 11 6 10 7 8 8 9 9 84 10 5 11 6 12 7 13
REMARK SMILES IDX 4 14 1 15 2 16 3 17 86 18 85 19 87 20 16 21 17 22 18 23
REMARK SMILES IDX 19 24 20 26 21 27 22 28 83 29 23 30 82 31 24 32 25 33 26 34
REMARK SMILES IDX 76 35 27 36 81 37 75 38 77 39 28 40 80 41 74 42 73 43 29 45
REMARK SMILES IDX 61 46 41 47 60 48 42 49 45 50 59 51 78 52 43 53 44 54 58 56
REMARK SMILES IDX 79 57 46 58 30 59 31 60 39 61 32 62 33 63 37 64 40 65 34 66
REMARK SMILES IDX 35 67 38 68 36 69 62 70 63 71 71 72 64 73 65 74 69 75 72 76
REMARK SMILES IDX 66 77 67 78 70 79 68 80 47 81 48 82 56 83 49 84 50 85 54 86
REMARK SMILES IDX 57 87 51 88 52 89 55 90 53 91
REMARK H PARENT 14 5 18 25 77 44 45 55
REMARK Flexibility Score: inf
ROOT
ATOM      1  C   UNL A   1      31.666  30.193  26.003  1.00  0.00     0.117 C 
ENDROOT
BRANCH   1   2
ATOM      2  N   UNL A   1      32.302  29.700  24.784  1.00  0.00    -0.356 N 
ATOM      3  C   UNL A   1      32.322  28.458  24.218  1.00  0.00     0.220 C 
ATOM      4  O   UNL A   1      33.018  28.283  23.218  1.00  0.00    -0.275 OA
ATOM      5  H   UNL A   1      32.804  30.382  24.282  1.00  0.00     0.163 HD
BRANCH   3   6
ATOM      6  C   UNL A   1      31.513  27.321  24.805  1.00  0.00     0.106 C 
BRANCH   6   7
ATOM      7  C   UNL A   1      32.204  26.577  25.942  1.00  0.00     0.029 C 
ATOM      8  N   UNL A   1      33.322  24.732  26.067  1.00  0.00    -0.196 NA
ATOM      9  C   UNL A   1      33.678  26.132  25.719  1.00  0.00     0.108 C 
ATOM     10  C   UNL A   1      31.892  25.080  26.043  1.00  0.00     0.108 C 
BRANCH   8  11
ATOM     11  S   UNL A   1      33.921  23.278  25.441  1.00  0.00     0.252 S 
ATOM     12  O   UNL A   1      33.748  23.328  24.009  1.00  0.00    -0.206 OA
ATOM     13  O   UNL A   1      33.406  22.196  26.259  1.00  0.00    -0.206 OA
BRANCH  11  14
ATOM     14  C   UNL A   1      35.691  23.243  25.671  1.00  0.00     0.136 A 
ATOM     15  C   UNL A   1      39.111  24.544  26.570  1.00  0.00     0.046 C 
ATOM     16  C   UNL A   1      37.961  23.686  26.147  1.00  0.00    -0.025 A 
ATOM     17  C   UNL A   1      36.635  24.208  25.970  1.00  0.00     0.038 A 
ATOM     18  C   UNL A   1      37.961  22.333  25.883  1.00  0.00     0.074 A 
ATOM     19  S   UNL A   1      36.433  21.714  25.476  1.00  0.00    -0.115 S 
ATOM     20  Br  UNL A   1      39.474  21.221  25.960  1.00  0.00    -0.039 Br
ENDBRANCH  11  14
ENDBRANCH   8  11
ENDBRANCH   6   7
ENDBRANCH   3   6
ENDBRANCH   1   2
BRANCH   1  21
ATOM     21  C   UNL A   1      32.540  29.974  27.245  1.00  0.00     0.042 C 
BRANCH  21  22
ATOM     22  C   UNL A   1      34.001  30.254  27.022  1.00  0.00     0.118 C 
BRANCH  22  23
ATOM     23  N   UNL A   1      34.416  31.629  27.300  1.00  0.00    -0.352 N 
ATOM     24  C   UNL A   1      35.502  32.031  28.073  1.00  0.00     0.251 C 
ATOM     25  H   UNL A   1      33.871  32.344  26.901  1.00  0.00     0.163 HD
ATOM     26  O   UNL A   1      35.580  33.167  28.520  1.00  0.00    -0.269 OA
BRANCH  24  27
ATOM     27  C   UNL A   1      36.562  31.038  28.340  1.00  0.00     0.039 A 
ATOM     28  C   UNL A   1      36.628  29.776  27.745  1.00  0.00     0.014 A 
ATOM     29  C   UNL A   1      37.589  31.472  29.160  1.00  0.00     0.014 A 
ATOM     30  C   UNL A   1      37.763  29.001  27.986  1.00  0.00     0.010 A 
ATOM     31  C   UNL A   1      38.818  30.924  29.000  1.00  0.00     0.010 A 
ATOM     32  C   UNL A   1      38.856  29.601  28.630  1.00  0.00    -0.014 A 
BRANCH  32  33
ATOM     33  C   UNL A   1      40.108  28.936  28.931  1.00  0.00     0.031 A 
ATOM     34  C   UNL A   1      40.328  28.708  30.370  1.00  0.00     0.074 A 
ATOM     35  C   UNL A   1      40.870  28.362  27.971  1.00  0.00     0.049 A 
ATOM     36  N   UNL A   1      41.166  29.330  31.122  1.00  0.00    -0.248 NA
ATOM     37  C   UNL A   1      39.404  27.826  31.097  1.00  0.00     0.031 C 
ATOM     38  C   UNL A   1      40.623  28.232  26.527  1.00  0.00     0.029 A 
ATOM     39  N   UNL A   1      42.036  27.678  28.123  1.00  0.00    -0.354 N 
ATOM     40  C   UNL A   1      41.026  28.777  32.387  1.00  0.00     0.074 A 
ATOM     41  C   UNL A   1      39.803  28.019  32.357  1.00  0.00     0.031 C 
ATOM     42  C   UNL A   1      41.488  27.342  25.989  1.00  0.00     0.029 A 
ATOM     43  C   UNL A   1      42.449  26.960  27.005  1.00  0.00     0.049 A 
ATOM     44  H   UNL A   1      42.548  27.689  28.964  1.00  0.00     0.167 HD
ATOM     45  C   UNL A   1      42.067  28.804  33.264  1.00  0.00     0.037 A 
ATOM     46  C   UNL A   1      43.501  26.101  26.952  1.00  0.00     0.037 A 
ATOM     47  C   UNL A   1      43.098  29.705  32.799  1.00  0.00     0.049 A 
ATOM     48  C   UNL A   1      44.399  26.458  28.087  1.00  0.00     0.074 A 
ATOM     49  C   UNL A   1      43.139  31.058  32.521  1.00  0.00     0.029 A 
ATOM     50  N   UNL A   1      44.175  29.156  32.141  1.00  0.00    -0.354 N 
ATOM     51  N   UNL A   1      45.056  27.585  28.146  1.00  0.00    -0.248 NA
ATOM     52  C   UNL A   1      44.147  25.814  29.369  1.00  0.00     0.031 C 
ATOM     53  C   UNL A   1      43.915  31.165  31.328  1.00  0.00     0.029 A 
ATOM     54  C   UNL A   1      44.384  29.893  31.001  1.00  0.00     0.049 A 
ATOM     55  H   UNL A   1      44.701  28.377  32.434  1.00  0.00     0.167 HD
ATOM     56  C   UNL A   1      44.914  28.008  29.460  1.00  0.00     0.074 A 
ATOM     57  C   UNL A   1      44.401  26.845  30.183  1.00  0.00     0.031 C 
ATOM     58  C   UNL A   1      44.922  29.337  29.779  1.00  0.00     0.037 A 
BRANCH  45  59
ATOM     59  C   UNL A   1      42.342  27.767  34.321  1.00  0.00     0.064 A 
ATOM     60  C   UNL A   1      42.970  26.565  33.937  1.00  0.00     0.173 A 
ATOM     61  C   UNL A   1      41.760  27.766  35.607  1.00  0.00     0.173 A 
ATOM     62  F   UNL A   1      43.558  26.455  32.736  1.00  0.00    -0.203 F 
ATOM     63  C   UNL A   1      42.922  25.420  34.733  1.00  0.00     0.198 A 
ATOM     64  C   UNL A   1      41.762  26.635  36.422  1.00  0.00     0.198 A 
ATOM     65  F   UNL A   1      41.070  28.806  36.084  1.00  0.00    -0.203 F 
ATOM     66  F   UNL A   1      43.411  24.263  34.264  1.00  0.00    -0.200 F 
ATOM     67  C   UNL A   1      42.308  25.454  35.971  1.00  0.00     0.200 A 
ATOM     68  F   UNL A   1      41.150  26.684  37.613  1.00  0.00    -0.200 F 
ATOM     69  F   UNL A   1      42.198  24.340  36.707  1.00  0.00    -0.200 F 
ENDBRANCH  45  59
BRANCH  46  70
ATOM     70  C   UNL A   1      43.611  24.823  26.202  1.00  0.00     0.064 A 
ATOM     71  C   UNL A   1      44.566  24.650  25.184  1.00  0.00     0.173 A 
ATOM     72  C   UNL A   1      42.973  23.653  26.658  1.00  0.00     0.173 A 
ATOM     73  F   UNL A   1      45.254  25.703  24.718  1.00  0.00    -0.203 F 
ATOM     74  C   UNL A   1      44.879  23.383  24.675  1.00  0.00     0.198 A 
ATOM     75  C   UNL A   1      43.285  22.390  26.148  1.00  0.00     0.198 A 
ATOM     76  F   UNL A   1      42.101  23.697  27.675  1.00  0.00    -0.203 F 
ATOM     77  F   UNL A   1      45.837  23.251  23.747  1.00  0.00    -0.200 F 
ATOM     78  C   UNL A   1      44.247  22.253  25.167  1.00  0.00     0.200 A 
ATOM     79  F   UNL A   1      42.691  21.302  26.660  1.00  0.00    -0.200 F 
ATOM     80  F   UNL A   1      44.592  21.034  24.727  1.00  0.00    -0.200 F 
ENDBRANCH  46  70
BRANCH  58  81
ATOM     81  C   UNL A   1      45.310  30.320  28.706  1.00  0.00     0.064 A 
ATOM     82  C   UNL A   1      44.400  30.912  27.809  1.00  0.00     0.173 A 
ATOM     83  C   UNL A   1      46.623  30.806  28.694  1.00  0.00     0.173 A 
ATOM     84  F   UNL A   1      43.104  30.585  27.826  1.00  0.00    -0.203 F 
ATOM     85  C   UNL A   1      44.799  31.906  26.917  1.00  0.00     0.198 A 
ATOM     86  C   UNL A   1      47.012  31.824  27.827  1.00  0.00     0.198 A 
ATOM     87  F   UNL A   1      47.523  30.326  29.567  1.00  0.00    -0.203 F 
ATOM     88  F   UNL A   1      43.911  32.445  26.070  1.00  0.00    -0.200 F 
ATOM     89  C   UNL A   1      46.105  32.366  26.932  1.00  0.00     0.200 A 
ATOM     90  F   UNL A   1      48.263  32.302  27.884  1.00  0.00    -0.200 F 
ATOM     91  F   UNL A   1      46.481  33.350  26.104  1.00  0.00    -0.200 F 
ENDBRANCH  58  81
ENDBRANCH  32  33
ENDBRANCH  24  27
ENDBRANCH  22  23
ENDBRANCH  21  22
ENDBRANCH   1  21
TORSDOF 13
ENDMDL
