MODEL 1
REMARK VINA RESULT:      -9.9      0.000      0.000
REMARK SMILES O=C(/C=C/c1cc(F)cc(COCc2ccco2)c1)NCCCNC(=O)c1ccc(-c2c3nc(c(-c4c(F)c(F)c(F)c(F)c4F)c4ccc([nH]4)c(-c4c(F)c(F)c(F)c(F)c4F)c4nc(c(-c5c(F)c(F)c(F)c(F)c5F)c5ccc2[nH]5)C=C4)C=C3)cc1
REMARK SMILES IDX 1 1 2 2 20 3 3 5 4 6 5 7 6 8 19 9 7 10 10 11 8 12 9 13 11 14
REMARK SMILES IDX 12 15 13 16 14 17 15 18 18 19 16 20 17 21 21 22 22 23 23 24
REMARK SMILES IDX 24 25 25 26 26 28 27 29 28 30 89 31 29 32 88 33 30 34 31 35
REMARK SMILES IDX 32 36 82 37 33 38 87 39 81 40 83 41 34 42 86 43 80 44 79 45
REMARK SMILES IDX 35 47 67 48 47 49 66 50 48 51 51 52 65 53 84 54 49 55 50 56
REMARK SMILES IDX 64 58 85 59 52 60 36 61 37 62 45 63 38 64 39 65 43 66 46 67
REMARK SMILES IDX 40 68 41 69 44 70 42 71 68 72 69 73 77 74 70 75 71 76 75 77
REMARK SMILES IDX 78 78 72 79 73 80 76 81 74 82 53 83 54 84 62 85 55 86 56 87
REMARK SMILES IDX 60 88 63 89 57 90 58 91 61 92 59 93
REMARK H PARENT 20 4 24 27 83 46 51 57
REMARK Flexibility Score: inf
ROOT
ATOM      1  O   UNL A   1      34.775  35.455  34.461  1.00  0.00    -0.270 OA
ATOM      2  C   UNL A   1      35.208  35.120  33.365  1.00  0.00     0.244 C 
ATOM      3  N   UNL A   1      34.828  35.694  32.180  1.00  0.00    -0.352 N 
ATOM      4  H   UNL A   1      35.229  35.370  31.342  1.00  0.00     0.163 HD
ENDROOT
BRANCH   2   5
ATOM      5  C   UNL A   1      36.165  33.986  33.273  1.00  0.00     0.072 C 
ATOM      6  C   UNL A   1      36.193  32.908  34.073  1.00  0.00     0.014 C 
BRANCH   6   7
ATOM      7  C   UNL A   1      37.132  31.793  33.881  1.00  0.00    -0.022 A 
ATOM      8  C   UNL A   1      36.907  30.767  32.958  1.00  0.00     0.047 A 
ATOM      9  C   UNL A   1      38.311  31.770  34.639  1.00  0.00     0.014 A 
ATOM     10  C   UNL A   1      37.831  29.734  32.828  1.00  0.00     0.124 A 
ATOM     11  C   UNL A   1      39.236  30.717  34.523  1.00  0.00    -0.019 A 
ATOM     12  F   UNL A   1      37.596  28.749  31.952  1.00  0.00    -0.207 F 
ATOM     13  C   UNL A   1      38.986  29.695  33.602  1.00  0.00     0.045 A 
BRANCH  11  14
ATOM     14  C   UNL A   1      40.437  30.656  35.435  1.00  0.00     0.196 C 
BRANCH  14  15
ATOM     15  O   UNL A   1      40.570  29.416  36.130  1.00  0.00    -0.369 OA
BRANCH  15  16
ATOM     16  C   UNL A   1      41.855  28.791  36.064  1.00  0.00     0.235 C 
BRANCH  16  17
ATOM     17  C   UNL A   1      41.741  27.309  36.077  1.00  0.00     0.129 A 
ATOM     18  C   UNL A   1      41.615  26.368  35.073  1.00  0.00     0.048 A 
ATOM     19  O   UNL A   1      41.655  26.694  37.293  1.00  0.00    -0.467 OA
ATOM     20  C   UNL A   1      41.462  25.114  35.713  1.00  0.00     0.042 A 
ATOM     21  C   UNL A   1      41.507  25.365  37.063  1.00  0.00     0.195 A 
ENDBRANCH  16  17
ENDBRANCH  15  16
ENDBRANCH  14  15
ENDBRANCH  11  14
ENDBRANCH   6   7
ENDBRANCH   2   5
BRANCH   3  22
ATOM     22  C   UNL A   1      33.852  36.765  32.122  1.00  0.00     0.118 C 
BRANCH  22  23
ATOM     23  C   UNL A   1      32.794  36.545  31.046  1.00  0.00     0.042 C 
BRANCH  23  24
ATOM     24  C   UNL A   1      33.332  36.540  29.618  1.00  0.00     0.118 C 
BRANCH  24  25
ATOM     25  N   UNL A   1      32.772  35.479  28.791  1.00  0.00    -0.352 N 
ATOM     26  C   UNL A   1      33.317  34.284  28.391  1.00  0.00     0.251 C 
ATOM     27  H   UNL A   1      31.857  35.646  28.467  1.00  0.00     0.163 HD
ATOM     28  O   UNL A   1      32.712  33.581  27.582  1.00  0.00    -0.269 OA
BRANCH  26  29
ATOM     29  C   UNL A   1      34.635  33.843  28.897  1.00  0.00     0.039 A 
ATOM     30  C   UNL A   1      34.680  32.859  29.889  1.00  0.00     0.014 A 
ATOM     31  C   UNL A   1      35.822  34.403  28.419  1.00  0.00     0.014 A 
ATOM     32  C   UNL A   1      35.911  32.385  30.348  1.00  0.00     0.010 A 
ATOM     33  C   UNL A   1      37.049  33.878  28.822  1.00  0.00     0.010 A 
ATOM     34  C   UNL A   1      37.107  32.863  29.789  1.00  0.00    -0.014 A 
BRANCH  34  35
ATOM     35  C   UNL A   1      38.428  32.315  30.195  1.00  0.00     0.031 A 
ATOM     36  C   UNL A   1      38.897  30.993  29.653  1.00  0.00     0.074 A 
ATOM     37  C   UNL A   1      39.175  32.970  31.105  1.00  0.00     0.049 A 
ATOM     38  N   UNL A   1      39.961  30.298  29.971  1.00  0.00    -0.248 NA
ATOM     39  C   UNL A   1      38.046  30.355  28.636  1.00  0.00     0.031 C 
ATOM     40  C   UNL A   1      38.821  34.247  31.726  1.00  0.00     0.029 A 
ATOM     41  N   UNL A   1      40.382  32.648  31.677  1.00  0.00    -0.354 N 
ATOM     42  C   UNL A   1      39.898  29.141  29.206  1.00  0.00     0.074 A 
ATOM     43  C   UNL A   1      38.668  29.201  28.446  1.00  0.00     0.031 C 
ATOM     44  C   UNL A   1      39.796  34.610  32.573  1.00  0.00     0.029 A 
ATOM     45  C   UNL A   1      40.822  33.570  32.594  1.00  0.00     0.049 A 
ATOM     46  H   UNL A   1      40.884  31.831  31.450  1.00  0.00     0.167 HD
ATOM     47  C   UNL A   1      40.798  28.133  29.126  1.00  0.00     0.037 A 
ATOM     48  C   UNL A   1      41.919  33.574  33.376  1.00  0.00     0.037 A 
ATOM     49  C   UNL A   1      42.035  28.091  29.863  1.00  0.00     0.049 A 
ATOM     50  C   UNL A   1      42.890  32.427  33.292  1.00  0.00     0.074 A 
ATOM     51  C   UNL A   1      43.032  27.132  29.811  1.00  0.00     0.029 A 
ATOM     52  N   UNL A   1      42.444  29.046  30.781  1.00  0.00    -0.354 N 
ATOM     53  N   UNL A   1      42.841  31.358  32.536  1.00  0.00    -0.248 NA
ATOM     54  C   UNL A   1      44.069  32.484  34.169  1.00  0.00     0.031 C 
ATOM     55  C   UNL A   1      44.018  27.479  30.737  1.00  0.00     0.029 A 
ATOM     56  C   UNL A   1      43.668  28.687  31.319  1.00  0.00     0.049 A 
ATOM     57  H   UNL A   1      41.939  29.859  31.015  1.00  0.00     0.167 HD
ATOM     58  C   UNL A   1      43.990  30.634  32.820  1.00  0.00     0.074 A 
ATOM     59  C   UNL A   1      44.724  31.386  33.815  1.00  0.00     0.031 C 
ATOM     60  C   UNL A   1      44.399  29.452  32.299  1.00  0.00     0.037 A 
BRANCH  47  61
ATOM     61  C   UNL A   1      40.494  26.989  28.203  1.00  0.00     0.064 A 
ATOM     62  C   UNL A   1      39.576  25.995  28.578  1.00  0.00     0.173 A 
ATOM     63  C   UNL A   1      41.171  26.830  26.985  1.00  0.00     0.173 A 
ATOM     64  F   UNL A   1      38.906  26.095  29.735  1.00  0.00    -0.203 F 
ATOM     65  C   UNL A   1      39.360  24.879  27.774  1.00  0.00     0.198 A 
ATOM     66  C   UNL A   1      40.929  25.728  26.169  1.00  0.00     0.198 A 
ATOM     67  F   UNL A   1      42.052  27.755  26.575  1.00  0.00    -0.203 F 
ATOM     68  F   UNL A   1      38.505  23.925  28.171  1.00  0.00    -0.200 F 
ATOM     69  C   UNL A   1      40.033  24.748  26.569  1.00  0.00     0.200 A 
ATOM     70  F   UNL A   1      41.561  25.616  24.992  1.00  0.00    -0.200 F 
ATOM     71  F   UNL A   1      39.816  23.678  25.792  1.00  0.00    -0.200 F 
ENDBRANCH  47  61
BRANCH  48  72
ATOM     72  C   UNL A   1      42.169  34.724  34.286  1.00  0.00     0.064 A 
ATOM     73  C   UNL A   1      42.829  35.879  33.842  1.00  0.00     0.173 A 
ATOM     74  C   UNL A   1      41.778  34.673  35.630  1.00  0.00     0.173 A 
ATOM     75  F   UNL A   1      43.229  35.977  32.566  1.00  0.00    -0.203 F 
ATOM     76  C   UNL A   1      43.108  36.930  34.715  1.00  0.00     0.198 A 
ATOM     77  C   UNL A   1      42.030  35.736  36.496  1.00  0.00     0.198 A 
ATOM     78  F   UNL A   1      41.124  33.599  36.097  1.00  0.00    -0.203 F 
ATOM     79  F   UNL A   1      43.773  38.006  34.274  1.00  0.00    -0.200 F 
ATOM     80  C   UNL A   1      42.703  36.859  36.040  1.00  0.00     0.200 A 
ATOM     81  F   UNL A   1      41.615  35.675  37.768  1.00  0.00    -0.200 F 
ATOM     82  F   UNL A   1      42.959  37.874  36.876  1.00  0.00    -0.200 F 
ENDBRANCH  48  72
BRANCH  60  83
ATOM     83  C   UNL A   1      45.718  28.898  32.755  1.00  0.00     0.064 A 
ATOM     84  C   UNL A   1      45.779  28.042  33.866  1.00  0.00     0.173 A 
ATOM     85  C   UNL A   1      46.926  29.292  32.163  1.00  0.00     0.173 A 
ATOM     86  F   UNL A   1      44.651  27.643  34.474  1.00  0.00    -0.203 F 
ATOM     87  C   UNL A   1      47.001  27.623  34.383  1.00  0.00     0.198 A 
ATOM     88  C   UNL A   1      48.146  28.847  32.664  1.00  0.00     0.198 A 
ATOM     89  F   UNL A   1      46.921  30.100  31.092  1.00  0.00    -0.203 F 
ATOM     90  F   UNL A   1      47.034  26.845  35.473  1.00  0.00    -0.200 F 
ATOM     91  C   UNL A   1      48.184  28.025  33.781  1.00  0.00     0.200 A 
ATOM     92  F   UNL A   1      49.288  29.217  32.068  1.00  0.00    -0.200 F 
ATOM     93  F   UNL A   1      49.361  27.620  34.278  1.00  0.00    -0.200 F 
ENDBRANCH  60  83
ENDBRANCH  34  35
ENDBRANCH  26  29
ENDBRANCH  24  25
ENDBRANCH  23  24
ENDBRANCH  22  23
ENDBRANCH   3  22
TORSDOF 15
ENDMDL
MODEL 2
REMARK VINA RESULT:      -9.5      4.017     10.147
REMARK SMILES O=C(/C=C/c1cc(F)cc(COCc2ccco2)c1)NCCCNC(=O)c1ccc(-c2c3nc(c(-c4c(F)c(F)c(F)c(F)c4F)c4ccc([nH]4)c(-c4c(F)c(F)c(F)c(F)c4F)c4nc(c(-c5c(F)c(F)c(F)c(F)c5F)c5ccc2[nH]5)C=C4)C=C3)cc1
REMARK SMILES IDX 1 1 2 2 20 3 3 5 4 6 5 7 6 8 19 9 7 10 10 11 8 12 9 13 11 14
REMARK SMILES IDX 12 15 13 16 14 17 15 18 18 19 16 20 17 21 21 22 22 23 23 24
REMARK SMILES IDX 24 25 25 26 26 28 27 29 28 30 89 31 29 32 88 33 30 34 31 35
REMARK SMILES IDX 32 36 82 37 33 38 87 39 81 40 83 41 34 42 86 43 80 44 79 45
REMARK SMILES IDX 35 47 67 48 47 49 66 50 48 51 51 52 65 53 84 54 49 55 50 56
REMARK SMILES IDX 64 58 85 59 52 60 36 61 37 62 45 63 38 64 39 65 43 66 46 67
REMARK SMILES IDX 40 68 41 69 44 70 42 71 68 72 69 73 77 74 70 75 71 76 75 77
REMARK SMILES IDX 78 78 72 79 73 80 76 81 74 82 53 83 54 84 62 85 55 86 56 87
REMARK SMILES IDX 60 88 63 89 57 90 58 91 61 92 59 93
REMARK H PARENT 20 4 24 27 83 46 51 57
REMARK Flexibility Score: inf
ROOT
ATOM      1  O   UNL A   1      36.204  31.727  27.965  1.00  0.00    -0.270 OA
ATOM      2  C   UNL A   1      35.015  31.430  27.954  1.00  0.00     0.244 C 
ATOM      3  N   UNL A   1      34.017  32.237  28.436  1.00  0.00    -0.352 N 
ATOM      4  H   UNL A   1      33.085  31.926  28.383  1.00  0.00     0.163 HD
ENDROOT
BRANCH   2   5
ATOM      5  C   UNL A   1      34.599  30.098  27.443  1.00  0.00     0.072 C 
ATOM      6  C   UNL A   1      33.422  29.802  26.870  1.00  0.00     0.014 C 
BRANCH   6   7
ATOM      7  C   UNL A   1      33.106  28.472  26.329  1.00  0.00    -0.022 A 
ATOM      8  C   UNL A   1      34.059  27.455  26.220  1.00  0.00     0.047 A 
ATOM      9  C   UNL A   1      31.789  28.207  25.927  1.00  0.00     0.014 A 
ATOM     10  C   UNL A   1      33.698  26.218  25.693  1.00  0.00     0.124 A 
ATOM     11  C   UNL A   1      31.428  26.965  25.375  1.00  0.00    -0.019 A 
ATOM     12  F   UNL A   1      34.624  25.257  25.580  1.00  0.00    -0.207 F 
ATOM     13  C   UNL A   1      32.399  25.965  25.266  1.00  0.00     0.045 A 
BRANCH  11  14
ATOM     14  C   UNL A   1      30.033  26.746  24.841  1.00  0.00     0.196 C 
BRANCH  14  15
ATOM     15  O   UNL A   1      29.980  26.575  23.425  1.00  0.00    -0.369 OA
BRANCH  15  16
ATOM     16  C   UNL A   1      30.534  27.636  22.640  1.00  0.00     0.235 C 
BRANCH  16  17
ATOM     17  C   UNL A   1      29.548  28.727  22.426  1.00  0.00     0.129 A 
ATOM     18  C   UNL A   1      28.259  28.929  22.879  1.00  0.00     0.048 A 
ATOM     19  O   UNL A   1      29.888  29.721  21.555  1.00  0.00    -0.467 OA
ATOM     20  C   UNL A   1      27.798  30.118  22.263  1.00  0.00     0.042 A 
ATOM     21  C   UNL A   1      28.831  30.568  21.477  1.00  0.00     0.195 A 
ENDBRANCH  16  17
ENDBRANCH  15  16
ENDBRANCH  14  15
ENDBRANCH  11  14
ENDBRANCH   6   7
ENDBRANCH   2   5
BRANCH   3  22
ATOM     22  C   UNL A   1      34.292  33.535  29.022  1.00  0.00     0.118 C 
BRANCH  22  23
ATOM     23  C   UNL A   1      33.175  34.544  28.776  1.00  0.00     0.042 C 
BRANCH  23  24
ATOM     24  C   UNL A   1      33.408  35.914  29.405  1.00  0.00     0.118 C 
BRANCH  24  25
ATOM     25  N   UNL A   1      32.522  36.195  30.527  1.00  0.00    -0.352 N 
ATOM     26  C   UNL A   1      32.615  35.822  31.845  1.00  0.00     0.251 C 
ATOM     27  H   UNL A   1      31.732  36.738  30.305  1.00  0.00     0.163 HD
ATOM     28  O   UNL A   1      31.684  36.065  32.612  1.00  0.00    -0.269 OA
BRANCH  26  29
ATOM     29  C   UNL A   1      33.807  35.107  32.350  1.00  0.00     0.039 A 
ATOM     30  C   UNL A   1      33.651  33.811  32.851  1.00  0.00     0.014 A 
ATOM     31  C   UNL A   1      35.068  35.707  32.353  1.00  0.00     0.014 A 
ATOM     32  C   UNL A   1      34.767  33.092  33.285  1.00  0.00     0.010 A 
ATOM     33  C   UNL A   1      36.190  34.963  32.716  1.00  0.00     0.010 A 
ATOM     34  C   UNL A   1      36.053  33.648  33.184  1.00  0.00    -0.014 A 
BRANCH  34  35
ATOM     35  C   UNL A   1      37.266  32.874  33.556  1.00  0.00     0.031 A 
ATOM     36  C   UNL A   1      37.985  33.167  34.844  1.00  0.00     0.074 A 
ATOM     37  C   UNL A   1      37.764  31.957  32.704  1.00  0.00     0.049 A 
ATOM     38  N   UNL A   1      39.116  32.682  35.290  1.00  0.00    -0.248 NA
ATOM     39  C   UNL A   1      37.360  34.154  35.739  1.00  0.00     0.031 C 
ATOM     40  C   UNL A   1      37.177  31.597  31.412  1.00  0.00     0.029 A 
ATOM     41  N   UNL A   1      38.885  31.166  32.788  1.00  0.00    -0.354 N 
ATOM     42  C   UNL A   1      39.344  33.313  36.505  1.00  0.00     0.074 A 
ATOM     43  C   UNL A   1      38.262  34.252  36.705  1.00  0.00     0.031 C 
ATOM     44  C   UNL A   1      37.927  30.645  30.837  1.00  0.00     0.029 A 
ATOM     45  C   UNL A   1      39.075  30.359  31.693  1.00  0.00     0.049 A 
ATOM     46  H   UNL A   1      39.494  31.177  33.562  1.00  0.00     0.167 HD
ATOM     47  C   UNL A   1      40.351  33.107  37.386  1.00  0.00     0.037 A 
ATOM     48  C   UNL A   1      40.068  29.496  31.402  1.00  0.00     0.037 A 
ATOM     49  C   UNL A   1      41.411  32.150  37.197  1.00  0.00     0.049 A 
ATOM     50  C   UNL A   1      41.193  29.307  32.384  1.00  0.00     0.074 A 
ATOM     51  C   UNL A   1      42.449  31.839  38.057  1.00  0.00     0.029 A 
ATOM     52  N   UNL A   1      41.566  31.351  36.074  1.00  0.00    -0.354 N 
ATOM     53  N   UNL A   1      41.377  29.879  33.548  1.00  0.00    -0.248 NA
ATOM     54  C   UNL A   1      42.250  28.354  32.013  1.00  0.00     0.031 C 
ATOM     55  C   UNL A   1      43.264  30.891  37.433  1.00  0.00     0.029 A 
ATOM     56  C   UNL A   1      42.697  30.564  36.211  1.00  0.00     0.049 A 
ATOM     57  H   UNL A   1      40.962  31.344  35.296  1.00  0.00     0.167 HD
ATOM     58  C   UNL A   1      42.547  29.336  34.062  1.00  0.00     0.074 A 
ATOM     59  C   UNL A   1      43.030  28.382  33.087  1.00  0.00     0.031 C 
ATOM     60  C   UNL A   1      43.161  29.605  35.240  1.00  0.00     0.037 A 
BRANCH  47  61
ATOM     61  C   UNL A   1      40.361  33.921  38.647  1.00  0.00     0.064 A 
ATOM     62  C   UNL A   1      41.141  35.085  38.739  1.00  0.00     0.173 A 
ATOM     63  C   UNL A   1      39.665  33.507  39.793  1.00  0.00     0.173 A 
ATOM     64  F   UNL A   1      41.832  35.522  37.675  1.00  0.00    -0.203 F 
ATOM     65  C   UNL A   1      41.235  35.793  39.934  1.00  0.00     0.198 A 
ATOM     66  C   UNL A   1      39.736  34.236  40.977  1.00  0.00     0.198 A 
ATOM     67  F   UNL A   1      38.897  32.408  39.756  1.00  0.00    -0.203 F 
ATOM     68  F   UNL A   1      42.016  36.880  40.007  1.00  0.00    -0.200 F 
ATOM     69  C   UNL A   1      40.529  35.371  41.051  1.00  0.00     0.200 A 
ATOM     70  F   UNL A   1      39.033  33.841  42.048  1.00  0.00    -0.200 F 
ATOM     71  F   UNL A   1      40.614  36.059  42.197  1.00  0.00    -0.200 F 
ENDBRANCH  47  61
BRANCH  48  72
ATOM     72  C   UNL A   1      40.022  28.723  30.132  1.00  0.00     0.064 A 
ATOM     73  C   UNL A   1      39.417  27.459  30.066  1.00  0.00     0.173 A 
ATOM     74  C   UNL A   1      40.613  29.225  28.966  1.00  0.00     0.173 A 
ATOM     75  F   UNL A   1      38.840  26.932  31.156  1.00  0.00    -0.203 F 
ATOM     76  C   UNL A   1      39.425  26.718  28.886  1.00  0.00     0.198 A 
ATOM     77  C   UNL A   1      40.595  28.496  27.778  1.00  0.00     0.198 A 
ATOM     78  F   UNL A   1      41.184  30.438  28.973  1.00  0.00    -0.203 F 
ATOM     79  F   UNL A   1      38.873  25.497  28.860  1.00  0.00    -0.200 F 
ATOM     80  C   UNL A   1      40.010  27.239  27.741  1.00  0.00     0.200 A 
ATOM     81  F   UNL A   1      41.138  29.014  26.668  1.00  0.00    -0.200 F 
ATOM     82  F   UNL A   1      40.007  26.532  26.604  1.00  0.00    -0.200 F 
ENDBRANCH  48  72
BRANCH  60  83
ATOM     83  C   UNL A   1      44.409  28.839  35.576  1.00  0.00     0.064 A 
ATOM     84  C   UNL A   1      44.329  27.645  36.308  1.00  0.00     0.173 A 
ATOM     85  C   UNL A   1      45.682  29.337  35.267  1.00  0.00     0.173 A 
ATOM     86  F   UNL A   1      43.133  27.132  36.637  1.00  0.00    -0.203 F 
ATOM     87  C   UNL A   1      45.478  26.990  36.742  1.00  0.00     0.198 A 
ATOM     88  C   UNL A   1      46.831  28.663  35.676  1.00  0.00     0.198 A 
ATOM     89  F   UNL A   1      45.812  30.469  34.559  1.00  0.00    -0.203 F 
ATOM     90  F   UNL A   1      45.376  25.877  37.480  1.00  0.00    -0.200 F 
ATOM     91  C   UNL A   1      46.728  27.499  36.424  1.00  0.00     0.200 A 
ATOM     92  F   UNL A   1      48.038  29.144  35.350  1.00  0.00    -0.200 F 
ATOM     93  F   UNL A   1      47.835  26.868  36.840  1.00  0.00    -0.200 F 
ENDBRANCH  60  83
ENDBRANCH  34  35
ENDBRANCH  26  29
ENDBRANCH  24  25
ENDBRANCH  23  24
ENDBRANCH  22  23
ENDBRANCH   3  22
TORSDOF 15
ENDMDL
MODEL 3
REMARK VINA RESULT:      -9.5      4.087     10.265
REMARK SMILES O=C(/C=C/c1cc(F)cc(COCc2ccco2)c1)NCCCNC(=O)c1ccc(-c2c3nc(c(-c4c(F)c(F)c(F)c(F)c4F)c4ccc([nH]4)c(-c4c(F)c(F)c(F)c(F)c4F)c4nc(c(-c5c(F)c(F)c(F)c(F)c5F)c5ccc2[nH]5)C=C4)C=C3)cc1
REMARK SMILES IDX 1 1 2 2 20 3 3 5 4 6 5 7 6 8 19 9 7 10 10 11 8 12 9 13 11 14
REMARK SMILES IDX 12 15 13 16 14 17 15 18 18 19 16 20 17 21 21 22 22 23 23 24
REMARK SMILES IDX 24 25 25 26 26 28 27 29 28 30 89 31 29 32 88 33 30 34 31 35
REMARK SMILES IDX 32 36 82 37 33 38 87 39 81 40 83 41 34 42 86 43 80 44 79 45
REMARK SMILES IDX 35 47 67 48 47 49 66 50 48 51 51 52 65 53 84 54 49 55 50 56
REMARK SMILES IDX 64 58 85 59 52 60 36 61 37 62 45 63 38 64 39 65 43 66 46 67
REMARK SMILES IDX 40 68 41 69 44 70 42 71 68 72 69 73 77 74 70 75 71 76 75 77
REMARK SMILES IDX 78 78 72 79 73 80 76 81 74 82 53 83 54 84 62 85 55 86 56 87
REMARK SMILES IDX 60 88 63 89 57 90 58 91 61 92 59 93
REMARK H PARENT 20 4 24 27 83 46 51 57
REMARK Flexibility Score: inf
ROOT
ATOM      1  O   UNL A   1      35.507  31.136  27.970  1.00  0.00    -0.270 OA
ATOM      2  C   UNL A   1      34.328  31.196  27.641  1.00  0.00     0.244 C 
ATOM      3  N   UNL A   1      33.514  32.271  27.891  1.00  0.00    -0.352 N 
ATOM      4  H   UNL A   1      32.578  32.241  27.588  1.00  0.00     0.163 HD
ENDROOT
BRANCH   2   5
ATOM      5  C   UNL A   1      33.694  30.028  26.976  1.00  0.00     0.072 C 
ATOM      6  C   UNL A   1      32.380  29.754  26.941  1.00  0.00     0.014 C 
BRANCH   6   7
ATOM      7  C   UNL A   1      31.819  28.610  26.207  1.00  0.00    -0.022 A 
ATOM      8  C   UNL A   1      31.404  27.436  26.842  1.00  0.00     0.047 A 
ATOM      9  C   UNL A   1      31.676  28.711  24.816  1.00  0.00     0.014 A 
ATOM     10  C   UNL A   1      30.887  26.384  26.090  1.00  0.00     0.124 A 
ATOM     11  C   UNL A   1      31.173  27.642  24.053  1.00  0.00    -0.019 A 
ATOM     12  F   UNL A   1      30.507  25.259  26.709  1.00  0.00    -0.207 F 
ATOM     13  C   UNL A   1      30.773  26.472  24.707  1.00  0.00     0.045 A 
BRANCH  11  14
ATOM     14  C   UNL A   1      31.140  27.732  22.546  1.00  0.00     0.196 C 
BRANCH  14  15
ATOM     15  O   UNL A   1      29.958  28.346  22.033  1.00  0.00    -0.369 OA
BRANCH  15  16
ATOM     16  C   UNL A   1      30.084  29.713  21.626  1.00  0.00     0.235 C 
BRANCH  16  17
ATOM     17  C   UNL A   1      29.153  30.592  22.380  1.00  0.00     0.129 A 
ATOM     18  C   UNL A   1      28.176  30.337  23.323  1.00  0.00     0.048 A 
ATOM     19  O   UNL A   1      29.152  31.922  22.070  1.00  0.00    -0.467 OA
ATOM     20  C   UNL A   1      27.562  31.579  23.613  1.00  0.00     0.042 A 
ATOM     21  C   UNL A   1      28.201  32.514  22.834  1.00  0.00     0.195 A 
ENDBRANCH  16  17
ENDBRANCH  15  16
ENDBRANCH  14  15
ENDBRANCH  11  14
ENDBRANCH   6   7
ENDBRANCH   2   5
BRANCH   3  22
ATOM     22  C   UNL A   1      33.989  33.449  28.591  1.00  0.00     0.118 C 
BRANCH  22  23
ATOM     23  C   UNL A   1      33.018  34.621  28.501  1.00  0.00     0.042 C 
BRANCH  23  24
ATOM     24  C   UNL A   1      33.422  35.844  29.318  1.00  0.00     0.118 C 
BRANCH  24  25
ATOM     25  N   UNL A   1      32.517  36.128  30.425  1.00  0.00    -0.352 N 
ATOM     26  C   UNL A   1      32.594  35.770  31.748  1.00  0.00     0.251 C 
ATOM     27  H   UNL A   1      31.725  36.661  30.186  1.00  0.00     0.163 HD
ATOM     28  O   UNL A   1      31.650  36.011  32.498  1.00  0.00    -0.269 OA
BRANCH  26  29
ATOM     29  C   UNL A   1      33.786  35.072  32.278  1.00  0.00     0.039 A 
ATOM     30  C   UNL A   1      33.639  33.773  32.774  1.00  0.00     0.014 A 
ATOM     31  C   UNL A   1      35.038  35.690  32.308  1.00  0.00     0.014 A 
ATOM     32  C   UNL A   1      34.756  33.070  33.231  1.00  0.00     0.010 A 
ATOM     33  C   UNL A   1      36.163  34.962  32.694  1.00  0.00     0.010 A 
ATOM     34  C   UNL A   1      36.035  33.644  33.158  1.00  0.00    -0.014 A 
BRANCH  34  35
ATOM     35  C   UNL A   1      37.251  32.888  33.555  1.00  0.00     0.031 A 
ATOM     36  C   UNL A   1      37.935  33.187  34.860  1.00  0.00     0.074 A 
ATOM     37  C   UNL A   1      37.783  31.983  32.711  1.00  0.00     0.049 A 
ATOM     38  N   UNL A   1      39.063  32.717  35.331  1.00  0.00    -0.248 NA
ATOM     39  C   UNL A   1      37.274  34.160  35.745  1.00  0.00     0.031 C 
ATOM     40  C   UNL A   1      37.232  31.620  31.405  1.00  0.00     0.029 A 
ATOM     41  N   UNL A   1      38.914  31.209  32.819  1.00  0.00    -0.354 N 
ATOM     42  C   UNL A   1      39.253  33.347  36.554  1.00  0.00     0.074 A 
ATOM     43  C   UNL A   1      38.152  34.268  36.732  1.00  0.00     0.031 C 
ATOM     44  C   UNL A   1      38.010  30.682  30.843  1.00  0.00     0.029 A 
ATOM     45  C   UNL A   1      39.142  30.410  31.725  1.00  0.00     0.049 A 
ATOM     46  H   UNL A   1      39.505  31.226  33.607  1.00  0.00     0.167 HD
ATOM     47  C   UNL A   1      40.242  33.153  37.457  1.00  0.00     0.037 A 
ATOM     48  C   UNL A   1      40.156  29.564  31.454  1.00  0.00     0.037 A 
ATOM     49  C   UNL A   1      41.321  32.214  37.289  1.00  0.00     0.049 A 
ATOM     50  C   UNL A   1      41.261  29.388  32.461  1.00  0.00     0.074 A 
ATOM     51  C   UNL A   1      42.344  31.915  38.172  1.00  0.00     0.029 A 
ATOM     52  N   UNL A   1      41.515  31.422  36.167  1.00  0.00    -0.354 N 
ATOM     53  N   UNL A   1      41.408  29.959  33.631  1.00  0.00    -0.248 NA
ATOM     54  C   UNL A   1      42.341  28.454  32.111  1.00  0.00     0.031 C 
ATOM     55  C   UNL A   1      43.188  30.983  37.563  1.00  0.00     0.029 A 
ATOM     56  C   UNL A   1      42.655  30.652  36.327  1.00  0.00     0.049 A 
ATOM     57  H   UNL A   1      40.930  31.409  35.375  1.00  0.00     0.167 HD
ATOM     58  C   UNL A   1      42.574  29.432  34.171  1.00  0.00     0.074 A 
ATOM     59  C   UNL A   1      43.094  28.490  33.202  1.00  0.00     0.031 C 
ATOM     60  C   UNL A   1      43.156  29.704  35.363  1.00  0.00     0.037 A 
BRANCH  47  61
ATOM     61  C   UNL A   1      40.210  33.962  38.721  1.00  0.00     0.064 A 
ATOM     62  C   UNL A   1      39.411  33.562  39.803  1.00  0.00     0.173 A 
ATOM     63  C   UNL A   1      40.904  35.176  38.833  1.00  0.00     0.173 A 
ATOM     64  F   UNL A   1      38.721  32.413  39.747  1.00  0.00    -0.203 F 
ATOM     65  C   UNL A   1      39.296  34.354  40.942  1.00  0.00     0.198 A 
ATOM     66  C   UNL A   1      40.812  35.951  39.987  1.00  0.00     0.198 A 
ATOM     67  F   UNL A   1      41.690  35.600  37.832  1.00  0.00    -0.203 F 
ATOM     68  F   UNL A   1      38.497  33.968  41.947  1.00  0.00    -0.200 F 
ATOM     69  C   UNL A   1      40.000  35.545  41.035  1.00  0.00     0.200 A 
ATOM     70  F   UNL A   1      41.513  37.088  40.085  1.00  0.00    -0.200 F 
ATOM     71  F   UNL A   1      39.896  36.303  42.136  1.00  0.00    -0.200 F 
ENDBRANCH  47  61
BRANCH  48  72
ATOM     72  C   UNL A   1      40.151  28.796  30.180  1.00  0.00     0.064 A 
ATOM     73  C   UNL A   1      40.772  29.291  29.024  1.00  0.00     0.173 A 
ATOM     74  C   UNL A   1      39.496  27.561  30.090  1.00  0.00     0.173 A 
ATOM     75  F   UNL A   1      41.410  30.471  29.056  1.00  0.00    -0.203 F 
ATOM     76  C   UNL A   1      40.718  28.590  27.821  1.00  0.00     0.198 A 
ATOM     77  C   UNL A   1      39.466  26.847  28.894  1.00  0.00     0.198 A 
ATOM     78  F   UNL A   1      38.906  27.036  31.174  1.00  0.00    -0.203 F 
ATOM     79  F   UNL A   1      41.286  29.104  26.722  1.00  0.00    -0.200 F 
ATOM     80  C   UNL A   1      40.069  27.366  27.758  1.00  0.00     0.200 A 
ATOM     81  F   UNL A   1      38.861  25.652  28.844  1.00  0.00    -0.200 F 
ATOM     82  F   UNL A   1      40.027  26.686  26.605  1.00  0.00    -0.200 F 
ENDBRANCH  48  72
BRANCH  60  83
ATOM     83  C   UNL A   1      44.408  28.957  35.725  1.00  0.00     0.064 A 
ATOM     84  C   UNL A   1      45.660  29.429  35.301  1.00  0.00     0.173 A 
ATOM     85  C   UNL A   1      44.362  27.728  36.396  1.00  0.00     0.173 A 
ATOM     86  F   UNL A   1      45.756  30.596  34.646  1.00  0.00    -0.203 F 
ATOM     87  C   UNL A   1      46.817  28.685  35.512  1.00  0.00     0.198 A 
ATOM     88  C   UNL A   1      45.525  27.000  36.634  1.00  0.00     0.198 A 
ATOM     89  F   UNL A   1      43.191  27.239  36.832  1.00  0.00    -0.203 F 
ATOM     90  F   UNL A   1      47.994  29.133  35.056  1.00  0.00    -0.200 F 
ATOM     91  C   UNL A   1      46.748  27.471  36.181  1.00  0.00     0.200 A 
ATOM     92  F   UNL A   1      45.461  25.838  37.299  1.00  0.00    -0.200 F 
ATOM     93  F   UNL A   1      47.863  26.755  36.386  1.00  0.00    -0.200 F 
ENDBRANCH  60  83
ENDBRANCH  34  35
ENDBRANCH  26  29
ENDBRANCH  24  25
ENDBRANCH  23  24
ENDBRANCH  22  23
ENDBRANCH   3  22
TORSDOF 15
ENDMDL
