MODEL 1
REMARK VINA RESULT:     -12.4      0.000      0.000
REMARK SMILES Cc1ccc(Cl)cc1NC(=O)N[C@@](C)(C(=O)NCCCNC(=O)c1ccc(-c2c3nc(c(-c4c(F)c(F)c(F)c(F)c4F)c4ccc([nH]4)c(-c4c(F)c(F)c(F)c(F)c4F)c4nc(c(-c5c(F)c(F)c(F)c(F)c5F)c5ccc2[nH]5)C=C4)C=C3)cc1)C(F)(F)F
REMARK SMILES IDX 19 1 18 2 17 3 15 4 16 5 13 7 14 8 12 9 9 10 10 11 11 13
REMARK SMILES IDX 8 15 1 16 2 17 3 18 4 19 7 20 5 21 6 22 87 23 88 24 89 25
REMARK SMILES IDX 90 26 20 27 21 28 22 29 23 31 24 32 25 33 86 34 26 35 85 36
REMARK SMILES IDX 27 37 28 38 29 39 79 40 30 41 84 42 78 43 80 44 31 45 83 46
REMARK SMILES IDX 77 47 76 48 32 50 64 51 44 52 63 53 45 54 48 55 62 56 81 57
REMARK SMILES IDX 46 58 47 59 61 61 82 62 49 63 33 64 34 65 42 66 35 67 36 68
REMARK SMILES IDX 40 69 43 70 37 71 38 72 41 73 39 74 65 75 66 76 74 77 67 78
REMARK SMILES IDX 68 79 72 80 75 81 69 82 70 83 73 84 71 85 50 86 51 87 59 88
REMARK SMILES IDX 52 89 53 90 57 91 60 92 54 93 55 94 58 95 56 96
REMARK H PARENT 17 6 9 12 12 14 21 30 80 49 48 60
REMARK Flexibility Score: inf
ROOT
ATOM      1  C   UNL A   1      31.102  31.826  26.392  1.00  0.00     0.042 C 
ENDROOT
BRANCH   1   2
ATOM      2  C   UNL A   1      31.319  30.637  25.462  1.00  0.00     0.117 C 
BRANCH   2   3
ATOM      3  N   UNL A   1      32.407  29.793  25.924  1.00  0.00    -0.354 N 
ATOM      4  C   UNL A   1      32.138  28.555  26.454  1.00  0.00     0.255 C 
ATOM      5  O   UNL A   1      31.893  28.492  27.658  1.00  0.00    -0.272 OA
ATOM      6  H   UNL A   1      33.337  30.108  25.856  1.00  0.00     0.163 HD
BRANCH   4   7
ATOM      7  C   UNL A   1      32.008  27.352  25.481  1.00  0.00     0.213 C 
ATOM      8  C   UNL A   1      31.818  27.848  24.036  1.00  0.00     0.056 C 
BRANCH   7   9
ATOM      9  N   UNL A   1      30.795  26.605  25.950  1.00  0.00    -0.316 N 
ATOM     10  N   UNL A   1      30.684  24.345  25.161  1.00  0.00    -0.308 N 
ATOM     11  C   UNL A   1      30.220  25.408  25.830  1.00  0.00     0.320 C 
ATOM     12  H   UNL A   1      30.247  23.510  25.449  1.00  0.00     0.171 HD
ATOM     13  O   UNL A   1      29.207  25.236  26.517  1.00  0.00    -0.248 OA
ATOM     14  H   UNL A   1      30.248  27.184  26.530  1.00  0.00     0.166 HD
BRANCH  10  15
ATOM     15  C   UNL A   1      31.627  24.121  24.156  1.00  0.00     0.047 A 
ATOM     16  C   UNL A   1      32.676  22.225  25.532  1.00  0.00     0.046 C 
ATOM     17  C   UNL A   1      32.642  23.164  24.357  1.00  0.00    -0.027 A 
ATOM     18  C   UNL A   1      33.674  23.054  23.406  1.00  0.00     0.007 A 
ATOM     19  C   UNL A   1      33.670  23.837  22.252  1.00  0.00     0.021 A 
ATOM     20  C   UNL A   1      31.551  24.779  22.930  1.00  0.00     0.047 A 
ATOM     21  C   UNL A   1      32.583  24.663  21.999  1.00  0.00     0.043 A 
ATOM     22  Cl  UNL A   1      32.529  25.581  20.543  1.00  0.00    -0.084 Cl
ENDBRANCH  10  15
ENDBRANCH   7   9
BRANCH   7  23
ATOM     23  C   UNL A   1      33.391  26.698  25.716  1.00  0.00     0.420 C 
ATOM     24  F   UNL A   1      34.001  26.319  24.571  1.00  0.00    -0.168 F 
ATOM     25  F   UNL A   1      34.256  27.498  26.367  1.00  0.00    -0.168 F 
ATOM     26  F   UNL A   1      33.274  25.593  26.502  1.00  0.00    -0.168 F 
ENDBRANCH   7  23
ENDBRANCH   4   7
ENDBRANCH   2   3
ENDBRANCH   1   2
BRANCH   1  27
ATOM     27  C   UNL A   1      32.397  32.470  26.874  1.00  0.00     0.118 C 
BRANCH  27  28
ATOM     28  N   UNL A   1      32.197  33.814  27.403  1.00  0.00    -0.352 N 
ATOM     29  C   UNL A   1      32.919  34.463  28.375  1.00  0.00     0.251 C 
ATOM     30  H   UNL A   1      31.448  34.322  27.014  1.00  0.00     0.163 HD
ATOM     31  O   UNL A   1      32.542  35.534  28.837  1.00  0.00    -0.269 OA
BRANCH  29  32
ATOM     32  C   UNL A   1      34.147  33.822  28.875  1.00  0.00     0.039 A 
ATOM     33  C   UNL A   1      35.389  34.353  28.520  1.00  0.00     0.014 A 
ATOM     34  C   UNL A   1      34.050  32.755  29.769  1.00  0.00     0.014 A 
ATOM     35  C   UNL A   1      36.542  33.854  29.126  1.00  0.00     0.010 A 
ATOM     36  C   UNL A   1      35.186  32.323  30.435  1.00  0.00     0.010 A 
ATOM     37  C   UNL A   1      36.443  32.862  30.115  1.00  0.00    -0.014 A 
BRANCH  37  38
ATOM     38  C   UNL A   1      37.634  32.323  30.815  1.00  0.00     0.031 A 
ATOM     39  C   UNL A   1      38.423  31.226  30.156  1.00  0.00     0.074 A 
ATOM     40  C   UNL A   1      37.933  32.726  32.064  1.00  0.00     0.049 A 
ATOM     41  N   UNL A   1      39.356  30.458  30.654  1.00  0.00    -0.248 NA
ATOM     42  C   UNL A   1      38.078  30.923  28.756  1.00  0.00     0.031 C 
ATOM     43  C   UNL A   1      37.219  33.756  32.820  1.00  0.00     0.029 A 
ATOM     44  N   UNL A   1      38.906  32.294  32.930  1.00  0.00    -0.354 N 
ATOM     45  C   UNL A   1      39.673  29.556  29.648  1.00  0.00     0.074 A 
ATOM     46  C   UNL A   1      38.805  29.841  28.527  1.00  0.00     0.031 C 
ATOM     47  C   UNL A   1      37.783  33.882  34.033  1.00  0.00     0.029 A 
ATOM     48  C   UNL A   1      38.866  32.910  34.158  1.00  0.00     0.049 A 
ATOM     49  H   UNL A   1      39.571  31.606  32.694  1.00  0.00     0.167 HD
ATOM     50  C   UNL A   1      40.616  28.586  29.655  1.00  0.00     0.037 A 
ATOM     51  C   UNL A   1      39.606  32.696  35.262  1.00  0.00     0.037 A 
ATOM     52  C   UNL A   1      41.514  28.351  30.752  1.00  0.00     0.049 A 
ATOM     53  C   UNL A   1      40.674  31.634  35.232  1.00  0.00     0.074 A 
ATOM     54  C   UNL A   1      42.551  27.440  30.839  1.00  0.00     0.029 A 
ATOM     55  N   UNL A   1      41.485  29.045  31.953  1.00  0.00    -0.354 N 
ATOM     56  N   UNL A   1      40.997  30.814  34.261  1.00  0.00    -0.248 NA
ATOM     57  C   UNL A   1      41.482  31.468  36.449  1.00  0.00     0.031 C 
ATOM     58  C   UNL A   1      43.133  27.562  32.104  1.00  0.00     0.029 A 
ATOM     59  C   UNL A   1      42.486  28.580  32.788  1.00  0.00     0.049 A 
ATOM     60  H   UNL A   1      40.848  29.761  32.177  1.00  0.00     0.167 HD
ATOM     61  C   UNL A   1      42.068  30.066  34.733  1.00  0.00     0.074 A 
ATOM     62  C   UNL A   1      42.340  30.528  36.078  1.00  0.00     0.031 C 
ATOM     63  C   UNL A   1      42.763  29.086  34.107  1.00  0.00     0.037 A 
BRANCH  50  64
ATOM     64  C   UNL A   1      40.732  27.719  28.438  1.00  0.00     0.064 A 
ATOM     65  C   UNL A   1      40.037  26.505  28.330  1.00  0.00     0.173 A 
ATOM     66  C   UNL A   1      41.527  28.119  27.353  1.00  0.00     0.173 A 
ATOM     67  F   UNL A   1      39.275  26.070  29.345  1.00  0.00    -0.203 F 
ATOM     68  C   UNL A   1      40.155  25.710  27.192  1.00  0.00     0.198 A 
ATOM     69  C   UNL A   1      41.617  27.337  26.204  1.00  0.00     0.198 A 
ATOM     70  F   UNL A   1      42.210  29.272  27.403  1.00  0.00    -0.203 F 
ATOM     71  F   UNL A   1      39.521  24.531  27.134  1.00  0.00    -0.200 F 
ATOM     72  C   UNL A   1      40.938  26.131  26.128  1.00  0.00     0.200 A 
ATOM     73  F   UNL A   1      42.364  27.750  25.171  1.00  0.00    -0.200 F 
ATOM     74  F   UNL A   1      41.043  25.368  25.031  1.00  0.00    -0.200 F 
ENDBRANCH  50  64
BRANCH  51  75
ATOM     75  C   UNL A   1      39.383  33.515  36.481  1.00  0.00     0.064 A 
ATOM     76  C   UNL A   1      38.575  33.042  37.525  1.00  0.00     0.173 A 
ATOM     77  C   UNL A   1      39.958  34.786  36.628  1.00  0.00     0.173 A 
ATOM     78  F   UNL A   1      37.987  31.840  37.423  1.00  0.00    -0.203 F 
ATOM     79  C   UNL A   1      38.331  33.816  38.657  1.00  0.00     0.198 A 
ATOM     80  C   UNL A   1      39.735  35.549  37.773  1.00  0.00     0.198 A 
ATOM     81  F   UNL A   1      40.743  35.284  35.662  1.00  0.00    -0.203 F 
ATOM     82  F   UNL A   1      37.516  33.358  39.617  1.00  0.00    -0.200 F 
ATOM     83  C   UNL A   1      38.915  35.067  38.783  1.00  0.00     0.200 A 
ATOM     84  F   UNL A   1      40.311  36.752  37.897  1.00  0.00    -0.200 F 
ATOM     85  F   UNL A   1      38.680  35.812  39.872  1.00  0.00    -0.200 F 
ENDBRANCH  51  75
BRANCH  63  86
ATOM     86  C   UNL A   1      43.931  28.491  34.833  1.00  0.00     0.064 A 
ATOM     87  C   UNL A   1      45.211  29.056  34.758  1.00  0.00     0.173 A 
ATOM     88  C   UNL A   1      43.741  27.394  35.687  1.00  0.00     0.173 A 
ATOM     89  F   UNL A   1      45.443  30.098  33.944  1.00  0.00    -0.203 F 
ATOM     90  C   UNL A   1      46.264  28.536  35.505  1.00  0.00     0.198 A 
ATOM     91  C   UNL A   1      44.789  26.894  36.452  1.00  0.00     0.198 A 
ATOM     92  F   UNL A   1      42.531  26.825  35.798  1.00  0.00    -0.203 F 
ATOM     93  F   UNL A   1      47.487  29.073  35.400  1.00  0.00    -0.200 F 
ATOM     94  C   UNL A   1      46.050  27.464  36.359  1.00  0.00     0.200 A 
ATOM     95  F   UNL A   1      44.577  25.867  37.286  1.00  0.00    -0.200 F 
ATOM     96  F   UNL A   1      47.061  26.979  37.092  1.00  0.00    -0.200 F 
ENDBRANCH  63  86
ENDBRANCH  37  38
ENDBRANCH  29  32
ENDBRANCH  27  28
ENDBRANCH   1  27
TORSDOF 13
ENDMDL
MODEL 2
REMARK VINA RESULT:     -12.4      0.206      1.645
REMARK SMILES Cc1ccc(Cl)cc1NC(=O)N[C@@](C)(C(=O)NCCCNC(=O)c1ccc(-c2c3nc(c(-c4c(F)c(F)c(F)c(F)c4F)c4ccc([nH]4)c(-c4c(F)c(F)c(F)c(F)c4F)c4nc(c(-c5c(F)c(F)c(F)c(F)c5F)c5ccc2[nH]5)C=C4)C=C3)cc1)C(F)(F)F
REMARK SMILES IDX 19 1 18 2 17 3 15 4 16 5 13 7 14 8 12 9 9 10 10 11 11 13
REMARK SMILES IDX 8 15 1 16 2 17 3 18 4 19 7 20 5 21 6 22 87 23 88 24 89 25
REMARK SMILES IDX 90 26 20 27 21 28 22 29 23 31 24 32 25 33 86 34 26 35 85 36
REMARK SMILES IDX 27 37 28 38 29 39 79 40 30 41 84 42 78 43 80 44 31 45 83 46
REMARK SMILES IDX 77 47 76 48 32 50 64 51 44 52 63 53 45 54 48 55 62 56 81 57
REMARK SMILES IDX 46 58 47 59 61 61 82 62 49 63 33 64 34 65 42 66 35 67 36 68
REMARK SMILES IDX 40 69 43 70 37 71 38 72 41 73 39 74 65 75 66 76 74 77 67 78
REMARK SMILES IDX 68 79 72 80 75 81 69 82 70 83 73 84 71 85 50 86 51 87 59 88
REMARK SMILES IDX 52 89 53 90 57 91 60 92 54 93 55 94 58 95 56 96
REMARK H PARENT 17 6 9 12 12 14 21 30 80 49 48 60
REMARK Flexibility Score: inf
ROOT
ATOM      1  C   UNL A   1      31.081  31.857  26.335  1.00  0.00     0.042 C 
ENDROOT
BRANCH   1   2
ATOM      2  C   UNL A   1      31.317  30.644  25.442  1.00  0.00     0.117 C 
BRANCH   2   3
ATOM      3  N   UNL A   1      32.364  29.789  25.972  1.00  0.00    -0.354 N 
ATOM      4  C   UNL A   1      32.045  28.567  26.511  1.00  0.00     0.255 C 
ATOM      5  O   UNL A   1      31.741  28.532  27.703  1.00  0.00    -0.272 OA
ATOM      6  H   UNL A   1      33.302  30.086  25.944  1.00  0.00     0.163 HD
BRANCH   4   7
ATOM      7  C   UNL A   1      31.940  27.348  25.556  1.00  0.00     0.213 C 
ATOM      8  C   UNL A   1      31.770  27.819  24.099  1.00  0.00     0.056 C 
BRANCH   7   9
ATOM      9  N   UNL A   1      30.725  26.600  26.016  1.00  0.00    -0.316 N 
ATOM     10  N   UNL A   1      30.637  24.329  25.252  1.00  0.00    -0.308 N 
ATOM     11  C   UNL A   1      30.159  25.398  25.902  1.00  0.00     0.320 C 
ATOM     12  H   UNL A   1      30.202  23.496  25.544  1.00  0.00     0.171 HD
ATOM     13  O   UNL A   1      29.136  25.229  26.577  1.00  0.00    -0.248 OA
ATOM     14  H   UNL A   1      30.166  27.182  26.581  1.00  0.00     0.166 HD
BRANCH  10  15
ATOM     15  C   UNL A   1      31.596  24.099  24.263  1.00  0.00     0.047 A 
ATOM     16  C   UNL A   1      32.639  22.229  25.678  1.00  0.00     0.046 C 
ATOM     17  C   UNL A   1      32.614  23.152  24.491  1.00  0.00    -0.027 A 
ATOM     18  C   UNL A   1      33.660  23.037  23.556  1.00  0.00     0.007 A 
ATOM     19  C   UNL A   1      33.667  23.805  22.392  1.00  0.00     0.021 A 
ATOM     20  C   UNL A   1      31.532  24.741  23.028  1.00  0.00     0.047 A 
ATOM     21  C   UNL A   1      32.578  24.619  22.113  1.00  0.00     0.043 A 
ATOM     22  Cl  UNL A   1      32.538  25.518  20.645  1.00  0.00    -0.084 Cl
ENDBRANCH  10  15
ENDBRANCH   7   9
BRANCH   7  23
ATOM     23  C   UNL A   1      33.324  26.707  25.823  1.00  0.00     0.420 C 
ATOM     24  F   UNL A   1      33.259  25.604  26.601  1.00  0.00    -0.168 F 
ATOM     25  F   UNL A   1      33.972  26.349  24.699  1.00  0.00    -0.168 F 
ATOM     26  F   UNL A   1      34.154  27.594  26.438  1.00  0.00    -0.168 F 
ENDBRANCH   7  23
ENDBRANCH   4   7
ENDBRANCH   2   3
ENDBRANCH   1   2
BRANCH   1  27
ATOM     27  C   UNL A   1      32.363  32.468  26.889  1.00  0.00     0.118 C 
BRANCH  27  28
ATOM     28  N   UNL A   1      32.171  33.822  27.395  1.00  0.00    -0.352 N 
ATOM     29  C   UNL A   1      32.910  34.490  28.340  1.00  0.00     0.251 C 
ATOM     30  H   UNL A   1      31.415  34.321  27.009  1.00  0.00     0.163 HD
ATOM     31  O   UNL A   1      32.541  35.571  28.787  1.00  0.00    -0.269 OA
BRANCH  29  32
ATOM     32  C   UNL A   1      34.149  33.861  28.829  1.00  0.00     0.039 A 
ATOM     33  C   UNL A   1      35.382  34.405  28.466  1.00  0.00     0.014 A 
ATOM     34  C   UNL A   1      34.068  32.791  29.721  1.00  0.00     0.014 A 
ATOM     35  C   UNL A   1      36.545  33.916  29.062  1.00  0.00     0.010 A 
ATOM     36  C   UNL A   1      35.213  32.369  30.378  1.00  0.00     0.010 A 
ATOM     37  C   UNL A   1      36.463  32.921  30.050  1.00  0.00    -0.014 A 
BRANCH  37  38
ATOM     38  C   UNL A   1      37.665  32.392  30.740  1.00  0.00     0.031 A 
ATOM     39  C   UNL A   1      38.443  31.284  30.087  1.00  0.00     0.074 A 
ATOM     40  C   UNL A   1      37.983  32.816  31.977  1.00  0.00     0.049 A 
ATOM     41  N   UNL A   1      39.382  30.524  30.582  1.00  0.00    -0.248 NA
ATOM     42  C   UNL A   1      38.075  30.959  28.697  1.00  0.00     0.031 C 
ATOM     43  C   UNL A   1      37.282  33.858  32.727  1.00  0.00     0.029 A 
ATOM     44  N   UNL A   1      38.969  32.396  32.836  1.00  0.00    -0.354 N 
ATOM     45  C   UNL A   1      39.683  29.605  29.587  1.00  0.00     0.074 A 
ATOM     46  C   UNL A   1      38.798  29.873  28.475  1.00  0.00     0.031 C 
ATOM     47  C   UNL A   1      37.864  34.003  33.929  1.00  0.00     0.029 A 
ATOM     48  C   UNL A   1      38.948  33.032  34.054  1.00  0.00     0.049 A 
ATOM     49  H   UNL A   1      39.630  31.705  32.600  1.00  0.00     0.167 HD
ATOM     50  C   UNL A   1      40.625  28.635  29.595  1.00  0.00     0.037 A 
ATOM     51  C   UNL A   1      39.706  32.836  35.149  1.00  0.00     0.037 A 
ATOM     52  C   UNL A   1      41.540  28.416  30.682  1.00  0.00     0.049 A 
ATOM     53  C   UNL A   1      40.772  31.772  35.120  1.00  0.00     0.074 A 
ATOM     54  C   UNL A   1      42.578  27.506  30.767  1.00  0.00     0.029 A 
ATOM     55  N   UNL A   1      41.530  29.130  31.872  1.00  0.00    -0.354 N 
ATOM     56  N   UNL A   1      41.079  30.937  34.157  1.00  0.00    -0.248 NA
ATOM     57  C   UNL A   1      41.599  31.626  36.327  1.00  0.00     0.031 C 
ATOM     58  C   UNL A   1      43.180  27.649  32.020  1.00  0.00     0.029 A 
ATOM     59  C   UNL A   1      42.544  28.677  32.698  1.00  0.00     0.049 A 
ATOM     60  H   UNL A   1      40.897  29.850  32.094  1.00  0.00     0.167 HD
ATOM     61  C   UNL A   1      42.157  30.195  34.624  1.00  0.00     0.074 A 
ATOM     62  C   UNL A   1      42.450  30.679  35.957  1.00  0.00     0.031 C 
ATOM     63  C   UNL A   1      42.841  29.204  34.004  1.00  0.00     0.037 A 
BRANCH  50  64
ATOM     64  C   UNL A   1      40.722  27.747  28.391  1.00  0.00     0.064 A 
ATOM     65  C   UNL A   1      41.493  28.103  27.273  1.00  0.00     0.173 A 
ATOM     66  C   UNL A   1      40.060  26.510  28.364  1.00  0.00     0.173 A 
ATOM     67  F   UNL A   1      42.134  29.281  27.242  1.00  0.00    -0.203 F 
ATOM     68  C   UNL A   1      41.573  27.267  26.162  1.00  0.00     0.198 A 
ATOM     69  C   UNL A   1      40.168  25.662  27.265  1.00  0.00     0.198 A 
ATOM     70  F   UNL A   1      39.313  26.120  29.408  1.00  0.00    -0.203 F 
ATOM     71  F   UNL A   1      42.273  27.651  25.087  1.00  0.00    -0.200 F 
ATOM     72  C   UNL A   1      40.918  26.044  26.163  1.00  0.00     0.200 A 
ATOM     73  F   UNL A   1      39.545  24.476  27.271  1.00  0.00    -0.200 F 
ATOM     74  F   UNL A   1      41.003  25.237  25.096  1.00  0.00    -0.200 F 
ENDBRANCH  50  64
BRANCH  51  75
ATOM     75  C   UNL A   1      39.502  33.675  36.358  1.00  0.00     0.064 A 
ATOM     76  C   UNL A   1      38.709  33.220  37.421  1.00  0.00     0.173 A 
ATOM     77  C   UNL A   1      40.081  34.947  36.476  1.00  0.00     0.173 A 
ATOM     78  F   UNL A   1      38.117  32.018  37.347  1.00  0.00    -0.203 F 
ATOM     79  C   UNL A   1      38.483  34.013  38.544  1.00  0.00     0.198 A 
ATOM     80  C   UNL A   1      39.877  35.729  37.612  1.00  0.00     0.198 A 
ATOM     81  F   UNL A   1      40.853  35.428  35.491  1.00  0.00    -0.203 F 
ATOM     82  F   UNL A   1      37.681  33.572  39.523  1.00  0.00    -0.200 F 
ATOM     83  C   UNL A   1      39.071  35.265  38.642  1.00  0.00     0.200 A 
ATOM     84  F   UNL A   1      40.457  36.933  37.708  1.00  0.00    -0.200 F 
ATOM     85  F   UNL A   1      38.853  36.027  39.721  1.00  0.00    -0.200 F 
ENDBRANCH  51  75
BRANCH  63  86
ATOM     86  C   UNL A   1      44.021  28.621  34.721  1.00  0.00     0.064 A 
ATOM     87  C   UNL A   1      43.907  27.473  35.516  1.00  0.00     0.173 A 
ATOM     88  C   UNL A   1      45.297  29.172  34.534  1.00  0.00     0.173 A 
ATOM     89  F   UNL A   1      42.704  26.919  35.733  1.00  0.00    -0.203 F 
ATOM     90  C   UNL A   1      45.030  26.901  36.107  1.00  0.00     0.198 A 
ATOM     91  C   UNL A   1      46.421  28.583  35.104  1.00  0.00     0.198 A 
ATOM     92  F   UNL A   1      45.457  30.267  33.775  1.00  0.00    -0.203 F 
ATOM     93  F   UNL A   1      44.898  25.817  36.884  1.00  0.00    -0.200 F 
ATOM     94  C   UNL A   1      46.286  27.449  35.892  1.00  0.00     0.200 A 
ATOM     95  F   UNL A   1      47.635  29.106  34.884  1.00  0.00    -0.200 F 
ATOM     96  F   UNL A   1      47.368  26.885  36.444  1.00  0.00    -0.200 F 
ENDBRANCH  63  86
ENDBRANCH  37  38
ENDBRANCH  29  32
ENDBRANCH  27  28
ENDBRANCH   1  27
TORSDOF 13
ENDMDL
MODEL 3
REMARK VINA RESULT:     -12.3      5.554     10.721
REMARK SMILES Cc1ccc(Cl)cc1NC(=O)N[C@@](C)(C(=O)NCCCNC(=O)c1ccc(-c2c3nc(c(-c4c(F)c(F)c(F)c(F)c4F)c4ccc([nH]4)c(-c4c(F)c(F)c(F)c(F)c4F)c4nc(c(-c5c(F)c(F)c(F)c(F)c5F)c5ccc2[nH]5)C=C4)C=C3)cc1)C(F)(F)F
REMARK SMILES IDX 19 1 18 2 17 3 15 4 16 5 13 7 14 8 12 9 9 10 10 11 11 13
REMARK SMILES IDX 8 15 1 16 2 17 3 18 4 19 7 20 5 21 6 22 87 23 88 24 89 25
REMARK SMILES IDX 90 26 20 27 21 28 22 29 23 31 24 32 25 33 86 34 26 35 85 36
REMARK SMILES IDX 27 37 28 38 29 39 79 40 30 41 84 42 78 43 80 44 31 45 83 46
REMARK SMILES IDX 77 47 76 48 32 50 64 51 44 52 63 53 45 54 48 55 62 56 81 57
REMARK SMILES IDX 46 58 47 59 61 61 82 62 49 63 33 64 34 65 42 66 35 67 36 68
REMARK SMILES IDX 40 69 43 70 37 71 38 72 41 73 39 74 65 75 66 76 74 77 67 78
REMARK SMILES IDX 68 79 72 80 75 81 69 82 70 83 73 84 71 85 50 86 51 87 59 88
REMARK SMILES IDX 52 89 53 90 57 91 60 92 54 93 55 94 58 95 56 96
REMARK H PARENT 17 6 9 12 12 14 21 30 80 49 48 60
REMARK Flexibility Score: inf
ROOT
ATOM      1  C   UNL A   1      37.826  19.597  24.742  1.00  0.00     0.042 C 
ENDROOT
BRANCH   1   2
ATOM      2  C   UNL A   1      36.468  20.242  24.995  1.00  0.00     0.117 C 
BRANCH   2   3
ATOM      3  N   UNL A   1      36.597  21.660  25.280  1.00  0.00    -0.354 N 
ATOM      4  C   UNL A   1      36.165  22.587  24.363  1.00  0.00     0.255 C 
ATOM      5  O   UNL A   1      36.956  22.932  23.487  1.00  0.00    -0.272 OA
ATOM      6  H   UNL A   1      36.993  21.956  26.131  1.00  0.00     0.163 HD
BRANCH   4   7
ATOM      7  C   UNL A   1      34.673  23.015  24.399  1.00  0.00     0.213 C 
ATOM      8  C   UNL A   1      33.844  22.010  25.220  1.00  0.00     0.056 C 
BRANCH   7   9
ATOM      9  N   UNL A   1      34.236  23.016  22.965  1.00  0.00    -0.316 N 
ATOM     10  N   UNL A   1      32.234  24.271  22.562  1.00  0.00    -0.308 N 
ATOM     11  C   UNL A   1      33.259  23.491  22.193  1.00  0.00     0.320 C 
ATOM     12  H   UNL A   1      31.819  24.722  21.791  1.00  0.00     0.171 HD
ATOM     13  O   UNL A   1      33.390  23.280  20.982  1.00  0.00    -0.248 OA
ATOM     14  H   UNL A   1      34.874  22.500  22.419  1.00  0.00     0.166 HD
BRANCH  10  15
ATOM     15  C   UNL A   1      31.605  24.605  23.764  1.00  0.00     0.047 A 
ATOM     16  C   UNL A   1      31.900  27.102  23.251  1.00  0.00     0.046 C 
ATOM     17  C   UNL A   1      31.513  25.958  24.147  1.00  0.00    -0.027 A 
ATOM     18  C   UNL A   1      31.016  26.272  25.426  1.00  0.00     0.007 A 
ATOM     19  C   UNL A   1      30.566  25.269  26.284  1.00  0.00     0.021 A 
ATOM     20  C   UNL A   1      31.009  23.632  24.563  1.00  0.00     0.047 A 
ATOM     21  C   UNL A   1      30.523  23.959  25.830  1.00  0.00     0.043 A 
ATOM     22  Cl  UNL A   1      29.902  22.720  26.852  1.00  0.00    -0.084 Cl
ENDBRANCH  10  15
ENDBRANCH   7   9
BRANCH   7  23
ATOM     23  C   UNL A   1      34.829  24.384  25.105  1.00  0.00     0.420 C 
ATOM     24  F   UNL A   1      33.887  24.608  26.048  1.00  0.00    -0.168 F 
ATOM     25  F   UNL A   1      36.022  24.540  25.708  1.00  0.00    -0.168 F 
ATOM     26  F   UNL A   1      34.756  25.402  24.204  1.00  0.00    -0.168 F 
ENDBRANCH   7  23
ENDBRANCH   4   7
ENDBRANCH   2   3
ENDBRANCH   1   2
BRANCH   1  27
ATOM     27  C   UNL A   1      38.890  19.992  25.761  1.00  0.00     0.118 C 
BRANCH  27  28
ATOM     28  N   UNL A   1      40.021  19.073  25.780  1.00  0.00    -0.352 N 
ATOM     29  C   UNL A   1      41.344  19.356  26.018  1.00  0.00     0.251 C 
ATOM     30  H   UNL A   1      39.811  18.128  25.600  1.00  0.00     0.163 HD
ATOM     31  O   UNL A   1      42.215  18.510  25.847  1.00  0.00    -0.269 OA
BRANCH  29  32
ATOM     32  C   UNL A   1      41.697  20.717  26.457  1.00  0.00     0.039 A 
ATOM     33  C   UNL A   1      42.044  20.938  27.791  1.00  0.00     0.014 A 
ATOM     34  C   UNL A   1      41.771  21.745  25.515  1.00  0.00     0.014 A 
ATOM     35  C   UNL A   1      42.540  22.186  28.169  1.00  0.00     0.010 A 
ATOM     36  C   UNL A   1      42.347  22.953  25.873  1.00  0.00     0.010 A 
ATOM     37  C   UNL A   1      42.730  23.188  27.204  1.00  0.00    -0.014 A 
BRANCH  37  38
ATOM     38  C   UNL A   1      43.287  24.519  27.548  1.00  0.00     0.031 A 
ATOM     39  C   UNL A   1      42.363  25.567  28.102  1.00  0.00     0.074 A 
ATOM     40  C   UNL A   1      44.568  24.818  27.259  1.00  0.00     0.049 A 
ATOM     41  N   UNL A   1      42.564  26.847  28.271  1.00  0.00    -0.248 NA
ATOM     42  C   UNL A   1      41.010  25.116  28.471  1.00  0.00     0.031 C 
ATOM     43  C   UNL A   1      45.549  23.896  26.686  1.00  0.00     0.029 A 
ATOM     44  N   UNL A   1      45.256  25.999  27.385  1.00  0.00    -0.354 N 
ATOM     45  C   UNL A   1      41.354  27.358  28.719  1.00  0.00     0.074 A 
ATOM     46  C   UNL A   1      40.412  26.261  28.756  1.00  0.00     0.031 C 
ATOM     47  C   UNL A   1      46.715  24.543  26.518  1.00  0.00     0.029 A 
ATOM     48  C   UNL A   1      46.550  25.935  26.926  1.00  0.00     0.049 A 
ATOM     49  H   UNL A   1      44.860  26.815  27.769  1.00  0.00     0.167 HD
ATOM     50  C   UNL A   1      41.061  28.627  29.084  1.00  0.00     0.037 A 
ATOM     51  C   UNL A   1      47.485  26.899  26.828  1.00  0.00     0.037 A 
ATOM     52  C   UNL A   1      42.021  29.697  29.102  1.00  0.00     0.049 A 
ATOM     53  C   UNL A   1      47.144  28.297  27.274  1.00  0.00     0.074 A 
ATOM     54  C   UNL A   1      41.848  31.005  29.517  1.00  0.00     0.029 A 
ATOM     55  N   UNL A   1      43.341  29.573  28.694  1.00  0.00    -0.354 N 
ATOM     56  N   UNL A   1      46.010  28.763  27.739  1.00  0.00    -0.248 NA
ATOM     57  C   UNL A   1      48.213  29.303  27.185  1.00  0.00     0.031 C 
ATOM     58  C   UNL A   1      43.057  31.682  29.336  1.00  0.00     0.029 A 
ATOM     59  C   UNL A   1      43.994  30.784  28.848  1.00  0.00     0.049 A 
ATOM     60  H   UNL A   1      43.752  28.748  28.349  1.00  0.00     0.167 HD
ATOM     61  C   UNL A   1      46.238  30.100  28.035  1.00  0.00     0.074 A 
ATOM     62  C   UNL A   1      47.620  30.373  27.696  1.00  0.00     0.031 C 
ATOM     63  C   UNL A   1      45.381  31.018  28.542  1.00  0.00     0.037 A 
BRANCH  50  64
ATOM     64  C   UNL A   1      39.653  28.925  29.504  1.00  0.00     0.064 A 
ATOM     65  C   UNL A   1      38.700  29.408  28.595  1.00  0.00     0.173 A 
ATOM     66  C   UNL A   1      39.242  28.695  30.826  1.00  0.00     0.173 A 
ATOM     67  F   UNL A   1      39.046  29.657  27.322  1.00  0.00    -0.203 F 
ATOM     68  C   UNL A   1      37.395  29.679  29.000  1.00  0.00     0.198 A 
ATOM     69  C   UNL A   1      37.928  28.937  31.220  1.00  0.00     0.198 A 
ATOM     70  F   UNL A   1      40.112  28.230  31.735  1.00  0.00    -0.203 F 
ATOM     71  F   UNL A   1      36.517  30.188  28.126  1.00  0.00    -0.200 F 
ATOM     72  C   UNL A   1      37.009  29.435  30.310  1.00  0.00     0.200 A 
ATOM     73  F   UNL A   1      37.552  28.690  32.482  1.00  0.00    -0.200 F 
ATOM     74  F   UNL A   1      35.750  29.688  30.695  1.00  0.00    -0.200 F 
ENDBRANCH  50  64
BRANCH  51  75
ATOM     75  C   UNL A   1      48.839  26.576  26.308  1.00  0.00     0.064 A 
ATOM     76  C   UNL A   1      49.805  25.991  27.139  1.00  0.00     0.173 A 
ATOM     77  C   UNL A   1      49.201  26.851  24.982  1.00  0.00     0.173 A 
ATOM     78  F   UNL A   1      49.513  25.727  28.422  1.00  0.00    -0.203 F 
ATOM     79  C   UNL A   1      51.089  25.716  26.671  1.00  0.00     0.198 A 
ATOM     80  C   UNL A   1      50.477  26.551  24.507  1.00  0.00     0.198 A 
ATOM     81  F   UNL A   1      48.313  27.405  24.144  1.00  0.00    -0.203 F 
ATOM     82  F   UNL A   1      52.006  25.201  27.501  1.00  0.00    -0.200 F 
ATOM     83  C   UNL A   1      51.422  25.991  25.354  1.00  0.00     0.200 A 
ATOM     84  F   UNL A   1      50.792  26.806  23.230  1.00  0.00    -0.200 F 
ATOM     85  F   UNL A   1      52.656  25.726  24.904  1.00  0.00    -0.200 F 
ENDBRANCH  51  75
BRANCH  63  86
ATOM     86  C   UNL A   1      45.922  32.386  28.834  1.00  0.00     0.064 A 
ATOM     87  C   UNL A   1      46.532  32.692  30.057  1.00  0.00     0.173 A 
ATOM     88  C   UNL A   1      45.905  33.372  27.836  1.00  0.00     0.173 A 
ATOM     89  F   UNL A   1      46.559  31.784  31.045  1.00  0.00    -0.203 F 
ATOM     90  C   UNL A   1      47.099  33.944  30.276  1.00  0.00     0.198 A 
ATOM     91  C   UNL A   1      46.497  34.613  28.049  1.00  0.00     0.198 A 
ATOM     92  F   UNL A   1      45.340  33.122  26.645  1.00  0.00    -0.203 F 
ATOM     93  F   UNL A   1      47.656  34.228  31.461  1.00  0.00    -0.200 F 
ATOM     94  C   UNL A   1      47.091  34.899  29.269  1.00  0.00     0.200 A 
ATOM     95  F   UNL A   1      46.500  35.529  27.071  1.00  0.00    -0.200 F 
ATOM     96  F   UNL A   1      47.657  36.095  29.475  1.00  0.00    -0.200 F 
ENDBRANCH  63  86
ENDBRANCH  37  38
ENDBRANCH  29  32
ENDBRANCH  27  28
ENDBRANCH   1  27
TORSDOF 13
ENDMDL
