MODEL 1
REMARK VINA RESULT:     -13.6      0.000      0.000
REMARK SMILES O=C(NCCCNC(=O)c1c(F)cccc1N[C@H]1CCCc2ccccc21)c1ccc(-c2c3nc(c(-c4c(F)c(F)c(F)c(F)c4F)c4ccc([nH]4)c(-c4c(F)c(F)c(F)c(F)c4F)c4nc(c(-c5c(F)c(F)c(F)c(F)c5F)c5ccc2[nH]5)C=C4)C=C3)cc1
REMARK SMILES IDX 5 1 4 2 3 3 1 4 2 5 28 7 29 8 90 9 30 10 89 11 31 12 32 13
REMARK SMILES IDX 33 14 83 15 34 16 88 17 82 18 84 19 35 20 87 21 81 22 80 23
REMARK SMILES IDX 36 25 68 26 48 27 67 28 49 29 52 30 66 31 85 32 50 33 51 34
REMARK SMILES IDX 65 36 86 37 53 38 37 39 38 40 46 41 39 42 40 43 44 44 47 45
REMARK SMILES IDX 41 46 42 47 45 48 43 49 69 50 70 51 78 52 71 53 72 54 76 55
REMARK SMILES IDX 79 56 73 57 74 58 77 59 75 60 54 61 55 62 63 63 56 64 57 65
REMARK SMILES IDX 61 66 64 67 58 68 59 69 62 70 60 71 6 72 7 73 8 74 9 76
REMARK SMILES IDX 10 77 11 78 16 79 12 80 13 81 15 82 14 83 17 84 18 86 19 87
REMARK SMILES IDX 27 88 20 89 22 90 26 91 21 92 23 93 25 94 24 95
REMARK H PARENT 3 6 84 24 52 35 7 75 17 85
REMARK Flexibility Score: inf
ROOT
ATOM      1  C   UNL A   1      33.203  29.191  23.874  1.00  0.00     0.042 C 
ENDROOT
BRANCH   1   2
ATOM      2  C   UNL A   1      33.082  29.153  25.391  1.00  0.00     0.118 C 
BRANCH   2   3
ATOM      3  N   UNL A   1      32.616  30.412  25.964  1.00  0.00    -0.352 N 
ATOM      4  O   UNL A   1      32.489  32.154  27.382  1.00  0.00    -0.269 OA
ATOM      5  C   UNL A   1      33.140  31.202  26.959  1.00  0.00     0.251 C 
ATOM      6  H   UNL A   1      31.782  30.754  25.568  1.00  0.00     0.163 HD
BRANCH   5   7
ATOM      7  C   UNL A   1      34.461  30.902  27.556  1.00  0.00     0.039 A 
ATOM      8  C   UNL A   1      34.822  29.600  27.899  1.00  0.00     0.014 A 
ATOM      9  C   UNL A   1      35.370  31.947  27.760  1.00  0.00     0.014 A 
ATOM     10  C   UNL A   1      35.985  29.373  28.626  1.00  0.00     0.010 A 
ATOM     11  C   UNL A   1      36.594  31.699  28.391  1.00  0.00     0.010 A 
ATOM     12  C   UNL A   1      36.890  30.418  28.879  1.00  0.00    -0.014 A 
BRANCH  12  13
ATOM     13  C   UNL A   1      38.136  30.126  29.635  1.00  0.00     0.031 A 
ATOM     14  C   UNL A   1      38.325  30.620  31.044  1.00  0.00     0.074 A 
ATOM     15  C   UNL A   1      39.076  29.347  29.065  1.00  0.00     0.049 A 
ATOM     16  N   UNL A   1      39.320  30.398  31.868  1.00  0.00    -0.248 NA
ATOM     17  C   UNL A   1      37.269  31.477  31.602  1.00  0.00     0.031 C 
ATOM     18  C   UNL A   1      39.012  28.817  27.702  1.00  0.00     0.029 A 
ATOM     19  N   UNL A   1      40.246  28.834  29.566  1.00  0.00    -0.354 N 
ATOM     20  C   UNL A   1      39.018  31.100  33.028  1.00  0.00     0.074 A 
ATOM     21  C   UNL A   1      37.764  31.781  32.794  1.00  0.00     0.031 C 
ATOM     22  C   UNL A   1      40.054  27.999  27.498  1.00  0.00     0.029 A 
ATOM     23  C   UNL A   1      40.893  27.995  28.693  1.00  0.00     0.049 A 
ATOM     24  H   UNL A   1      40.589  29.047  30.463  1.00  0.00     0.167 HD
ATOM     25  C   UNL A   1      39.719  31.158  34.187  1.00  0.00     0.037 A 
ATOM     26  C   UNL A   1      42.035  27.296  28.832  1.00  0.00     0.037 A 
ATOM     27  C   UNL A   1      40.956  30.459  34.425  1.00  0.00     0.049 A 
ATOM     28  C   UNL A   1      42.792  27.378  30.125  1.00  0.00     0.074 A 
ATOM     29  C   UNL A   1      41.732  30.446  35.573  1.00  0.00     0.029 A 
ATOM     30  N   UNL A   1      41.596  29.645  33.503  1.00  0.00    -0.354 N 
ATOM     31  N   UNL A   1      42.490  28.040  31.215  1.00  0.00    -0.248 NA
ATOM     32  C   UNL A   1      44.048  26.622  30.208  1.00  0.00     0.031 C 
ATOM     33  C   UNL A   1      42.859  29.655  35.331  1.00  0.00     0.029 A 
ATOM     34  C   UNL A   1      42.763  29.136  34.051  1.00  0.00     0.049 A 
ATOM     35  H   UNL A   1      41.271  29.458  32.592  1.00  0.00     0.167 HD
ATOM     36  C   UNL A   1      43.509  27.772  32.117  1.00  0.00     0.074 A 
ATOM     37  C   UNL A   1      44.429  26.871  31.453  1.00  0.00     0.031 C 
ATOM     38  C   UNL A   1      43.668  28.238  33.379  1.00  0.00     0.037 A 
BRANCH  25  39
ATOM     39  C   UNL A   1      39.170  32.010  35.294  1.00  0.00     0.064 A 
ATOM     40  C   UNL A   1      39.475  33.379  35.355  1.00  0.00     0.173 A 
ATOM     41  C   UNL A   1      38.400  31.463  36.331  1.00  0.00     0.173 A 
ATOM     42  F   UNL A   1      40.214  33.951  34.394  1.00  0.00    -0.203 F 
ATOM     43  C   UNL A   1      39.037  34.165  36.418  1.00  0.00     0.198 A 
ATOM     44  C   UNL A   1      37.941  32.258  37.379  1.00  0.00     0.198 A 
ATOM     45  F   UNL A   1      38.073  30.162  36.314  1.00  0.00    -0.203 F 
ATOM     46  F   UNL A   1      39.364  35.464  36.470  1.00  0.00    -0.200 F 
ATOM     47  C   UNL A   1      38.266  33.605  37.427  1.00  0.00     0.200 A 
ATOM     48  F   UNL A   1      37.177  31.720  38.340  1.00  0.00    -0.200 F 
ATOM     49  F   UNL A   1      37.835  34.365  38.442  1.00  0.00    -0.200 F 
ENDBRANCH  25  39
BRANCH  26  50
ATOM     50  C   UNL A   1      42.504  26.443  27.711  1.00  0.00     0.064 A 
ATOM     51  C   UNL A   1      43.461  26.905  26.797  1.00  0.00     0.173 A 
ATOM     52  C   UNL A   1      41.962  25.167  27.502  1.00  0.00     0.173 A 
ATOM     53  F   UNL A   1      44.003  28.122  26.951  1.00  0.00    -0.203 F 
ATOM     54  C   UNL A   1      43.836  26.138  25.697  1.00  0.00     0.198 A 
ATOM     55  C   UNL A   1      42.357  24.389  26.416  1.00  0.00     0.198 A 
ATOM     56  F   UNL A   1      41.057  24.676  28.360  1.00  0.00    -0.203 F 
ATOM     57  F   UNL A   1      44.717  26.623  24.812  1.00  0.00    -0.200 F 
ATOM     58  C   UNL A   1      43.285  24.879  25.510  1.00  0.00     0.200 A 
ATOM     59  F   UNL A   1      41.839  23.165  26.250  1.00  0.00    -0.200 F 
ATOM     60  F   UNL A   1      43.649  24.138  24.454  1.00  0.00    -0.200 F 
ENDBRANCH  26  50
BRANCH  38  61
ATOM     61  C   UNL A   1      44.872  27.768  34.142  1.00  0.00     0.064 A 
ATOM     62  C   UNL A   1      44.791  26.638  34.969  1.00  0.00     0.173 A 
ATOM     63  C   UNL A   1      46.085  28.470  34.099  1.00  0.00     0.173 A 
ATOM     64  F   UNL A   1      43.650  25.937  35.049  1.00  0.00    -0.203 F 
ATOM     65  C   UNL A   1      45.880  26.234  35.736  1.00  0.00     0.198 A 
ATOM     66  C   UNL A   1      47.181  28.047  34.848  1.00  0.00     0.198 A 
ATOM     67  F   UNL A   1      46.215  29.548  33.313  1.00  0.00    -0.203 F 
ATOM     68  F   UNL A   1      45.773  25.168  36.541  1.00  0.00    -0.200 F 
ATOM     69  C   UNL A   1      47.075  26.936  35.672  1.00  0.00     0.200 A 
ATOM     70  F   UNL A   1      48.341  28.712  34.767  1.00  0.00    -0.200 F 
ATOM     71  F   UNL A   1      48.127  26.537  36.400  1.00  0.00    -0.200 F 
ENDBRANCH  38  61
ENDBRANCH  12  13
ENDBRANCH   5   7
ENDBRANCH   2   3
ENDBRANCH   1   2
BRANCH   1  72
ATOM     72  C   UNL A   1      33.667  27.883  23.252  1.00  0.00     0.118 C 
BRANCH  72  73
ATOM     73  N   UNL A   1      32.838  27.475  22.125  1.00  0.00    -0.352 N 
ATOM     74  C   UNL A   1      31.800  26.574  22.059  1.00  0.00     0.256 C 
ATOM     75  H   UNL A   1      33.056  27.915  21.272  1.00  0.00     0.163 HD
ATOM     76  O   UNL A   1      31.345  26.272  20.957  1.00  0.00    -0.269 OA
BRANCH  74  77
ATOM     77  C   UNL A   1      31.265  25.931  23.278  1.00  0.00     0.098 A 
ATOM     78  C   UNL A   1      30.488  26.690  24.159  1.00  0.00     0.138 A 
ATOM     79  C   UNL A   1      31.467  24.552  23.520  1.00  0.00     0.050 A 
ATOM     80  F   UNL A   1      30.160  27.960  23.871  1.00  0.00    -0.206 F 
ATOM     81  C   UNL A   1      30.034  26.161  25.359  1.00  0.00     0.040 A 
ATOM     82  C   UNL A   1      31.053  24.057  24.770  1.00  0.00     0.027 A 
ATOM     83  C   UNL A   1      30.345  24.849  25.681  1.00  0.00     0.005 A 
BRANCH  79  84
ATOM     84  N   UNL A   1      32.065  23.718  22.569  1.00  0.00    -0.377 N 
ATOM     85  H   UNL A   1      31.562  23.502  21.751  1.00  0.00     0.161 HD
BRANCH  84  86
ATOM     86  C   UNL A   1      33.408  23.149  22.737  1.00  0.00     0.110 C 
ATOM     87  C   UNL A   1      34.315  24.171  23.450  1.00  0.00     0.030 C 
ATOM     88  C   UNL A   1      33.353  21.824  23.499  1.00  0.00    -0.023 A 
ATOM     89  C   UNL A   1      35.653  23.547  23.810  1.00  0.00     0.007 C 
ATOM     90  C   UNL A   1      34.345  21.482  24.446  1.00  0.00    -0.043 A 
ATOM     91  C   UNL A   1      32.361  20.873  23.198  1.00  0.00     0.006 A 
ATOM     92  C   UNL A   1      35.448  22.438  24.831  1.00  0.00     0.036 C 
ATOM     93  C   UNL A   1      34.294  20.238  25.096  1.00  0.00     0.004 A 
ATOM     94  C   UNL A   1      32.328  19.636  23.844  1.00  0.00     0.000 A 
ATOM     95  C   UNL A   1      33.293  19.319  24.795  1.00  0.00     0.000 A 
ENDBRANCH  84  86
ENDBRANCH  79  84
ENDBRANCH  74  77
ENDBRANCH  72  73
ENDBRANCH   1  72
TORSDOF 12
ENDMDL
MODEL 2
REMARK VINA RESULT:     -13.6      0.198      1.594
REMARK SMILES O=C(NCCCNC(=O)c1c(F)cccc1N[C@H]1CCCc2ccccc21)c1ccc(-c2c3nc(c(-c4c(F)c(F)c(F)c(F)c4F)c4ccc([nH]4)c(-c4c(F)c(F)c(F)c(F)c4F)c4nc(c(-c5c(F)c(F)c(F)c(F)c5F)c5ccc2[nH]5)C=C4)C=C3)cc1
REMARK SMILES IDX 5 1 4 2 3 3 1 4 2 5 28 7 29 8 90 9 30 10 89 11 31 12 32 13
REMARK SMILES IDX 33 14 83 15 34 16 88 17 82 18 84 19 35 20 87 21 81 22 80 23
REMARK SMILES IDX 36 25 68 26 48 27 67 28 49 29 52 30 66 31 85 32 50 33 51 34
REMARK SMILES IDX 65 36 86 37 53 38 37 39 38 40 46 41 39 42 40 43 44 44 47 45
REMARK SMILES IDX 41 46 42 47 45 48 43 49 69 50 70 51 78 52 71 53 72 54 76 55
REMARK SMILES IDX 79 56 73 57 74 58 77 59 75 60 54 61 55 62 63 63 56 64 57 65
REMARK SMILES IDX 61 66 64 67 58 68 59 69 62 70 60 71 6 72 7 73 8 74 9 76
REMARK SMILES IDX 10 77 11 78 16 79 12 80 13 81 15 82 14 83 17 84 18 86 19 87
REMARK SMILES IDX 27 88 20 89 22 90 26 91 21 92 23 93 25 94 24 95
REMARK H PARENT 3 6 84 24 52 35 7 75 17 85
REMARK Flexibility Score: inf
ROOT
ATOM      1  C   UNL A   1      33.187  29.173  23.839  1.00  0.00     0.042 C 
ENDROOT
BRANCH   1   2
ATOM      2  C   UNL A   1      33.073  29.124  25.357  1.00  0.00     0.118 C 
BRANCH   2   3
ATOM      3  N   UNL A   1      32.594  30.374  25.938  1.00  0.00    -0.352 N 
ATOM      4  O   UNL A   1      32.453  32.107  27.367  1.00  0.00    -0.269 OA
ATOM      5  C   UNL A   1      33.114  31.165  26.935  1.00  0.00     0.251 C 
ATOM      6  H   UNL A   1      31.754  30.708  25.550  1.00  0.00     0.163 HD
BRANCH   5   7
ATOM      7  C   UNL A   1      34.442  30.880  27.523  1.00  0.00     0.039 A 
ATOM      8  C   UNL A   1      34.794  29.593  27.925  1.00  0.00     0.014 A 
ATOM      9  C   UNL A   1      35.366  31.923  27.657  1.00  0.00     0.014 A 
ATOM     10  C   UNL A   1      35.968  29.388  28.641  1.00  0.00     0.010 A 
ATOM     11  C   UNL A   1      36.599  31.691  28.277  1.00  0.00     0.010 A 
ATOM     12  C   UNL A   1      36.889  30.433  28.824  1.00  0.00    -0.014 A 
BRANCH  12  13
ATOM     13  C   UNL A   1      38.146  30.164  29.572  1.00  0.00     0.031 A 
ATOM     14  C   UNL A   1      38.327  30.643  30.987  1.00  0.00     0.074 A 
ATOM     15  C   UNL A   1      39.104  29.418  28.987  1.00  0.00     0.049 A 
ATOM     16  N   UNL A   1      39.331  30.436  31.804  1.00  0.00    -0.248 NA
ATOM     17  C   UNL A   1      37.250  31.464  31.561  1.00  0.00     0.031 C 
ATOM     18  C   UNL A   1      39.048  28.906  27.617  1.00  0.00     0.029 A 
ATOM     19  N   UNL A   1      40.289  28.930  29.477  1.00  0.00    -0.354 N 
ATOM     20  C   UNL A   1      39.015  31.113  32.975  1.00  0.00     0.074 A 
ATOM     21  C   UNL A   1      37.742  31.764  32.755  1.00  0.00     0.031 C 
ATOM     22  C   UNL A   1      40.111  28.119  27.399  1.00  0.00     0.029 A 
ATOM     23  C   UNL A   1      40.955  28.120  28.590  1.00  0.00     0.049 A 
ATOM     24  H   UNL A   1      40.630  29.140  30.376  1.00  0.00     0.167 HD
ATOM     25  C   UNL A   1      39.719  31.174  34.132  1.00  0.00     0.037 A 
ATOM     26  C   UNL A   1      42.116  27.451  28.716  1.00  0.00     0.037 A 
ATOM     27  C   UNL A   1      40.975  30.506  34.356  1.00  0.00     0.049 A 
ATOM     28  C   UNL A   1      42.875  27.536  30.007  1.00  0.00     0.074 A 
ATOM     29  C   UNL A   1      41.755  30.498  35.500  1.00  0.00     0.029 A 
ATOM     30  N   UNL A   1      41.633  29.722  33.420  1.00  0.00    -0.354 N 
ATOM     31  N   UNL A   1      42.561  28.174  31.107  1.00  0.00    -0.248 NA
ATOM     32  C   UNL A   1      44.151  26.812  30.074  1.00  0.00     0.031 C 
ATOM     33  C   UNL A   1      42.902  29.741  35.244  1.00  0.00     0.029 A 
ATOM     34  C   UNL A   1      42.815  29.237  33.957  1.00  0.00     0.049 A 
ATOM     35  H   UNL A   1      41.309  29.539  32.508  1.00  0.00     0.167 HD
ATOM     36  C   UNL A   1      43.590  27.921  32.002  1.00  0.00     0.074 A 
ATOM     37  C   UNL A   1      44.531  27.054  31.322  1.00  0.00     0.031 C 
ATOM     38  C   UNL A   1      43.741  28.373  33.269  1.00  0.00     0.037 A 
BRANCH  25  39
ATOM     39  C   UNL A   1      39.152  31.996  35.253  1.00  0.00     0.064 A 
ATOM     40  C   UNL A   1      39.403  33.376  35.321  1.00  0.00     0.173 A 
ATOM     41  C   UNL A   1      38.418  31.412  36.296  1.00  0.00     0.173 A 
ATOM     42  F   UNL A   1      40.106  33.984  34.354  1.00  0.00    -0.203 F 
ATOM     43  C   UNL A   1      38.948  34.136  36.395  1.00  0.00     0.198 A 
ATOM     44  C   UNL A   1      37.942  32.180  37.355  1.00  0.00     0.198 A 
ATOM     45  F   UNL A   1      38.143  30.099  36.273  1.00  0.00    -0.203 F 
ATOM     46  F   UNL A   1      39.224  35.446  36.453  1.00  0.00    -0.200 F 
ATOM     47  C   UNL A   1      38.214  33.539  37.410  1.00  0.00     0.200 A 
ATOM     48  F   UNL A   1      37.213  31.605  38.323  1.00  0.00    -0.200 F 
ATOM     49  F   UNL A   1      37.767  34.274  38.437  1.00  0.00    -0.200 F 
ENDBRANCH  25  39
BRANCH  26  50
ATOM     50  C   UNL A   1      42.603  26.626  27.581  1.00  0.00     0.064 A 
ATOM     51  C   UNL A   1      42.180  25.299  27.413  1.00  0.00     0.173 A 
ATOM     52  C   UNL A   1      43.544  27.132  26.675  1.00  0.00     0.173 A 
ATOM     53  F   UNL A   1      41.286  24.768  28.260  1.00  0.00    -0.203 F 
ATOM     54  C   UNL A   1      42.704  24.500  26.400  1.00  0.00     0.198 A 
ATOM     55  C   UNL A   1      44.047  26.340  25.645  1.00  0.00     0.198 A 
ATOM     56  F   UNL A   1      43.965  28.401  26.785  1.00  0.00    -0.203 F 
ATOM     57  F   UNL A   1      42.318  23.221  26.291  1.00  0.00    -0.200 F 
ATOM     58  C   UNL A   1      43.635  25.022  25.515  1.00  0.00     0.200 A 
ATOM     59  F   UNL A   1      44.931  26.854  24.780  1.00  0.00    -0.200 F 
ATOM     60  F   UNL A   1      44.135  24.254  24.538  1.00  0.00    -0.200 F 
ENDBRANCH  26  50
BRANCH  38  61
ATOM     61  C   UNL A   1      44.960  27.925  34.021  1.00  0.00     0.064 A 
ATOM     62  C   UNL A   1      46.150  28.665  33.948  1.00  0.00     0.173 A 
ATOM     63  C   UNL A   1      44.967  26.736  34.763  1.00  0.00     0.173 A 
ATOM     64  F   UNL A   1      46.196  29.807  33.244  1.00  0.00    -0.203 F 
ATOM     65  C   UNL A   1      47.308  28.223  34.583  1.00  0.00     0.198 A 
ATOM     66  C   UNL A   1      46.120  26.311  35.419  1.00  0.00     0.198 A 
ATOM     67  F   UNL A   1      43.850  26.002  34.874  1.00  0.00    -0.203 F 
ATOM     68  F   UNL A   1      48.440  28.931  34.477  1.00  0.00    -0.200 F 
ATOM     69  C   UNL A   1      47.291  27.049  35.321  1.00  0.00     0.200 A 
ATOM     70  F   UNL A   1      46.096  25.189  36.151  1.00  0.00    -0.200 F 
ATOM     71  F   UNL A   1      48.402  26.631  35.943  1.00  0.00    -0.200 F 
ENDBRANCH  38  61
ENDBRANCH  12  13
ENDBRANCH   5   7
ENDBRANCH   2   3
ENDBRANCH   1   2
BRANCH   1  72
ATOM     72  C   UNL A   1      33.662  27.873  23.208  1.00  0.00     0.118 C 
BRANCH  72  73
ATOM     73  N   UNL A   1      32.831  27.460  22.085  1.00  0.00    -0.352 N 
ATOM     74  C   UNL A   1      31.790  26.562  22.026  1.00  0.00     0.256 C 
ATOM     75  H   UNL A   1      33.050  27.894  21.228  1.00  0.00     0.163 HD
ATOM     76  O   UNL A   1      31.332  26.255  20.926  1.00  0.00    -0.269 OA
BRANCH  74  77
ATOM     77  C   UNL A   1      31.254  25.930  23.249  1.00  0.00     0.098 A 
ATOM     78  C   UNL A   1      30.478  26.698  24.125  1.00  0.00     0.138 A 
ATOM     79  C   UNL A   1      31.453  24.552  23.502  1.00  0.00     0.050 A 
ATOM     80  F   UNL A   1      30.152  27.966  23.827  1.00  0.00    -0.206 F 
ATOM     81  C   UNL A   1      30.023  26.178  25.329  1.00  0.00     0.040 A 
ATOM     82  C   UNL A   1      31.038  24.068  24.756  1.00  0.00     0.027 A 
ATOM     83  C   UNL A   1      30.332  24.868  25.661  1.00  0.00     0.005 A 
BRANCH  79  84
ATOM     84  N   UNL A   1      32.049  23.710  22.557  1.00  0.00    -0.377 N 
ATOM     85  H   UNL A   1      31.545  23.486  21.743  1.00  0.00     0.161 HD
BRANCH  84  86
ATOM     86  C   UNL A   1      33.394  23.145  22.727  1.00  0.00     0.110 C 
ATOM     87  C   UNL A   1      34.300  24.174  23.430  1.00  0.00     0.030 C 
ATOM     88  C   UNL A   1      33.343  21.826  23.498  1.00  0.00    -0.023 A 
ATOM     89  C   UNL A   1      35.641  23.556  23.792  1.00  0.00     0.007 C 
ATOM     90  C   UNL A   1      34.338  21.492  24.445  1.00  0.00    -0.043 A 
ATOM     91  C   UNL A   1      32.352  20.871  23.205  1.00  0.00     0.006 A 
ATOM     92  C   UNL A   1      35.440  22.453  24.822  1.00  0.00     0.036 C 
ATOM     93  C   UNL A   1      34.291  20.253  25.104  1.00  0.00     0.004 A 
ATOM     94  C   UNL A   1      32.323  19.638  23.860  1.00  0.00     0.000 A 
ATOM     95  C   UNL A   1      33.291  19.330  24.812  1.00  0.00     0.000 A 
ENDBRANCH  84  86
ENDBRANCH  79  84
ENDBRANCH  74  77
ENDBRANCH  72  73
ENDBRANCH   1  72
TORSDOF 12
ENDMDL
MODEL 3
REMARK VINA RESULT:     -13.4      1.123      1.823
REMARK SMILES O=C(NCCCNC(=O)c1c(F)cccc1N[C@H]1CCCc2ccccc21)c1ccc(-c2c3nc(c(-c4c(F)c(F)c(F)c(F)c4F)c4ccc([nH]4)c(-c4c(F)c(F)c(F)c(F)c4F)c4nc(c(-c5c(F)c(F)c(F)c(F)c5F)c5ccc2[nH]5)C=C4)C=C3)cc1
REMARK SMILES IDX 5 1 4 2 3 3 1 4 2 5 28 7 29 8 90 9 30 10 89 11 31 12 32 13
REMARK SMILES IDX 33 14 83 15 34 16 88 17 82 18 84 19 35 20 87 21 81 22 80 23
REMARK SMILES IDX 36 25 68 26 48 27 67 28 49 29 52 30 66 31 85 32 50 33 51 34
REMARK SMILES IDX 65 36 86 37 53 38 37 39 38 40 46 41 39 42 40 43 44 44 47 45
REMARK SMILES IDX 41 46 42 47 45 48 43 49 69 50 70 51 78 52 71 53 72 54 76 55
REMARK SMILES IDX 79 56 73 57 74 58 77 59 75 60 54 61 55 62 63 63 56 64 57 65
REMARK SMILES IDX 61 66 64 67 58 68 59 69 62 70 60 71 6 72 7 73 8 74 9 76
REMARK SMILES IDX 10 77 11 78 16 79 12 80 13 81 15 82 14 83 17 84 18 86 19 87
REMARK SMILES IDX 27 88 20 89 22 90 26 91 21 92 23 93 25 94 24 95
REMARK H PARENT 3 6 84 24 52 35 7 75 17 85
REMARK Flexibility Score: inf
ROOT
ATOM      1  C   UNL A   1      31.782  29.087  26.860  1.00  0.00     0.042 C 
ENDROOT
BRANCH   1   2
ATOM      2  C   UNL A   1      32.596  30.077  26.038  1.00  0.00     0.118 C 
BRANCH   2   3
ATOM      3  N   UNL A   1      32.406  31.462  26.453  1.00  0.00    -0.352 N 
ATOM      4  O   UNL A   1      32.690  33.362  27.626  1.00  0.00    -0.269 OA
ATOM      5  C   UNL A   1      33.127  32.257  27.311  1.00  0.00     0.251 C 
ATOM      6  H   UNL A   1      31.626  31.905  26.047  1.00  0.00     0.163 HD
BRANCH   5   7
ATOM      7  C   UNL A   1      34.405  31.790  27.893  1.00  0.00     0.039 A 
ATOM      8  C   UNL A   1      34.573  30.469  28.304  1.00  0.00     0.014 A 
ATOM      9  C   UNL A   1      35.471  32.690  28.011  1.00  0.00     0.014 A 
ATOM     10  C   UNL A   1      35.711  30.104  29.014  1.00  0.00     0.010 A 
ATOM     11  C   UNL A   1      36.663  32.290  28.625  1.00  0.00     0.010 A 
ATOM     12  C   UNL A   1      36.774  31.007  29.181  1.00  0.00    -0.014 A 
BRANCH  12  13
ATOM     13  C   UNL A   1      37.986  30.568  29.923  1.00  0.00     0.031 A 
ATOM     14  C   UNL A   1      38.197  30.949  31.363  1.00  0.00     0.074 A 
ATOM     15  C   UNL A   1      38.867  29.758  29.306  1.00  0.00     0.049 A 
ATOM     16  N   UNL A   1      39.163  30.594  32.176  1.00  0.00    -0.248 NA
ATOM     17  C   UNL A   1      37.205  31.847  31.973  1.00  0.00     0.031 C 
ATOM     18  C   UNL A   1      38.777  29.328  27.910  1.00  0.00     0.029 A 
ATOM     19  N   UNL A   1      39.989  29.121  29.778  1.00  0.00    -0.354 N 
ATOM     20  C   UNL A   1      38.905  31.237  33.380  1.00  0.00     0.074 A 
ATOM     21  C   UNL A   1      37.710  32.030  33.186  1.00  0.00     0.031 C 
ATOM     22  C   UNL A   1      39.754  28.446  27.657  1.00  0.00     0.029 A 
ATOM     23  C   UNL A   1      40.577  28.294  28.852  1.00  0.00     0.049 A 
ATOM     24  H   UNL A   1      40.337  29.246  30.689  1.00  0.00     0.167 HD
ATOM     25  C   UNL A   1      39.595  31.162  34.543  1.00  0.00     0.037 A 
ATOM     26  C   UNL A   1      41.659  27.500  28.951  1.00  0.00     0.037 A 
ATOM     27  C   UNL A   1      40.771  30.353  34.740  1.00  0.00     0.049 A 
ATOM     28  C   UNL A   1      42.406  27.435  30.250  1.00  0.00     0.074 A 
ATOM     29  C   UNL A   1      41.531  30.202  35.888  1.00  0.00     0.029 A 
ATOM     30  N   UNL A   1      41.355  29.555  33.768  1.00  0.00    -0.354 N 
ATOM     31  N   UNL A   1      42.146  28.043  31.381  1.00  0.00    -0.248 NA
ATOM     32  C   UNL A   1      43.598  26.577  30.288  1.00  0.00     0.031 C 
ATOM     33  C   UNL A   1      42.596  29.343  35.599  1.00  0.00     0.029 A 
ATOM     34  C   UNL A   1      42.473  28.920  34.286  1.00  0.00     0.049 A 
ATOM     35  H   UNL A   1      41.027  29.456  32.845  1.00  0.00     0.167 HD
ATOM     36  C   UNL A   1      43.131  27.636  32.268  1.00  0.00     0.074 A 
ATOM     37  C   UNL A   1      43.985  26.712  31.549  1.00  0.00     0.031 C 
ATOM     38  C   UNL A   1      43.312  28.001  33.560  1.00  0.00     0.037 A 
BRANCH  25  39
ATOM     39  C   UNL A   1      39.103  31.978  35.703  1.00  0.00     0.064 A 
ATOM     40  C   UNL A   1      39.551  33.296  35.886  1.00  0.00     0.173 A 
ATOM     41  C   UNL A   1      38.243  31.438  36.670  1.00  0.00     0.173 A 
ATOM     42  F   UNL A   1      40.381  33.858  34.995  1.00  0.00    -0.203 F 
ATOM     43  C   UNL A   1      39.163  34.037  36.999  1.00  0.00     0.198 A 
ATOM     44  C   UNL A   1      37.835  32.192  37.768  1.00  0.00     0.198 A 
ATOM     45  F   UNL A   1      37.778  30.187  36.536  1.00  0.00    -0.203 F 
ATOM     46  F   UNL A   1      39.626  35.284  37.168  1.00  0.00    -0.200 F 
ATOM     47  C   UNL A   1      38.302  33.487  37.937  1.00  0.00     0.200 A 
ATOM     48  F   UNL A   1      36.985  31.667  38.661  1.00  0.00    -0.200 F 
ATOM     49  F   UNL A   1      37.920  34.206  39.001  1.00  0.00    -0.200 F 
ENDBRANCH  25  39
BRANCH  26  50
ATOM     50  C   UNL A   1      42.072  26.690  27.776  1.00  0.00     0.064 A 
ATOM     51  C   UNL A   1      41.537  25.413  27.550  1.00  0.00     0.173 A 
ATOM     52  C   UNL A   1      43.052  27.155  26.889  1.00  0.00     0.173 A 
ATOM     53  F   UNL A   1      40.603  24.921  28.377  1.00  0.00    -0.203 F 
ATOM     54  C   UNL A   1      41.989  24.620  26.499  1.00  0.00     0.198 A 
ATOM     55  C   UNL A   1      43.483  26.371  25.821  1.00  0.00     0.198 A 
ATOM     56  F   UNL A   1      43.579  28.377  27.054  1.00  0.00    -0.203 F 
ATOM     57  F   UNL A   1      41.495  23.385  26.334  1.00  0.00    -0.200 F 
ATOM     58  C   UNL A   1      42.960  25.101  25.633  1.00  0.00     0.200 A 
ATOM     59  F   UNL A   1      44.406  26.848  24.975  1.00  0.00    -0.200 F 
ATOM     60  F   UNL A   1      43.391  24.339  24.618  1.00  0.00    -0.200 F 
ENDBRANCH  26  50
BRANCH  38  61
ATOM     61  C   UNL A   1      44.467  27.387  34.295  1.00  0.00     0.064 A 
ATOM     62  C   UNL A   1      44.300  26.190  35.007  1.00  0.00     0.173 A 
ATOM     63  C   UNL A   1      45.720  28.014  34.343  1.00  0.00     0.173 A 
ATOM     64  F   UNL A   1      43.117  25.557  34.998  1.00  0.00    -0.203 F 
ATOM     65  C   UNL A   1      45.344  25.648  35.751  1.00  0.00     0.198 A 
ATOM     66  C   UNL A   1      46.771  27.455  35.067  1.00  0.00     0.198 A 
ATOM     67  F   UNL A   1      45.933  29.152  33.667  1.00  0.00    -0.203 F 
ATOM     68  F   UNL A   1      45.154  24.519  36.446  1.00  0.00    -0.200 F 
ATOM     69  C   UNL A   1      46.580  26.278  35.777  1.00  0.00     0.200 A 
ATOM     70  F   UNL A   1      47.970  28.052  35.072  1.00  0.00    -0.200 F 
ATOM     71  F   UNL A   1      47.588  25.748  36.482  1.00  0.00    -0.200 F 
ENDBRANCH  38  61
ENDBRANCH  12  13
ENDBRANCH   5   7
ENDBRANCH   2   3
ENDBRANCH   1   2
BRANCH   1  72
ATOM     72  C   UNL A   1      32.339  27.671  26.862  1.00  0.00     0.118 C 
BRANCH  72  73
ATOM     73  N   UNL A   1      31.293  26.658  26.913  1.00  0.00    -0.352 N 
ATOM     74  C   UNL A   1      30.670  25.965  25.901  1.00  0.00     0.256 C 
ATOM     75  H   UNL A   1      30.981  26.433  27.819  1.00  0.00     0.163 HD
ATOM     76  O   UNL A   1      29.696  25.264  26.174  1.00  0.00    -0.269 OA
BRANCH  74  77
ATOM     77  C   UNL A   1      31.118  26.091  24.498  1.00  0.00     0.098 A 
ATOM     78  C   UNL A   1      30.627  27.146  23.723  1.00  0.00     0.138 A 
ATOM     79  C   UNL A   1      32.085  25.208  23.963  1.00  0.00     0.050 A 
ATOM     80  F   UNL A   1      29.825  28.081  24.257  1.00  0.00    -0.206 F 
ATOM     81  C   UNL A   1      30.947  27.261  22.376  1.00  0.00     0.040 A 
ATOM     82  C   UNL A   1      32.343  25.306  22.583  1.00  0.00     0.027 A 
ATOM     83  C   UNL A   1      31.782  26.318  21.797  1.00  0.00     0.005 A 
BRANCH  79  84
ATOM     84  N   UNL A   1      32.746  24.269  24.761  1.00  0.00    -0.377 N 
ATOM     85  H   UNL A   1      32.366  24.050  25.642  1.00  0.00     0.161 HD
BRANCH  84  86
ATOM     86  C   UNL A   1      33.982  23.594  24.344  1.00  0.00     0.110 C 
ATOM     87  C   UNL A   1      35.167  24.137  25.168  1.00  0.00     0.030 C 
ATOM     88  C   UNL A   1      33.854  22.077  24.482  1.00  0.00    -0.023 A 
ATOM     89  C   UNL A   1      36.426  23.330  24.897  1.00  0.00     0.007 C 
ATOM     90  C   UNL A   1      34.939  21.288  24.928  1.00  0.00    -0.043 A 
ATOM     91  C   UNL A   1      32.678  21.424  24.070  1.00  0.00     0.006 A 
ATOM     92  C   UNL A   1      36.240  21.900  25.388  1.00  0.00     0.036 C 
ATOM     93  C   UNL A   1      34.807  19.891  24.999  1.00  0.00     0.004 A 
ATOM     94  C   UNL A   1      32.564  20.034  24.136  1.00  0.00     0.000 A 
ATOM     95  C   UNL A   1      33.627  19.268  24.603  1.00  0.00     0.000 A 
ENDBRANCH  84  86
ENDBRANCH  79  84
ENDBRANCH  74  77
ENDBRANCH  72  73
ENDBRANCH   1  72
TORSDOF 12
ENDMDL
