MODEL 1
REMARK VINA RESULT:     -14.4      0.000      0.000
REMARK SMILES Cc1c(CCC(=O)N[C@@H](C)C(=O)NCCCNC(=O)c2ccc(-c3c4nc(c(-c5c(F)c(F)c(F)c(F)c5F)c5ccc([nH]5)c(-c5c(F)c(F)c(F)c(F)c5F)c5nc(c(-c6c(F)c(F)c(F)c(F)c6F)c6ccc3[nH]6)C=C5)C=C4)cc2)c(=O)oc2cc3oc4c(c3cc12)CCCC4
REMARK SMILES IDX 14 1 13 2 11 3 12 4 9 6 10 7 8 8 6 9 7 10 5 12 4 13 3 14
REMARK SMILES IDX 1 15 2 16 94 17 83 18 86 19 93 20 84 21 85 22 87 23 92 24
REMARK SMILES IDX 88 25 91 26 89 27 90 28 95 29 98 30 96 31 97 32 15 33 16 34
REMARK SMILES IDX 17 35 18 36 19 38 20 39 21 40 82 41 22 42 81 43 23 44 24 45
REMARK SMILES IDX 25 46 75 47 26 48 80 49 74 50 76 51 27 52 79 53 73 54 72 55
REMARK SMILES IDX 28 57 60 58 40 59 59 60 41 61 44 62 58 63 77 64 42 65 43 66
REMARK SMILES IDX 57 68 78 69 45 70 29 71 30 72 38 73 31 74 32 75 36 76 39 77
REMARK SMILES IDX 33 78 34 79 37 80 35 81 61 82 62 83 70 84 63 85 64 86 68 87
REMARK SMILES IDX 71 88 65 89 66 90 69 91 67 92 46 93 47 94 55 95 48 96 49 97
REMARK SMILES IDX 53 98 56 99 50 100 51 101 54 102 52 103
REMARK H PARENT 13 5 8 11 17 37 76 56 44 67
REMARK Flexibility Score: inf
ROOT
ATOM      1  C   UNL A   1      36.118  20.903  25.306  1.00  0.00     0.117 C 
ENDROOT
BRANCH   1   2
ATOM      2  N   UNL A   1      35.247  21.446  26.357  1.00  0.00    -0.354 N 
ATOM      3  C   UNL A   1      33.925  21.812  26.387  1.00  0.00     0.242 C 
ATOM      4  O   UNL A   1      33.630  22.693  27.203  1.00  0.00    -0.273 OA
ATOM      5  H   UNL A   1      35.707  21.575  27.217  1.00  0.00     0.163 HD
BRANCH   3   6
ATOM      6  C   UNL A   1      32.812  21.084  25.589  1.00  0.00     0.168 C 
ATOM      7  C   UNL A   1      33.290  20.526  24.282  1.00  0.00     0.041 C 
BRANCH   6   8
ATOM      8  N   UNL A   1      31.611  21.856  25.268  1.00  0.00    -0.345 N 
ATOM      9  C   UNL A   1      31.644  23.024  24.536  1.00  0.00     0.220 C 
ATOM     10  O   UNL A   1      30.982  23.987  24.917  1.00  0.00    -0.275 OA
ATOM     11  H   UNL A   1      30.740  21.527  25.590  1.00  0.00     0.164 HD
BRANCH   9  12
ATOM     12  C   UNL A   1      32.458  23.068  23.245  1.00  0.00     0.105 C 
BRANCH  12  13
ATOM     13  C   UNL A   1      33.702  23.981  23.231  1.00  0.00     0.053 C 
BRANCH  13  14
ATOM     14  C   UNL A   1      33.423  25.448  23.504  1.00  0.00     0.042 A 
ATOM     15  C   UNL A   1      32.430  25.950  21.214  1.00  0.00     0.046 C 
ATOM     16  C   UNL A   1      32.777  26.262  22.647  1.00  0.00    -0.030 A 
ATOM     17  C   UNL A   1      32.176  27.463  23.237  1.00  0.00     0.022 A 
ATOM     18  C   UNL A   1      33.929  25.994  24.805  1.00  0.00     0.339 A 
ATOM     19  C   UNL A   1      32.715  28.029  24.390  1.00  0.00     0.142 A 
ATOM     20  C   UNL A   1      30.925  27.902  22.794  1.00  0.00     0.024 A 
ATOM     21  O   UNL A   1      34.532  25.281  25.601  1.00  0.00    -0.246 OA
ATOM     22  O   UNL A   1      33.761  27.358  25.044  1.00  0.00    -0.422 OA
ATOM     23  C   UNL A   1      32.200  29.196  24.986  1.00  0.00     0.095 A 
ATOM     24  C   UNL A   1      30.281  28.914  23.501  1.00  0.00     0.025 A 
ATOM     25  C   UNL A   1      30.997  29.640  24.444  1.00  0.00     0.138 A 
ATOM     26  C   UNL A   1      29.008  29.504  23.420  1.00  0.00     0.001 A 
ATOM     27  O   UNL A   1      30.369  30.849  24.627  1.00  0.00    -0.461 OA
ATOM     28  C   UNL A   1      29.267  30.793  23.827  1.00  0.00     0.108 A 
ATOM     29  C   UNL A   1      27.875  29.217  22.513  1.00  0.00     0.040 C 
ATOM     30  C   UNL A   1      28.837  31.943  22.980  1.00  0.00     0.076 C 
ATOM     31  C   UNL A   1      28.026  30.100  21.267  1.00  0.00     0.005 C 
ATOM     32  C   UNL A   1      28.846  31.407  21.506  1.00  0.00     0.008 C 
ENDBRANCH  13  14
ENDBRANCH  12  13
ENDBRANCH   9  12
ENDBRANCH   6   8
ENDBRANCH   3   6
ENDBRANCH   1   2
BRANCH   1  33
ATOM     33  C   UNL A   1      36.757  22.040  24.514  1.00  0.00     0.042 C 
BRANCH  33  34
ATOM     34  C   UNL A   1      37.692  22.830  25.424  1.00  0.00     0.118 C 
BRANCH  34  35
ATOM     35  N   UNL A   1      38.540  21.960  26.227  1.00  0.00    -0.352 N 
ATOM     36  C   UNL A   1      39.662  22.257  26.975  1.00  0.00     0.251 C 
ATOM     37  H   UNL A   1      38.271  21.013  26.238  1.00  0.00     0.163 HD
ATOM     38  O   UNL A   1      40.347  21.367  27.437  1.00  0.00    -0.269 OA
BRANCH  36  39
ATOM     39  C   UNL A   1      40.053  23.671  27.157  1.00  0.00     0.039 A 
ATOM     40  C   UNL A   1      41.156  24.193  26.481  1.00  0.00     0.014 A 
ATOM     41  C   UNL A   1      39.302  24.479  28.019  1.00  0.00     0.014 A 
ATOM     42  C   UNL A   1      41.620  25.456  26.797  1.00  0.00     0.010 A 
ATOM     43  C   UNL A   1      39.720  25.784  28.276  1.00  0.00     0.010 A 
ATOM     44  C   UNL A   1      40.905  26.250  27.697  1.00  0.00    -0.014 A 
BRANCH  44  45
ATOM     45  C   UNL A   1      41.399  27.618  27.848  1.00  0.00     0.031 A 
ATOM     46  C   UNL A   1      40.322  28.642  27.734  1.00  0.00     0.074 A 
ATOM     47  C   UNL A   1      42.516  27.904  28.541  1.00  0.00     0.049 A 
ATOM     48  N   UNL A   1      39.569  28.982  28.738  1.00  0.00    -0.248 NA
ATOM     49  C   UNL A   1      39.835  29.111  26.437  1.00  0.00     0.031 C 
ATOM     50  C   UNL A   1      42.936  27.212  29.763  1.00  0.00     0.029 A 
ATOM     51  N   UNL A   1      43.354  28.988  28.450  1.00  0.00    -0.354 N 
ATOM     52  C   UNL A   1      38.478  29.648  28.215  1.00  0.00     0.074 A 
ATOM     53  C   UNL A   1      38.690  29.717  26.786  1.00  0.00     0.031 C 
ATOM     54  C   UNL A   1      43.824  27.993  30.411  1.00  0.00     0.029 A 
ATOM     55  C   UNL A   1      44.143  29.153  29.583  1.00  0.00     0.049 A 
ATOM     56  H   UNL A   1      43.394  29.583  27.666  1.00  0.00     0.167 HD
ATOM     57  C   UNL A   1      37.449  30.092  28.982  1.00  0.00     0.037 A 
ATOM     58  C   UNL A   1      44.547  30.364  30.053  1.00  0.00     0.037 A 
ATOM     59  C   UNL A   1      37.573  29.868  30.389  1.00  0.00     0.049 A 
ATOM     60  C   UNL A   1      43.245  30.889  30.615  1.00  0.00     0.074 A 
ATOM     61  C   UNL A   1      37.125  28.948  31.310  1.00  0.00     0.029 A 
ATOM     62  N   UNL A   1      38.395  30.711  31.099  1.00  0.00    -0.354 N 
ATOM     63  N   UNL A   1      42.714  30.558  31.764  1.00  0.00    -0.248 NA
ATOM     64  C   UNL A   1      42.319  31.546  29.688  1.00  0.00     0.031 C 
ATOM     65  C   UNL A   1      38.046  29.024  32.403  1.00  0.00     0.029 A 
ATOM     66  C   UNL A   1      39.025  29.950  32.049  1.00  0.00     0.049 A 
ATOM     67  H   UNL A   1      38.508  31.678  30.952  1.00  0.00     0.167 HD
ATOM     68  C   UNL A   1      41.337  30.720  31.597  1.00  0.00     0.074 A 
ATOM     69  C   UNL A   1      41.165  31.366  30.313  1.00  0.00     0.031 C 
ATOM     70  C   UNL A   1      40.408  30.152  32.418  1.00  0.00     0.037 A 
BRANCH  57  71
ATOM     71  C   UNL A   1      36.339  30.918  28.479  1.00  0.00     0.064 A 
ATOM     72  C   UNL A   1      36.479  32.310  28.546  1.00  0.00     0.173 A 
ATOM     73  C   UNL A   1      35.094  30.388  28.132  1.00  0.00     0.173 A 
ATOM     74  F   UNL A   1      37.664  32.847  28.887  1.00  0.00    -0.203 F 
ATOM     75  C   UNL A   1      35.398  33.150  28.316  1.00  0.00     0.198 A 
ATOM     76  C   UNL A   1      34.012  31.233  27.894  1.00  0.00     0.198 A 
ATOM     77  F   UNL A   1      34.916  29.060  28.067  1.00  0.00    -0.203 F 
ATOM     78  F   UNL A   1      35.550  34.476  28.433  1.00  0.00    -0.200 F 
ATOM     79  C   UNL A   1      34.161  32.610  28.001  1.00  0.00     0.200 A 
ATOM     80  F   UNL A   1      32.813  30.716  27.591  1.00  0.00    -0.200 F 
ATOM     81  F   UNL A   1      33.109  33.420  27.812  1.00  0.00    -0.200 F 
ENDBRANCH  57  71
BRANCH  58  82
ATOM     82  C   UNL A   1      45.433  31.128  29.113  1.00  0.00     0.064 A 
ATOM     83  C   UNL A   1      46.777  31.354  29.493  1.00  0.00     0.173 A 
ATOM     84  C   UNL A   1      45.058  31.636  27.863  1.00  0.00     0.173 A 
ATOM     85  F   UNL A   1      47.198  31.005  30.719  1.00  0.00    -0.203 F 
ATOM     86  C   UNL A   1      47.709  31.921  28.625  1.00  0.00     0.198 A 
ATOM     87  C   UNL A   1      45.997  32.183  26.981  1.00  0.00     0.198 A 
ATOM     88  F   UNL A   1      43.783  31.600  27.455  1.00  0.00    -0.203 F 
ATOM     89  F   UNL A   1      48.983  32.069  29.013  1.00  0.00    -0.200 F 
ATOM     90  C   UNL A   1      47.325  32.306  27.355  1.00  0.00     0.200 A 
ATOM     91  F   UNL A   1      45.612  32.564  25.756  1.00  0.00    -0.200 F 
ATOM     92  F   UNL A   1      48.226  32.795  26.493  1.00  0.00    -0.200 F 
ENDBRANCH  58  82
BRANCH  70  93
ATOM     93  C   UNL A   1      40.947  29.501  33.641  1.00  0.00     0.064 A 
ATOM     94  C   UNL A   1      41.248  28.134  33.633  1.00  0.00     0.173 A 
ATOM     95  C   UNL A   1      41.210  30.231  34.811  1.00  0.00     0.173 A 
ATOM     96  F   UNL A   1      41.023  27.398  32.534  1.00  0.00    -0.203 F 
ATOM     97  C   UNL A   1      41.815  27.524  34.746  1.00  0.00     0.198 A 
ATOM     98  C   UNL A   1      41.802  29.623  35.912  1.00  0.00     0.198 A 
ATOM     99  F   UNL A   1      40.919  31.540  34.885  1.00  0.00    -0.203 F 
ATOM    100  F   UNL A   1      42.104  26.215  34.717  1.00  0.00    -0.200 F 
ATOM    101  C   UNL A   1      42.105  28.271  35.879  1.00  0.00     0.200 A 
ATOM    102  F   UNL A   1      42.098  30.350  36.999  1.00  0.00    -0.200 F 
ATOM    103  F   UNL A   1      42.689  27.689  36.936  1.00  0.00    -0.200 F 
ENDBRANCH  70  93
ENDBRANCH  44  45
ENDBRANCH  36  39
ENDBRANCH  34  35
ENDBRANCH  33  34
ENDBRANCH   1  33
TORSDOF 14
ENDMDL
MODEL 2
REMARK VINA RESULT:     -14.2      3.063      8.550
REMARK SMILES Cc1c(CCC(=O)N[C@@H](C)C(=O)NCCCNC(=O)c2ccc(-c3c4nc(c(-c5c(F)c(F)c(F)c(F)c5F)c5ccc([nH]5)c(-c5c(F)c(F)c(F)c(F)c5F)c5nc(c(-c6c(F)c(F)c(F)c(F)c6F)c6ccc3[nH]6)C=C5)C=C4)cc2)c(=O)oc2cc3oc4c(c3cc12)CCCC4
REMARK SMILES IDX 14 1 13 2 11 3 12 4 9 6 10 7 8 8 6 9 7 10 5 12 4 13 3 14
REMARK SMILES IDX 1 15 2 16 94 17 83 18 86 19 93 20 84 21 85 22 87 23 92 24
REMARK SMILES IDX 88 25 91 26 89 27 90 28 95 29 98 30 96 31 97 32 15 33 16 34
REMARK SMILES IDX 17 35 18 36 19 38 20 39 21 40 82 41 22 42 81 43 23 44 24 45
REMARK SMILES IDX 25 46 75 47 26 48 80 49 74 50 76 51 27 52 79 53 73 54 72 55
REMARK SMILES IDX 28 57 60 58 40 59 59 60 41 61 44 62 58 63 77 64 42 65 43 66
REMARK SMILES IDX 57 68 78 69 45 70 29 71 30 72 38 73 31 74 32 75 36 76 39 77
REMARK SMILES IDX 33 78 34 79 37 80 35 81 61 82 62 83 70 84 63 85 64 86 68 87
REMARK SMILES IDX 71 88 65 89 66 90 69 91 67 92 46 93 47 94 55 95 48 96 49 97
REMARK SMILES IDX 53 98 56 99 50 100 51 101 54 102 52 103
REMARK H PARENT 13 5 8 11 17 37 76 56 44 67
REMARK Flexibility Score: inf
ROOT
ATOM      1  C   UNL A   1      32.900  29.622  25.035  1.00  0.00     0.117 C 
ENDROOT
BRANCH   1   2
ATOM      2  N   UNL A   1      33.321  29.322  23.659  1.00  0.00    -0.354 N 
ATOM      3  C   UNL A   1      33.289  28.186  22.892  1.00  0.00     0.242 C 
ATOM      4  O   UNL A   1      34.160  28.103  22.018  1.00  0.00    -0.273 OA
ATOM      5  H   UNL A   1      33.706  30.098  23.192  1.00  0.00     0.163 HD
BRANCH   3   6
ATOM      6  C   UNL A   1      32.157  27.128  22.969  1.00  0.00     0.168 C 
ATOM      7  C   UNL A   1      31.768  26.581  21.629  1.00  0.00     0.041 C 
BRANCH   6   8
ATOM      8  N   UNL A   1      30.903  27.540  23.601  1.00  0.00    -0.345 N 
ATOM      9  C   UNL A   1      29.881  26.659  23.883  1.00  0.00     0.220 C 
ATOM     10  O   UNL A   1      28.724  26.983  23.621  1.00  0.00    -0.275 OA
ATOM     11  H   UNL A   1      30.785  28.490  23.836  1.00  0.00     0.164 HD
BRANCH   9  12
ATOM     12  C   UNL A   1      30.211  25.333  24.564  1.00  0.00     0.105 C 
BRANCH  12  13
ATOM     13  C   UNL A   1      31.029  25.401  25.871  1.00  0.00     0.053 C 
BRANCH  13  14
ATOM     14  C   UNL A   1      32.076  24.313  26.029  1.00  0.00     0.042 A 
ATOM     15  C   UNL A   1      30.429  22.445  26.558  1.00  0.00     0.046 C 
ATOM     16  C   UNL A   1      31.786  23.013  26.229  1.00  0.00    -0.030 A 
ATOM     17  C   UNL A   1      32.846  22.061  25.880  1.00  0.00     0.022 A 
ATOM     18  C   UNL A   1      33.508  24.752  25.974  1.00  0.00     0.339 A 
ATOM     19  C   UNL A   1      34.184  22.443  25.932  1.00  0.00     0.142 A 
ATOM     20  C   UNL A   1      32.515  20.852  25.262  1.00  0.00     0.024 A 
ATOM     21  O   UNL A   1      33.805  25.930  25.807  1.00  0.00    -0.246 OA
ATOM     22  O   UNL A   1      34.490  23.787  26.200  1.00  0.00    -0.422 OA
ATOM     23  C   UNL A   1      35.245  21.567  25.636  1.00  0.00     0.095 A 
ATOM     24  C   UNL A   1      33.539  20.056  24.754  1.00  0.00     0.025 A 
ATOM     25  C   UNL A   1      34.852  20.340  25.107  1.00  0.00     0.138 A 
ATOM     26  C   UNL A   1      33.573  18.876  23.993  1.00  0.00     0.001 A 
ATOM     27  O   UNL A   1      35.601  19.199  24.943  1.00  0.00    -0.461 OA
ATOM     28  C   UNL A   1      34.726  18.279  24.447  1.00  0.00     0.108 A 
ATOM     29  C   UNL A   1      32.470  18.058  23.444  1.00  0.00     0.040 C 
ATOM     30  C   UNL A   1      34.694  16.868  24.932  1.00  0.00     0.076 C 
ATOM     31  C   UNL A   1      32.090  17.004  24.494  1.00  0.00     0.005 C 
ATOM     32  C   UNL A   1      33.243  16.646  25.484  1.00  0.00     0.008 C 
ENDBRANCH  13  14
ENDBRANCH  12  13
ENDBRANCH   9  12
ENDBRANCH   6   8
ENDBRANCH   3   6
ENDBRANCH   1   2
BRANCH   1  33
ATOM     33  C   UNL A   1      33.944  29.115  26.025  1.00  0.00     0.042 C 
BRANCH  33  34
ATOM     34  C   UNL A   1      33.829  29.896  27.330  1.00  0.00     0.118 C 
BRANCH  34  35
ATOM     35  N   UNL A   1      34.287  31.271  27.187  1.00  0.00    -0.352 N 
ATOM     36  C   UNL A   1      35.426  31.883  27.673  1.00  0.00     0.251 C 
ATOM     37  H   UNL A   1      33.693  31.855  26.663  1.00  0.00     0.163 HD
ATOM     38  O   UNL A   1      35.554  33.089  27.606  1.00  0.00    -0.269 OA
BRANCH  36  39
ATOM     39  C   UNL A   1      36.462  31.060  28.332  1.00  0.00     0.039 A 
ATOM     40  C   UNL A   1      36.592  31.062  29.720  1.00  0.00     0.014 A 
ATOM     41  C   UNL A   1      37.311  30.276  27.542  1.00  0.00     0.014 A 
ATOM     42  C   UNL A   1      37.673  30.436  30.310  1.00  0.00     0.010 A 
ATOM     43  C   UNL A   1      38.355  29.574  28.143  1.00  0.00     0.010 A 
ATOM     44  C   UNL A   1      38.557  29.695  29.522  1.00  0.00    -0.014 A 
BRANCH  44  45
ATOM     45  C   UNL A   1      39.578  28.955  30.261  1.00  0.00     0.031 A 
ATOM     46  C   UNL A   1      39.677  27.526  29.846  1.00  0.00     0.074 A 
ATOM     47  C   UNL A   1      40.647  29.561  30.811  1.00  0.00     0.049 A 
ATOM     48  N   UNL A   1      40.379  27.142  28.821  1.00  0.00    -0.248 NA
ATOM     49  C   UNL A   1      38.765  26.506  30.362  1.00  0.00     0.031 C 
ATOM     50  C   UNL A   1      41.358  30.694  30.213  1.00  0.00     0.029 A 
ATOM     51  N   UNL A   1      41.445  29.160  31.853  1.00  0.00    -0.354 N 
ATOM     52  C   UNL A   1      39.964  25.861  28.508  1.00  0.00     0.074 A 
ATOM     53  C   UNL A   1      38.971  25.502  29.496  1.00  0.00     0.031 C 
ATOM     54  C   UNL A   1      42.580  30.775  30.777  1.00  0.00     0.029 A 
ATOM     55  C   UNL A   1      42.676  29.807  31.867  1.00  0.00     0.049 A 
ATOM     56  H   UNL A   1      41.175  28.488  32.521  1.00  0.00     0.167 HD
ATOM     57  C   UNL A   1      40.445  25.171  27.442  1.00  0.00     0.037 A 
ATOM     58  C   UNL A   1      43.827  29.233  32.306  1.00  0.00     0.037 A 
ATOM     59  C   UNL A   1      41.451  25.832  26.669  1.00  0.00     0.049 A 
ATOM     60  C   UNL A   1      44.102  28.267  31.176  1.00  0.00     0.074 A 
ATOM     61  C   UNL A   1      41.513  26.569  25.508  1.00  0.00     0.029 A 
ATOM     62  N   UNL A   1      42.732  25.846  27.169  1.00  0.00    -0.354 N 
ATOM     63  N   UNL A   1      44.629  28.569  30.017  1.00  0.00    -0.248 NA
ATOM     64  C   UNL A   1      43.426  26.967  31.212  1.00  0.00     0.031 C 
ATOM     65  C   UNL A   1      42.709  27.347  25.615  1.00  0.00     0.029 A 
ATOM     66  C   UNL A   1      43.268  27.070  26.861  1.00  0.00     0.049 A 
ATOM     67  H   UNL A   1      43.178  25.116  27.655  1.00  0.00     0.167 HD
ATOM     68  C   UNL A   1      44.119  27.626  29.120  1.00  0.00     0.074 A 
ATOM     69  C   UNL A   1      43.420  26.649  29.926  1.00  0.00     0.031 C 
ATOM     70  C   UNL A   1      44.130  27.793  27.767  1.00  0.00     0.037 A 
BRANCH  57  71
ATOM     71  C   UNL A   1      40.126  23.763  27.156  1.00  0.00     0.064 A 
ATOM     72  C   UNL A   1      40.974  22.781  27.684  1.00  0.00     0.173 A 
ATOM     73  C   UNL A   1      39.152  23.378  26.232  1.00  0.00     0.173 A 
ATOM     74  F   UNL A   1      41.926  23.126  28.568  1.00  0.00    -0.203 F 
ATOM     75  C   UNL A   1      40.882  21.459  27.271  1.00  0.00     0.198 A 
ATOM     76  C   UNL A   1      39.057  22.048  25.824  1.00  0.00     0.198 A 
ATOM     77  F   UNL A   1      38.327  24.289  25.694  1.00  0.00    -0.203 F 
ATOM     78  F   UNL A   1      41.737  20.550  27.759  1.00  0.00    -0.200 F 
ATOM     79  C   UNL A   1      39.930  21.095  26.332  1.00  0.00     0.200 A 
ATOM     80  F   UNL A   1      38.139  21.691  24.914  1.00  0.00    -0.200 F 
ATOM     81  F   UNL A   1      39.864  19.825  25.908  1.00  0.00    -0.200 F 
ENDBRANCH  57  71
BRANCH  58  82
ATOM     82  C   UNL A   1      43.816  28.855  33.759  1.00  0.00     0.064 A 
ATOM     83  C   UNL A   1      43.068  29.656  34.654  1.00  0.00     0.173 A 
ATOM     84  C   UNL A   1      44.472  27.756  34.326  1.00  0.00     0.173 A 
ATOM     85  F   UNL A   1      42.498  30.793  34.225  1.00  0.00    -0.203 F 
ATOM     86  C   UNL A   1      42.878  29.299  35.988  1.00  0.00     0.198 A 
ATOM     87  C   UNL A   1      44.263  27.383  35.658  1.00  0.00     0.198 A 
ATOM     88  F   UNL A   1      45.315  27.005  33.604  1.00  0.00    -0.203 F 
ATOM     89  F   UNL A   1      42.120  30.064  36.785  1.00  0.00    -0.200 F 
ATOM     90  C   UNL A   1      43.451  28.143  36.482  1.00  0.00     0.200 A 
ATOM     91  F   UNL A   1      44.833  26.266  36.130  1.00  0.00    -0.200 F 
ATOM     92  F   UNL A   1      43.224  27.760  37.745  1.00  0.00    -0.200 F 
ENDBRANCH  58  82
BRANCH  70  93
ATOM     93  C   UNL A   1      44.906  28.961  27.272  1.00  0.00     0.064 A 
ATOM     94  C   UNL A   1      44.265  30.186  27.053  1.00  0.00     0.173 A 
ATOM     95  C   UNL A   1      46.291  28.890  27.055  1.00  0.00     0.173 A 
ATOM     96  F   UNL A   1      42.944  30.305  27.257  1.00  0.00    -0.203 F 
ATOM     97  C   UNL A   1      44.986  31.306  26.654  1.00  0.00     0.198 A 
ATOM     98  C   UNL A   1      47.013  30.018  26.683  1.00  0.00     0.198 A 
ATOM     99  F   UNL A   1      46.955  27.735  27.225  1.00  0.00    -0.203 F 
ATOM    100  F   UNL A   1      44.356  32.472  26.457  1.00  0.00    -0.200 F 
ATOM    101  C   UNL A   1      46.361  31.225  26.484  1.00  0.00     0.200 A 
ATOM    102  F   UNL A   1      48.344  29.943  26.536  1.00  0.00    -0.200 F 
ATOM    103  F   UNL A   1      47.061  32.315  26.139  1.00  0.00    -0.200 F 
ENDBRANCH  70  93
ENDBRANCH  44  45
ENDBRANCH  36  39
ENDBRANCH  34  35
ENDBRANCH  33  34
ENDBRANCH   1  33
TORSDOF 14
ENDMDL
MODEL 3
REMARK VINA RESULT:     -13.0      3.825      8.480
REMARK SMILES Cc1c(CCC(=O)N[C@@H](C)C(=O)NCCCNC(=O)c2ccc(-c3c4nc(c(-c5c(F)c(F)c(F)c(F)c5F)c5ccc([nH]5)c(-c5c(F)c(F)c(F)c(F)c5F)c5nc(c(-c6c(F)c(F)c(F)c(F)c6F)c6ccc3[nH]6)C=C5)C=C4)cc2)c(=O)oc2cc3oc4c(c3cc12)CCCC4
REMARK SMILES IDX 14 1 13 2 11 3 12 4 9 6 10 7 8 8 6 9 7 10 5 12 4 13 3 14
REMARK SMILES IDX 1 15 2 16 94 17 83 18 86 19 93 20 84 21 85 22 87 23 92 24
REMARK SMILES IDX 88 25 91 26 89 27 90 28 95 29 98 30 96 31 97 32 15 33 16 34
REMARK SMILES IDX 17 35 18 36 19 38 20 39 21 40 82 41 22 42 81 43 23 44 24 45
REMARK SMILES IDX 25 46 75 47 26 48 80 49 74 50 76 51 27 52 79 53 73 54 72 55
REMARK SMILES IDX 28 57 60 58 40 59 59 60 41 61 44 62 58 63 77 64 42 65 43 66
REMARK SMILES IDX 57 68 78 69 45 70 29 71 30 72 38 73 31 74 32 75 36 76 39 77
REMARK SMILES IDX 33 78 34 79 37 80 35 81 61 82 62 83 70 84 63 85 64 86 68 87
REMARK SMILES IDX 71 88 65 89 66 90 69 91 67 92 46 93 47 94 55 95 48 96 49 97
REMARK SMILES IDX 53 98 56 99 50 100 51 101 54 102 52 103
REMARK H PARENT 13 5 8 11 17 37 76 56 44 67
REMARK Flexibility Score: inf
ROOT
ATOM      1  C   UNL A   1      36.714  32.457  29.064  1.00  0.00     0.117 C 
ENDROOT
BRANCH   1   2
ATOM      2  N   UNL A   1      35.490  32.768  29.813  1.00  0.00    -0.354 N 
ATOM      3  C   UNL A   1      34.504  33.707  29.655  1.00  0.00     0.242 C 
ATOM      4  O   UNL A   1      33.926  34.059  30.690  1.00  0.00    -0.273 OA
ATOM      5  H   UNL A   1      35.349  32.181  30.591  1.00  0.00     0.163 HD
BRANCH   3   6
ATOM      6  C   UNL A   1      33.999  34.202  28.274  1.00  0.00     0.168 C 
ATOM      7  C   UNL A   1      34.220  35.667  28.054  1.00  0.00     0.041 C 
BRANCH   6   8
ATOM      8  N   UNL A   1      32.589  33.967  27.958  1.00  0.00    -0.345 N 
ATOM      9  C   UNL A   1      32.168  32.964  27.113  1.00  0.00     0.220 C 
ATOM     10  O   UNL A   1      31.309  33.215  26.269  1.00  0.00    -0.275 OA
ATOM     11  H   UNL A   1      31.912  34.553  28.369  1.00  0.00     0.164 HD
BRANCH   9  12
ATOM     12  C   UNL A   1      32.738  31.558  27.286  1.00  0.00     0.105 C 
BRANCH  12  13
ATOM     13  C   UNL A   1      31.823  30.378  26.895  1.00  0.00     0.053 C 
BRANCH  13  14
ATOM     14  C   UNL A   1      32.374  29.474  25.806  1.00  0.00     0.042 A 
ATOM     15  C   UNL A   1      34.530  28.886  27.026  1.00  0.00     0.046 C 
ATOM     16  C   UNL A   1      33.507  28.756  25.927  1.00  0.00    -0.030 A 
ATOM     17  C   UNL A   1      33.633  27.607  25.024  1.00  0.00     0.022 A 
ATOM     18  C   UNL A   1      31.594  29.420  24.527  1.00  0.00     0.339 A 
ATOM     19  C   UNL A   1      32.991  27.605  23.788  1.00  0.00     0.142 A 
ATOM     20  C   UNL A   1      34.191  26.415  25.494  1.00  0.00     0.024 A 
ATOM     21  O   UNL A   1      30.566  30.072  24.381  1.00  0.00    -0.246 OA
ATOM     22  O   UNL A   1      32.122  28.664  23.479  1.00  0.00    -0.422 OA
ATOM     23  C   UNL A   1      33.098  26.545  22.869  1.00  0.00     0.095 A 
ATOM     24  C   UNL A   1      34.116  25.278  24.693  1.00  0.00     0.025 A 
ATOM     25  C   UNL A   1      33.743  25.413  23.362  1.00  0.00     0.138 A 
ATOM     26  C   UNL A   1      34.450  23.926  24.882  1.00  0.00     0.001 A 
ATOM     27  O   UNL A   1      34.216  24.325  22.667  1.00  0.00    -0.461 OA
ATOM     28  C   UNL A   1      34.813  23.543  23.611  1.00  0.00     0.108 A 
ATOM     29  C   UNL A   1      35.011  23.234  26.063  1.00  0.00     0.040 C 
ATOM     30  C   UNL A   1      36.128  22.879  23.379  1.00  0.00     0.076 C 
ATOM     31  C   UNL A   1      36.541  23.279  25.960  1.00  0.00     0.005 C 
ATOM     32  C   UNL A   1      37.079  23.424  24.501  1.00  0.00     0.008 C 
ENDBRANCH  13  14
ENDBRANCH  12  13
ENDBRANCH   9  12
ENDBRANCH   6   8
ENDBRANCH   3   6
ENDBRANCH   1   2
BRANCH   1  33
ATOM     33  C   UNL A   1      37.461  31.307  29.732  1.00  0.00     0.042 C 
BRANCH  33  34
ATOM     34  C   UNL A   1      36.482  30.182  30.052  1.00  0.00     0.118 C 
BRANCH  34  35
ATOM     35  N   UNL A   1      36.675  29.654  31.396  1.00  0.00    -0.352 N 
ATOM     36  C   UNL A   1      37.676  28.846  31.898  1.00  0.00     0.251 C 
ATOM     37  H   UNL A   1      35.985  29.913  32.047  1.00  0.00     0.163 HD
ATOM     38  O   UNL A   1      37.576  28.356  33.005  1.00  0.00    -0.269 OA
BRANCH  36  39
ATOM     39  C   UNL A   1      38.845  28.534  31.047  1.00  0.00     0.039 A 
ATOM     40  C   UNL A   1      38.767  27.540  30.072  1.00  0.00     0.014 A 
ATOM     41  C   UNL A   1      40.033  29.251  31.235  1.00  0.00     0.014 A 
ATOM     42  C   UNL A   1      39.911  27.133  29.413  1.00  0.00     0.010 A 
ATOM     43  C   UNL A   1      41.170  28.899  30.510  1.00  0.00     0.010 A 
ATOM     44  C   UNL A   1      41.113  27.809  29.634  1.00  0.00    -0.014 A 
BRANCH  44  45
ATOM     45  C   UNL A   1      42.225  27.396  28.780  1.00  0.00     0.031 A 
ATOM     46  C   UNL A   1      42.950  28.546  28.168  1.00  0.00     0.074 A 
ATOM     47  C   UNL A   1      42.866  26.225  28.954  1.00  0.00     0.049 A 
ATOM     48  N   UNL A   1      43.889  29.193  28.793  1.00  0.00    -0.248 NA
ATOM     49  C   UNL A   1      42.459  29.217  26.965  1.00  0.00     0.031 C 
ATOM     50  C   UNL A   1      43.142  25.613  30.257  1.00  0.00     0.029 A 
ATOM     51  N   UNL A   1      43.595  25.480  28.060  1.00  0.00    -0.354 N 
ATOM     52  C   UNL A   1      44.075  30.383  28.115  1.00  0.00     0.074 A 
ATOM     53  C   UNL A   1      43.177  30.351  26.982  1.00  0.00     0.031 C 
ATOM     54  C   UNL A   1      44.130  24.710  30.103  1.00  0.00     0.029 A 
ATOM     55  C   UNL A   1      44.446  24.574  28.684  1.00  0.00     0.049 A 
ATOM     56  H   UNL A   1      43.523  25.576  27.082  1.00  0.00     0.167 HD
ATOM     57  C   UNL A   1      44.944  31.340  28.532  1.00  0.00     0.037 A 
ATOM     58  C   UNL A   1      45.653  24.200  28.181  1.00  0.00     0.037 A 
ATOM     59  C   UNL A   1      45.701  31.031  29.705  1.00  0.00     0.049 A 
ATOM     60  C   UNL A   1      46.455  25.457  28.430  1.00  0.00     0.074 A 
ATOM     61  C   UNL A   1      45.632  31.301  31.054  1.00  0.00     0.029 A 
ATOM     62  N   UNL A   1      46.780  30.190  29.566  1.00  0.00    -0.354 N 
ATOM     63  N   UNL A   1      46.981  25.821  29.572  1.00  0.00    -0.248 NA
ATOM     64  C   UNL A   1      46.362  26.532  27.437  1.00  0.00     0.031 C 
ATOM     65  C   UNL A   1      46.384  30.262  31.688  1.00  0.00     0.029 A 
ATOM     66  C   UNL A   1      46.817  29.398  30.684  1.00  0.00     0.049 A 
ATOM     67  H   UNL A   1      47.405  30.162  28.806  1.00  0.00     0.167 HD
ATOM     68  C   UNL A   1      47.031  27.217  29.528  1.00  0.00     0.074 A 
ATOM     69  C   UNL A   1      46.673  27.587  28.176  1.00  0.00     0.031 C 
ATOM     70  C   UNL A   1      47.173  27.998  30.637  1.00  0.00     0.037 A 
BRANCH  57  71
ATOM     71  C   UNL A   1      45.264  32.556  27.767  1.00  0.00     0.064 A 
ATOM     72  C   UNL A   1      46.432  32.553  26.994  1.00  0.00     0.173 A 
ATOM     73  C   UNL A   1      44.576  33.761  27.934  1.00  0.00     0.173 A 
ATOM     74  F   UNL A   1      47.118  31.410  26.825  1.00  0.00    -0.203 F 
ATOM     75  C   UNL A   1      46.925  33.726  26.438  1.00  0.00     0.198 A 
ATOM     76  C   UNL A   1      45.069  34.936  27.369  1.00  0.00     0.198 A 
ATOM     77  F   UNL A   1      43.460  33.808  28.676  1.00  0.00    -0.203 F 
ATOM     78  F   UNL A   1      48.069  33.701  25.742  1.00  0.00    -0.200 F 
ATOM     79  C   UNL A   1      46.249  34.919  26.635  1.00  0.00     0.200 A 
ATOM     80  F   UNL A   1      44.420  36.093  27.558  1.00  0.00    -0.200 F 
ATOM     81  F   UNL A   1      46.743  36.057  26.126  1.00  0.00    -0.200 F 
ENDBRANCH  57  71
BRANCH  58  82
ATOM     82  C   UNL A   1      45.580  23.489  26.862  1.00  0.00     0.064 A 
ATOM     83  C   UNL A   1      44.506  22.595  26.639  1.00  0.00     0.173 A 
ATOM     84  C   UNL A   1      46.481  23.637  25.799  1.00  0.00     0.173 A 
ATOM     85  F   UNL A   1      43.657  22.302  27.636  1.00  0.00    -0.203 F 
ATOM     86  C   UNL A   1      44.276  22.006  25.397  1.00  0.00     0.198 A 
ATOM     87  C   UNL A   1      46.238  23.066  24.546  1.00  0.00     0.198 A 
ATOM     88  F   UNL A   1      47.606  24.350  25.940  1.00  0.00    -0.203 F 
ATOM     89  F   UNL A   1      43.215  21.206  25.222  1.00  0.00    -0.200 F 
ATOM     90  C   UNL A   1      45.125  22.268  24.340  1.00  0.00     0.200 A 
ATOM     91  F   UNL A   1      47.074  23.317  23.530  1.00  0.00    -0.200 F 
ATOM     92  F   UNL A   1      44.876  21.756  23.127  1.00  0.00    -0.200 F 
ENDBRANCH  58  82
BRANCH  70  93
ATOM     93  C   UNL A   1      47.477  27.272  31.898  1.00  0.00     0.064 A 
ATOM     94  C   UNL A   1      46.434  26.809  32.709  1.00  0.00     0.173 A 
ATOM     95  C   UNL A   1      48.795  26.992  32.289  1.00  0.00     0.173 A 
ATOM     96  F   UNL A   1      45.157  27.045  32.370  1.00  0.00    -0.203 F 
ATOM     97  C   UNL A   1      46.699  26.070  33.857  1.00  0.00     0.198 A 
ATOM     98  C   UNL A   1      49.055  26.229  33.422  1.00  0.00     0.198 A 
ATOM     99  F   UNL A   1      49.836  27.431  31.564  1.00  0.00    -0.203 F 
ATOM    100  F   UNL A   1      45.687  25.628  34.616  1.00  0.00    -0.200 F 
ATOM    101  C   UNL A   1      48.008  25.769  34.205  1.00  0.00     0.200 A 
ATOM    102  F   UNL A   1      50.320  25.924  33.748  1.00  0.00    -0.200 F 
ATOM    103  F   UNL A   1      48.260  25.022  35.289  1.00  0.00    -0.200 F 
ENDBRANCH  70  93
ENDBRANCH  44  45
ENDBRANCH  36  39
ENDBRANCH  34  35
ENDBRANCH  33  34
ENDBRANCH   1  33
TORSDOF 14
ENDMDL
