MODEL 1
REMARK VINA RESULT:     -12.0      0.000      0.000
REMARK SMILES O=CN[C@H](C(=O)NCCCNC(=O)c1ccc(-c2c3nc(c(-c4c(F)c(F)c(F)c(F)c4F)c4ccc([nH]4)c(-c4c(F)c(F)c(F)c(F)c4F)c4nc(c(-c5c(F)c(F)c(F)c(F)c5F)c5ccc2[nH]5)C=C4)C=C3)cc1)[C@@H]1CCO[C@@]2(CCOC2)C1
REMARK SMILES IDX 9 1 8 2 7 3 5 4 6 5 4 7 3 8 1 9 2 10 77 12 78 13 86 14 79 15
REMARK SMILES IDX 81 16 80 17 82 18 85 19 83 20 84 21 10 22 11 23 12 24 13 26
REMARK SMILES IDX 14 27 15 28 76 29 16 30 75 31 17 32 18 33 19 34 69 35 20 36
REMARK SMILES IDX 74 37 68 38 70 39 21 40 73 41 67 42 66 43 22 45 54 46 34 47
REMARK SMILES IDX 53 48 35 49 38 50 52 51 71 52 36 53 37 54 51 56 72 57 39 58
REMARK SMILES IDX 23 59 24 60 32 61 25 62 26 63 30 64 33 65 27 66 28 67 31 68
REMARK SMILES IDX 29 69 55 70 56 71 64 72 57 73 58 74 62 75 65 76 59 77 60 78
REMARK SMILES IDX 63 79 61 80 40 81 41 82 49 83 42 84 43 85 47 86 50 87 44 88
REMARK SMILES IDX 45 89 48 90 46 91
REMARK H PARENT 7 6 3 11 11 25 70 44 38 55
REMARK Flexibility Score: inf
ROOT
ATOM      1  C   UNL A   1      31.403  31.699  26.569  1.00  0.00     0.042 C 
ENDROOT
BRANCH   1   2
ATOM      2  C   UNL A   1      31.621  30.436  25.734  1.00  0.00     0.117 C 
BRANCH   2   3
ATOM      3  N   UNL A   1      32.368  29.423  26.459  1.00  0.00    -0.354 N 
ATOM      4  C   UNL A   1      31.798  28.197  26.702  1.00  0.00     0.242 C 
ATOM      5  O   UNL A   1      31.172  28.040  27.746  1.00  0.00    -0.273 OA
ATOM      6  H   UNL A   1      33.280  29.613  26.777  1.00  0.00     0.163 HD
BRANCH   4   7
ATOM      7  C   UNL A   1      31.930  27.115  25.607  1.00  0.00     0.174 C 
BRANCH   7   8
ATOM      8  N   UNL A   1      30.837  27.211  24.636  1.00  0.00    -0.347 N 
ATOM      9  O   UNL A   1      28.805  26.544  23.875  1.00  0.00    -0.279 OA
ATOM     10  C   UNL A   1      29.803  26.331  24.555  1.00  0.00     0.337 C 
ATOM     11  H   UNL A   1      30.852  27.963  24.000  1.00  0.00     0.164 HD
ENDBRANCH   7   8
BRANCH   7  12
ATOM     12  C   UNL A   1      33.303  27.053  24.870  1.00  0.00     0.026 C 
ATOM     13  C   UNL A   1      33.309  27.684  23.470  1.00  0.00     0.035 C 
ATOM     14  C   UNL A   1      34.062  25.702  24.865  1.00  0.00     0.044 C 
ATOM     15  C   UNL A   1      33.119  26.702  22.323  1.00  0.00     0.161 C 
ATOM     16  C   UNL A   1      33.836  24.806  23.631  1.00  0.00     0.094 C 
ATOM     17  O   UNL A   1      33.977  25.578  22.438  1.00  0.00    -0.372 OA
ATOM     18  C   UNL A   1      34.891  23.704  23.530  1.00  0.00     0.066 C 
ATOM     19  C   UNL A   1      32.545  23.972  23.727  1.00  0.00     0.195 C 
ATOM     20  C   UNL A   1      34.283  22.550  24.283  1.00  0.00     0.163 C 
ATOM     21  O   UNL A   1      32.896  22.591  23.950  1.00  0.00    -0.378 OA
ENDBRANCH   7  12
ENDBRANCH   4   7
ENDBRANCH   2   3
ENDBRANCH   1   2
BRANCH   1  22
ATOM     22  C   UNL A   1      32.691  32.410  26.979  1.00  0.00     0.118 C 
BRANCH  22  23
ATOM     23  N   UNL A   1      32.463  33.794  27.366  1.00  0.00    -0.352 N 
ATOM     24  C   UNL A   1      33.017  34.531  28.382  1.00  0.00     0.251 C 
ATOM     25  H   UNL A   1      31.807  34.278  26.812  1.00  0.00     0.163 HD
ATOM     26  O   UNL A   1      32.529  35.615  28.688  1.00  0.00    -0.269 OA
BRANCH  24  27
ATOM     27  C   UNL A   1      34.187  34.019  29.127  1.00  0.00     0.039 A 
ATOM     28  C   UNL A   1      33.975  33.148  30.200  1.00  0.00     0.014 A 
ATOM     29  C   UNL A   1      35.483  34.416  28.795  1.00  0.00     0.014 A 
ATOM     30  C   UNL A   1      35.068  32.622  30.893  1.00  0.00     0.010 A 
ATOM     31  C   UNL A   1      36.574  33.826  29.428  1.00  0.00     0.010 A 
ATOM     32  C   UNL A   1      36.378  32.926  30.487  1.00  0.00    -0.014 A 
BRANCH  32  33
ATOM     33  C   UNL A   1      37.555  32.317  31.156  1.00  0.00     0.031 A 
ATOM     34  C   UNL A   1      38.311  31.199  30.492  1.00  0.00     0.074 A 
ATOM     35  C   UNL A   1      37.897  32.717  32.398  1.00  0.00     0.049 A 
ATOM     36  N   UNL A   1      39.310  30.486  30.951  1.00  0.00    -0.248 NA
ATOM     37  C   UNL A   1      37.866  30.809  29.146  1.00  0.00     0.031 C 
ATOM     38  C   UNL A   1      37.205  33.749  33.172  1.00  0.00     0.029 A 
ATOM     39  N   UNL A   1      38.900  32.292  33.232  1.00  0.00    -0.354 N 
ATOM     40  C   UNL A   1      39.592  29.553  29.963  1.00  0.00     0.074 A 
ATOM     41  C   UNL A   1      38.631  29.756  28.902  1.00  0.00     0.031 C 
ATOM     42  C   UNL A   1      37.815  33.889  34.360  1.00  0.00     0.029 A 
ATOM     43  C   UNL A   1      38.915  32.933  34.447  1.00  0.00     0.049 A 
ATOM     44  H   UNL A   1      39.547  31.593  32.983  1.00  0.00     0.167 HD
ATOM     45  C   UNL A   1      40.578  28.625  29.935  1.00  0.00     0.037 A 
ATOM     46  C   UNL A   1      39.719  32.763  35.513  1.00  0.00     0.037 A 
ATOM     47  C   UNL A   1      41.556  28.450  30.976  1.00  0.00     0.049 A 
ATOM     48  C   UNL A   1      40.820  31.741  35.447  1.00  0.00     0.074 A 
ATOM     49  C   UNL A   1      42.644  27.595  31.005  1.00  0.00     0.029 A 
ATOM     50  N   UNL A   1      41.560  29.145  32.177  1.00  0.00    -0.354 N 
ATOM     51  N   UNL A   1      41.128  30.918  34.475  1.00  0.00    -0.248 NA
ATOM     52  C   UNL A   1      41.692  31.630  36.626  1.00  0.00     0.031 C 
ATOM     53  C   UNL A   1      43.280  27.739  32.242  1.00  0.00     0.029 A 
ATOM     54  C   UNL A   1      42.620  28.720  32.965  1.00  0.00     0.049 A 
ATOM     55  H   UNL A   1      40.909  29.836  32.433  1.00  0.00     0.167 HD
ATOM     56  C   UNL A   1      42.239  30.210  34.911  1.00  0.00     0.074 A 
ATOM     57  C   UNL A   1      42.563  30.712  36.230  1.00  0.00     0.031 C 
ATOM     58  C   UNL A   1      42.930  29.231  34.275  1.00  0.00     0.037 A 
BRANCH  45  59
ATOM     59  C   UNL A   1      40.652  27.725  28.734  1.00  0.00     0.064 A 
ATOM     60  C   UNL A   1      39.927  26.525  28.666  1.00  0.00     0.173 A 
ATOM     61  C   UNL A   1      41.432  28.083  27.624  1.00  0.00     0.173 A 
ATOM     62  F   UNL A   1      39.174  26.131  29.703  1.00  0.00    -0.203 F 
ATOM     63  C   UNL A   1      40.006  25.703  27.545  1.00  0.00     0.198 A 
ATOM     64  C   UNL A   1      41.483  27.274  26.492  1.00  0.00     0.198 A 
ATOM     65  F   UNL A   1      42.139  29.222  27.633  1.00  0.00    -0.203 F 
ATOM     66  F   UNL A   1      39.346  24.537  27.524  1.00  0.00    -0.200 F 
ATOM     67  C   UNL A   1      40.778  26.080  26.457  1.00  0.00     0.200 A 
ATOM     68  F   UNL A   1      42.220  27.647  25.436  1.00  0.00    -0.200 F 
ATOM     69  F   UNL A   1      40.848  25.291  25.376  1.00  0.00    -0.200 F 
ENDBRANCH  45  59
BRANCH  46  70
ATOM     70  C   UNL A   1      39.523  33.600  36.725  1.00  0.00     0.064 A 
ATOM     71  C   UNL A   1      40.114  34.866  36.829  1.00  0.00     0.173 A 
ATOM     72  C   UNL A   1      38.738  33.156  37.799  1.00  0.00     0.173 A 
ATOM     73  F   UNL A   1      40.890  35.325  35.837  1.00  0.00    -0.203 F 
ATOM     74  C   UNL A   1      39.942  35.649  37.968  1.00  0.00     0.198 A 
ATOM     75  C   UNL A   1      38.543  33.952  38.925  1.00  0.00     0.198 A 
ATOM     76  F   UNL A   1      38.144  31.954  37.746  1.00  0.00    -0.203 F 
ATOM     77  F   UNL A   1      40.553  36.839  38.059  1.00  0.00    -0.200 F 
ATOM     78  C   UNL A   1      39.150  35.195  39.012  1.00  0.00     0.200 A 
ATOM     79  F   UNL A   1      37.765  33.516  39.926  1.00  0.00    -0.200 F 
ATOM     80  F   UNL A   1      38.979  35.952  40.105  1.00  0.00    -0.200 F 
ENDBRANCH  46  70
BRANCH  58  81
ATOM     81  C   UNL A   1      44.119  28.657  34.986  1.00  0.00     0.064 A 
ATOM     82  C   UNL A   1      45.396  29.223  34.859  1.00  0.00     0.173 A 
ATOM     83  C   UNL A   1      43.972  27.552  35.838  1.00  0.00     0.173 A 
ATOM     84  F   UNL A   1      45.593  30.271  34.044  1.00  0.00    -0.203 F 
ATOM     85  C   UNL A   1      46.487  28.687  35.540  1.00  0.00     0.198 A 
ATOM     86  C   UNL A   1      45.057  27.038  36.540  1.00  0.00     0.198 A 
ATOM     87  F   UNL A   1      42.769  26.979  35.999  1.00  0.00    -0.203 F 
ATOM     88  F   UNL A   1      47.707  29.215  35.368  1.00  0.00    -0.200 F 
ATOM     89  C   UNL A   1      46.315  27.602  36.385  1.00  0.00     0.200 A 
ATOM     90  F   UNL A   1      44.887  25.997  37.367  1.00  0.00    -0.200 F 
ATOM     91  F   UNL A   1      47.364  27.093  37.046  1.00  0.00    -0.200 F 
ENDBRANCH  58  81
ENDBRANCH  32  33
ENDBRANCH  24  27
ENDBRANCH  22  23
ENDBRANCH   1  22
TORSDOF 12
ENDMDL
MODEL 2
REMARK VINA RESULT:     -12.0      5.475     10.899
REMARK SMILES O=CN[C@H](C(=O)NCCCNC(=O)c1ccc(-c2c3nc(c(-c4c(F)c(F)c(F)c(F)c4F)c4ccc([nH]4)c(-c4c(F)c(F)c(F)c(F)c4F)c4nc(c(-c5c(F)c(F)c(F)c(F)c5F)c5ccc2[nH]5)C=C4)C=C3)cc1)[C@@H]1CCO[C@@]2(CCOC2)C1
REMARK SMILES IDX 9 1 8 2 7 3 5 4 6 5 4 7 3 8 1 9 2 10 77 12 78 13 86 14 79 15
REMARK SMILES IDX 81 16 80 17 82 18 85 19 83 20 84 21 10 22 11 23 12 24 13 26
REMARK SMILES IDX 14 27 15 28 76 29 16 30 75 31 17 32 18 33 19 34 69 35 20 36
REMARK SMILES IDX 74 37 68 38 70 39 21 40 73 41 67 42 66 43 22 45 54 46 34 47
REMARK SMILES IDX 53 48 35 49 38 50 52 51 71 52 36 53 37 54 51 56 72 57 39 58
REMARK SMILES IDX 23 59 24 60 32 61 25 62 26 63 30 64 33 65 27 66 28 67 31 68
REMARK SMILES IDX 29 69 55 70 56 71 64 72 57 73 58 74 62 75 65 76 59 77 60 78
REMARK SMILES IDX 63 79 61 80 40 81 41 82 49 83 42 84 43 85 47 86 50 87 44 88
REMARK SMILES IDX 45 89 48 90 46 91
REMARK H PARENT 7 6 3 11 11 25 70 44 38 55
REMARK Flexibility Score: inf
ROOT
ATOM      1  C   UNL A   1      37.796  19.923  24.836  1.00  0.00     0.042 C 
ENDROOT
BRANCH   1   2
ATOM      2  C   UNL A   1      36.493  20.699  25.039  1.00  0.00     0.117 C 
BRANCH   2   3
ATOM      3  N   UNL A   1      36.678  22.130  24.878  1.00  0.00    -0.354 N 
ATOM      4  C   UNL A   1      35.993  22.802  23.895  1.00  0.00     0.242 C 
ATOM      5  O   UNL A   1      36.521  22.922  22.794  1.00  0.00    -0.273 OA
ATOM      6  H   UNL A   1      37.293  22.620  25.472  1.00  0.00     0.163 HD
BRANCH   4   7
ATOM      7  C   UNL A   1      34.569  23.302  24.226  1.00  0.00     0.174 C 
BRANCH   7   8
ATOM      8  N   UNL A   1      33.567  22.276  23.927  1.00  0.00    -0.347 N 
ATOM      9  O   UNL A   1      32.057  21.341  22.514  1.00  0.00    -0.279 OA
ATOM     10  C   UNL A   1      32.740  22.303  22.848  1.00  0.00     0.337 C 
ATOM     11  H   UNL A   1      33.486  21.517  24.549  1.00  0.00     0.164 HD
ENDBRANCH   7   8
BRANCH   7  12
ATOM     12  C   UNL A   1      34.359  23.859  25.667  1.00  0.00     0.026 C 
ATOM     13  C   UNL A   1      33.651  22.895  26.631  1.00  0.00     0.035 C 
ATOM     14  C   UNL A   1      33.794  25.294  25.814  1.00  0.00     0.044 C 
ATOM     15  C   UNL A   1      32.152  23.118  26.774  1.00  0.00     0.161 C 
ATOM     16  C   UNL A   1      32.267  25.401  26.005  1.00  0.00     0.094 C 
ATOM     17  O   UNL A   1      31.837  24.481  27.009  1.00  0.00    -0.372 OA
ATOM     18  C   UNL A   1      31.855  26.783  26.515  1.00  0.00     0.066 C 
ATOM     19  C   UNL A   1      31.494  25.334  24.675  1.00  0.00     0.195 C 
ATOM     20  C   UNL A   1      31.595  27.570  25.259  1.00  0.00     0.163 C 
ATOM     21  O   UNL A   1      30.969  26.642  24.372  1.00  0.00    -0.378 OA
ENDBRANCH   7  12
ENDBRANCH   4   7
ENDBRANCH   2   3
ENDBRANCH   1   2
BRANCH   1  22
ATOM     22  C   UNL A   1      38.920  20.326  25.788  1.00  0.00     0.118 C 
BRANCH  22  23
ATOM     23  N   UNL A   1      39.949  19.303  25.898  1.00  0.00    -0.352 N 
ATOM     24  C   UNL A   1      41.307  19.428  26.061  1.00  0.00     0.251 C 
ATOM     25  H   UNL A   1      39.621  18.376  25.847  1.00  0.00     0.163 HD
ATOM     26  O   UNL A   1      42.033  18.450  25.904  1.00  0.00    -0.269 OA
BRANCH  24  27
ATOM     27  C   UNL A   1      41.904  20.736  26.401  1.00  0.00     0.039 A 
ATOM     28  C   UNL A   1      42.197  21.634  25.370  1.00  0.00     0.014 A 
ATOM     29  C   UNL A   1      42.204  21.068  27.724  1.00  0.00     0.014 A 
ATOM     30  C   UNL A   1      42.725  22.890  25.674  1.00  0.00     0.010 A 
ATOM     31  C   UNL A   1      42.649  22.351  28.033  1.00  0.00     0.010 A 
ATOM     32  C   UNL A   1      42.919  23.274  27.011  1.00  0.00    -0.014 A 
BRANCH  32  33
ATOM     33  C   UNL A   1      43.403  24.633  27.362  1.00  0.00     0.031 A 
ATOM     34  C   UNL A   1      42.455  25.654  27.928  1.00  0.00     0.074 A 
ATOM     35  C   UNL A   1      44.681  24.974  27.098  1.00  0.00     0.049 A 
ATOM     36  N   UNL A   1      42.669  26.914  28.218  1.00  0.00    -0.248 NA
ATOM     37  C   UNL A   1      41.074  25.210  28.170  1.00  0.00     0.031 C 
ATOM     38  C   UNL A   1      45.682  24.092  26.495  1.00  0.00     0.029 A 
ATOM     39  N   UNL A   1      45.351  26.156  27.289  1.00  0.00    -0.354 N 
ATOM     40  C   UNL A   1      41.448  27.414  28.651  1.00  0.00     0.074 A 
ATOM     41  C   UNL A   1      40.488  26.339  28.540  1.00  0.00     0.031 C 
ATOM     42  C   UNL A   1      46.842  24.758  26.381  1.00  0.00     0.029 A 
ATOM     43  C   UNL A   1      46.658  26.122  26.866  1.00  0.00     0.049 A 
ATOM     44  H   UNL A   1      44.934  26.953  27.689  1.00  0.00     0.167 HD
ATOM     45  C   UNL A   1      41.161  28.652  29.119  1.00  0.00     0.037 A 
ATOM     46  C   UNL A   1      47.599  27.086  26.863  1.00  0.00     0.037 A 
ATOM     47  C   UNL A   1      42.128  29.708  29.263  1.00  0.00     0.049 A 
ATOM     48  C   UNL A   1      47.259  28.445  27.410  1.00  0.00     0.074 A 
ATOM     49  C   UNL A   1      41.955  30.970  29.804  1.00  0.00     0.029 A 
ATOM     50  N   UNL A   1      43.453  29.624  28.858  1.00  0.00    -0.354 N 
ATOM     51  N   UNL A   1      46.122  28.883  27.891  1.00  0.00    -0.248 NA
ATOM     52  C   UNL A   1      48.339  29.443  27.419  1.00  0.00     0.031 C 
ATOM     53  C   UNL A   1      43.162  31.666  29.686  1.00  0.00     0.029 A 
ATOM     54  C   UNL A   1      44.103  30.821  29.117  1.00  0.00     0.049 A 
ATOM     55  H   UNL A   1      43.870  28.832  28.449  1.00  0.00     0.167 HD
ATOM     56  C   UNL A   1      46.353  30.195  28.283  1.00  0.00     0.074 A 
ATOM     57  C   UNL A   1      47.744  30.477  27.998  1.00  0.00     0.031 C 
ATOM     58  C   UNL A   1      45.489  31.085  28.829  1.00  0.00     0.037 A 
BRANCH  45  59
ATOM     59  C   UNL A   1      39.739  28.933  29.516  1.00  0.00     0.064 A 
ATOM     60  C   UNL A   1      38.807  29.445  28.601  1.00  0.00     0.173 A 
ATOM     61  C   UNL A   1      39.296  28.655  30.817  1.00  0.00     0.173 A 
ATOM     62  F   UNL A   1      39.181  29.738  27.347  1.00  0.00    -0.203 F 
ATOM     63  C   UNL A   1      37.492  29.699  28.985  1.00  0.00     0.198 A 
ATOM     64  C   UNL A   1      37.973  28.880  31.188  1.00  0.00     0.198 A 
ATOM     65  F   UNL A   1      40.144  28.157  31.729  1.00  0.00    -0.203 F 
ATOM     66  F   UNL A   1      36.633  30.238  28.108  1.00  0.00    -0.200 F 
ATOM     67  C   UNL A   1      37.075  29.411  30.275  1.00  0.00     0.200 A 
ATOM     68  F   UNL A   1      37.568  28.588  32.433  1.00  0.00    -0.200 F 
ATOM     69  F   UNL A   1      35.808  29.649  30.641  1.00  0.00    -0.200 F 
ENDBRANCH  45  59
BRANCH  46  70
ATOM     70  C   UNL A   1      48.959  26.787  26.346  1.00  0.00     0.064 A 
ATOM     71  C   UNL A   1      49.299  27.061  25.014  1.00  0.00     0.173 A 
ATOM     72  C   UNL A   1      49.947  26.228  27.170  1.00  0.00     0.173 A 
ATOM     73  F   UNL A   1      48.382  27.576  24.183  1.00  0.00    -0.203 F 
ATOM     74  C   UNL A   1      50.570  26.772  24.522  1.00  0.00     0.198 A 
ATOM     75  C   UNL A   1      51.225  25.966  26.684  1.00  0.00     0.198 A 
ATOM     76  F   UNL A   1      49.674  25.953  28.455  1.00  0.00    -0.203 F 
ATOM     77  F   UNL A   1      50.856  27.006  23.234  1.00  0.00    -0.200 F 
ATOM     78  C   UNL A   1      51.534  26.232  25.359  1.00  0.00     0.200 A 
ATOM     79  F   UNL A   1      52.159  25.458  27.500  1.00  0.00    -0.200 F 
ATOM     80  F   UNL A   1      52.759  25.961  24.887  1.00  0.00    -0.200 F 
ENDBRANCH  46  70
BRANCH  58  81
ATOM     81  C   UNL A   1      46.029  32.440  29.179  1.00  0.00     0.064 A 
ATOM     82  C   UNL A   1      46.611  32.700  30.429  1.00  0.00     0.173 A 
ATOM     83  C   UNL A   1      46.001  33.480  28.239  1.00  0.00     0.173 A 
ATOM     84  F   UNL A   1      46.649  31.743  31.368  1.00  0.00    -0.203 F 
ATOM     85  C   UNL A   1      47.125  33.959  30.731  1.00  0.00     0.198 A 
ATOM     86  C   UNL A   1      46.541  34.729  28.533  1.00  0.00     0.198 A 
ATOM     87  F   UNL A   1      45.461  33.281  27.027  1.00  0.00    -0.203 F 
ATOM     88  F   UNL A   1      47.635  34.198  31.947  1.00  0.00    -0.200 F 
ATOM     89  C   UNL A   1      47.096  34.969  29.781  1.00  0.00     0.200 A 
ATOM     90  F   UNL A   1      46.525  35.700  27.609  1.00  0.00    -0.200 F 
ATOM     91  F   UNL A   1      47.597  36.178  30.071  1.00  0.00    -0.200 F 
ENDBRANCH  58  81
ENDBRANCH  32  33
ENDBRANCH  24  27
ENDBRANCH  22  23
ENDBRANCH   1  22
TORSDOF 12
ENDMDL
MODEL 3
REMARK VINA RESULT:     -12.0      5.462     10.918
REMARK SMILES O=CN[C@H](C(=O)NCCCNC(=O)c1ccc(-c2c3nc(c(-c4c(F)c(F)c(F)c(F)c4F)c4ccc([nH]4)c(-c4c(F)c(F)c(F)c(F)c4F)c4nc(c(-c5c(F)c(F)c(F)c(F)c5F)c5ccc2[nH]5)C=C4)C=C3)cc1)[C@@H]1CCO[C@@]2(CCOC2)C1
REMARK SMILES IDX 9 1 8 2 7 3 5 4 6 5 4 7 3 8 1 9 2 10 77 12 78 13 86 14 79 15
REMARK SMILES IDX 81 16 80 17 82 18 85 19 83 20 84 21 10 22 11 23 12 24 13 26
REMARK SMILES IDX 14 27 15 28 76 29 16 30 75 31 17 32 18 33 19 34 69 35 20 36
REMARK SMILES IDX 74 37 68 38 70 39 21 40 73 41 67 42 66 43 22 45 54 46 34 47
REMARK SMILES IDX 53 48 35 49 38 50 52 51 71 52 36 53 37 54 51 56 72 57 39 58
REMARK SMILES IDX 23 59 24 60 32 61 25 62 26 63 30 64 33 65 27 66 28 67 31 68
REMARK SMILES IDX 29 69 55 70 56 71 64 72 57 73 58 74 62 75 65 76 59 77 60 78
REMARK SMILES IDX 63 79 61 80 40 81 41 82 49 83 42 84 43 85 47 86 50 87 44 88
REMARK SMILES IDX 45 89 48 90 46 91
REMARK H PARENT 7 6 3 11 11 25 70 44 38 55
REMARK Flexibility Score: inf
ROOT
ATOM      1  C   UNL A   1      37.745  19.903  24.847  1.00  0.00     0.042 C 
ENDROOT
BRANCH   1   2
ATOM      2  C   UNL A   1      36.449  20.687  25.062  1.00  0.00     0.117 C 
BRANCH   2   3
ATOM      3  N   UNL A   1      36.639  22.117  24.891  1.00  0.00    -0.354 N 
ATOM      4  C   UNL A   1      35.958  22.784  23.903  1.00  0.00     0.242 C 
ATOM      5  O   UNL A   1      36.487  22.895  22.802  1.00  0.00    -0.273 OA
ATOM      6  H   UNL A   1      37.256  22.608  25.483  1.00  0.00     0.163 HD
BRANCH   4   7
ATOM      7  C   UNL A   1      34.536  23.292  24.230  1.00  0.00     0.174 C 
BRANCH   7   8
ATOM      8  N   UNL A   1      33.528  22.275  23.919  1.00  0.00    -0.347 N 
ATOM      9  O   UNL A   1      32.038  21.344  22.483  1.00  0.00    -0.279 OA
ATOM     10  C   UNL A   1      32.725  22.301  22.822  1.00  0.00     0.337 C 
ATOM     11  H   UNL A   1      33.425  21.523  24.547  1.00  0.00     0.164 HD
ENDBRANCH   7   8
BRANCH   7  12
ATOM     12  C   UNL A   1      34.322  23.841  25.674  1.00  0.00     0.026 C 
ATOM     13  C   UNL A   1      33.627  22.866  26.635  1.00  0.00     0.035 C 
ATOM     14  C   UNL A   1      33.740  25.269  25.827  1.00  0.00     0.044 C 
ATOM     15  C   UNL A   1      32.126  23.070  26.782  1.00  0.00     0.161 C 
ATOM     16  C   UNL A   1      32.213  25.358  26.021  1.00  0.00     0.094 C 
ATOM     17  O   UNL A   1      31.796  24.429  27.022  1.00  0.00    -0.372 OA
ATOM     18  C   UNL A   1      31.786  26.732  26.536  1.00  0.00     0.066 C 
ATOM     19  C   UNL A   1      31.437  25.287  24.692  1.00  0.00     0.195 C 
ATOM     20  C   UNL A   1      31.514  27.521  25.283  1.00  0.00     0.163 C 
ATOM     21  O   UNL A   1      30.897  26.590  24.395  1.00  0.00    -0.378 OA
ENDBRANCH   7  12
ENDBRANCH   4   7
ENDBRANCH   2   3
ENDBRANCH   1   2
BRANCH   1  22
ATOM     22  C   UNL A   1      38.898  20.337  25.749  1.00  0.00     0.118 C 
BRANCH  22  23
ATOM     23  N   UNL A   1      39.917  19.308  25.884  1.00  0.00    -0.352 N 
ATOM     24  C   UNL A   1      41.272  19.424  26.068  1.00  0.00     0.251 C 
ATOM     25  H   UNL A   1      39.582  18.382  25.835  1.00  0.00     0.163 HD
ATOM     26  O   UNL A   1      41.994  18.439  25.931  1.00  0.00    -0.269 OA
BRANCH  24  27
ATOM     27  C   UNL A   1      41.874  20.730  26.408  1.00  0.00     0.039 A 
ATOM     28  C   UNL A   1      42.133  21.642  25.380  1.00  0.00     0.014 A 
ATOM     29  C   UNL A   1      42.210  21.047  27.725  1.00  0.00     0.014 A 
ATOM     30  C   UNL A   1      42.665  22.897  25.685  1.00  0.00     0.010 A 
ATOM     31  C   UNL A   1      42.658  22.328  28.038  1.00  0.00     0.010 A 
ATOM     32  C   UNL A   1      42.895  23.265  27.020  1.00  0.00    -0.014 A 
BRANCH  32  33
ATOM     33  C   UNL A   1      43.384  24.622  27.374  1.00  0.00     0.031 A 
ATOM     34  C   UNL A   1      42.441  25.642  27.948  1.00  0.00     0.074 A 
ATOM     35  C   UNL A   1      44.661  24.961  27.106  1.00  0.00     0.049 A 
ATOM     36  N   UNL A   1      42.658  26.900  28.243  1.00  0.00    -0.248 NA
ATOM     37  C   UNL A   1      41.060  25.200  28.196  1.00  0.00     0.031 C 
ATOM     38  C   UNL A   1      45.657  24.079  26.496  1.00  0.00     0.029 A 
ATOM     39  N   UNL A   1      45.334  26.141  27.298  1.00  0.00    -0.354 N 
ATOM     40  C   UNL A   1      41.440  27.401  28.683  1.00  0.00     0.074 A 
ATOM     41  C   UNL A   1      40.477  26.329  28.573  1.00  0.00     0.031 C 
ATOM     42  C   UNL A   1      46.819  24.744  26.378  1.00  0.00     0.029 A 
ATOM     43  C   UNL A   1      46.639  26.106  26.870  1.00  0.00     0.049 A 
ATOM     44  H   UNL A   1      44.921  26.937  27.703  1.00  0.00     0.167 HD
ATOM     45  C   UNL A   1      41.158  28.638  29.158  1.00  0.00     0.037 A 
ATOM     46  C   UNL A   1      47.582  27.068  26.867  1.00  0.00     0.037 A 
ATOM     47  C   UNL A   1      42.127  29.691  29.301  1.00  0.00     0.049 A 
ATOM     48  C   UNL A   1      47.248  28.426  27.420  1.00  0.00     0.074 A 
ATOM     49  C   UNL A   1      41.959  30.951  29.848  1.00  0.00     0.029 A 
ATOM     50  N   UNL A   1      43.450  29.606  28.890  1.00  0.00    -0.354 N 
ATOM     51  N   UNL A   1      46.114  28.864  27.908  1.00  0.00    -0.248 NA
ATOM     52  C   UNL A   1      48.330  29.421  27.428  1.00  0.00     0.031 C 
ATOM     53  C   UNL A   1      43.167  31.646  29.727  1.00  0.00     0.029 A 
ATOM     54  C   UNL A   1      44.104  30.801  29.151  1.00  0.00     0.049 A 
ATOM     55  H   UNL A   1      43.863  28.816  28.476  1.00  0.00     0.167 HD
ATOM     56  C   UNL A   1      46.348  30.174  28.304  1.00  0.00     0.074 A 
ATOM     57  C   UNL A   1      47.739  30.454  28.014  1.00  0.00     0.031 C 
ATOM     58  C   UNL A   1      45.489  31.064  28.858  1.00  0.00     0.037 A 
BRANCH  45  59
ATOM     59  C   UNL A   1      39.738  28.920  29.562  1.00  0.00     0.064 A 
ATOM     60  C   UNL A   1      38.800  29.427  28.651  1.00  0.00     0.173 A 
ATOM     61  C   UNL A   1      39.304  28.648  30.867  1.00  0.00     0.173 A 
ATOM     62  F   UNL A   1      39.166  29.714  27.393  1.00  0.00    -0.203 F 
ATOM     63  C   UNL A   1      37.487  29.683  29.041  1.00  0.00     0.198 A 
ATOM     64  C   UNL A   1      37.983  28.874  31.246  1.00  0.00     0.198 A 
ATOM     65  F   UNL A   1      40.158  28.155  31.776  1.00  0.00    -0.203 F 
ATOM     66  F   UNL A   1      36.623  30.217  28.167  1.00  0.00    -0.200 F 
ATOM     67  C   UNL A   1      37.078  29.400  30.335  1.00  0.00     0.200 A 
ATOM     68  F   UNL A   1      37.586  28.588  32.494  1.00  0.00    -0.200 F 
ATOM     69  F   UNL A   1      35.814  29.640  30.708  1.00  0.00    -0.200 F 
ENDBRANCH  45  59
BRANCH  46  70
ATOM     70  C   UNL A   1      48.939  26.768  26.341  1.00  0.00     0.064 A 
ATOM     71  C   UNL A   1      49.929  26.227  27.172  1.00  0.00     0.173 A 
ATOM     72  C   UNL A   1      49.272  27.009  25.000  1.00  0.00     0.173 A 
ATOM     73  F   UNL A   1      49.665  25.999  28.466  1.00  0.00    -0.203 F 
ATOM     74  C   UNL A   1      51.206  25.954  26.686  1.00  0.00     0.198 A 
ATOM     75  C   UNL A   1      50.540  26.709  24.509  1.00  0.00     0.198 A 
ATOM     76  F   UNL A   1      48.357  27.519  24.162  1.00  0.00    -0.203 F 
ATOM     77  F   UNL A   1      52.147  25.476  27.512  1.00  0.00    -0.200 F 
ATOM     78  C   UNL A   1      51.508  26.189  25.353  1.00  0.00     0.200 A 
ATOM     79  F   UNL A   1      50.823  26.923  23.216  1.00  0.00    -0.200 F 
ATOM     80  F   UNL A   1      52.735  25.919  24.884  1.00  0.00    -0.200 F 
ENDBRANCH  46  70
BRANCH  58  81
ATOM     81  C   UNL A   1      46.034  32.416  29.211  1.00  0.00     0.064 A 
ATOM     82  C   UNL A   1      46.625  32.669  30.457  1.00  0.00     0.173 A 
ATOM     83  C   UNL A   1      46.000  33.461  28.276  1.00  0.00     0.173 A 
ATOM     84  F   UNL A   1      46.668  31.707  31.392  1.00  0.00    -0.203 F 
ATOM     85  C   UNL A   1      47.142  33.926  30.762  1.00  0.00     0.198 A 
ATOM     86  C   UNL A   1      46.544  34.707  28.573  1.00  0.00     0.198 A 
ATOM     87  F   UNL A   1      45.450  33.269  27.067  1.00  0.00    -0.203 F 
ATOM     88  F   UNL A   1      47.662  34.158  31.976  1.00  0.00    -0.200 F 
ATOM     89  C   UNL A   1      47.108  34.940  29.818  1.00  0.00     0.200 A 
ATOM     90  F   UNL A   1      46.522  35.683  27.654  1.00  0.00    -0.200 F 
ATOM     91  F   UNL A   1      47.613  36.147  30.110  1.00  0.00    -0.200 F 
ENDBRANCH  58  81
ENDBRANCH  32  33
ENDBRANCH  24  27
ENDBRANCH  22  23
ENDBRANCH   1  22
TORSDOF 12
ENDMDL
