MODEL 1
REMARK VINA RESULT:     -11.8      0.000      0.000
REMARK SMILES C=C[C@@H](C)Oc1cnc2ccccc2c1C(=O)NCCCNC(=O)c1ccc(-c2c3nc(c(-c4c(F)c(F)c(F)c(F)c4F)c4ccc([nH]4)c(-c4c(F)c(F)c(F)c(F)c4F)c4nc(c(-c5c(F)c(F)c(F)c(F)c5F)c5ccc2[nH]5)C=C4)C=C3)cc1
REMARK SMILES IDX 19 1 18 2 16 3 17 4 15 6 6 7 7 8 8 9 14 10 9 11 13 12 10 13
REMARK SMILES IDX 12 14 11 15 5 16 3 17 4 18 2 19 1 20 20 21 21 22 22 23 23 24
REMARK SMILES IDX 24 26 25 27 26 28 87 29 27 30 86 31 28 32 29 33 30 34 80 35
REMARK SMILES IDX 31 36 85 37 79 38 81 39 32 40 84 41 78 42 77 43 33 45 65 46
REMARK SMILES IDX 45 47 64 48 46 49 49 50 63 51 82 52 47 53 48 54 62 56 83 57
REMARK SMILES IDX 50 58 34 59 35 60 43 61 36 62 37 63 41 64 44 65 38 66 39 67
REMARK SMILES IDX 42 68 40 69 66 70 67 71 75 72 68 73 69 74 73 75 76 76 70 77
REMARK SMILES IDX 71 78 74 79 72 80 51 81 52 82 60 83 53 84 54 85 58 86 61 87
REMARK SMILES IDX 55 88 56 89 59 90 57 91
REMARK H PARENT 18 5 22 25 81 44 49 55
REMARK Flexibility Score: inf
ROOT
ATOM      1  C   UNL A   1      31.468  30.620  26.635  1.00  0.00     0.118 C 
ENDROOT
BRANCH   1   2
ATOM      2  N   UNL A   1      32.189  30.318  25.406  1.00  0.00    -0.352 N 
ATOM      3  C   UNL A   1      32.309  29.239  24.558  1.00  0.00     0.255 C 
ATOM      4  O   UNL A   1      33.261  29.329  23.778  1.00  0.00    -0.269 OA
ATOM      5  H   UNL A   1      32.730  31.083  25.103  1.00  0.00     0.163 HD
BRANCH   3   6
ATOM      6  C   UNL A   1      31.365  28.066  24.452  1.00  0.00     0.092 A 
ATOM      7  C   UNL A   1      30.173  28.284  23.720  1.00  0.00     0.151 A 
ATOM      8  C   UNL A   1      29.274  27.237  23.632  1.00  0.00     0.159 A 
ATOM      9  N   UNL A   1      29.398  26.063  24.277  1.00  0.00    -0.252 NA
ATOM     10  C   UNL A   1      31.596  26.761  24.989  1.00  0.00     0.017 A 
ATOM     11  C   UNL A   1      30.534  25.830  24.930  1.00  0.00     0.071 A 
ATOM     12  C   UNL A   1      32.812  26.269  25.510  1.00  0.00     0.011 A 
ATOM     13  C   UNL A   1      30.658  24.582  25.525  1.00  0.00     0.029 A 
ATOM     14  C   UNL A   1      32.927  25.020  26.125  1.00  0.00     0.001 A 
ATOM     15  C   UNL A   1      31.832  24.180  26.154  1.00  0.00     0.002 A 
BRANCH   7  16
ATOM     16  O   UNL A   1      29.992  29.433  23.004  1.00  0.00    -0.484 OA
BRANCH  16  17
ATOM     17  C   UNL A   1      28.763  30.174  23.065  1.00  0.00     0.192 C 
ATOM     18  C   UNL A   1      28.036  30.259  21.724  1.00  0.00     0.057 C 
BRANCH  17  19
ATOM     19  C   UNL A   1      28.914  31.516  23.740  1.00  0.00     0.009 C 
ATOM     20  C   UNL A   1      28.778  32.700  23.125  1.00  0.00     0.008 C 
ENDBRANCH  17  19
ENDBRANCH  16  17
ENDBRANCH   7  16
ENDBRANCH   3   6
ENDBRANCH   1   2
BRANCH   1  21
ATOM     21  C   UNL A   1      31.319  32.144  26.785  1.00  0.00     0.042 C 
BRANCH  21  22
ATOM     22  C   UNL A   1      32.631  32.916  26.876  1.00  0.00     0.118 C 
BRANCH  22  23
ATOM     23  N   UNL A   1      32.475  34.176  27.584  1.00  0.00    -0.352 N 
ATOM     24  C   UNL A   1      33.082  34.644  28.720  1.00  0.00     0.251 C 
ATOM     25  H   UNL A   1      31.826  34.797  27.181  1.00  0.00     0.163 HD
ATOM     26  O   UNL A   1      32.611  35.650  29.270  1.00  0.00    -0.269 OA
BRANCH  24  27
ATOM     27  C   UNL A   1      34.272  33.991  29.323  1.00  0.00     0.039 A 
ATOM     28  C   UNL A   1      34.076  32.908  30.190  1.00  0.00     0.014 A 
ATOM     29  C   UNL A   1      35.568  34.474  29.127  1.00  0.00     0.014 A 
ATOM     30  C   UNL A   1      35.165  32.295  30.820  1.00  0.00     0.010 A 
ATOM     31  C   UNL A   1      36.663  33.809  29.685  1.00  0.00     0.010 A 
ATOM     32  C   UNL A   1      36.475  32.726  30.556  1.00  0.00    -0.014 A 
BRANCH  32  33
ATOM     33  C   UNL A   1      37.649  32.088  31.216  1.00  0.00     0.031 A 
ATOM     34  C   UNL A   1      38.444  31.034  30.490  1.00  0.00     0.074 A 
ATOM     35  C   UNL A   1      37.973  32.416  32.482  1.00  0.00     0.049 A 
ATOM     36  N   UNL A   1      39.450  30.310  30.916  1.00  0.00    -0.248 NA
ATOM     37  C   UNL A   1      38.037  30.732  29.109  1.00  0.00     0.031 C 
ATOM     38  C   UNL A   1      37.261  33.389  33.312  1.00  0.00     0.029 A 
ATOM     39  N   UNL A   1      38.981  31.960  33.295  1.00  0.00    -0.354 N 
ATOM     40  C   UNL A   1      39.774  29.455  29.870  1.00  0.00     0.074 A 
ATOM     41  C   UNL A   1      38.828  29.714  28.806  1.00  0.00     0.031 C 
ATOM     42  C   UNL A   1      37.868  33.474  34.507  1.00  0.00     0.029 A 
ATOM     43  C   UNL A   1      38.989  32.539  34.541  1.00  0.00     0.049 A 
ATOM     44  H   UNL A   1      39.636  31.282  33.013  1.00  0.00     0.167 HD
ATOM     45  C   UNL A   1      40.782  28.552  29.791  1.00  0.00     0.037 A 
ATOM     46  C   UNL A   1      39.807  32.339  35.594  1.00  0.00     0.037 A 
ATOM     47  C   UNL A   1      41.748  28.323  30.833  1.00  0.00     0.049 A 
ATOM     48  C   UNL A   1      40.935  31.349  35.471  1.00  0.00     0.074 A 
ATOM     49  C   UNL A   1      42.836  27.467  30.831  1.00  0.00     0.029 A 
ATOM     50  N   UNL A   1      41.745  28.961  32.064  1.00  0.00    -0.354 N 
ATOM     51  N   UNL A   1      41.261  30.587  34.456  1.00  0.00    -0.248 NA
ATOM     52  C   UNL A   1      41.815  31.203  36.639  1.00  0.00     0.031 C 
ATOM     53  C   UNL A   1      43.474  27.565  32.072  1.00  0.00     0.029 A 
ATOM     54  C   UNL A   1      42.809  28.514  32.831  1.00  0.00     0.049 A 
ATOM     55  H   UNL A   1      41.084  29.633  32.351  1.00  0.00     0.167 HD
ATOM     56  C   UNL A   1      42.401  29.898  34.848  1.00  0.00     0.074 A 
ATOM     57  C   UNL A   1      42.716  30.340  36.190  1.00  0.00     0.031 C 
ATOM     58  C   UNL A   1      43.121  28.981  34.157  1.00  0.00     0.037 A 
BRANCH  45  59
ATOM     59  C   UNL A   1      40.898  27.749  28.527  1.00  0.00     0.064 A 
ATOM     60  C   UNL A   1      40.230  26.526  28.369  1.00  0.00     0.173 A 
ATOM     61  C   UNL A   1      41.659  28.224  27.447  1.00  0.00     0.173 A 
ATOM     62  F   UNL A   1      39.498  26.022  29.374  1.00  0.00    -0.203 F 
ATOM     63  C   UNL A   1      40.345  25.791  27.191  1.00  0.00     0.198 A 
ATOM     64  C   UNL A   1      41.747  27.502  26.259  1.00  0.00     0.198 A 
ATOM     65  F   UNL A   1      42.313  29.391  27.541  1.00  0.00    -0.203 F 
ATOM     66  F   UNL A   1      39.738  24.601  27.083  1.00  0.00    -0.200 F 
ATOM     67  C   UNL A   1      41.098  26.283  26.135  1.00  0.00     0.200 A 
ATOM     68  F   UNL A   1      42.464  27.984  25.234  1.00  0.00    -0.200 F 
ATOM     69  F   UNL A   1      41.202  25.579  25.000  1.00  0.00    -0.200 F 
ENDBRANCH  45  59
BRANCH  46  70
ATOM     70  C   UNL A   1      39.615  33.121  36.843  1.00  0.00     0.064 A 
ATOM     71  C   UNL A   1      38.701  32.702  37.818  1.00  0.00     0.173 A 
ATOM     72  C   UNL A   1      40.334  34.300  37.086  1.00  0.00     0.173 A 
ATOM     73  F   UNL A   1      37.973  31.591  37.621  1.00  0.00    -0.203 F 
ATOM     74  C   UNL A   1      38.496  33.442  38.981  1.00  0.00     0.198 A 
ATOM     75  C   UNL A   1      40.150  35.025  38.262  1.00  0.00     0.198 A 
ATOM     76  F   UNL A   1      41.225  34.741  36.186  1.00  0.00    -0.203 F 
ATOM     77  F   UNL A   1      37.583  33.042  39.876  1.00  0.00    -0.200 F 
ATOM     78  C   UNL A   1      39.225  34.599  39.204  1.00  0.00     0.200 A 
ATOM     79  F   UNL A   1      40.866  36.136  38.481  1.00  0.00    -0.200 F 
ATOM     80  F   UNL A   1      39.033  35.310  40.324  1.00  0.00    -0.200 F 
ENDBRANCH  46  70
BRANCH  58  81
ATOM     81  C   UNL A   1      44.352  28.433  34.818  1.00  0.00     0.064 A 
ATOM     82  C   UNL A   1      44.317  27.264  35.590  1.00  0.00     0.173 A 
ATOM     83  C   UNL A   1      45.590  29.072  34.645  1.00  0.00     0.173 A 
ATOM     84  F   UNL A   1      43.155  26.626  35.797  1.00  0.00    -0.203 F 
ATOM     85  C   UNL A   1      45.473  26.766  36.187  1.00  0.00     0.198 A 
ATOM     86  C   UNL A   1      46.747  28.557  35.220  1.00  0.00     0.198 A 
ATOM     87  F   UNL A   1      45.676  30.191  33.909  1.00  0.00    -0.203 F 
ATOM     88  F   UNL A   1      45.408  25.673  36.959  1.00  0.00    -0.200 F 
ATOM     89  C   UNL A   1      46.688  27.409  35.996  1.00  0.00     0.200 A 
ATOM     90  F   UNL A   1      47.922  29.172  35.024  1.00  0.00    -0.200 F 
ATOM     91  F   UNL A   1      47.799  26.926  36.567  1.00  0.00    -0.200 F 
ENDBRANCH  58  81
ENDBRANCH  32  33
ENDBRANCH  24  27
ENDBRANCH  22  23
ENDBRANCH  21  22
ENDBRANCH   1  21
TORSDOF 13
ENDMDL
MODEL 2
REMARK VINA RESULT:     -11.7      0.449      7.594
REMARK SMILES C=C[C@@H](C)Oc1cnc2ccccc2c1C(=O)NCCCNC(=O)c1ccc(-c2c3nc(c(-c4c(F)c(F)c(F)c(F)c4F)c4ccc([nH]4)c(-c4c(F)c(F)c(F)c(F)c4F)c4nc(c(-c5c(F)c(F)c(F)c(F)c5F)c5ccc2[nH]5)C=C4)C=C3)cc1
REMARK SMILES IDX 19 1 18 2 16 3 17 4 15 6 6 7 7 8 8 9 14 10 9 11 13 12 10 13
REMARK SMILES IDX 12 14 11 15 5 16 3 17 4 18 2 19 1 20 20 21 21 22 22 23 23 24
REMARK SMILES IDX 24 26 25 27 26 28 87 29 27 30 86 31 28 32 29 33 30 34 80 35
REMARK SMILES IDX 31 36 85 37 79 38 81 39 32 40 84 41 78 42 77 43 33 45 65 46
REMARK SMILES IDX 45 47 64 48 46 49 49 50 63 51 82 52 47 53 48 54 62 56 83 57
REMARK SMILES IDX 50 58 34 59 35 60 43 61 36 62 37 63 41 64 44 65 38 66 39 67
REMARK SMILES IDX 42 68 40 69 66 70 67 71 75 72 68 73 69 74 73 75 76 76 70 77
REMARK SMILES IDX 71 78 74 79 72 80 51 81 52 82 60 83 53 84 54 85 58 86 61 87
REMARK SMILES IDX 55 88 56 89 59 90 57 91
REMARK H PARENT 18 5 22 25 81 44 49 55
REMARK Flexibility Score: inf
ROOT
ATOM      1  C   UNL A   1      31.484  30.631  26.583  1.00  0.00     0.118 C 
ENDROOT
BRANCH   1   2
ATOM      2  N   UNL A   1      32.154  30.326  25.326  1.00  0.00    -0.352 N 
ATOM      3  C   UNL A   1      32.246  29.241  24.482  1.00  0.00     0.255 C 
ATOM      4  O   UNL A   1      33.164  29.332  23.661  1.00  0.00    -0.269 OA
ATOM      5  H   UNL A   1      32.677  31.092  24.995  1.00  0.00     0.163 HD
BRANCH   3   6
ATOM      6  C   UNL A   1      31.307  28.062  24.423  1.00  0.00     0.092 A 
ATOM      7  C   UNL A   1      30.097  28.257  23.715  1.00  0.00     0.151 A 
ATOM      8  C   UNL A   1      29.201  27.203  23.672  1.00  0.00     0.159 A 
ATOM      9  N   UNL A   1      29.347  26.045  24.339  1.00  0.00    -0.252 NA
ATOM     10  C   UNL A   1      31.558  26.770  24.983  1.00  0.00     0.017 A 
ATOM     11  C   UNL A   1      30.499  25.833  24.969  1.00  0.00     0.071 A 
ATOM     12  C   UNL A   1      32.789  26.295  25.486  1.00  0.00     0.011 A 
ATOM     13  C   UNL A   1      30.645  24.598  25.588  1.00  0.00     0.029 A 
ATOM     14  C   UNL A   1      32.925  25.061  26.124  1.00  0.00     0.001 A 
ATOM     15  C   UNL A   1      31.836  24.216  26.198  1.00  0.00     0.002 A 
BRANCH   7  16
ATOM     16  O   UNL A   1      29.892  29.389  22.979  1.00  0.00    -0.484 OA
BRANCH  16  17
ATOM     17  C   UNL A   1      28.573  29.907  22.743  1.00  0.00     0.192 C 
ATOM     18  C   UNL A   1      28.244  30.080  21.261  1.00  0.00     0.057 C 
BRANCH  17  19
ATOM     19  C   UNL A   1      28.263  31.136  23.563  1.00  0.00     0.009 C 
ATOM     20  C   UNL A   1      29.152  32.090  23.876  1.00  0.00     0.008 C 
ENDBRANCH  17  19
ENDBRANCH  16  17
ENDBRANCH   7  16
ENDBRANCH   3   6
ENDBRANCH   1   2
BRANCH   1  21
ATOM     21  C   UNL A   1      31.403  32.158  26.766  1.00  0.00     0.042 C 
BRANCH  21  22
ATOM     22  C   UNL A   1      32.747  32.864  26.911  1.00  0.00     0.118 C 
BRANCH  22  23
ATOM     23  N   UNL A   1      32.622  34.140  27.595  1.00  0.00    -0.352 N 
ATOM     24  C   UNL A   1      33.208  34.599  28.745  1.00  0.00     0.251 C 
ATOM     25  H   UNL A   1      32.015  34.783  27.159  1.00  0.00     0.163 HD
ATOM     26  O   UNL A   1      32.763  35.633  29.264  1.00  0.00    -0.269 OA
BRANCH  24  27
ATOM     27  C   UNL A   1      34.345  33.904  29.400  1.00  0.00     0.039 A 
ATOM     28  C   UNL A   1      35.650  34.258  29.033  1.00  0.00     0.014 A 
ATOM     29  C   UNL A   1      34.159  32.851  30.300  1.00  0.00     0.014 A 
ATOM     30  C   UNL A   1      36.750  33.594  29.587  1.00  0.00     0.010 A 
ATOM     31  C   UNL A   1      35.256  32.247  30.920  1.00  0.00     0.010 A 
ATOM     32  C   UNL A   1      36.565  32.594  30.555  1.00  0.00    -0.014 A 
BRANCH  32  33
ATOM     33  C   UNL A   1      37.722  31.875  31.159  1.00  0.00     0.031 A 
ATOM     34  C   UNL A   1      38.173  32.205  32.558  1.00  0.00     0.074 A 
ATOM     35  C   UNL A   1      38.400  30.962  30.436  1.00  0.00     0.049 A 
ATOM     36  N   UNL A   1      39.198  31.746  33.232  1.00  0.00    -0.248 NA
ATOM     37  C   UNL A   1      37.381  33.208  33.289  1.00  0.00     0.031 C 
ATOM     38  C   UNL A   1      38.096  30.579  29.057  1.00  0.00     0.029 A 
ATOM     39  N   UNL A   1      39.492  30.194  30.761  1.00  0.00    -0.354 N 
ATOM     40  C   UNL A   1      39.188  32.421  34.447  1.00  0.00     0.074 A 
ATOM     41  C   UNL A   1      38.085  33.356  34.400  1.00  0.00     0.031 C 
ATOM     42  C   UNL A   1      38.964  29.633  28.662  1.00  0.00     0.029 A 
ATOM     43  C   UNL A   1      39.906  29.367  29.745  1.00  0.00     0.049 A 
ATOM     44  H   UNL A   1      39.936  30.232  31.638  1.00  0.00     0.167 HD
ATOM     45  C   UNL A   1      40.007  32.260  35.515  1.00  0.00     0.037 A 
ATOM     46  C   UNL A   1      40.931  28.493  29.691  1.00  0.00     0.037 A 
ATOM     47  C   UNL A   1      41.079  31.301  35.577  1.00  0.00     0.049 A 
ATOM     48  C   UNL A   1      41.810  28.315  30.900  1.00  0.00     0.074 A 
ATOM     49  C   UNL A   1      41.933  31.027  36.631  1.00  0.00     0.029 A 
ATOM     50  N   UNL A   1      41.439  30.453  34.541  1.00  0.00    -0.354 N 
ATOM     51  N   UNL A   1      41.755  28.921  32.060  1.00  0.00    -0.248 NA
ATOM     52  C   UNL A   1      42.886  27.320  30.793  1.00  0.00     0.031 C 
ATOM     53  C   UNL A   1      42.830  30.034  36.222  1.00  0.00     0.029 A 
ATOM     54  C   UNL A   1      42.506  29.659  34.929  1.00  0.00     0.049 A 
ATOM     55  H   UNL A   1      41.000  30.421  33.659  1.00  0.00     0.167 HD
ATOM     56  C   UNL A   1      42.763  28.360  32.832  1.00  0.00     0.074 A 
ATOM     57  C   UNL A   1      43.408  27.356  32.011  1.00  0.00     0.031 C 
ATOM     58  C   UNL A   1      43.122  28.650  34.106  1.00  0.00     0.037 A 
BRANCH  45  59
ATOM     59  C   UNL A   1      39.769  33.136  36.711  1.00  0.00     0.064 A 
ATOM     60  C   UNL A   1      40.442  34.356  36.875  1.00  0.00     0.173 A 
ATOM     61  C   UNL A   1      38.831  32.770  37.689  1.00  0.00     0.173 A 
ATOM     62  F   UNL A   1      41.357  34.748  35.976  1.00  0.00    -0.203 F 
ATOM     63  C   UNL A   1      40.211  35.160  37.989  1.00  0.00     0.198 A 
ATOM     64  C   UNL A   1      38.579  33.591  38.786  1.00  0.00     0.198 A 
ATOM     65  F   UNL A   1      38.152  31.618  37.578  1.00  0.00    -0.203 F 
ATOM     66  F   UNL A   1      40.905  36.296  38.149  1.00  0.00    -0.200 F 
ATOM     67  C   UNL A   1      39.276  34.780  38.939  1.00  0.00     0.200 A 
ATOM     68  F   UNL A   1      37.665  33.231  39.696  1.00  0.00    -0.200 F 
ATOM     69  F   UNL A   1      39.049  35.558  40.007  1.00  0.00    -0.200 F 
ENDBRANCH  45  59
BRANCH  46  70
ATOM     70  C   UNL A   1      41.157  27.689  28.462  1.00  0.00     0.064 A 
ATOM     71  C   UNL A   1      42.064  28.115  27.482  1.00  0.00     0.173 A 
ATOM     72  C   UNL A   1      40.474  26.485  28.238  1.00  0.00     0.173 A 
ATOM     73  F   UNL A   1      42.726  29.271  27.641  1.00  0.00    -0.203 F 
ATOM     74  C   UNL A   1      42.264  27.380  26.316  1.00  0.00     0.198 A 
ATOM     75  C   UNL A   1      40.695  25.736  27.084  1.00  0.00     0.198 A 
ATOM     76  F   UNL A   1      39.599  26.030  29.148  1.00  0.00    -0.203 F 
ATOM     77  F   UNL A   1      43.104  27.834  25.376  1.00  0.00    -0.200 F 
ATOM     78  C   UNL A   1      41.584  26.188  26.121  1.00  0.00     0.200 A 
ATOM     79  F   UNL A   1      40.046  24.577  26.905  1.00  0.00    -0.200 F 
ATOM     80  F   UNL A   1      41.779  25.478  25.001  1.00  0.00    -0.200 F 
ENDBRANCH  46  70
BRANCH  58  81
ATOM     81  C   UNL A   1      44.228  27.836  34.712  1.00  0.00     0.064 A 
ATOM     82  C   UNL A   1      45.565  28.254  34.659  1.00  0.00     0.173 A 
ATOM     83  C   UNL A   1      43.938  26.639  35.384  1.00  0.00     0.173 A 
ATOM     84  F   UNL A   1      45.895  29.384  34.016  1.00  0.00    -0.203 F 
ATOM     85  C   UNL A   1      46.576  27.489  35.236  1.00  0.00     0.198 A 
ATOM     86  C   UNL A   1      44.946  25.891  35.983  1.00  0.00     0.198 A 
ATOM     87  F   UNL A   1      42.672  26.200  35.468  1.00  0.00    -0.203 F 
ATOM     88  F   UNL A   1      47.852  27.883  35.134  1.00  0.00    -0.200 F 
ATOM     89  C   UNL A   1      46.265  26.312  35.903  1.00  0.00     0.200 A 
ATOM     90  F   UNL A   1      44.643  24.762  36.637  1.00  0.00    -0.200 F 
ATOM     91  F   UNL A   1      47.239  25.581  36.461  1.00  0.00    -0.200 F 
ENDBRANCH  58  81
ENDBRANCH  32  33
ENDBRANCH  24  27
ENDBRANCH  22  23
ENDBRANCH  21  22
ENDBRANCH   1  21
TORSDOF 13
ENDMDL
MODEL 3
REMARK VINA RESULT:     -11.7      0.405      7.420
REMARK SMILES C=C[C@@H](C)Oc1cnc2ccccc2c1C(=O)NCCCNC(=O)c1ccc(-c2c3nc(c(-c4c(F)c(F)c(F)c(F)c4F)c4ccc([nH]4)c(-c4c(F)c(F)c(F)c(F)c4F)c4nc(c(-c5c(F)c(F)c(F)c(F)c5F)c5ccc2[nH]5)C=C4)C=C3)cc1
REMARK SMILES IDX 19 1 18 2 16 3 17 4 15 6 6 7 7 8 8 9 14 10 9 11 13 12 10 13
REMARK SMILES IDX 12 14 11 15 5 16 3 17 4 18 2 19 1 20 20 21 21 22 22 23 23 24
REMARK SMILES IDX 24 26 25 27 26 28 87 29 27 30 86 31 28 32 29 33 30 34 80 35
REMARK SMILES IDX 31 36 85 37 79 38 81 39 32 40 84 41 78 42 77 43 33 45 65 46
REMARK SMILES IDX 45 47 64 48 46 49 49 50 63 51 82 52 47 53 48 54 62 56 83 57
REMARK SMILES IDX 50 58 34 59 35 60 43 61 36 62 37 63 41 64 44 65 38 66 39 67
REMARK SMILES IDX 42 68 40 69 66 70 67 71 75 72 68 73 69 74 73 75 76 76 70 77
REMARK SMILES IDX 71 78 74 79 72 80 51 81 52 82 60 83 53 84 54 85 58 86 61 87
REMARK SMILES IDX 55 88 56 89 59 90 57 91
REMARK H PARENT 18 5 22 25 81 44 49 55
REMARK Flexibility Score: inf
ROOT
ATOM      1  C   UNL A   1      31.493  30.626  26.595  1.00  0.00     0.118 C 
ENDROOT
BRANCH   1   2
ATOM      2  N   UNL A   1      32.146  30.324  25.328  1.00  0.00    -0.352 N 
ATOM      3  C   UNL A   1      32.224  29.243  24.478  1.00  0.00     0.255 C 
ATOM      4  O   UNL A   1      33.130  29.335  23.646  1.00  0.00    -0.269 OA
ATOM      5  H   UNL A   1      32.666  31.091  24.993  1.00  0.00     0.163 HD
BRANCH   3   6
ATOM      6  C   UNL A   1      31.281  28.066  24.427  1.00  0.00     0.092 A 
ATOM      7  C   UNL A   1      30.066  28.264  23.727  1.00  0.00     0.151 A 
ATOM      8  C   UNL A   1      29.167  27.213  23.690  1.00  0.00     0.159 A 
ATOM      9  N   UNL A   1      29.315  26.055  24.358  1.00  0.00    -0.252 NA
ATOM     10  C   UNL A   1      31.532  26.774  24.987  1.00  0.00     0.017 A 
ATOM     11  C   UNL A   1      30.471  25.840  24.981  1.00  0.00     0.071 A 
ATOM     12  C   UNL A   1      32.765  26.297  25.482  1.00  0.00     0.011 A 
ATOM     13  C   UNL A   1      30.616  24.606  25.600  1.00  0.00     0.029 A 
ATOM     14  C   UNL A   1      32.902  25.063  26.121  1.00  0.00     0.001 A 
ATOM     15  C   UNL A   1      31.810  24.221  26.203  1.00  0.00     0.002 A 
BRANCH   7  16
ATOM     16  O   UNL A   1      29.860  29.396  22.991  1.00  0.00    -0.484 OA
BRANCH  16  17
ATOM     17  C   UNL A   1      28.541  29.915  22.760  1.00  0.00     0.192 C 
ATOM     18  C   UNL A   1      28.206  30.087  21.279  1.00  0.00     0.057 C 
BRANCH  17  19
ATOM     19  C   UNL A   1      28.237  31.146  23.580  1.00  0.00     0.009 C 
ATOM     20  C   UNL A   1      29.131  32.094  23.896  1.00  0.00     0.008 C 
ENDBRANCH  17  19
ENDBRANCH  16  17
ENDBRANCH   7  16
ENDBRANCH   3   6
ENDBRANCH   1   2
BRANCH   1  21
ATOM     21  C   UNL A   1      31.370  32.151  26.761  1.00  0.00     0.042 C 
BRANCH  21  22
ATOM     22  C   UNL A   1      32.694  32.899  26.878  1.00  0.00     0.118 C 
BRANCH  22  23
ATOM     23  N   UNL A   1      32.544  34.169  27.569  1.00  0.00    -0.352 N 
ATOM     24  C   UNL A   1      33.120  34.631  28.724  1.00  0.00     0.251 C 
ATOM     25  H   UNL A   1      31.928  34.803  27.136  1.00  0.00     0.163 HD
ATOM     26  O   UNL A   1      32.656  35.654  29.247  1.00  0.00    -0.269 OA
BRANCH  24  27
ATOM     27  C   UNL A   1      34.268  33.952  29.377  1.00  0.00     0.039 A 
ATOM     28  C   UNL A   1      35.567  34.321  29.004  1.00  0.00     0.014 A 
ATOM     29  C   UNL A   1      34.097  32.901  30.282  1.00  0.00     0.014 A 
ATOM     30  C   UNL A   1      36.677  33.673  29.557  1.00  0.00     0.010 A 
ATOM     31  C   UNL A   1      35.204  32.313  30.900  1.00  0.00     0.010 A 
ATOM     32  C   UNL A   1      36.507  32.674  30.530  1.00  0.00    -0.014 A 
BRANCH  32  33
ATOM     33  C   UNL A   1      37.675  31.971  31.132  1.00  0.00     0.031 A 
ATOM     34  C   UNL A   1      38.134  32.321  32.524  1.00  0.00     0.074 A 
ATOM     35  C   UNL A   1      38.355  31.056  30.414  1.00  0.00     0.049 A 
ATOM     36  N   UNL A   1      39.169  31.878  33.195  1.00  0.00    -0.248 NA
ATOM     37  C   UNL A   1      37.340  33.325  33.250  1.00  0.00     0.031 C 
ATOM     38  C   UNL A   1      38.043  30.655  29.042  1.00  0.00     0.029 A 
ATOM     39  N   UNL A   1      39.456  30.301  30.738  1.00  0.00    -0.354 N 
ATOM     40  C   UNL A   1      39.162  32.566  34.402  1.00  0.00     0.074 A 
ATOM     41  C   UNL A   1      38.051  33.491  34.354  1.00  0.00     0.031 C 
ATOM     42  C   UNL A   1      38.916  29.713  28.650  1.00  0.00     0.029 A 
ATOM     43  C   UNL A   1      39.869  29.467  29.728  1.00  0.00     0.049 A 
ATOM     44  H   UNL A   1      39.907  30.353  31.612  1.00  0.00     0.167 HD
ATOM     45  C   UNL A   1      39.991  32.424  35.465  1.00  0.00     0.037 A 
ATOM     46  C   UNL A   1      40.901  28.601  29.676  1.00  0.00     0.037 A 
ATOM     47  C   UNL A   1      41.071  31.475  35.530  1.00  0.00     0.049 A 
ATOM     48  C   UNL A   1      41.791  28.443  30.880  1.00  0.00     0.074 A 
ATOM     49  C   UNL A   1      41.936  31.220  36.580  1.00  0.00     0.029 A 
ATOM     50  N   UNL A   1      41.430  30.619  34.500  1.00  0.00    -0.354 N 
ATOM     51  N   UNL A   1      41.740  29.062  32.034  1.00  0.00    -0.248 NA
ATOM     52  C   UNL A   1      42.875  27.457  30.776  1.00  0.00     0.031 C 
ATOM     53  C   UNL A   1      42.838  30.230  36.175  1.00  0.00     0.029 A 
ATOM     54  C   UNL A   1      42.507  29.838  34.888  1.00  0.00     0.049 A 
ATOM     55  H   UNL A   1      40.985  30.573  33.622  1.00  0.00     0.167 HD
ATOM     56  C   UNL A   1      42.759  28.517  32.804  1.00  0.00     0.074 A 
ATOM     57  C   UNL A   1      43.406  27.511  31.989  1.00  0.00     0.031 C 
ATOM     58  C   UNL A   1      43.125  28.825  34.072  1.00  0.00     0.037 A 
BRANCH  45  59
ATOM     59  C   UNL A   1      39.754  33.312  36.654  1.00  0.00     0.064 A 
ATOM     60  C   UNL A   1      38.859  32.954  37.672  1.00  0.00     0.173 A 
ATOM     61  C   UNL A   1      40.456  34.519  36.794  1.00  0.00     0.173 A 
ATOM     62  F   UNL A   1      38.154  31.816  37.582  1.00  0.00    -0.203 F 
ATOM     63  C   UNL A   1      38.649  33.785  38.770  1.00  0.00     0.198 A 
ATOM     64  C   UNL A   1      40.268  35.333  37.909  1.00  0.00     0.198 A 
ATOM     65  F   UNL A   1      41.331  34.907  35.854  1.00  0.00    -0.203 F 
ATOM     66  F   UNL A   1      37.751  33.445  39.705  1.00  0.00    -0.200 F 
ATOM     67  C   UNL A   1      39.359  34.970  38.891  1.00  0.00     0.200 A 
ATOM     68  F   UNL A   1      40.964  36.472  38.031  1.00  0.00    -0.200 F 
ATOM     69  F   UNL A   1      39.162  35.766  39.951  1.00  0.00    -0.200 F 
ENDBRANCH  45  59
BRANCH  46  70
ATOM     70  C   UNL A   1      41.125  27.785  28.454  1.00  0.00     0.064 A 
ATOM     71  C   UNL A   1      42.009  28.215  27.456  1.00  0.00     0.173 A 
ATOM     72  C   UNL A   1      40.461  26.565  28.256  1.00  0.00     0.173 A 
ATOM     73  F   UNL A   1      42.652  29.386  27.590  1.00  0.00    -0.203 F 
ATOM     74  C   UNL A   1      42.206  27.469  26.296  1.00  0.00     0.198 A 
ATOM     75  C   UNL A   1      40.679  25.806  27.109  1.00  0.00     0.198 A 
ATOM     76  F   UNL A   1      39.608  26.107  29.184  1.00  0.00    -0.203 F 
ATOM     77  F   UNL A   1      43.023  27.926  25.338  1.00  0.00    -0.200 F 
ATOM     78  C   UNL A   1      41.546  26.262  26.127  1.00  0.00     0.200 A 
ATOM     79  F   UNL A   1      40.050  24.633  26.954  1.00  0.00    -0.200 F 
ATOM     80  F   UNL A   1      41.738  25.541  25.013  1.00  0.00    -0.200 F 
ENDBRANCH  46  70
BRANCH  58  81
ATOM     81  C   UNL A   1      44.243  28.028  34.678  1.00  0.00     0.064 A 
ATOM     82  C   UNL A   1      44.006  26.823  35.355  1.00  0.00     0.173 A 
ATOM     83  C   UNL A   1      45.571  28.460  34.548  1.00  0.00     0.173 A 
ATOM     84  F   UNL A   1      42.753  26.375  35.519  1.00  0.00    -0.203 F 
ATOM     85  C   UNL A   1      45.058  26.092  35.902  1.00  0.00     0.198 A 
ATOM     86  C   UNL A   1      46.622  27.714  35.072  1.00  0.00     0.198 A 
ATOM     87  F   UNL A   1      45.850  29.604  33.902  1.00  0.00    -0.203 F 
ATOM     88  F   UNL A   1      44.806  24.968  36.586  1.00  0.00    -0.200 F 
ATOM     89  C   UNL A   1      46.366  26.535  35.755  1.00  0.00     0.200 A 
ATOM     90  F   UNL A   1      47.884  28.137  34.917  1.00  0.00    -0.200 F 
ATOM     91  F   UNL A   1      47.376  25.829  36.278  1.00  0.00    -0.200 F 
ENDBRANCH  58  81
ENDBRANCH  32  33
ENDBRANCH  24  27
ENDBRANCH  22  23
ENDBRANCH  21  22
ENDBRANCH   1  21
TORSDOF 13
ENDMDL
