MODEL 1
REMARK VINA RESULT:     -13.5      0.000      0.000
REMARK SMILES Nc1nc2ccccc2nc1N1CCC(C(=O)NCCCNC(=O)c2ccc(-c3c4nc(c(-c5c(F)c(F)c(F)c(F)c5F)c5ccc([nH]5)c(-c5c(F)c(F)c(F)c(F)c5F)c5nc(c(-c6c(F)c(F)c(F)c(F)c6F)c6ccc3[nH]6)C=C5)C=C4)cc2)CC1
REMARK SMILES IDX 20 1 19 2 18 3 16 4 17 5 15 7 12 8 13 9 89 10 14 11 88 12
REMARK SMILES IDX 11 13 2 14 3 15 4 16 10 17 5 18 9 19 6 20 8 21 7 22 1 23
REMARK SMILES IDX 21 26 22 27 23 28 24 30 25 31 26 32 87 33 27 34 86 35 28 36
REMARK SMILES IDX 29 37 30 38 80 39 31 40 85 41 79 42 81 43 32 44 84 45 78 46
REMARK SMILES IDX 77 47 33 49 65 50 45 51 64 52 46 53 49 54 63 55 82 56 47 57
REMARK SMILES IDX 48 58 62 60 83 61 50 62 34 63 35 64 43 65 36 66 37 67 41 68
REMARK SMILES IDX 44 69 38 70 39 71 42 72 40 73 66 74 67 75 75 76 68 77 69 78
REMARK SMILES IDX 73 79 76 80 70 81 71 82 74 83 72 84 51 85 52 86 60 87 53 88
REMARK SMILES IDX 54 89 58 90 61 91 55 92 56 93 59 94 57 95
REMARK H PARENT 18 6 1 24 1 25 22 29 81 48 49 59
REMARK Flexibility Score: inf
ROOT
ATOM      1  C   UNL A   1      38.172  19.570  25.000  1.00  0.00     0.042 C 
ENDROOT
BRANCH   1   2
ATOM      2  C   UNL A   1      37.032  20.577  25.082  1.00  0.00     0.117 C 
BRANCH   2   3
ATOM      3  N   UNL A   1      37.162  21.648  24.101  1.00  0.00    -0.356 N 
ATOM      4  C   UNL A   1      36.248  22.520  23.595  1.00  0.00     0.223 C 
ATOM      5  O   UNL A   1      36.638  23.328  22.749  1.00  0.00    -0.275 OA
ATOM      6  H   UNL A   1      38.071  21.759  23.741  1.00  0.00     0.163 HD
BRANCH   4   7
ATOM      7  C   UNL A   1      34.794  22.519  24.046  1.00  0.00     0.082 C 
ATOM      8  N   UNL A   1      32.666  24.025  25.167  1.00  0.00    -0.353 N 
ATOM      9  C   UNL A   1      33.275  23.028  26.020  1.00  0.00     0.119 C 
ATOM     10  C   UNL A   1      32.565  23.747  23.745  1.00  0.00     0.119 C 
ATOM     11  C   UNL A   1      34.691  22.738  25.560  1.00  0.00     0.035 C 
ATOM     12  C   UNL A   1      33.943  23.448  23.166  1.00  0.00     0.035 C 
BRANCH   8  13
ATOM     13  C   UNL A   1      32.393  25.288  25.665  1.00  0.00     0.172 A 
ATOM     14  C   UNL A   1      31.134  25.584  26.254  1.00  0.00     0.167 A 
ATOM     15  N   UNL A   1      30.838  26.792  26.771  1.00  0.00    -0.226 NA
ATOM     16  C   UNL A   1      31.810  27.715  26.730  1.00  0.00     0.091 A 
ATOM     17  N   UNL A   1      33.371  26.224  25.642  1.00  0.00    -0.225 NA
ATOM     18  C   UNL A   1      31.561  28.972  27.269  1.00  0.00     0.031 A 
ATOM     19  C   UNL A   1      33.077  27.438  26.159  1.00  0.00     0.091 A 
ATOM     20  C   UNL A   1      32.528  29.976  27.249  1.00  0.00     0.002 A 
ATOM     21  C   UNL A   1      34.030  28.454  26.142  1.00  0.00     0.031 A 
ATOM     22  C   UNL A   1      33.766  29.717  26.677  1.00  0.00     0.002 A 
BRANCH  14  23
ATOM     23  N   UNL A   1      30.122  24.632  26.350  1.00  0.00    -0.381 N 
ATOM     24  H   UNL A   1      30.021  23.950  25.648  1.00  0.00     0.158 HD
ATOM     25  H   UNL A   1      29.510  24.642  27.121  1.00  0.00     0.158 HD
ENDBRANCH  14  23
ENDBRANCH   8  13
ENDBRANCH   4   7
ENDBRANCH   2   3
ENDBRANCH   1   2
BRANCH   1  26
ATOM     26  C   UNL A   1      39.424  19.991  25.751  1.00  0.00     0.118 C 
BRANCH  26  27
ATOM     27  N   UNL A   1      40.436  18.945  25.809  1.00  0.00    -0.352 N 
ATOM     28  C   UNL A   1      41.793  19.031  26.017  1.00  0.00     0.251 C 
ATOM     29  H   UNL A   1      40.095  18.030  25.679  1.00  0.00     0.163 HD
ATOM     30  O   UNL A   1      42.499  18.037  25.874  1.00  0.00    -0.269 OA
BRANCH  28  31
ATOM     31  C   UNL A   1      42.413  20.327  26.370  1.00  0.00     0.039 A 
ATOM     32  C   UNL A   1      42.356  20.816  27.675  1.00  0.00     0.014 A 
ATOM     33  C   UNL A   1      43.050  21.073  25.375  1.00  0.00     0.014 A 
ATOM     34  C   UNL A   1      42.738  22.126  27.936  1.00  0.00     0.010 A 
ATOM     35  C   UNL A   1      43.535  22.352  25.665  1.00  0.00     0.010 A 
ATOM     36  C   UNL A   1      43.327  22.915  26.933  1.00  0.00    -0.014 A 
BRANCH  36  37
ATOM     37  C   UNL A   1      43.696  24.323  27.241  1.00  0.00     0.031 A 
ATOM     38  C   UNL A   1      45.078  24.840  26.944  1.00  0.00     0.074 A 
ATOM     39  C   UNL A   1      42.752  25.161  27.714  1.00  0.00     0.049 A 
ATOM     40  N   UNL A   1      45.559  26.048  27.104  1.00  0.00    -0.248 NA
ATOM     41  C   UNL A   1      46.052  23.880  26.401  1.00  0.00     0.031 C 
ATOM     42  C   UNL A   1      41.374  24.781  28.029  1.00  0.00     0.029 A 
ATOM     43  N   UNL A   1      42.794  26.506  27.976  1.00  0.00    -0.354 N 
ATOM     44  C   UNL A   1      46.886  25.989  26.700  1.00  0.00     0.074 A 
ATOM     45  C   UNL A   1      47.150  24.619  26.317  1.00  0.00     0.031 C 
ATOM     46  C   UNL A   1      40.683  25.877  28.370  1.00  0.00     0.029 A 
ATOM     47  C   UNL A   1      41.584  27.026  28.365  1.00  0.00     0.049 A 
ATOM     48  H   UNL A   1      43.612  27.048  27.894  1.00  0.00     0.167 HD
ATOM     49  C   UNL A   1      47.798  26.990  26.638  1.00  0.00     0.037 A 
ATOM     50  C   UNL A   1      41.235  28.286  28.688  1.00  0.00     0.037 A 
ATOM     51  C   UNL A   1      47.525  28.358  26.988  1.00  0.00     0.049 A 
ATOM     52  C   UNL A   1      42.276  29.368  28.648  1.00  0.00     0.074 A 
ATOM     53  C   UNL A   1      48.380  29.447  26.937  1.00  0.00     0.029 A 
ATOM     54  N   UNL A   1      46.304  28.830  27.446  1.00  0.00    -0.354 N 
ATOM     55  N   UNL A   1      43.527  29.294  28.266  1.00  0.00    -0.248 NA
ATOM     56  C   UNL A   1      41.861  30.703  29.100  1.00  0.00     0.031 C 
ATOM     57  C   UNL A   1      47.688  30.569  27.401  1.00  0.00     0.029 A 
ATOM     58  C   UNL A   1      46.390  30.190  27.702  1.00  0.00     0.049 A 
ATOM     59  H   UNL A   1      45.497  28.281  27.571  1.00  0.00     0.167 HD
ATOM     60  C   UNL A   1      44.049  30.570  28.425  1.00  0.00     0.074 A 
ATOM     61  C   UNL A   1      42.972  31.405  28.915  1.00  0.00     0.031 C 
ATOM     62  C   UNL A   1      45.309  31.006  28.190  1.00  0.00     0.037 A 
BRANCH  49  63
ATOM     63  C   UNL A   1      49.184  26.649  26.174  1.00  0.00     0.064 A 
ATOM     64  C   UNL A   1      49.575  26.827  24.839  1.00  0.00     0.173 A 
ATOM     65  C   UNL A   1      50.152  26.210  27.089  1.00  0.00     0.173 A 
ATOM     66  F   UNL A   1      48.683  27.233  23.923  1.00  0.00    -0.203 F 
ATOM     67  C   UNL A   1      50.881  26.564  24.434  1.00  0.00     0.198 A 
ATOM     68  C   UNL A   1      51.464  25.971  26.686  1.00  0.00     0.198 A 
ATOM     69  F   UNL A   1      49.831  26.029  28.379  1.00  0.00    -0.203 F 
ATOM     70  F   UNL A   1      51.225  26.711  23.148  1.00  0.00    -0.200 F 
ATOM     71  C   UNL A   1      51.827  26.146  25.359  1.00  0.00     0.200 A 
ATOM     72  F   UNL A   1      52.378  25.579  27.584  1.00  0.00    -0.200 F 
ATOM     73  F   UNL A   1      53.087  25.906  24.971  1.00  0.00    -0.200 F 
ENDBRANCH  49  63
BRANCH  50  74
ATOM     74  C   UNL A   1      39.830  28.584  29.065  1.00  0.00     0.064 A 
ATOM     75  C   UNL A   1      39.380  28.381  30.376  1.00  0.00     0.173 A 
ATOM     76  C   UNL A   1      38.922  29.110  28.134  1.00  0.00     0.173 A 
ATOM     77  F   UNL A   1      40.206  27.861  31.294  1.00  0.00    -0.203 F 
ATOM     78  C   UNL A   1      38.072  28.693  30.742  1.00  0.00     0.198 A 
ATOM     79  C   UNL A   1      37.624  29.446  28.508  1.00  0.00     0.198 A 
ATOM     80  F   UNL A   1      39.307  29.325  26.868  1.00  0.00    -0.203 F 
ATOM     81  F   UNL A   1      37.658  28.464  31.995  1.00  0.00    -0.200 F 
ATOM     82  C   UNL A   1      37.198  29.234  29.811  1.00  0.00     0.200 A 
ATOM     83  F   UNL A   1      36.787  29.985  27.610  1.00  0.00    -0.200 F 
ATOM     84  F   UNL A   1      35.946  29.549  30.168  1.00  0.00    -0.200 F 
ENDBRANCH  50  74
BRANCH  62  85
ATOM     85  C   UNL A   1      45.601  32.453  28.457  1.00  0.00     0.064 A 
ATOM     86  C   UNL A   1      46.127  32.874  29.686  1.00  0.00     0.173 A 
ATOM     87  C   UNL A   1      45.422  33.412  27.450  1.00  0.00     0.173 A 
ATOM     88  F   UNL A   1      46.301  31.994  30.683  1.00  0.00    -0.203 F 
ATOM     89  C   UNL A   1      46.455  34.210  29.901  1.00  0.00     0.198 A 
ATOM     90  C   UNL A   1      45.774  34.742  27.661  1.00  0.00     0.198 A 
ATOM     91  F   UNL A   1      44.927  33.056  26.255  1.00  0.00    -0.203 F 
ATOM     92  F   UNL A   1      46.931  34.597  31.092  1.00  0.00    -0.200 F 
ATOM     93  C   UNL A   1      46.288  35.140  28.886  1.00  0.00     0.200 A 
ATOM     94  F   UNL A   1      45.624  35.638  26.675  1.00  0.00    -0.200 F 
ATOM     95  F   UNL A   1      46.620  36.422  29.091  1.00  0.00    -0.200 F 
ENDBRANCH  62  85
ENDBRANCH  36  37
ENDBRANCH  28  31
ENDBRANCH  26  27
ENDBRANCH   1  26
TORSDOF 12
ENDMDL
MODEL 2
REMARK VINA RESULT:     -13.5      5.703     10.341
REMARK SMILES Nc1nc2ccccc2nc1N1CCC(C(=O)NCCCNC(=O)c2ccc(-c3c4nc(c(-c5c(F)c(F)c(F)c(F)c5F)c5ccc([nH]5)c(-c5c(F)c(F)c(F)c(F)c5F)c5nc(c(-c6c(F)c(F)c(F)c(F)c6F)c6ccc3[nH]6)C=C5)C=C4)cc2)CC1
REMARK SMILES IDX 20 1 19 2 18 3 16 4 17 5 15 7 12 8 13 9 89 10 14 11 88 12
REMARK SMILES IDX 11 13 2 14 3 15 4 16 10 17 5 18 9 19 6 20 8 21 7 22 1 23
REMARK SMILES IDX 21 26 22 27 23 28 24 30 25 31 26 32 87 33 27 34 86 35 28 36
REMARK SMILES IDX 29 37 30 38 80 39 31 40 85 41 79 42 81 43 32 44 84 45 78 46
REMARK SMILES IDX 77 47 33 49 65 50 45 51 64 52 46 53 49 54 63 55 82 56 47 57
REMARK SMILES IDX 48 58 62 60 83 61 50 62 34 63 35 64 43 65 36 66 37 67 41 68
REMARK SMILES IDX 44 69 38 70 39 71 42 72 40 73 66 74 67 75 75 76 68 77 69 78
REMARK SMILES IDX 73 79 76 80 70 81 71 82 74 83 72 84 51 85 52 86 60 87 53 88
REMARK SMILES IDX 54 89 58 90 61 91 55 92 56 93 59 94 57 95
REMARK H PARENT 18 6 1 24 1 25 22 29 81 48 49 59
REMARK Flexibility Score: inf
ROOT
ATOM      1  C   UNL A   1      31.428  32.230  26.642  1.00  0.00     0.042 C 
ENDROOT
BRANCH   1   2
ATOM      2  C   UNL A   1      31.707  30.839  26.092  1.00  0.00     0.117 C 
BRANCH   2   3
ATOM      3  N   UNL A   1      31.676  29.813  27.128  1.00  0.00    -0.356 N 
ATOM      4  C   UNL A   1      31.539  28.461  27.051  1.00  0.00     0.223 C 
ATOM      5  O   UNL A   1      31.531  27.828  28.110  1.00  0.00    -0.275 OA
ATOM      6  H   UNL A   1      31.771  30.159  28.044  1.00  0.00     0.163 HD
BRANCH   4   7
ATOM      7  C   UNL A   1      31.403  27.737  25.719  1.00  0.00     0.082 C 
ATOM      8  N   UNL A   1      32.452  25.741  23.997  1.00  0.00    -0.353 N 
ATOM      9  C   UNL A   1      32.665  27.117  23.601  1.00  0.00     0.119 C 
ATOM     10  C   UNL A   1      31.215  25.403  24.677  1.00  0.00     0.119 C 
ATOM     11  C   UNL A   1      32.607  28.026  24.814  1.00  0.00     0.035 C 
ATOM     12  C   UNL A   1      31.052  26.256  25.931  1.00  0.00     0.035 C 
BRANCH   8  13
ATOM     13  C   UNL A   1      33.493  24.830  23.919  1.00  0.00     0.172 A 
ATOM     14  C   UNL A   1      33.692  24.046  22.751  1.00  0.00     0.167 A 
ATOM     15  N   UNL A   1      34.705  23.168  22.628  1.00  0.00    -0.226 NA
ATOM     16  C   UNL A   1      35.551  23.081  23.665  1.00  0.00     0.091 A 
ATOM     17  N   UNL A   1      34.362  24.744  24.954  1.00  0.00    -0.225 NA
ATOM     18  C   UNL A   1      36.626  22.203  23.578  1.00  0.00     0.031 A 
ATOM     19  C   UNL A   1      35.379  23.862  24.834  1.00  0.00     0.091 A 
ATOM     20  C   UNL A   1      37.534  22.061  24.626  1.00  0.00     0.002 A 
ATOM     21  C   UNL A   1      36.293  23.704  25.874  1.00  0.00     0.031 A 
ATOM     22  C   UNL A   1      37.363  22.812  25.781  1.00  0.00     0.002 A 
BRANCH  14  23
ATOM     23  N   UNL A   1      32.856  24.148  21.643  1.00  0.00    -0.381 N 
ATOM     24  H   UNL A   1      33.080  23.670  20.812  1.00  0.00     0.158 HD
ATOM     25  H   UNL A   1      32.042  24.699  21.690  1.00  0.00     0.158 HD
ENDBRANCH  14  23
ENDBRANCH   8  13
ENDBRANCH   4   7
ENDBRANCH   2   3
ENDBRANCH   1   2
BRANCH   1  26
ATOM     26  C   UNL A   1      32.632  32.894  27.288  1.00  0.00     0.118 C 
BRANCH  26  27
ATOM     27  N   UNL A   1      32.404  34.293  27.626  1.00  0.00    -0.352 N 
ATOM     28  C   UNL A   1      32.973  35.076  28.603  1.00  0.00     0.251 C 
ATOM     29  H   UNL A   1      31.736  34.751  27.066  1.00  0.00     0.163 HD
ATOM     30  O   UNL A   1      32.527  36.198  28.826  1.00  0.00    -0.269 OA
BRANCH  28  31
ATOM     31  C   UNL A   1      34.093  34.557  29.417  1.00  0.00     0.039 A 
ATOM     32  C   UNL A   1      35.399  34.566  28.930  1.00  0.00     0.014 A 
ATOM     33  C   UNL A   1      33.829  34.036  30.688  1.00  0.00     0.014 A 
ATOM     34  C   UNL A   1      36.393  33.871  29.607  1.00  0.00     0.010 A 
ATOM     35  C   UNL A   1      34.856  33.432  31.421  1.00  0.00     0.010 A 
ATOM     36  C   UNL A   1      36.134  33.289  30.860  1.00  0.00    -0.014 A 
BRANCH  36  37
ATOM     37  C   UNL A   1      37.213  32.527  31.543  1.00  0.00     0.031 A 
ATOM     38  C   UNL A   1      37.947  31.423  30.830  1.00  0.00     0.074 A 
ATOM     39  C   UNL A   1      37.587  32.889  32.786  1.00  0.00     0.049 A 
ATOM     40  N   UNL A   1      38.944  30.686  31.254  1.00  0.00    -0.248 NA
ATOM     41  C   UNL A   1      37.508  31.097  29.464  1.00  0.00     0.031 C 
ATOM     42  C   UNL A   1      36.961  33.951  33.575  1.00  0.00     0.029 A 
ATOM     43  N   UNL A   1      38.603  32.435  33.587  1.00  0.00    -0.354 N 
ATOM     44  C   UNL A   1      39.236  29.805  30.222  1.00  0.00     0.074 A 
ATOM     45  C   UNL A   1      38.293  30.073  29.159  1.00  0.00     0.031 C 
ATOM     46  C   UNL A   1      37.650  34.118  34.713  1.00  0.00     0.029 A 
ATOM     47  C   UNL A   1      38.723  33.130  34.766  1.00  0.00     0.049 A 
ATOM     48  H   UNL A   1      39.191  31.684  33.342  1.00  0.00     0.167 HD
ATOM     49  C   UNL A   1      40.213  28.868  30.160  1.00  0.00     0.037 A 
ATOM     50  C   UNL A   1      39.595  32.986  35.782  1.00  0.00     0.037 A 
ATOM     51  C   UNL A   1      41.172  28.625  31.205  1.00  0.00     0.049 A 
ATOM     52  C   UNL A   1      40.643  31.914  35.703  1.00  0.00     0.074 A 
ATOM     53  C   UNL A   1      42.213  27.711  31.223  1.00  0.00     0.029 A 
ATOM     54  N   UNL A   1      41.214  29.303  32.414  1.00  0.00    -0.354 N 
ATOM     55  N   UNL A   1      40.905  31.088  34.720  1.00  0.00    -0.248 NA
ATOM     56  C   UNL A   1      41.506  31.743  36.879  1.00  0.00     0.031 C 
ATOM     57  C   UNL A   1      42.860  27.809  32.459  1.00  0.00     0.029 A 
ATOM     58  C   UNL A   1      42.250  28.813  33.194  1.00  0.00     0.049 A 
ATOM     59  H   UNL A   1      40.599  30.024  32.679  1.00  0.00     0.167 HD
ATOM     60  C   UNL A   1      41.963  30.303  35.154  1.00  0.00     0.074 A 
ATOM     61  C   UNL A   1      42.313  30.768  36.481  1.00  0.00     0.031 C 
ATOM     62  C   UNL A   1      42.584  29.285  34.512  1.00  0.00     0.037 A 
BRANCH  49  63
ATOM     63  C   UNL A   1      40.304  28.028  28.919  1.00  0.00     0.064 A 
ATOM     64  C   UNL A   1      41.086  28.421  27.823  1.00  0.00     0.173 A 
ATOM     65  C   UNL A   1      39.659  26.784  28.855  1.00  0.00     0.173 A 
ATOM     66  F   UNL A   1      41.712  29.606  27.830  1.00  0.00    -0.203 F 
ATOM     67  C   UNL A   1      41.208  27.603  26.702  1.00  0.00     0.198 A 
ATOM     68  C   UNL A   1      39.803  25.958  27.743  1.00  0.00     0.198 A 
ATOM     69  F   UNL A   1      38.903  26.360  29.879  1.00  0.00    -0.203 F 
ATOM     70  F   UNL A   1      41.936  28.011  25.653  1.00  0.00    -0.200 F 
ATOM     71  C   UNL A   1      40.575  26.369  26.666  1.00  0.00     0.200 A 
ATOM     72  F   UNL A   1      39.200  24.762  27.715  1.00  0.00    -0.200 F 
ATOM     73  F   UNL A   1      40.705  25.578  25.593  1.00  0.00    -0.200 F 
ENDBRANCH  49  63
BRANCH  50  74
ATOM     74  C   UNL A   1      39.512  33.896  36.953  1.00  0.00     0.064 A 
ATOM     75  C   UNL A   1      40.136  35.149  36.935  1.00  0.00     0.173 A 
ATOM     76  C   UNL A   1      38.777  33.546  38.096  1.00  0.00     0.173 A 
ATOM     77  F   UNL A   1      40.867  35.518  35.873  1.00  0.00    -0.203 F 
ATOM     78  C   UNL A   1      40.030  36.020  38.018  1.00  0.00     0.198 A 
ATOM     79  C   UNL A   1      38.649  34.428  39.165  1.00  0.00     0.198 A 
ATOM     80  F   UNL A   1      38.157  32.358  38.159  1.00  0.00    -0.203 F 
ATOM     81  F   UNL A   1      40.660  37.202  37.987  1.00  0.00    -0.200 F 
ATOM     82  C   UNL A   1      39.278  35.663  39.127  1.00  0.00     0.200 A 
ATOM     83  F   UNL A   1      37.908  34.087  40.229  1.00  0.00    -0.200 F 
ATOM     84  F   UNL A   1      39.163  36.508  40.161  1.00  0.00    -0.200 F 
ENDBRANCH  50  74
BRANCH  62  85
ATOM     85  C   UNL A   1      43.709  28.600  35.228  1.00  0.00     0.064 A 
ATOM     86  C   UNL A   1      43.486  27.457  36.007  1.00  0.00     0.173 A 
ATOM     87  C   UNL A   1      45.029  29.048  35.074  1.00  0.00     0.173 A 
ATOM     88  F   UNL A   1      42.239  27.000  36.194  1.00  0.00    -0.203 F 
ATOM     89  C   UNL A   1      44.547  26.789  36.615  1.00  0.00     0.198 A 
ATOM     90  C   UNL A   1      46.089  28.365  35.663  1.00  0.00     0.198 A 
ATOM     91  F   UNL A   1      45.293  30.135  34.333  1.00  0.00    -0.203 F 
ATOM     92  F   UNL A   1      44.309  25.714  37.378  1.00  0.00    -0.200 F 
ATOM     93  C   UNL A   1      45.847  27.238  36.435  1.00  0.00     0.200 A 
ATOM     94  F   UNL A   1      47.346  28.791  35.478  1.00  0.00    -0.200 F 
ATOM     95  F   UNL A   1      46.867  26.584  37.008  1.00  0.00    -0.200 F 
ENDBRANCH  62  85
ENDBRANCH  36  37
ENDBRANCH  28  31
ENDBRANCH  26  27
ENDBRANCH   1  26
TORSDOF 12
ENDMDL
MODEL 3
REMARK VINA RESULT:     -13.5      5.545     11.241
REMARK SMILES Nc1nc2ccccc2nc1N1CCC(C(=O)NCCCNC(=O)c2ccc(-c3c4nc(c(-c5c(F)c(F)c(F)c(F)c5F)c5ccc([nH]5)c(-c5c(F)c(F)c(F)c(F)c5F)c5nc(c(-c6c(F)c(F)c(F)c(F)c6F)c6ccc3[nH]6)C=C5)C=C4)cc2)CC1
REMARK SMILES IDX 20 1 19 2 18 3 16 4 17 5 15 7 12 8 13 9 89 10 14 11 88 12
REMARK SMILES IDX 11 13 2 14 3 15 4 16 10 17 5 18 9 19 6 20 8 21 7 22 1 23
REMARK SMILES IDX 21 26 22 27 23 28 24 30 25 31 26 32 87 33 27 34 86 35 28 36
REMARK SMILES IDX 29 37 30 38 80 39 31 40 85 41 79 42 81 43 32 44 84 45 78 46
REMARK SMILES IDX 77 47 33 49 65 50 45 51 64 52 46 53 49 54 63 55 82 56 47 57
REMARK SMILES IDX 48 58 62 60 83 61 50 62 34 63 35 64 43 65 36 66 37 67 41 68
REMARK SMILES IDX 44 69 38 70 39 71 42 72 40 73 66 74 67 75 75 76 68 77 69 78
REMARK SMILES IDX 73 79 76 80 70 81 71 82 74 83 72 84 51 85 52 86 60 87 53 88
REMARK SMILES IDX 54 89 58 90 61 91 55 92 56 93 59 94 57 95
REMARK H PARENT 18 6 1 24 1 25 22 29 81 48 49 59
REMARK Flexibility Score: inf
ROOT
ATOM      1  C   UNL A   1      31.413  32.088  26.786  1.00  0.00     0.042 C 
ENDROOT
BRANCH   1   2
ATOM      2  C   UNL A   1      31.730  30.753  26.128  1.00  0.00     0.117 C 
BRANCH   2   3
ATOM      3  N   UNL A   1      33.066  30.271  26.458  1.00  0.00    -0.356 N 
ATOM      4  C   UNL A   1      33.677  29.079  26.221  1.00  0.00     0.223 C 
ATOM      5  O   UNL A   1      34.830  28.936  26.634  1.00  0.00    -0.275 OA
ATOM      6  H   UNL A   1      33.625  30.924  26.938  1.00  0.00     0.163 HD
BRANCH   4   7
ATOM      7  C   UNL A   1      32.982  27.951  25.471  1.00  0.00     0.082 C 
ATOM      8  N   UNL A   1      33.094  25.235  24.656  1.00  0.00    -0.353 N 
ATOM      9  C   UNL A   1      33.304  26.231  23.627  1.00  0.00     0.119 C 
ATOM     10  C   UNL A   1      32.160  25.536  25.726  1.00  0.00     0.119 C 
ATOM     11  C   UNL A   1      33.797  27.526  24.244  1.00  0.00     0.035 C 
ATOM     12  C   UNL A   1      32.565  26.826  26.432  1.00  0.00     0.035 C 
BRANCH   8  13
ATOM     13  C   UNL A   1      33.922  24.127  24.726  1.00  0.00     0.172 A 
ATOM     14  C   UNL A   1      33.462  22.844  24.326  1.00  0.00     0.167 A 
ATOM     15  N   UNL A   1      34.244  21.748  24.356  1.00  0.00    -0.226 NA
ATOM     16  C   UNL A   1      35.509  21.926  24.765  1.00  0.00     0.091 A 
ATOM     17  N   UNL A   1      35.206  24.298  25.123  1.00  0.00    -0.225 NA
ATOM     18  C   UNL A   1      36.362  20.829  24.795  1.00  0.00     0.031 A 
ATOM     19  C   UNL A   1      35.993  23.199  25.156  1.00  0.00     0.091 A 
ATOM     20  C   UNL A   1      37.685  20.949  25.217  1.00  0.00     0.002 A 
ATOM     21  C   UNL A   1      37.315  23.300  25.581  1.00  0.00     0.031 A 
ATOM     22  C   UNL A   1      38.162  22.189  25.617  1.00  0.00     0.002 A 
BRANCH  14  23
ATOM     23  N   UNL A   1      32.168  22.638  23.856  1.00  0.00    -0.381 N 
ATOM     24  H   UNL A   1      31.762  21.743  23.911  1.00  0.00     0.158 HD
ATOM     25  H   UNL A   1      31.660  23.387  23.469  1.00  0.00     0.158 HD
ENDBRANCH  14  23
ENDBRANCH   8  13
ENDBRANCH   4   7
ENDBRANCH   2   3
ENDBRANCH   1   2
BRANCH   1  26
ATOM     26  C   UNL A   1      32.634  32.823  27.314  1.00  0.00     0.118 C 
BRANCH  26  27
ATOM     27  N   UNL A   1      32.359  34.209  27.672  1.00  0.00    -0.352 N 
ATOM     28  C   UNL A   1      32.958  35.021  28.606  1.00  0.00     0.251 C 
ATOM     29  H   UNL A   1      31.628  34.631  27.165  1.00  0.00     0.163 HD
ATOM     30  O   UNL A   1      32.473  36.119  28.865  1.00  0.00    -0.269 OA
BRANCH  28  31
ATOM     31  C   UNL A   1      34.161  34.561  29.334  1.00  0.00     0.039 A 
ATOM     32  C   UNL A   1      35.434  34.729  28.792  1.00  0.00     0.014 A 
ATOM     33  C   UNL A   1      34.011  33.936  30.575  1.00  0.00     0.014 A 
ATOM     34  C   UNL A   1      36.521  34.091  29.376  1.00  0.00     0.010 A 
ATOM     35  C   UNL A   1      35.124  33.389  31.220  1.00  0.00     0.010 A 
ATOM     36  C   UNL A   1      36.381  33.407  30.595  1.00  0.00    -0.014 A 
BRANCH  36  37
ATOM     37  C   UNL A   1      37.559  32.711  31.176  1.00  0.00     0.031 A 
ATOM     38  C   UNL A   1      38.035  33.031  32.569  1.00  0.00     0.074 A 
ATOM     39  C   UNL A   1      38.154  31.726  30.474  1.00  0.00     0.049 A 
ATOM     40  N   UNL A   1      39.015  32.491  33.251  1.00  0.00    -0.248 NA
ATOM     41  C   UNL A   1      37.324  34.096  33.293  1.00  0.00     0.031 C 
ATOM     42  C   UNL A   1      37.776  31.315  29.120  1.00  0.00     0.029 A 
ATOM     43  N   UNL A   1      39.170  30.868  30.809  1.00  0.00    -0.354 N 
ATOM     44  C   UNL A   1      39.048  33.159  34.468  1.00  0.00     0.074 A 
ATOM     45  C   UNL A   1      38.012  34.168  34.424  1.00  0.00     0.031 C 
ATOM     46  C   UNL A   1      38.496  30.241  28.770  1.00  0.00     0.029 A 
ATOM     47  C   UNL A   1      39.434  29.928  29.844  1.00  0.00     0.049 A 
ATOM     48  H   UNL A   1      39.662  30.920  31.661  1.00  0.00     0.167 HD
ATOM     49  C   UNL A   1      39.858  32.939  35.532  1.00  0.00     0.037 A 
ATOM     50  C   UNL A   1      40.335  28.928  29.820  1.00  0.00     0.037 A 
ATOM     51  C   UNL A   1      40.866  31.914  35.587  1.00  0.00     0.049 A 
ATOM     52  C   UNL A   1      41.246  28.733  30.997  1.00  0.00     0.074 A 
ATOM     53  C   UNL A   1      41.720  31.602  36.631  1.00  0.00     0.029 A 
ATOM     54  N   UNL A   1      41.150  31.028  34.559  1.00  0.00    -0.354 N 
ATOM     55  N   UNL A   1      41.266  29.375  32.139  1.00  0.00    -0.248 NA
ATOM     56  C   UNL A   1      42.270  27.686  30.876  1.00  0.00     0.031 C 
ATOM     57  C   UNL A   1      42.549  30.553  36.220  1.00  0.00     0.029 A 
ATOM     58  C   UNL A   1      42.182  30.183  34.936  1.00  0.00     0.049 A 
ATOM     59  H   UNL A   1      40.688  31.003  33.690  1.00  0.00     0.167 HD
ATOM     60  C   UNL A   1      42.297  28.809  32.876  1.00  0.00     0.074 A 
ATOM     61  C   UNL A   1      42.865  27.755  32.060  1.00  0.00     0.031 C 
ATOM     62  C   UNL A   1      42.736  29.140  34.113  1.00  0.00     0.037 A 
BRANCH  49  63
ATOM     63  C   UNL A   1      39.694  33.823  36.733  1.00  0.00     0.064 A 
ATOM     64  C   UNL A   1      40.290  35.091  36.798  1.00  0.00     0.173 A 
ATOM     65  C   UNL A   1      38.872  33.428  37.800  1.00  0.00     0.173 A 
ATOM     66  F   UNL A   1      41.094  35.511  35.811  1.00  0.00    -0.203 F 
ATOM     67  C   UNL A   1      40.081  35.925  37.894  1.00  0.00     0.198 A 
ATOM     68  C   UNL A   1      38.645  34.274  38.882  1.00  0.00     0.198 A 
ATOM     69  F   UNL A   1      38.274  32.227  37.784  1.00  0.00    -0.203 F 
ATOM     70  F   UNL A   1      40.685  37.120  37.950  1.00  0.00    -0.200 F 
ATOM     71  C   UNL A   1      39.251  35.521  38.930  1.00  0.00     0.200 A 
ATOM     72  F   UNL A   1      37.835  33.886  39.877  1.00  0.00    -0.200 F 
ATOM     73  F   UNL A   1      39.040  36.330  39.977  1.00  0.00    -0.200 F 
ENDBRANCH  49  63
BRANCH  50  74
ATOM     74  C   UNL A   1      40.403  28.032  28.637  1.00  0.00     0.064 A 
ATOM     75  C   UNL A   1      41.131  28.399  27.498  1.00  0.00     0.173 A 
ATOM     76  C   UNL A   1      39.774  26.778  28.636  1.00  0.00     0.173 A 
ATOM     77  F   UNL A   1      41.732  29.597  27.446  1.00  0.00    -0.203 F 
ATOM     78  C   UNL A   1      41.226  27.545  26.401  1.00  0.00     0.198 A 
ATOM     79  C   UNL A   1      39.893  25.915  27.551  1.00  0.00     0.198 A 
ATOM     80  F   UNL A   1      39.068  26.379  29.705  1.00  0.00    -0.203 F 
ATOM     81  F   UNL A   1      41.906  27.931  25.313  1.00  0.00    -0.200 F 
ATOM     82  C   UNL A   1      40.616  26.300  26.432  1.00  0.00     0.200 A 
ATOM     83  F   UNL A   1      39.316  24.706  27.591  1.00  0.00    -0.200 F 
ATOM     84  F   UNL A   1      40.723  25.473  25.383  1.00  0.00    -0.200 F 
ENDBRANCH  50  74
BRANCH  62  85
ATOM     85  C   UNL A   1      43.886  28.355  34.671  1.00  0.00     0.064 A 
ATOM     86  C   UNL A   1      45.206  28.805  34.536  1.00  0.00     0.173 A 
ATOM     87  C   UNL A   1      43.658  27.185  35.409  1.00  0.00     0.173 A 
ATOM     88  F   UNL A   1      45.474  29.912  33.826  1.00  0.00    -0.203 F 
ATOM     89  C   UNL A   1      46.262  28.104  35.113  1.00  0.00     0.198 A 
ATOM     90  C   UNL A   1      44.713  26.500  36.005  1.00  0.00     0.198 A 
ATOM     91  F   UNL A   1      42.411  26.719  35.571  1.00  0.00    -0.203 F 
ATOM     92  F   UNL A   1      47.519  28.536  34.949  1.00  0.00    -0.200 F 
ATOM     93  C   UNL A   1      46.014  26.959  35.855  1.00  0.00     0.200 A 
ATOM     94  F   UNL A   1      44.471  25.401  36.733  1.00  0.00    -0.200 F 
ATOM     95  F   UNL A   1      47.030  26.295  36.423  1.00  0.00    -0.200 F 
ENDBRANCH  62  85
ENDBRANCH  36  37
ENDBRANCH  28  31
ENDBRANCH  26  27
ENDBRANCH   1  26
TORSDOF 12
ENDMDL
