MODEL 1
REMARK VINA RESULT:     -11.2      0.000      0.000
REMARK SMILES C=CCOc1ccccc1C(=O)N[C@H](C(=O)NCCCNC(=O)c1ccc(-c2c3nc(c(-c4c(F)c(F)c(F)c(F)c4F)c4ccc([nH]4)c(-c4c(F)c(F)c(F)c(F)c4F)c4nc(c(-c5c(F)c(F)c(F)c(F)c5F)c5ccc2[nH]5)C=C4)C=C3)cc1)[C@@H](C)O
REMARK SMILES IDX 15 1 16 2 17 3 14 5 13 6 11 7 12 8 10 10 5 11 6 12 7 13 9 14
REMARK SMILES IDX 8 15 4 16 3 17 2 18 1 19 87 20 88 21 89 22 18 24 19 25 20 26
REMARK SMILES IDX 21 27 22 28 23 30 24 31 25 32 86 33 26 34 85 35 27 36 28 37
REMARK SMILES IDX 29 38 79 39 30 40 84 41 78 42 80 43 31 44 83 45 77 46 76 47
REMARK SMILES IDX 32 49 64 50 44 51 63 52 45 53 48 54 62 55 81 56 46 57 47 58
REMARK SMILES IDX 61 60 82 61 49 62 33 63 34 64 42 65 35 66 36 67 40 68 43 69
REMARK SMILES IDX 37 70 38 71 41 72 39 73 65 74 66 75 74 76 67 77 68 78 72 79
REMARK SMILES IDX 75 80 69 81 70 82 73 83 71 84 50 85 51 86 59 87 52 88 53 89
REMARK SMILES IDX 57 90 60 91 54 92 55 93 58 94 56 95
REMARK H PARENT 17 4 13 9 89 23 21 29 80 48 48 59
REMARK Flexibility Score: inf
ROOT
ATOM      1  C   UNL A   1      34.261  21.257  26.230  1.00  0.00     0.245 C 
ATOM      2  O   UNL A   1      34.051  21.919  27.245  1.00  0.00    -0.273 OA
ATOM      3  N   UNL A   1      35.504  20.705  26.065  1.00  0.00    -0.354 N 
ATOM      4  H   UNL A   1      35.970  20.396  26.875  1.00  0.00     0.163 HD
ENDROOT
BRANCH   1   5
ATOM      5  C   UNL A   1      33.174  20.864  25.222  1.00  0.00     0.200 C 
BRANCH   5   6
ATOM      6  N   UNL A   1      33.475  21.541  23.927  1.00  0.00    -0.338 N 
ATOM      7  C   UNL A   1      33.122  22.759  23.384  1.00  0.00     0.255 C 
ATOM      8  O   UNL A   1      33.158  22.879  22.159  1.00  0.00    -0.269 OA
ATOM      9  H   UNL A   1      34.048  21.003  23.333  1.00  0.00     0.164 HD
BRANCH   7  10
ATOM     10  C   UNL A   1      32.649  23.884  24.199  1.00  0.00     0.081 A 
ATOM     11  C   UNL A   1      33.438  24.635  25.055  1.00  0.00     0.132 A 
ATOM     12  C   UNL A   1      32.786  25.272  26.126  1.00  0.00     0.047 A 
ATOM     13  C   UNL A   1      31.395  25.384  26.175  1.00  0.00     0.004 A 
ATOM     14  C   UNL A   1      31.266  24.148  24.131  1.00  0.00     0.018 A 
ATOM     15  C   UNL A   1      30.641  24.922  25.107  1.00  0.00     0.001 A 
BRANCH  11  16
ATOM     16  O   UNL A   1      34.764  24.938  24.995  1.00  0.00    -0.489 OA
BRANCH  16  17
ATOM     17  C   UNL A   1      35.902  24.079  24.954  1.00  0.00     0.257 C 
BRANCH  17  18
ATOM     18  C   UNL A   1      36.824  23.978  26.125  1.00  0.00     0.006 C 
ATOM     19  C   UNL A   1      38.146  23.793  26.069  1.00  0.00     0.007 C 
ENDBRANCH  17  18
ENDBRANCH  16  17
ENDBRANCH  11  16
ENDBRANCH   7  10
ENDBRANCH   5   6
BRANCH   5  20
ATOM     20  C   UNL A   1      32.601  19.429  25.174  1.00  0.00     0.143 C 
ATOM     21  C   UNL A   1      32.977  18.432  24.096  1.00  0.00     0.041 C 
BRANCH  20  22
ATOM     22  O   UNL A   1      32.903  18.762  26.419  1.00  0.00    -0.391 OA
ATOM     23  H   UNL A   1      33.560  19.278  26.912  1.00  0.00     0.211 HD
ENDBRANCH  20  22
ENDBRANCH   5  20
ENDBRANCH   1   5
BRANCH   3  24
ATOM     24  C   UNL A   1      36.194  20.537  24.800  1.00  0.00     0.117 C 
BRANCH  24  25
ATOM     25  C   UNL A   1      37.353  19.571  25.003  1.00  0.00     0.042 C 
BRANCH  25  26
ATOM     26  C   UNL A   1      38.642  20.269  25.373  1.00  0.00     0.118 C 
BRANCH  26  27
ATOM     27  N   UNL A   1      39.643  19.317  25.799  1.00  0.00    -0.352 N 
ATOM     28  C   UNL A   1      40.957  19.546  26.120  1.00  0.00     0.251 C 
ATOM     29  H   UNL A   1      39.342  18.381  25.869  1.00  0.00     0.163 HD
ATOM     30  O   UNL A   1      41.752  18.616  26.125  1.00  0.00    -0.269 OA
BRANCH  28  31
ATOM     31  C   UNL A   1      41.410  20.919  26.441  1.00  0.00     0.039 A 
ATOM     32  C   UNL A   1      41.298  21.377  27.755  1.00  0.00     0.014 A 
ATOM     33  C   UNL A   1      41.909  21.769  25.450  1.00  0.00     0.014 A 
ATOM     34  C   UNL A   1      41.707  22.674  28.070  1.00  0.00     0.010 A 
ATOM     35  C   UNL A   1      42.447  23.002  25.792  1.00  0.00     0.010 A 
ATOM     36  C   UNL A   1      42.304  23.490  27.095  1.00  0.00    -0.014 A 
BRANCH  36  37
ATOM     37  C   UNL A   1      42.711  24.885  27.396  1.00  0.00     0.031 A 
ATOM     38  C   UNL A   1      44.117  25.335  27.096  1.00  0.00     0.074 A 
ATOM     39  C   UNL A   1      41.835  25.729  27.972  1.00  0.00     0.049 A 
ATOM     40  N   UNL A   1      44.682  26.496  27.318  1.00  0.00    -0.248 NA
ATOM     41  C   UNL A   1      45.022  24.338  26.500  1.00  0.00     0.031 C 
ATOM     42  C   UNL A   1      40.466  25.390  28.362  1.00  0.00     0.029 A 
ATOM     43  N   UNL A   1      41.968  27.046  28.331  1.00  0.00    -0.354 N 
ATOM     44  C   UNL A   1      46.003  26.355  26.912  1.00  0.00     0.074 A 
ATOM     45  C   UNL A   1      46.179  24.980  26.505  1.00  0.00     0.031 C 
ATOM     46  C   UNL A   1      39.873  26.481  28.871  1.00  0.00     0.029 A 
ATOM     47  C   UNL A   1      40.832  27.582  28.883  1.00  0.00     0.049 A 
ATOM     48  H   UNL A   1      42.800  27.558  28.205  1.00  0.00     0.167 HD
ATOM     49  C   UNL A   1      46.975  27.296  26.847  1.00  0.00     0.037 A 
ATOM     50  C   UNL A   1      40.594  28.822  29.350  1.00  0.00     0.037 A 
ATOM     51  C   UNL A   1      46.782  28.670  27.226  1.00  0.00     0.049 A 
ATOM     52  C   UNL A   1      41.686  29.853  29.270  1.00  0.00     0.074 A 
ATOM     53  C   UNL A   1      47.675  29.722  27.141  1.00  0.00     0.029 A 
ATOM     54  N   UNL A   1      45.612  29.179  27.768  1.00  0.00    -0.354 N 
ATOM     55  N   UNL A   1      42.908  29.731  28.810  1.00  0.00    -0.248 NA
ATOM     56  C   UNL A   1      41.363  31.197  29.766  1.00  0.00     0.031 C 
ATOM     57  C   UNL A   1      47.066  30.855  27.689  1.00  0.00     0.029 A 
ATOM     58  C   UNL A   1      45.769  30.526  28.054  1.00  0.00     0.049 A 
ATOM     59  H   UNL A   1      44.789  28.661  27.929  1.00  0.00     0.167 HD
ATOM     60  C   UNL A   1      43.493  30.983  28.937  1.00  0.00     0.074 A 
ATOM     61  C   UNL A   1      42.482  31.856  29.501  1.00  0.00     0.031 C 
ATOM     62  C   UNL A   1      44.750  31.378  28.617  1.00  0.00     0.037 A 
BRANCH  49  63
ATOM     63  C   UNL A   1      48.327  26.863  26.351  1.00  0.00     0.064 A 
ATOM     64  C   UNL A   1      48.720  27.040  25.014  1.00  0.00     0.173 A 
ATOM     65  C   UNL A   1      49.246  26.262  27.226  1.00  0.00     0.173 A 
ATOM     66  F   UNL A   1      47.878  27.597  24.131  1.00  0.00    -0.203 F 
ATOM     67  C   UNL A   1      49.959  26.590  24.562  1.00  0.00     0.198 A 
ATOM     68  C   UNL A   1      50.499  25.849  26.779  1.00  0.00     0.198 A 
ATOM     69  F   UNL A   1      48.930  26.073  28.515  1.00  0.00    -0.203 F 
ATOM     70  F   UNL A   1      50.279  26.705  23.266  1.00  0.00    -0.200 F 
ATOM     71  C   UNL A   1      50.849  26.001  25.446  1.00  0.00     0.200 A 
ATOM     72  F   UNL A   1      51.365  25.294  27.638  1.00  0.00    -0.200 F 
ATOM     73  F   UNL A   1      52.041  25.570  25.011  1.00  0.00    -0.200 F 
ENDBRANCH  49  63
BRANCH  50  74
ATOM     74  C   UNL A   1      39.255  29.156  29.902  1.00  0.00     0.064 A 
ATOM     75  C   UNL A   1      38.957  28.947  31.256  1.00  0.00     0.173 A 
ATOM     76  C   UNL A   1      38.254  29.715  29.093  1.00  0.00     0.173 A 
ATOM     77  F   UNL A   1      39.875  28.400  32.066  1.00  0.00    -0.203 F 
ATOM     78  C   UNL A   1      37.705  29.269  31.776  1.00  0.00     0.198 A 
ATOM     79  C   UNL A   1      37.013  30.065  29.621  1.00  0.00     0.198 A 
ATOM     80  F   UNL A   1      38.490  29.944  27.793  1.00  0.00    -0.203 F 
ATOM     81  F   UNL A   1      37.435  29.023  33.064  1.00  0.00    -0.200 F 
ATOM     82  C   UNL A   1      36.737  29.836  30.960  1.00  0.00     0.200 A 
ATOM     83  F   UNL A   1      36.087  30.630  28.834  1.00  0.00    -0.200 F 
ATOM     84  F   UNL A   1      35.538  30.157  31.464  1.00  0.00    -0.200 F 
ENDBRANCH  50  74
BRANCH  62  85
ATOM     85  C   UNL A   1      45.097  32.822  28.838  1.00  0.00     0.064 A 
ATOM     86  C   UNL A   1      45.705  33.261  30.023  1.00  0.00     0.173 A 
ATOM     87  C   UNL A   1      44.857  33.770  27.832  1.00  0.00     0.173 A 
ATOM     88  F   UNL A   1      45.944  32.398  31.022  1.00  0.00    -0.203 F 
ATOM     89  C   UNL A   1      46.033  34.603  30.203  1.00  0.00     0.198 A 
ATOM     90  C   UNL A   1      45.219  35.103  28.001  1.00  0.00     0.198 A 
ATOM     91  F   UNL A   1      44.285  33.400  26.676  1.00  0.00    -0.203 F 
ATOM     92  F   UNL A   1      46.565  35.010  31.364  1.00  0.00    -0.200 F 
ATOM     93  C   UNL A   1      45.798  35.520  29.190  1.00  0.00     0.200 A 
ATOM     94  F   UNL A   1      45.007  35.984  27.015  1.00  0.00    -0.200 F 
ATOM     95  F   UNL A   1      46.124  36.809  29.362  1.00  0.00    -0.200 F 
ENDBRANCH  62  85
ENDBRANCH  36  37
ENDBRANCH  28  31
ENDBRANCH  26  27
ENDBRANCH  25  26
ENDBRANCH  24  25
ENDBRANCH   3  24
TORSDOF 17
ENDMDL
MODEL 2
REMARK VINA RESULT:     -11.2      4.677      9.901
REMARK SMILES C=CCOc1ccccc1C(=O)N[C@H](C(=O)NCCCNC(=O)c1ccc(-c2c3nc(c(-c4c(F)c(F)c(F)c(F)c4F)c4ccc([nH]4)c(-c4c(F)c(F)c(F)c(F)c4F)c4nc(c(-c5c(F)c(F)c(F)c(F)c5F)c5ccc2[nH]5)C=C4)C=C3)cc1)[C@@H](C)O
REMARK SMILES IDX 15 1 16 2 17 3 14 5 13 6 11 7 12 8 10 10 5 11 6 12 7 13 9 14
REMARK SMILES IDX 8 15 4 16 3 17 2 18 1 19 87 20 88 21 89 22 18 24 19 25 20 26
REMARK SMILES IDX 21 27 22 28 23 30 24 31 25 32 86 33 26 34 85 35 27 36 28 37
REMARK SMILES IDX 29 38 79 39 30 40 84 41 78 42 80 43 31 44 83 45 77 46 76 47
REMARK SMILES IDX 32 49 64 50 44 51 63 52 45 53 48 54 62 55 81 56 46 57 47 58
REMARK SMILES IDX 61 60 82 61 49 62 33 63 34 64 42 65 35 66 36 67 40 68 43 69
REMARK SMILES IDX 37 70 38 71 41 72 39 73 65 74 66 75 74 76 67 77 68 78 72 79
REMARK SMILES IDX 75 80 69 81 70 82 73 83 71 84 50 85 51 86 59 87 52 88 53 89
REMARK SMILES IDX 57 90 60 91 54 92 55 93 58 94 56 95
REMARK H PARENT 17 4 13 9 89 23 21 29 80 48 48 59
REMARK Flexibility Score: inf
ROOT
ATOM      1  C   UNL A   1      30.456  26.792  24.059  1.00  0.00     0.245 C 
ATOM      2  O   UNL A   1      29.630  25.911  23.825  1.00  0.00    -0.273 OA
ATOM      3  N   UNL A   1      30.948  26.893  25.334  1.00  0.00    -0.354 N 
ATOM      4  H   UNL A   1      31.070  26.055  25.836  1.00  0.00     0.163 HD
ENDROOT
BRANCH   1   5
ATOM      5  C   UNL A   1      31.099  27.673  22.981  1.00  0.00     0.200 C 
BRANCH   5   6
ATOM      6  N   UNL A   1      31.643  26.782  21.915  1.00  0.00    -0.338 N 
ATOM      7  C   UNL A   1      32.593  25.783  21.902  1.00  0.00     0.255 C 
ATOM      8  O   UNL A   1      33.134  25.512  20.830  1.00  0.00    -0.269 OA
ATOM      9  H   UNL A   1      31.236  26.942  21.032  1.00  0.00     0.164 HD
BRANCH   7  10
ATOM     10  C   UNL A   1      33.024  25.082  23.117  1.00  0.00     0.081 A 
ATOM     11  C   UNL A   1      32.425  23.945  23.636  1.00  0.00     0.132 A 
ATOM     12  C   UNL A   1      32.574  23.722  25.016  1.00  0.00     0.047 A 
ATOM     13  C   UNL A   1      33.500  24.438  25.779  1.00  0.00     0.004 A 
ATOM     14  C   UNL A   1      34.090  25.679  23.821  1.00  0.00     0.018 A 
ATOM     15  C   UNL A   1      34.345  25.338  25.147  1.00  0.00     0.001 A 
BRANCH  11  16
ATOM     16  O   UNL A   1      31.764  22.933  23.011  1.00  0.00    -0.489 OA
BRANCH  16  17
ATOM     17  C   UNL A   1      32.223  21.640  22.620  1.00  0.00     0.257 C 
BRANCH  17  18
ATOM     18  C   UNL A   1      32.336  20.535  23.619  1.00  0.00     0.006 C 
ATOM     19  C   UNL A   1      33.424  20.229  24.330  1.00  0.00     0.007 C 
ENDBRANCH  17  18
ENDBRANCH  16  17
ENDBRANCH  11  16
ENDBRANCH   7  10
ENDBRANCH   5   6
BRANCH   5  20
ATOM     20  C   UNL A   1      30.459  29.013  22.549  1.00  0.00     0.143 C 
ATOM     21  C   UNL A   1      29.843  29.983  23.536  1.00  0.00     0.041 C 
BRANCH  20  22
ATOM     22  O   UNL A   1      31.440  29.789  21.827  1.00  0.00    -0.391 OA
ATOM     23  H   UNL A   1      32.208  29.233  21.626  1.00  0.00     0.211 HD
ENDBRANCH  20  22
ENDBRANCH   5  20
ENDBRANCH   1   5
BRANCH   3  24
ATOM     24  C   UNL A   1      31.305  28.127  26.007  1.00  0.00     0.117 C 
BRANCH  24  25
ATOM     25  C   UNL A   1      32.766  28.045  26.430  1.00  0.00     0.042 C 
BRANCH  25  26
ATOM     26  C   UNL A   1      33.642  29.051  25.719  1.00  0.00     0.118 C 
BRANCH  26  27
ATOM     27  N   UNL A   1      33.243  30.403  26.042  1.00  0.00    -0.352 N 
ATOM     28  C   UNL A   1      33.645  31.181  27.098  1.00  0.00     0.251 C 
ATOM     29  H   UNL A   1      32.601  30.820  25.423  1.00  0.00     0.163 HD
ATOM     30  O   UNL A   1      32.975  32.151  27.427  1.00  0.00    -0.269 OA
BRANCH  28  31
ATOM     31  C   UNL A   1      34.876  30.834  27.845  1.00  0.00     0.039 A 
ATOM     32  C   UNL A   1      35.935  31.744  27.863  1.00  0.00     0.014 A 
ATOM     33  C   UNL A   1      35.007  29.604  28.496  1.00  0.00     0.014 A 
ATOM     34  C   UNL A   1      37.107  31.424  28.550  1.00  0.00     0.010 A 
ATOM     35  C   UNL A   1      36.112  29.351  29.297  1.00  0.00     0.010 A 
ATOM     36  C   UNL A   1      37.197  30.233  29.290  1.00  0.00    -0.014 A 
BRANCH  36  37
ATOM     37  C   UNL A   1      38.446  29.853  29.996  1.00  0.00     0.031 A 
ATOM     38  C   UNL A   1      38.725  30.405  31.370  1.00  0.00     0.074 A 
ATOM     39  C   UNL A   1      39.341  29.052  29.391  1.00  0.00     0.049 A 
ATOM     40  N   UNL A   1      39.771  30.229  32.138  1.00  0.00    -0.248 NA
ATOM     41  C   UNL A   1      37.710  31.304  31.945  1.00  0.00     0.031 C 
ATOM     42  C   UNL A   1      39.209  28.505  28.040  1.00  0.00     0.029 A 
ATOM     43  N   UNL A   1      40.542  28.560  29.833  1.00  0.00    -0.354 N 
ATOM     44  C   UNL A   1      39.546  31.009  33.265  1.00  0.00     0.074 A 
ATOM     45  C   UNL A   1      38.307  31.721  33.050  1.00  0.00     0.031 C 
ATOM     46  C   UNL A   1      40.267  27.722  27.779  1.00  0.00     0.029 A 
ATOM     47  C   UNL A   1      41.171  27.747  28.924  1.00  0.00     0.049 A 
ATOM     48  H   UNL A   1      40.918  28.771  30.719  1.00  0.00     0.167 HD
ATOM     49  C   UNL A   1      40.285  31.098  34.397  1.00  0.00     0.037 A 
ATOM     50  C   UNL A   1      42.348  27.099  29.006  1.00  0.00     0.037 A 
ATOM     51  C   UNL A   1      41.502  30.363  34.615  1.00  0.00     0.049 A 
ATOM     52  C   UNL A   1      43.155  27.211  30.270  1.00  0.00     0.074 A 
ATOM     53  C   UNL A   1      42.297  30.326  35.745  1.00  0.00     0.029 A 
ATOM     54  N   UNL A   1      42.102  29.538  33.675  1.00  0.00    -0.354 N 
ATOM     55  N   UNL A   1      42.895  27.889  31.362  1.00  0.00    -0.248 NA
ATOM     56  C   UNL A   1      44.417  26.459  30.317  1.00  0.00     0.031 C 
ATOM     57  C   UNL A   1      43.410  29.526  35.468  1.00  0.00     0.029 A 
ATOM     58  C   UNL A   1      43.275  29.010  34.188  1.00  0.00     0.049 A 
ATOM     59  H   UNL A   1      41.746  29.354  32.774  1.00  0.00     0.167 HD
ATOM     60  C   UNL A   1      43.943  27.628  32.234  1.00  0.00     0.074 A 
ATOM     61  C   UNL A   1      44.834  26.714  31.549  1.00  0.00     0.031 C 
ATOM     62  C   UNL A   1      44.150  28.102  33.488  1.00  0.00     0.037 A 
BRANCH  49  63
ATOM     63  C   UNL A   1      39.794  32.025  35.474  1.00  0.00     0.064 A 
ATOM     64  C   UNL A   1      38.839  31.621  36.422  1.00  0.00     0.173 A 
ATOM     65  C   UNL A   1      40.286  33.336  35.564  1.00  0.00     0.173 A 
ATOM     66  F   UNL A   1      38.324  30.383  36.377  1.00  0.00    -0.203 F 
ATOM     67  C   UNL A   1      38.361  32.508  37.385  1.00  0.00     0.198 A 
ATOM     68  C   UNL A   1      39.836  34.208  36.553  1.00  0.00     0.198 A 
ATOM     69  F   UNL A   1      41.205  33.776  34.691  1.00  0.00    -0.203 F 
ATOM     70  F   UNL A   1      37.395  32.120  38.230  1.00  0.00    -0.200 F 
ATOM     71  C   UNL A   1      38.864  33.798  37.453  1.00  0.00     0.200 A 
ATOM     72  F   UNL A   1      40.334  35.449  36.627  1.00  0.00    -0.200 F 
ATOM     73  F   UNL A   1      38.404  34.649  38.380  1.00  0.00    -0.200 F 
ENDBRANCH  49  63
BRANCH  50  74
ATOM     74  C   UNL A   1      42.809  26.264  27.865  1.00  0.00     0.064 A 
ATOM     75  C   UNL A   1      43.642  26.795  26.871  1.00  0.00     0.173 A 
ATOM     76  C   UNL A   1      42.448  24.912  27.762  1.00  0.00     0.173 A 
ATOM     77  F   UNL A   1      44.002  28.086  26.917  1.00  0.00    -0.203 F 
ATOM     78  C   UNL A   1      44.083  26.010  25.807  1.00  0.00     0.198 A 
ATOM     79  C   UNL A   1      42.915  24.121  26.714  1.00  0.00     0.198 A 
ATOM     80  F   UNL A   1      41.661  24.354  28.692  1.00  0.00    -0.203 F 
ATOM     81  F   UNL A   1      44.846  26.553  24.849  1.00  0.00    -0.200 F 
ATOM     82  C   UNL A   1      43.726  24.671  25.734  1.00  0.00     0.200 A 
ATOM     83  F   UNL A   1      42.583  22.824  26.658  1.00  0.00    -0.200 F 
ATOM     84  F   UNL A   1      44.161  23.915  24.718  1.00  0.00    -0.200 F 
ENDBRANCH  50  74
BRANCH  62  85
ATOM     85  C   UNL A   1      45.372  27.616  34.215  1.00  0.00     0.064 A 
ATOM     86  C   UNL A   1      45.355  26.445  34.986  1.00  0.00     0.173 A 
ATOM     87  C   UNL A   1      46.586  28.310  34.100  1.00  0.00     0.173 A 
ATOM     88  F   UNL A   1      44.217  25.752  35.138  1.00  0.00    -0.203 F 
ATOM     89  C   UNL A   1      46.503  26.003  35.638  1.00  0.00     0.198 A 
ATOM     90  C   UNL A   1      47.740  27.845  34.724  1.00  0.00     0.198 A 
ATOM     91  F   UNL A   1      46.658  29.432  33.367  1.00  0.00    -0.203 F 
ATOM     92  F   UNL A   1      46.451  24.910  36.413  1.00  0.00    -0.200 F 
ATOM     93  C   UNL A   1      47.695  26.698  35.501  1.00  0.00     0.200 A 
ATOM     94  F   UNL A   1      48.894  28.509  34.576  1.00  0.00    -0.200 F 
ATOM     95  F   UNL A   1      48.800  26.264  36.122  1.00  0.00    -0.200 F 
ENDBRANCH  62  85
ENDBRANCH  36  37
ENDBRANCH  28  31
ENDBRANCH  26  27
ENDBRANCH  25  26
ENDBRANCH  24  25
ENDBRANCH   3  24
TORSDOF 17
ENDMDL
MODEL 3
REMARK VINA RESULT:     -11.2      5.370     10.683
REMARK SMILES C=CCOc1ccccc1C(=O)N[C@H](C(=O)NCCCNC(=O)c1ccc(-c2c3nc(c(-c4c(F)c(F)c(F)c(F)c4F)c4ccc([nH]4)c(-c4c(F)c(F)c(F)c(F)c4F)c4nc(c(-c5c(F)c(F)c(F)c(F)c5F)c5ccc2[nH]5)C=C4)C=C3)cc1)[C@@H](C)O
REMARK SMILES IDX 15 1 16 2 17 3 14 5 13 6 11 7 12 8 10 10 5 11 6 12 7 13 9 14
REMARK SMILES IDX 8 15 4 16 3 17 2 18 1 19 87 20 88 21 89 22 18 24 19 25 20 26
REMARK SMILES IDX 21 27 22 28 23 30 24 31 25 32 86 33 26 34 85 35 27 36 28 37
REMARK SMILES IDX 29 38 79 39 30 40 84 41 78 42 80 43 31 44 83 45 77 46 76 47
REMARK SMILES IDX 32 49 64 50 44 51 63 52 45 53 48 54 62 55 81 56 46 57 47 58
REMARK SMILES IDX 61 60 82 61 49 62 33 63 34 64 42 65 35 66 36 67 40 68 43 69
REMARK SMILES IDX 37 70 38 71 41 72 39 73 65 74 66 75 74 76 67 77 68 78 72 79
REMARK SMILES IDX 75 80 69 81 70 82 73 83 71 84 50 85 51 86 59 87 52 88 53 89
REMARK SMILES IDX 57 90 60 91 54 92 55 93 58 94 56 95
REMARK H PARENT 17 4 13 9 89 23 21 29 80 48 48 59
REMARK Flexibility Score: inf
ROOT
ATOM      1  C   UNL A   1      31.716  28.477  26.637  1.00  0.00     0.245 C 
ATOM      2  O   UNL A   1      31.444  27.768  27.605  1.00  0.00    -0.273 OA
ATOM      3  N   UNL A   1      31.741  29.835  26.818  1.00  0.00    -0.354 N 
ATOM      4  H   UNL A   1      32.063  30.166  27.687  1.00  0.00     0.163 HD
ENDROOT
BRANCH   1   5
ATOM      5  C   UNL A   1      32.194  27.935  25.285  1.00  0.00     0.200 C 
BRANCH   5   6
ATOM      6  N   UNL A   1      31.076  28.073  24.306  1.00  0.00    -0.338 N 
ATOM      7  C   UNL A   1      30.757  27.430  23.128  1.00  0.00     0.255 C 
ATOM      8  O   UNL A   1      30.028  28.017  22.328  1.00  0.00    -0.269 OA
ATOM      9  H   UNL A   1      30.427  28.770  24.556  1.00  0.00     0.164 HD
BRANCH   7  10
ATOM     10  C   UNL A   1      31.300  26.115  22.769  1.00  0.00     0.081 A 
ATOM     11  C   UNL A   1      31.286  24.997  23.587  1.00  0.00     0.132 A 
ATOM     12  C   UNL A   1      32.277  24.027  23.354  1.00  0.00     0.047 A 
ATOM     13  C   UNL A   1      33.057  24.038  22.195  1.00  0.00     0.004 A 
ATOM     14  C   UNL A   1      31.938  26.040  21.513  1.00  0.00     0.018 A 
ATOM     15  C   UNL A   1      32.799  24.986  21.216  1.00  0.00     0.001 A 
BRANCH  11  16
ATOM     16  O   UNL A   1      30.406  24.623  24.555  1.00  0.00    -0.489 OA
BRANCH  16  17
ATOM     17  C   UNL A   1      30.601  24.453  25.958  1.00  0.00     0.257 C 
BRANCH  17  18
ATOM     18  C   UNL A   1      30.449  23.109  26.592  1.00  0.00     0.006 C 
ATOM     19  C   UNL A   1      29.399  22.692  27.305  1.00  0.00     0.007 C 
ENDBRANCH  17  18
ENDBRANCH  16  17
ENDBRANCH  11  16
ENDBRANCH   7  10
ENDBRANCH   5   6
BRANCH   5  20
ATOM     20  C   UNL A   1      33.633  28.187  24.780  1.00  0.00     0.143 C 
ATOM     21  C   UNL A   1      33.935  28.709  23.390  1.00  0.00     0.041 C 
BRANCH  20  22
ATOM     22  O   UNL A   1      34.288  29.113  25.675  1.00  0.00    -0.391 OA
ATOM     23  H   UNL A   1      35.248  28.983  25.630  1.00  0.00     0.211 HD
ENDBRANCH  20  22
ENDBRANCH   5  20
ENDBRANCH   1   5
BRANCH   3  24
ATOM     24  C   UNL A   1      31.336  30.826  25.839  1.00  0.00     0.117 C 
BRANCH  24  25
ATOM     25  C   UNL A   1      31.302  32.190  26.515  1.00  0.00     0.042 C 
BRANCH  25  26
ATOM     26  C   UNL A   1      32.591  32.523  27.233  1.00  0.00     0.118 C 
BRANCH  26  27
ATOM     27  N   UNL A   1      32.635  33.921  27.597  1.00  0.00    -0.352 N 
ATOM     28  C   UNL A   1      33.366  34.522  28.590  1.00  0.00     0.251 C 
ATOM     29  H   UNL A   1      32.066  34.522  27.061  1.00  0.00     0.163 HD
ATOM     30  O   UNL A   1      33.043  35.630  28.996  1.00  0.00    -0.269 OA
BRANCH  28  31
ATOM     31  C   UNL A   1      34.529  33.819  29.178  1.00  0.00     0.039 A 
ATOM     32  C   UNL A   1      34.305  32.730  30.023  1.00  0.00     0.014 A 
ATOM     33  C   UNL A   1      35.836  34.247  28.932  1.00  0.00     0.014 A 
ATOM     34  C   UNL A   1      35.391  32.067  30.596  1.00  0.00     0.010 A 
ATOM     35  C   UNL A   1      36.915  33.500  29.385  1.00  0.00     0.010 A 
ATOM     36  C   UNL A   1      36.706  32.434  30.266  1.00  0.00    -0.014 A 
BRANCH  36  37
ATOM     37  C   UNL A   1      37.876  31.770  30.892  1.00  0.00     0.031 A 
ATOM     38  C   UNL A   1      38.292  32.151  32.289  1.00  0.00     0.074 A 
ATOM     39  C   UNL A   1      38.584  30.862  30.196  1.00  0.00     0.049 A 
ATOM     40  N   UNL A   1      39.304  31.720  33.000  1.00  0.00    -0.248 NA
ATOM     41  C   UNL A   1      37.486  33.180  32.967  1.00  0.00     0.031 C 
ATOM     42  C   UNL A   1      38.312  30.456  28.816  1.00  0.00     0.029 A 
ATOM     43  N   UNL A   1      39.678  30.117  30.553  1.00  0.00    -0.354 N 
ATOM     44  C   UNL A   1      39.264  32.439  34.187  1.00  0.00     0.074 A 
ATOM     45  C   UNL A   1      38.181  33.389  34.073  1.00  0.00     0.031 C 
ATOM     46  C   UNL A   1      39.192  29.508  28.458  1.00  0.00     0.029 A 
ATOM     47  C   UNL A   1      40.114  29.272  29.564  1.00  0.00     0.049 A 
ATOM     48  H   UNL A   1      40.110  30.183  31.436  1.00  0.00     0.167 HD
ATOM     49  C   UNL A   1      40.036  32.298  35.291  1.00  0.00     0.037 A 
ATOM     50  C   UNL A   1      41.145  28.407  29.552  1.00  0.00     0.037 A 
ATOM     51  C   UNL A   1      41.093  31.330  35.408  1.00  0.00     0.049 A 
ATOM     52  C   UNL A   1      41.992  28.264  30.788  1.00  0.00     0.074 A 
ATOM     53  C   UNL A   1      41.895  31.054  36.499  1.00  0.00     0.029 A 
ATOM     54  N   UNL A   1      41.497  30.480  34.388  1.00  0.00    -0.354 N 
ATOM     55  N   UNL A   1      41.895  28.894  31.934  1.00  0.00    -0.248 NA
ATOM     56  C   UNL A   1      43.085  27.285  30.730  1.00  0.00     0.031 C 
ATOM     57  C   UNL A   1      42.825  30.081  36.121  1.00  0.00     0.029 A 
ATOM     58  C   UNL A   1      42.560  29.700  34.814  1.00  0.00     0.049 A 
ATOM     59  H   UNL A   1      41.089  30.437  33.492  1.00  0.00     0.167 HD
ATOM     60  C   UNL A   1      42.896  28.372  32.743  1.00  0.00     0.074 A 
ATOM     61  C   UNL A   1      43.576  27.360  31.959  1.00  0.00     0.031 C 
ATOM     62  C   UNL A   1      43.224  28.699  34.018  1.00  0.00     0.037 A 
BRANCH  49  63
ATOM     63  C   UNL A   1      39.761  33.216  36.451  1.00  0.00     0.064 A 
ATOM     64  C   UNL A   1      38.830  32.890  37.451  1.00  0.00     0.173 A 
ATOM     65  C   UNL A   1      40.441  34.438  36.566  1.00  0.00     0.173 A 
ATOM     66  F   UNL A   1      38.142  31.740  37.385  1.00  0.00    -0.203 F 
ATOM     67  C   UNL A   1      38.554  33.773  38.493  1.00  0.00     0.198 A 
ATOM     68  C   UNL A   1      40.192  35.301  37.632  1.00  0.00     0.198 A 
ATOM     69  F   UNL A   1      41.346  34.800  35.646  1.00  0.00    -0.203 F 
ATOM     70  F   UNL A   1      37.608  33.471  39.392  1.00  0.00    -0.200 F 
ATOM     71  C   UNL A   1      39.240  34.974  38.585  1.00  0.00     0.200 A 
ATOM     72  F   UNL A   1      40.866  36.455  37.729  1.00  0.00    -0.200 F 
ATOM     73  F   UNL A   1      38.975  35.823  39.589  1.00  0.00    -0.200 F 
ENDBRANCH  49  63
BRANCH  50  74
ATOM     74  C   UNL A   1      41.406  27.590  28.338  1.00  0.00     0.064 A 
ATOM     75  C   UNL A   1      40.736  26.377  28.125  1.00  0.00     0.173 A 
ATOM     76  C   UNL A   1      42.310  28.018  27.354  1.00  0.00     0.173 A 
ATOM     77  F   UNL A   1      39.875  25.918  29.045  1.00  0.00    -0.203 F 
ATOM     78  C   UNL A   1      40.972  25.615  26.983  1.00  0.00     0.198 A 
ATOM     79  C   UNL A   1      42.522  27.270  26.197  1.00  0.00     0.198 A 
ATOM     80  F   UNL A   1      42.969  29.175  27.505  1.00  0.00    -0.203 F 
ATOM     81  F   UNL A   1      40.348  24.441  26.823  1.00  0.00    -0.200 F 
ATOM     82  C   UNL A   1      41.859  26.066  26.015  1.00  0.00     0.200 A 
ATOM     83  F   UNL A   1      43.364  27.719  25.257  1.00  0.00    -0.200 F 
ATOM     84  F   UNL A   1      42.075  25.340  24.911  1.00  0.00    -0.200 F 
ENDBRANCH  50  74
BRANCH  62  85
ATOM     85  C   UNL A   1      44.347  27.934  34.658  1.00  0.00     0.064 A 
ATOM     86  C   UNL A   1      44.127  26.722  35.328  1.00  0.00     0.173 A 
ATOM     87  C   UNL A   1      45.667  28.401  34.560  1.00  0.00     0.173 A 
ATOM     88  F   UNL A   1      42.883  26.239  35.461  1.00  0.00    -0.203 F 
ATOM     89  C   UNL A   1      45.185  26.021  35.901  1.00  0.00     0.198 A 
ATOM     90  C   UNL A   1      46.725  27.679  35.102  1.00  0.00     0.198 A 
ATOM     91  F   UNL A   1      45.933  29.551  33.921  1.00  0.00    -0.203 F 
ATOM     92  F   UNL A   1      44.945  24.892  36.583  1.00  0.00    -0.200 F 
ATOM     93  C   UNL A   1      46.482  26.495  35.781  1.00  0.00     0.200 A 
ATOM     94  F   UNL A   1      47.980  28.129  34.970  1.00  0.00    -0.200 F 
ATOM     95  F   UNL A   1      47.500  25.812  36.325  1.00  0.00    -0.200 F 
ENDBRANCH  62  85
ENDBRANCH  36  37
ENDBRANCH  28  31
ENDBRANCH  26  27
ENDBRANCH  25  26
ENDBRANCH  24  25
ENDBRANCH   3  24
TORSDOF 17
ENDMDL
