MODEL 1
REMARK VINA RESULT:     -10.6      0.000      0.000
REMARK SMILES [N-]=[N+]=NC[C@@H](Nc1ccccc1Br)C(=O)NCCCNC(=O)c1ccc(-c2c3nc(c(-c4c(F)c(F)c(F)c(F)c4F)c4ccc([nH]4)c(-c4c(F)c(F)c(F)c(F)c4F)c4nc(c(-c5c(F)c(F)c(F)c(F)c5F)c5ccc2[nH]5)C=C4)C=C3)cc1
REMARK SMILES IDX 18 1 17 2 16 3 14 4 15 5 5 7 4 8 3 9 1 10 2 11 6 12 7 14
REMARK SMILES IDX 8 15 12 16 9 17 11 18 13 19 10 20 19 21 20 22 21 23 22 25
REMARK SMILES IDX 23 26 24 27 85 28 25 29 84 30 26 31 27 32 28 33 78 34 29 35
REMARK SMILES IDX 83 36 77 37 79 38 30 39 82 40 76 41 75 42 31 44 63 45 43 46
REMARK SMILES IDX 62 47 44 48 47 49 61 50 80 51 45 52 46 53 60 55 81 56 48 57
REMARK SMILES IDX 32 58 33 59 41 60 34 61 35 62 39 63 42 64 36 65 37 66 40 67
REMARK SMILES IDX 38 68 64 69 65 70 73 71 66 72 67 73 71 74 74 75 68 76 69 77
REMARK SMILES IDX 72 78 70 79 49 80 50 81 58 82 51 83 52 84 56 85 59 86 53 87
REMARK SMILES IDX 54 88 57 89 55 90
REMARK H PARENT 16 6 6 13 20 24 79 43 47 54
REMARK Flexibility Score: inf
ROOT
ATOM      1  C   UNL A   1      41.143  20.100  27.111  1.00  0.00     0.042 C 
ENDROOT
BRANCH   1   2
ATOM      2  C   UNL A   1      42.464  20.021  26.367  1.00  0.00     0.117 C 
BRANCH   2   3
ATOM      3  N   UNL A   1      42.582  21.084  25.387  1.00  0.00    -0.354 N 
ATOM      4  C   UNL A   1      43.607  21.950  25.148  1.00  0.00     0.242 C 
ATOM      5  O   UNL A   1      43.392  22.841  24.319  1.00  0.00    -0.273 OA
ATOM      6  H   UNL A   1      41.798  21.197  24.802  1.00  0.00     0.163 HD
BRANCH   4   7
ATOM      7  C   UNL A   1      44.934  21.897  25.930  1.00  0.00     0.174 C 
BRANCH   7   8
ATOM      8  C   UNL A   1      46.003  21.350  24.953  1.00  0.00     0.125 C 
BRANCH   8   9
ATOM      9  N   UNL A   1      45.508  20.179  24.202  1.00  0.00    -0.091 NA
ATOM     10  N   UNL A   1      45.880  18.072  25.251  1.00  0.00    -0.003 NA
ATOM     11  N   UNL A   1      45.712  19.073  24.733  1.00  0.00     0.001 N 
ENDBRANCH   8   9
ENDBRANCH   7   8
BRANCH   7  12
ATOM     12  N   UNL A   1      45.375  23.168  26.553  1.00  0.00    -0.373 N 
ATOM     13  H   UNL A   1      46.014  23.707  26.032  1.00  0.00     0.161 HD
BRANCH  12  14
ATOM     14  C   UNL A   1      44.996  23.690  27.779  1.00  0.00     0.049 A 
ATOM     15  C   UNL A   1      43.699  23.354  28.216  1.00  0.00     0.027 A 
ATOM     16  C   UNL A   1      45.807  24.404  28.676  1.00  0.00     0.041 A 
ATOM     17  C   UNL A   1      43.272  23.602  29.524  1.00  0.00     0.002 A 
ATOM     18  C   UNL A   1      45.384  24.649  29.991  1.00  0.00     0.018 A 
ATOM     19  Br  UNL A   1      47.442  25.225  28.154  1.00  0.00    -0.049 Br
ATOM     20  C   UNL A   1      44.128  24.224  30.421  1.00  0.00     0.001 A 
ENDBRANCH  12  14
ENDBRANCH   7  12
ENDBRANCH   4   7
ENDBRANCH   2   3
ENDBRANCH   1   2
BRANCH   1  21
ATOM     21  C   UNL A   1      40.663  21.527  27.312  1.00  0.00     0.118 C 
BRANCH  21  22
ATOM     22  N   UNL A   1      39.465  21.829  26.539  1.00  0.00    -0.352 N 
ATOM     23  C   UNL A   1      38.779  23.013  26.421  1.00  0.00     0.251 C 
ATOM     24  H   UNL A   1      39.094  21.075  26.026  1.00  0.00     0.163 HD
ATOM     25  O   UNL A   1      37.678  23.039  25.881  1.00  0.00    -0.269 OA
BRANCH  23  26
ATOM     26  C   UNL A   1      39.365  24.251  26.971  1.00  0.00     0.039 A 
ATOM     27  C   UNL A   1      40.071  25.104  26.121  1.00  0.00     0.014 A 
ATOM     28  C   UNL A   1      39.199  24.578  28.320  1.00  0.00     0.014 A 
ATOM     29  C   UNL A   1      40.546  26.322  26.609  1.00  0.00     0.010 A 
ATOM     30  C   UNL A   1      39.584  25.832  28.777  1.00  0.00     0.010 A 
ATOM     31  C   UNL A   1      40.269  26.714  27.930  1.00  0.00    -0.014 A 
BRANCH  31  32
ATOM     32  C   UNL A   1      40.697  28.037  28.448  1.00  0.00     0.031 A 
ATOM     33  C   UNL A   1      42.151  28.298  28.728  1.00  0.00     0.074 A 
ATOM     34  C   UNL A   1      39.772  28.978  28.721  1.00  0.00     0.049 A 
ATOM     35  N   UNL A   1      42.717  29.357  29.252  1.00  0.00    -0.248 NA
ATOM     36  C   UNL A   1      43.095  27.215  28.404  1.00  0.00     0.031 C 
ATOM     37  C   UNL A   1      38.327  28.826  28.534  1.00  0.00     0.029 A 
ATOM     38  N   UNL A   1      39.908  30.248  29.222  1.00  0.00    -0.354 N 
ATOM     39  C   UNL A   1      44.072  29.064  29.323  1.00  0.00     0.074 A 
ATOM     40  C   UNL A   1      44.239  27.707  28.854  1.00  0.00     0.031 C 
ATOM     41  C   UNL A   1      37.715  29.968  28.887  1.00  0.00     0.029 A 
ATOM     42  C   UNL A   1      38.716  30.915  29.368  1.00  0.00     0.049 A 
ATOM     43  H   UNL A   1      40.779  30.646  29.455  1.00  0.00     0.167 HD
ATOM     44  C   UNL A   1      45.091  29.866  29.714  1.00  0.00     0.037 A 
ATOM     45  C   UNL A   1      38.460  32.147  29.848  1.00  0.00     0.037 A 
ATOM     46  C   UNL A   1      44.922  31.224  30.161  1.00  0.00     0.049 A 
ATOM     47  C   UNL A   1      39.611  33.004  30.306  1.00  0.00     0.074 A 
ATOM     48  C   UNL A   1      45.892  32.132  30.542  1.00  0.00     0.029 A 
ATOM     49  N   UNL A   1      43.699  31.865  30.287  1.00  0.00    -0.354 N 
ATOM     50  N   UNL A   1      40.894  32.739  30.307  1.00  0.00    -0.248 NA
ATOM     51  C   UNL A   1      39.275  34.337  30.826  1.00  0.00     0.031 C 
ATOM     52  C   UNL A   1      45.254  33.309  30.945  1.00  0.00     0.029 A 
ATOM     53  C   UNL A   1      43.890  33.154  30.760  1.00  0.00     0.049 A 
ATOM     54  H   UNL A   1      42.825  31.466  30.074  1.00  0.00     0.167 HD
ATOM     55  C   UNL A   1      41.520  33.882  30.789  1.00  0.00     0.074 A 
ATOM     56  C   UNL A   1      40.475  34.849  31.054  1.00  0.00     0.031 C 
ATOM     57  C   UNL A   1      42.840  34.110  30.999  1.00  0.00     0.037 A 
BRANCH  44  58
ATOM     58  C   UNL A   1      46.482  29.304  29.663  1.00  0.00     0.064 A 
ATOM     59  C   UNL A   1      47.285  29.438  28.519  1.00  0.00     0.173 A 
ATOM     60  C   UNL A   1      47.040  28.673  30.785  1.00  0.00     0.173 A 
ATOM     61  F   UNL A   1      46.795  30.021  27.415  1.00  0.00    -0.203 F 
ATOM     62  C   UNL A   1      48.585  28.943  28.494  1.00  0.00     0.198 A 
ATOM     63  C   UNL A   1      48.352  28.208  30.766  1.00  0.00     0.198 A 
ATOM     64  F   UNL A   1      46.317  28.521  31.904  1.00  0.00    -0.203 F 
ATOM     65  F   UNL A   1      49.317  29.044  27.375  1.00  0.00    -0.200 F 
ATOM     66  C   UNL A   1      49.121  28.337  29.620  1.00  0.00     0.200 A 
ATOM     67  F   UNL A   1      48.874  27.636  31.861  1.00  0.00    -0.200 F 
ATOM     68  F   UNL A   1      50.379  27.875  29.599  1.00  0.00    -0.200 F 
ENDBRANCH  44  58
BRANCH  45  69
ATOM     69  C   UNL A   1      37.063  32.657  29.913  1.00  0.00     0.064 A 
ATOM     70  C   UNL A   1      36.514  33.388  28.850  1.00  0.00     0.173 A 
ATOM     71  C   UNL A   1      36.264  32.461  31.049  1.00  0.00     0.173 A 
ATOM     72  F   UNL A   1      37.244  33.620  27.749  1.00  0.00    -0.203 F 
ATOM     73  C   UNL A   1      35.235  33.937  28.936  1.00  0.00     0.198 A 
ATOM     74  C   UNL A   1      34.972  32.980  31.119  1.00  0.00     0.198 A 
ATOM     75  F   UNL A   1      36.736  31.762  32.092  1.00  0.00    -0.203 F 
ATOM     76  F   UNL A   1      34.763  34.688  27.933  1.00  0.00    -0.200 F 
ATOM     77  C   UNL A   1      34.464  33.729  30.069  1.00  0.00     0.200 A 
ATOM     78  F   UNL A   1      34.225  32.762  32.209  1.00  0.00    -0.200 F 
ATOM     79  F   UNL A   1      33.238  34.261  30.154  1.00  0.00    -0.200 F 
ENDBRANCH  45  69
BRANCH  57  80
ATOM     80  C   UNL A   1      43.235  35.473  31.490  1.00  0.00     0.064 A 
ATOM     81  C   UNL A   1      43.232  35.796  32.854  1.00  0.00     0.173 A 
ATOM     82  C   UNL A   1      43.656  36.457  30.582  1.00  0.00     0.173 A 
ATOM     83  F   UNL A   1      42.823  34.896  33.761  1.00  0.00    -0.203 F 
ATOM     84  C   UNL A   1      43.608  37.064  33.290  1.00  0.00     0.198 A 
ATOM     85  C   UNL A   1      44.065  37.711  31.024  1.00  0.00     0.198 A 
ATOM     86  F   UNL A   1      43.685  36.196  29.266  1.00  0.00    -0.203 F 
ATOM     87  F   UNL A   1      43.545  37.369  34.593  1.00  0.00    -0.200 F 
ATOM     88  C   UNL A   1      44.032  38.018  32.375  1.00  0.00     0.200 A 
ATOM     89  F   UNL A   1      44.491  38.625  30.140  1.00  0.00    -0.200 F 
ATOM     90  F   UNL A   1      44.402  39.234  32.798  1.00  0.00    -0.200 F 
ENDBRANCH  57  80
ENDBRANCH  31  32
ENDBRANCH  23  26
ENDBRANCH  21  22
ENDBRANCH   1  21
TORSDOF 14
ENDMDL
MODEL 2
REMARK VINA RESULT:     -10.3      1.369      2.052
REMARK SMILES [N-]=[N+]=NC[C@@H](Nc1ccccc1Br)C(=O)NCCCNC(=O)c1ccc(-c2c3nc(c(-c4c(F)c(F)c(F)c(F)c4F)c4ccc([nH]4)c(-c4c(F)c(F)c(F)c(F)c4F)c4nc(c(-c5c(F)c(F)c(F)c(F)c5F)c5ccc2[nH]5)C=C4)C=C3)cc1
REMARK SMILES IDX 18 1 17 2 16 3 14 4 15 5 5 7 4 8 3 9 1 10 2 11 6 12 7 14
REMARK SMILES IDX 8 15 12 16 9 17 11 18 13 19 10 20 19 21 20 22 21 23 22 25
REMARK SMILES IDX 23 26 24 27 85 28 25 29 84 30 26 31 27 32 28 33 78 34 29 35
REMARK SMILES IDX 83 36 77 37 79 38 30 39 82 40 76 41 75 42 31 44 63 45 43 46
REMARK SMILES IDX 62 47 44 48 47 49 61 50 80 51 45 52 46 53 60 55 81 56 48 57
REMARK SMILES IDX 32 58 33 59 41 60 34 61 35 62 39 63 42 64 36 65 37 66 40 67
REMARK SMILES IDX 38 68 64 69 65 70 73 71 66 72 67 73 71 74 74 75 68 76 69 77
REMARK SMILES IDX 72 78 70 79 49 80 50 81 58 82 51 83 52 84 56 85 59 86 53 87
REMARK SMILES IDX 54 88 57 89 55 90
REMARK H PARENT 16 6 6 13 20 24 79 43 47 54
REMARK Flexibility Score: inf
ROOT
ATOM      1  C   UNL A   1      41.526  21.484  26.124  1.00  0.00     0.042 C 
ENDROOT
BRANCH   1   2
ATOM      2  C   UNL A   1      42.313  22.769  25.939  1.00  0.00     0.117 C 
BRANCH   2   3
ATOM      3  N   UNL A   1      42.957  22.811  24.640  1.00  0.00    -0.354 N 
ATOM      4  C   UNL A   1      44.224  22.466  24.275  1.00  0.00     0.242 C 
ATOM      5  O   UNL A   1      44.548  22.714  23.108  1.00  0.00    -0.273 OA
ATOM      6  H   UNL A   1      42.389  23.141  23.906  1.00  0.00     0.163 HD
BRANCH   4   7
ATOM      7  C   UNL A   1      45.244  21.885  25.275  1.00  0.00     0.174 C 
BRANCH   7   8
ATOM      8  C   UNL A   1      45.597  20.464  24.775  1.00  0.00     0.125 C 
BRANCH   8   9
ATOM      9  N   UNL A   1      44.407  19.753  24.265  1.00  0.00    -0.091 NA
ATOM     10  N   UNL A   1      43.532  18.075  25.712  1.00  0.00    -0.003 NA
ATOM     11  N   UNL A   1      43.951  18.864  25.005  1.00  0.00     0.001 N 
ENDBRANCH   8   9
ENDBRANCH   7   8
BRANCH   7  12
ATOM     12  N   UNL A   1      46.465  22.694  25.504  1.00  0.00    -0.373 N 
ATOM     13  H   UNL A   1      47.322  22.211  25.443  1.00  0.00     0.161 HD
BRANCH  12  14
ATOM     14  C   UNL A   1      46.548  24.046  25.792  1.00  0.00     0.049 A 
ATOM     15  C   UNL A   1      47.239  24.835  24.850  1.00  0.00     0.027 A 
ATOM     16  C   UNL A   1      45.912  24.721  26.847  1.00  0.00     0.041 A 
ATOM     17  C   UNL A   1      47.194  26.232  24.882  1.00  0.00     0.002 A 
ATOM     18  C   UNL A   1      45.861  26.123  26.878  1.00  0.00     0.018 A 
ATOM     19  Br  UNL A   1      45.223  23.822  28.376  1.00  0.00    -0.049 Br
ATOM     20  C   UNL A   1      46.479  26.876  25.881  1.00  0.00     0.001 A 
ENDBRANCH  12  14
ENDBRANCH   7  12
ENDBRANCH   4   7
ENDBRANCH   2   3
ENDBRANCH   1   2
BRANCH   1  21
ATOM     21  C   UNL A   1      40.262  21.680  26.945  1.00  0.00     0.118 C 
BRANCH  21  22
ATOM     22  N   UNL A   1      39.134  22.126  26.138  1.00  0.00    -0.352 N 
ATOM     23  C   UNL A   1      38.510  23.348  26.114  1.00  0.00     0.251 C 
ATOM     24  H   UNL A   1      38.766  21.453  25.521  1.00  0.00     0.163 HD
ATOM     25  O   UNL A   1      37.449  23.490  25.513  1.00  0.00    -0.269 OA
BRANCH  23  26
ATOM     26  C   UNL A   1      39.109  24.486  26.838  1.00  0.00     0.039 A 
ATOM     27  C   UNL A   1      39.898  25.399  26.134  1.00  0.00     0.014 A 
ATOM     28  C   UNL A   1      38.877  24.663  28.205  1.00  0.00     0.014 A 
ATOM     29  C   UNL A   1      40.391  26.529  26.788  1.00  0.00     0.010 A 
ATOM     30  C   UNL A   1      39.283  25.836  28.827  1.00  0.00     0.010 A 
ATOM     31  C   UNL A   1      40.051  26.778  28.129  1.00  0.00    -0.014 A 
BRANCH  31  32
ATOM     32  C   UNL A   1      40.499  28.011  28.822  1.00  0.00     0.031 A 
ATOM     33  C   UNL A   1      41.927  28.140  29.275  1.00  0.00     0.074 A 
ATOM     34  C   UNL A   1      39.608  28.985  29.095  1.00  0.00     0.049 A 
ATOM     35  N   UNL A   1      42.495  29.101  29.961  1.00  0.00    -0.248 NA
ATOM     36  C   UNL A   1      42.834  27.029  28.939  1.00  0.00     0.031 C 
ATOM     37  C   UNL A   1      38.186  28.954  28.747  1.00  0.00     0.029 A 
ATOM     38  N   UNL A   1      39.765  30.188  29.737  1.00  0.00    -0.354 N 
ATOM     39  C   UNL A   1      43.815  28.707  30.139  1.00  0.00     0.074 A 
ATOM     40  C   UNL A   1      43.950  27.393  29.552  1.00  0.00     0.031 C 
ATOM     41  C   UNL A   1      37.609  30.097  29.152  1.00  0.00     0.029 A 
ATOM     42  C   UNL A   1      38.606  30.919  29.828  1.00  0.00     0.049 A 
ATOM     43  H   UNL A   1      40.628  30.498  30.097  1.00  0.00     0.167 HD
ATOM     44  C   UNL A   1      44.831  29.393  30.713  1.00  0.00     0.037 A 
ATOM     45  C   UNL A   1      38.374  32.115  30.405  1.00  0.00     0.037 A 
ATOM     46  C   UNL A   1      44.697  30.710  31.279  1.00  0.00     0.049 A 
ATOM     47  C   UNL A   1      39.518  32.840  31.065  1.00  0.00     0.074 A 
ATOM     48  C   UNL A   1      45.673  31.506  31.849  1.00  0.00     0.029 A 
ATOM     49  N   UNL A   1      43.508  31.421  31.345  1.00  0.00    -0.354 N 
ATOM     50  N   UNL A   1      40.775  32.486  31.169  1.00  0.00    -0.248 NA
ATOM     51  C   UNL A   1      39.209  34.137  31.682  1.00  0.00     0.031 C 
ATOM     52  C   UNL A   1      45.067  32.681  32.305  1.00  0.00     0.029 A 
ATOM     53  C   UNL A   1      43.724  32.642  31.966  1.00  0.00     0.049 A 
ATOM     54  H   UNL A   1      42.640  31.107  31.003  1.00  0.00     0.167 HD
ATOM     55  C   UNL A   1      41.413  33.529  31.828  1.00  0.00     0.074 A 
ATOM     56  C   UNL A   1      40.406  34.537  32.083  1.00  0.00     0.031 C 
ATOM     57  C   UNL A   1      42.714  33.642  32.194  1.00  0.00     0.037 A 
BRANCH  44  58
ATOM     58  C   UNL A   1      46.183  28.741  30.746  1.00  0.00     0.064 A 
ATOM     59  C   UNL A   1      47.063  28.823  29.655  1.00  0.00     0.173 A 
ATOM     60  C   UNL A   1      46.629  28.076  31.898  1.00  0.00     0.173 A 
ATOM     61  F   UNL A   1      46.681  29.435  28.524  1.00  0.00    -0.203 F 
ATOM     62  C   UNL A   1      48.327  28.243  29.708  1.00  0.00     0.198 A 
ATOM     63  C   UNL A   1      47.906  27.526  31.960  1.00  0.00     0.198 A 
ATOM     64  F   UNL A   1      45.829  27.973  32.971  1.00  0.00    -0.203 F 
ATOM     65  F   UNL A   1      49.132  28.295  28.638  1.00  0.00    -0.200 F 
ATOM     66  C   UNL A   1      48.751  27.604  30.864  1.00  0.00     0.200 A 
ATOM     67  F   UNL A   1      48.321  26.923  33.083  1.00  0.00    -0.200 F 
ATOM     68  F   UNL A   1      49.975  27.061  30.919  1.00  0.00    -0.200 F 
ENDBRANCH  44  58
BRANCH  45  69
ATOM     69  C   UNL A   1      37.012  32.713  30.379  1.00  0.00     0.064 A 
ATOM     70  C   UNL A   1      36.593  33.503  29.298  1.00  0.00     0.173 A 
ATOM     71  C   UNL A   1      36.118  32.546  31.446  1.00  0.00     0.173 A 
ATOM     72  F   UNL A   1      37.419  33.710  28.261  1.00  0.00    -0.203 F 
ATOM     73  C   UNL A   1      35.349  34.132  29.303  1.00  0.00     0.198 A 
ATOM     74  C   UNL A   1      34.861  33.146  31.434  1.00  0.00     0.198 A 
ATOM     75  F   UNL A   1      36.464  31.795  32.502  1.00  0.00    -0.203 F 
ATOM     76  F   UNL A   1      35.004  34.934  28.288  1.00  0.00    -0.200 F 
ATOM     77  C   UNL A   1      34.483  33.950  30.370  1.00  0.00     0.200 A 
ATOM     78  F   UNL A   1      34.020  32.954  32.459  1.00  0.00    -0.200 F 
ATOM     79  F   UNL A   1      33.290  34.559  30.377  1.00  0.00    -0.200 F 
ENDBRANCH  45  69
BRANCH  57  80
ATOM     80  C   UNL A   1      43.134  34.920  32.861  1.00  0.00     0.064 A 
ATOM     81  C   UNL A   1      43.513  36.050  32.123  1.00  0.00     0.173 A 
ATOM     82  C   UNL A   1      43.121  35.023  34.262  1.00  0.00     0.173 A 
ATOM     83  F   UNL A   1      43.556  35.998  30.783  1.00  0.00    -0.203 F 
ATOM     84  C   UNL A   1      43.893  37.227  32.762  1.00  0.00     0.198 A 
ATOM     85  C   UNL A   1      43.467  36.212  34.895  1.00  0.00     0.198 A 
ATOM     86  F   UNL A   1      42.758  33.973  35.014  1.00  0.00    -0.203 F 
ATOM     87  F   UNL A   1      44.305  38.277  32.038  1.00  0.00    -0.200 F 
ATOM     88  C   UNL A   1      43.862  37.310  34.147  1.00  0.00     0.200 A 
ATOM     89  F   UNL A   1      43.419  36.295  36.232  1.00  0.00    -0.200 F 
ATOM     90  F   UNL A   1      44.219  38.447  34.758  1.00  0.00    -0.200 F 
ENDBRANCH  57  80
ENDBRANCH  31  32
ENDBRANCH  23  26
ENDBRANCH  21  22
ENDBRANCH   1  21
TORSDOF 14
ENDMDL
MODEL 3
REMARK VINA RESULT:     -10.3      4.160      9.999
REMARK SMILES [N-]=[N+]=NC[C@@H](Nc1ccccc1Br)C(=O)NCCCNC(=O)c1ccc(-c2c3nc(c(-c4c(F)c(F)c(F)c(F)c4F)c4ccc([nH]4)c(-c4c(F)c(F)c(F)c(F)c4F)c4nc(c(-c5c(F)c(F)c(F)c(F)c5F)c5ccc2[nH]5)C=C4)C=C3)cc1
REMARK SMILES IDX 18 1 17 2 16 3 14 4 15 5 5 7 4 8 3 9 1 10 2 11 6 12 7 14
REMARK SMILES IDX 8 15 12 16 9 17 11 18 13 19 10 20 19 21 20 22 21 23 22 25
REMARK SMILES IDX 23 26 24 27 85 28 25 29 84 30 26 31 27 32 28 33 78 34 29 35
REMARK SMILES IDX 83 36 77 37 79 38 30 39 82 40 76 41 75 42 31 44 63 45 43 46
REMARK SMILES IDX 62 47 44 48 47 49 61 50 80 51 45 52 46 53 60 55 81 56 48 57
REMARK SMILES IDX 32 58 33 59 41 60 34 61 35 62 39 63 42 64 36 65 37 66 40 67
REMARK SMILES IDX 38 68 64 69 65 70 73 71 66 72 67 73 71 74 74 75 68 76 69 77
REMARK SMILES IDX 72 78 70 79 49 80 50 81 58 82 51 83 52 84 56 85 59 86 53 87
REMARK SMILES IDX 54 88 57 89 55 90
REMARK H PARENT 16 6 6 13 20 24 79 43 47 54
REMARK Flexibility Score: inf
ROOT
ATOM      1  C   UNL A   1      37.836  20.011  24.980  1.00  0.00     0.042 C 
ENDROOT
BRANCH   1   2
ATOM      2  C   UNL A   1      36.810  21.128  24.895  1.00  0.00     0.117 C 
BRANCH   2   3
ATOM      3  N   UNL A   1      35.788  20.983  25.913  1.00  0.00    -0.354 N 
ATOM      4  C   UNL A   1      34.430  21.031  25.807  1.00  0.00     0.242 C 
ATOM      5  O   UNL A   1      33.793  20.991  26.867  1.00  0.00    -0.273 OA
ATOM      6  H   UNL A   1      36.128  20.824  26.824  1.00  0.00     0.163 HD
BRANCH   4   7
ATOM      7  C   UNL A   1      33.710  21.223  24.458  1.00  0.00     0.174 C 
BRANCH   7   8
ATOM      8  C   UNL A   1      33.025  19.877  24.124  1.00  0.00     0.125 C 
BRANCH   8   9
ATOM      9  N   UNL A   1      33.912  18.729  24.398  1.00  0.00    -0.091 NA
ATOM     10  N   UNL A   1      33.678  16.888  22.904  1.00  0.00    -0.003 NA
ATOM     11  N   UNL A   1      33.787  17.756  23.634  1.00  0.00     0.001 N 
ENDBRANCH   8   9
ENDBRANCH   7   8
BRANCH   7  12
ATOM     12  N   UNL A   1      32.749  22.350  24.385  1.00  0.00    -0.373 N 
ATOM     13  H   UNL A   1      31.949  22.201  23.831  1.00  0.00     0.161 HD
BRANCH  12  14
ATOM     14  C   UNL A   1      32.840  23.585  25.004  1.00  0.00     0.049 A 
ATOM     15  C   UNL A   1      33.944  24.379  24.634  1.00  0.00     0.027 A 
ATOM     16  C   UNL A   1      31.888  24.172  25.855  1.00  0.00     0.041 A 
ATOM     17  C   UNL A   1      34.036  25.729  24.987  1.00  0.00     0.002 A 
ATOM     18  C   UNL A   1      31.974  25.527  26.205  1.00  0.00     0.018 A 
ATOM     19  Br  UNL A   1      30.523  23.167  26.718  1.00  0.00    -0.049 Br
ATOM     20  C   UNL A   1      33.033  26.311  25.749  1.00  0.00     0.001 A 
ENDBRANCH  12  14
ENDBRANCH   7  12
ENDBRANCH   4   7
ENDBRANCH   2   3
ENDBRANCH   1   2
BRANCH   1  21
ATOM     21  C   UNL A   1      39.064  20.398  25.786  1.00  0.00     0.118 C 
BRANCH  21  22
ATOM     22  N   UNL A   1      40.032  19.312  25.888  1.00  0.00    -0.352 N 
ATOM     23  C   UNL A   1      41.394  19.371  26.049  1.00  0.00     0.251 C 
ATOM     24  H   UNL A   1      39.653  18.405  25.835  1.00  0.00     0.163 HD
ATOM     25  O   UNL A   1      42.077  18.360  25.919  1.00  0.00    -0.269 OA
BRANCH  23  26
ATOM     26  C   UNL A   1      42.035  20.666  26.352  1.00  0.00     0.039 A 
ATOM     27  C   UNL A   1      42.379  21.515  25.298  1.00  0.00     0.014 A 
ATOM     28  C   UNL A   1      42.277  21.049  27.674  1.00  0.00     0.014 A 
ATOM     29  C   UNL A   1      42.899  22.780  25.577  1.00  0.00     0.010 A 
ATOM     30  C   UNL A   1      42.699  22.343  27.951  1.00  0.00     0.010 A 
ATOM     31  C   UNL A   1      43.023  23.219  26.906  1.00  0.00    -0.014 A 
BRANCH  31  32
ATOM     32  C   UNL A   1      43.499  24.589  27.226  1.00  0.00     0.031 A 
ATOM     33  C   UNL A   1      42.539  25.605  27.782  1.00  0.00     0.074 A 
ATOM     34  C   UNL A   1      44.774  24.931  26.960  1.00  0.00     0.049 A 
ATOM     35  N   UNL A   1      42.739  26.870  28.055  1.00  0.00    -0.248 NA
ATOM     36  C   UNL A   1      41.163  25.148  28.040  1.00  0.00     0.031 C 
ATOM     37  C   UNL A   1      45.786  24.046  26.379  1.00  0.00     0.029 A 
ATOM     38  N   UNL A   1      45.437  26.120  27.137  1.00  0.00    -0.354 N 
ATOM     39  C   UNL A   1      41.520  27.355  28.508  1.00  0.00     0.074 A 
ATOM     40  C   UNL A   1      40.568  26.271  28.411  1.00  0.00     0.031 C 
ATOM     41  C   UNL A   1      46.947  24.714  26.275  1.00  0.00     0.029 A 
ATOM     42  C   UNL A   1      46.751  26.083  26.737  1.00  0.00     0.049 A 
ATOM     43  H   UNL A   1      45.012  26.923  27.516  1.00  0.00     0.167 HD
ATOM     44  C   UNL A   1      41.227  28.585  28.992  1.00  0.00     0.037 A 
ATOM     45  C   UNL A   1      47.688  27.051  26.734  1.00  0.00     0.037 A 
ATOM     46  C   UNL A   1      42.182  29.655  29.106  1.00  0.00     0.049 A 
ATOM     47  C   UNL A   1      47.323  28.420  27.249  1.00  0.00     0.074 A 
ATOM     48  C   UNL A   1      41.996  30.926  29.619  1.00  0.00     0.029 A 
ATOM     49  N   UNL A   1      43.506  29.577  28.698  1.00  0.00    -0.354 N 
ATOM     50  N   UNL A   1      46.184  28.847  27.736  1.00  0.00    -0.248 NA
ATOM     51  C   UNL A   1      48.381  29.440  27.218  1.00  0.00     0.031 C 
ATOM     52  C   UNL A   1      43.193  31.634  29.477  1.00  0.00     0.029 A 
ATOM     53  C   UNL A   1      44.142  30.786  28.930  1.00  0.00     0.049 A 
ATOM     54  H   UNL A   1      43.930  28.782  28.302  1.00  0.00     0.167 HD
ATOM     55  C   UNL A   1      46.397  30.170  28.103  1.00  0.00     0.074 A 
ATOM     56  C   UNL A   1      47.781  30.468  27.799  1.00  0.00     0.031 C 
ATOM     57  C   UNL A   1      45.526  31.059  28.640  1.00  0.00     0.037 A 
BRANCH  44  58
ATOM     58  C   UNL A   1      39.820  28.839  29.451  1.00  0.00     0.064 A 
ATOM     59  C   UNL A   1      38.841  29.334  28.575  1.00  0.00     0.173 A 
ATOM     60  C   UNL A   1      39.429  28.531  30.763  1.00  0.00     0.173 A 
ATOM     61  F   UNL A   1      39.165  29.657  27.314  1.00  0.00    -0.203 F 
ATOM     62  C   UNL A   1      37.532  29.533  29.002  1.00  0.00     0.198 A 
ATOM     63  C   UNL A   1      38.111  28.701  31.177  1.00  0.00     0.198 A 
ATOM     64  F   UNL A   1      40.324  28.052  31.640  1.00  0.00    -0.203 F 
ATOM     65  F   UNL A   1      36.625  30.050  28.160  1.00  0.00    -0.200 F 
ATOM     66  C   UNL A   1      37.165  29.208  30.299  1.00  0.00     0.200 A 
ATOM     67  F   UNL A   1      37.755  28.372  32.427  1.00  0.00    -0.200 F 
ATOM     68  F   UNL A   1      35.900  29.385  30.704  1.00  0.00    -0.200 F 
ENDBRANCH  44  58
BRANCH  45  69
ATOM     69  C   UNL A   1      49.063  26.770  26.242  1.00  0.00     0.064 A 
ATOM     70  C   UNL A   1      49.414  27.017  24.907  1.00  0.00     0.173 A 
ATOM     71  C   UNL A   1      50.041  26.212  27.078  1.00  0.00     0.173 A 
ATOM     72  F   UNL A   1      48.509  27.532  24.061  1.00  0.00    -0.203 F 
ATOM     73  C   UNL A   1      50.676  26.681  24.418  1.00  0.00     0.198 A 
ATOM     74  C   UNL A   1      51.314  25.909  26.598  1.00  0.00     0.198 A 
ATOM     75  F   UNL A   1      49.762  25.961  28.366  1.00  0.00    -0.203 F 
ATOM     76  F   UNL A   1      50.960  26.867  23.122  1.00  0.00    -0.200 F 
ATOM     77  C   UNL A   1      51.625  26.131  25.265  1.00  0.00     0.200 A 
ATOM     78  F   UNL A   1      52.233  25.394  27.423  1.00  0.00    -0.200 F 
ATOM     79  F   UNL A   1      52.836  25.804  24.794  1.00  0.00    -0.200 F 
ENDBRANCH  45  69
BRANCH  57  80
ATOM     80  C   UNL A   1      46.055  32.422  28.981  1.00  0.00     0.064 A 
ATOM     81  C   UNL A   1      45.994  33.488  28.072  1.00  0.00     0.173 A 
ATOM     82  C   UNL A   1      46.598  32.672  30.252  1.00  0.00     0.173 A 
ATOM     83  F   UNL A   1      45.497  33.298  26.841  1.00  0.00    -0.203 F 
ATOM     84  C   UNL A   1      46.484  34.746  28.411  1.00  0.00     0.198 A 
ATOM     85  C   UNL A   1      47.054  33.939  30.599  1.00  0.00     0.198 A 
ATOM     86  F   UNL A   1      46.673  31.688  31.161  1.00  0.00    -0.203 F 
ATOM     87  F   UNL A   1      46.466  35.736  27.508  1.00  0.00    -0.200 F 
ATOM     88  C   UNL A   1      47.006  34.973  29.677  1.00  0.00     0.200 A 
ATOM     89  F   UNL A   1      47.543  34.160  31.828  1.00  0.00    -0.200 F 
ATOM     90  F   UNL A   1      47.469  36.187  30.003  1.00  0.00    -0.200 F 
ENDBRANCH  57  80
ENDBRANCH  31  32
ENDBRANCH  23  26
ENDBRANCH  21  22
ENDBRANCH   1  21
TORSDOF 14
ENDMDL
