MODEL 1
REMARK VINA RESULT:     -12.2      0.000      0.000
REMARK SMILES O=C(NCCCNC(=O)[C@H](CO)NC(=O)[C@H](CS)NC(=O)[C@H](Cc1c[nH]c2ccccc12)NC(=O)c1ccc(F)cc1)c1ccc(-c2c3nc(c(-c4c(F)c(F)c(F)c(F)c4F)c4ccc([nH]4)c(-c4c(F)c(F)c(F)c(F)c4F)c4nc(c(-c5c(F)c(F)c(F)c(F)c5F)c5ccc2[nH]5)C=C4)C=C3)cc1
REMARK SMILES IDX 7 1 8 2 9 3 6 5 5 6 4 7 3 8 1 9 2 10 43 12 44 13 105 14
REMARK SMILES IDX 45 15 104 16 46 17 47 18 48 19 98 20 49 21 103 22 97 23
REMARK SMILES IDX 99 24 50 25 102 26 96 27 95 28 51 30 83 31 63 32 82 33 64 34
REMARK SMILES IDX 67 35 81 36 100 37 65 38 66 39 80 41 101 42 68 43 52 44
REMARK SMILES IDX 53 45 61 46 54 47 55 48 59 49 62 50 56 51 57 52 60 53 58 54
REMARK SMILES IDX 84 55 85 56 93 57 86 58 87 59 91 60 94 61 88 62 89 63 92 64
REMARK SMILES IDX 90 65 69 66 70 67 78 68 71 69 72 70 76 71 79 72 73 73 74 74
REMARK SMILES IDX 77 75 75 76 10 77 13 78 14 79 15 81 16 82 19 83 20 84 21 86
REMARK SMILES IDX 22 87 33 88 34 89 35 91 36 92 37 93 42 94 38 95 41 96 39 97
REMARK SMILES IDX 40 98 23 99 24 100 25 101 32 102 26 103 27 104 31 105 28 107
REMARK SMILES IDX 30 108 29 109 17 110 18 111 11 113 12 114
REMARK H PARENT 7 4 3 11 99 29 67 40 13 80 19 85 33 90 26 106 18 112 12 115
REMARK Flexibility Score: inf
ROOT
ATOM      1  N   UNL A   1      36.043  18.386  24.674  1.00  0.00    -0.354 N 
ATOM      2  C   UNL A   1      34.780  17.897  24.603  1.00  0.00     0.244 C 
ATOM      3  O   UNL A   1      34.655  16.711  24.288  1.00  0.00    -0.273 OA
ATOM      4  H   UNL A   1      36.742  17.739  24.423  1.00  0.00     0.163 HD
ENDROOT
BRANCH   1   5
ATOM      5  C   UNL A   1      36.548  19.693  25.055  1.00  0.00     0.117 C 
BRANCH   5   6
ATOM      6  C   UNL A   1      37.999  19.864  24.649  1.00  0.00     0.042 C 
BRANCH   6   7
ATOM      7  C   UNL A   1      38.935  20.086  25.826  1.00  0.00     0.118 C 
BRANCH   7   8
ATOM      8  N   UNL A   1      40.070  19.171  25.827  1.00  0.00    -0.352 N 
ATOM      9  O   UNL A   1      42.248  18.571  25.812  1.00  0.00    -0.269 OA
ATOM     10  C   UNL A   1      41.405  19.436  26.023  1.00  0.00     0.251 C 
ATOM     11  H   UNL A   1      39.848  18.225  25.665  1.00  0.00     0.163 HD
BRANCH  10  12
ATOM     12  C   UNL A   1      41.817  20.781  26.472  1.00  0.00     0.039 A 
ATOM     13  C   UNL A   1      41.847  21.835  25.562  1.00  0.00     0.014 A 
ATOM     14  C   UNL A   1      42.197  20.989  27.802  1.00  0.00     0.014 A 
ATOM     15  C   UNL A   1      42.445  23.030  25.920  1.00  0.00     0.010 A 
ATOM     16  C   UNL A   1      42.670  22.244  28.199  1.00  0.00     0.010 A 
ATOM     17  C   UNL A   1      42.826  23.267  27.253  1.00  0.00    -0.014 A 
BRANCH  17  18
ATOM     18  C   UNL A   1      43.291  24.632  27.607  1.00  0.00     0.031 A 
ATOM     19  C   UNL A   1      44.662  25.121  27.241  1.00  0.00     0.074 A 
ATOM     20  C   UNL A   1      42.398  25.464  28.180  1.00  0.00     0.049 A 
ATOM     21  N   UNL A   1      45.175  26.315  27.409  1.00  0.00    -0.248 NA
ATOM     22  C   UNL A   1      45.585  24.159  26.619  1.00  0.00     0.031 C 
ATOM     23  C   UNL A   1      41.042  25.081  28.585  1.00  0.00     0.029 A 
ATOM     24  N   UNL A   1      42.458  26.803  28.459  1.00  0.00    -0.354 N 
ATOM     25  C   UNL A   1      46.480  26.241  26.945  1.00  0.00     0.074 A 
ATOM     26  C   UNL A   1      46.691  24.883  26.491  1.00  0.00     0.031 C 
ATOM     27  C   UNL A   1      40.362  26.178  28.943  1.00  0.00     0.029 A 
ATOM     28  C   UNL A   1      41.260  27.323  28.888  1.00  0.00     0.049 A 
ATOM     29  H   UNL A   1      43.277  27.341  28.362  1.00  0.00     0.167 HD
ATOM     30  C   UNL A   1      47.412  27.223  26.905  1.00  0.00     0.037 A 
ATOM     31  C   UNL A   1      40.920  28.585  29.208  1.00  0.00     0.037 A 
ATOM     32  C   UNL A   1      47.177  28.581  27.329  1.00  0.00     0.049 A 
ATOM     33  C   UNL A   1      41.970  29.651  29.136  1.00  0.00     0.074 A 
ATOM     34  C   UNL A   1      48.057  29.649  27.321  1.00  0.00     0.029 A 
ATOM     35  N   UNL A   1      45.973  29.058  27.824  1.00  0.00    -0.354 N 
ATOM     36  N   UNL A   1      43.209  29.557  28.719  1.00  0.00    -0.248 NA
ATOM     37  C   UNL A   1      41.588  30.987  29.607  1.00  0.00     0.031 C 
ATOM     38  C   UNL A   1      47.394  30.766  27.840  1.00  0.00     0.029 A 
ATOM     39  C   UNL A   1      46.090  30.402  28.136  1.00  0.00     0.049 A 
ATOM     40  H   UNL A   1      45.155  28.520  27.936  1.00  0.00     0.167 HD
ATOM     41  C   UNL A   1      43.761  30.815  28.893  1.00  0.00     0.074 A 
ATOM     42  C   UNL A   1      42.709  31.667  29.410  1.00  0.00     0.031 C 
ATOM     43  C   UNL A   1      45.032  31.224  28.663  1.00  0.00     0.037 A 
BRANCH  30  44
ATOM     44  C   UNL A   1      48.782  26.882  26.399  1.00  0.00     0.064 A 
ATOM     45  C   UNL A   1      49.100  27.063  25.044  1.00  0.00     0.173 A 
ATOM     46  C   UNL A   1      49.741  26.279  27.224  1.00  0.00     0.173 A 
ATOM     47  F   UNL A   1      48.214  27.631  24.212  1.00  0.00    -0.203 F 
ATOM     48  C   UNL A   1      50.321  26.633  24.530  1.00  0.00     0.198 A 
ATOM     49  C   UNL A   1      50.969  25.868  26.711  1.00  0.00     0.198 A 
ATOM     50  F   UNL A   1      49.489  26.095  28.529  1.00  0.00    -0.203 F 
ATOM     51  F   UNL A   1      50.588  26.784  23.226  1.00  0.00    -0.200 F 
ATOM     52  C   UNL A   1      51.253  26.034  25.363  1.00  0.00     0.200 A 
ATOM     53  F   UNL A   1      51.877  25.304  27.520  1.00  0.00    -0.200 F 
ATOM     54  F   UNL A   1      52.426  25.616  24.867  1.00  0.00    -0.200 F 
ENDBRANCH  30  44
BRANCH  31  55
ATOM     55  C   UNL A   1      39.528  28.890  29.630  1.00  0.00     0.064 A 
ATOM     56  C   UNL A   1      38.585  29.394  28.722  1.00  0.00     0.173 A 
ATOM     57  C   UNL A   1      39.127  28.723  30.961  1.00  0.00     0.173 A 
ATOM     58  F   UNL A   1      38.921  29.578  27.437  1.00  0.00    -0.203 F 
ATOM     59  C   UNL A   1      37.304  29.747  29.136  1.00  0.00     0.198 A 
ATOM     60  C   UNL A   1      37.834  29.047  31.368  1.00  0.00     0.198 A 
ATOM     61  F   UNL A   1      39.988  28.227  31.863  1.00  0.00    -0.203 F 
ATOM     62  F   UNL A   1      36.439  30.273  28.257  1.00  0.00    -0.200 F 
ATOM     63  C   UNL A   1      36.927  29.569  30.458  1.00  0.00     0.200 A 
ATOM     64  F   UNL A   1      37.467  28.851  32.642  1.00  0.00    -0.200 F 
ATOM     65  F   UNL A   1      35.691  29.900  30.854  1.00  0.00    -0.200 F 
ENDBRANCH  31  55
BRANCH  43  66
ATOM     66  C   UNL A   1      45.351  32.650  28.990  1.00  0.00     0.064 A 
ATOM     67  C   UNL A   1      45.830  33.004  30.258  1.00  0.00     0.173 A 
ATOM     68  C   UNL A   1      45.147  33.671  28.048  1.00  0.00     0.173 A 
ATOM     69  F   UNL A   1      46.036  32.062  31.190  1.00  0.00    -0.203 F 
ATOM     70  C   UNL A   1      46.092  34.333  30.575  1.00  0.00     0.198 A 
ATOM     71  C   UNL A   1      45.431  34.995  28.362  1.00  0.00     0.198 A 
ATOM     72  F   UNL A   1      44.705  33.375  26.817  1.00  0.00    -0.203 F 
ATOM     73  F   UNL A   1      46.534  34.654  31.799  1.00  0.00    -0.200 F 
ATOM     74  C   UNL A   1      45.897  35.326  29.626  1.00  0.00     0.200 A 
ATOM     75  F   UNL A   1      45.269  35.951  27.437  1.00  0.00    -0.200 F 
ATOM     76  F   UNL A   1      46.168  36.604  29.928  1.00  0.00    -0.200 F 
ENDBRANCH  43  66
ENDBRANCH  17  18
ENDBRANCH  10  12
ENDBRANCH   7   8
ENDBRANCH   6   7
ENDBRANCH   5   6
ENDBRANCH   1   5
BRANCH   2  77
ATOM     77  C   UNL A   1      33.546  18.759  24.904  1.00  0.00     0.197 C 
BRANCH  77  78
ATOM     78  N   UNL A   1      33.030  19.431  23.707  1.00  0.00    -0.340 N 
ATOM     79  C   UNL A   1      32.442  20.654  23.559  1.00  0.00     0.244 C 
ATOM     80  H   UNL A   1      33.123  18.916  22.873  1.00  0.00     0.164 HD
ATOM     81  O   UNL A   1      31.952  20.875  22.449  1.00  0.00    -0.273 OA
BRANCH  79  82
ATOM     82  C   UNL A   1      32.426  21.693  24.712  1.00  0.00     0.181 C 
BRANCH  82  83
ATOM     83  N   UNL A   1      31.046  22.005  25.122  1.00  0.00    -0.342 N 
ATOM     84  C   UNL A   1      30.593  22.985  25.961  1.00  0.00     0.243 C 
ATOM     85  H   UNL A   1      30.351  21.425  24.737  1.00  0.00     0.164 HD
ATOM     86  O   UNL A   1      29.788  22.666  26.842  1.00  0.00    -0.273 OA
BRANCH  84  87
ATOM     87  C   UNL A   1      30.871  24.483  25.680  1.00  0.00     0.176 C 
BRANCH  87  88
ATOM     88  N   UNL A   1      29.664  25.190  25.262  1.00  0.00    -0.340 N 
ATOM     89  C   UNL A   1      29.498  26.047  24.198  1.00  0.00     0.251 C 
ATOM     90  H   UNL A   1      28.863  25.033  25.813  1.00  0.00     0.164 HD
ATOM     91  O   UNL A   1      28.375  26.416  23.886  1.00  0.00    -0.269 OA
BRANCH  89  92
ATOM     92  C   UNL A   1      30.673  26.591  23.475  1.00  0.00     0.040 A 
ATOM     93  C   UNL A   1      31.571  25.785  22.762  1.00  0.00     0.017 A 
ATOM     94  C   UNL A   1      30.865  27.978  23.523  1.00  0.00     0.017 A 
ATOM     95  C   UNL A   1      32.702  26.359  22.175  1.00  0.00     0.040 A 
ATOM     96  C   UNL A   1      31.988  28.550  22.920  1.00  0.00     0.040 A 
ATOM     97  C   UNL A   1      32.903  27.733  22.265  1.00  0.00     0.123 A 
ATOM     98  F   UNL A   1      33.994  28.278  21.710  1.00  0.00    -0.207 F 
ENDBRANCH  89  92
ENDBRANCH  87  88
BRANCH  87  99
ATOM     99  C   UNL A   1      31.622  25.202  26.828  1.00  0.00     0.072 C 
BRANCH  99 100
ATOM    100  C   UNL A   1      32.660  26.200  26.419  1.00  0.00    -0.020 A 
ATOM    101  C   UNL A   1      33.816  25.958  25.704  1.00  0.00     0.087 A 
ATOM    102  C   UNL A   1      32.615  27.616  26.664  1.00  0.00     0.003 A 
ATOM    103  N   UNL A   1      34.417  27.163  25.442  1.00  0.00    -0.361 N 
ATOM    104  C   UNL A   1      33.686  28.192  25.988  1.00  0.00     0.046 A 
ATOM    105  C   UNL A   1      31.713  28.467  27.338  1.00  0.00     0.010 A 
ATOM    106  H   UNL A   1      35.252  27.274  24.935  1.00  0.00     0.166 HD
ATOM    107  C   UNL A   1      33.877  29.578  25.912  1.00  0.00     0.026 A 
ATOM    108  C   UNL A   1      31.875  29.854  27.258  1.00  0.00     0.001 A 
ATOM    109  C   UNL A   1      32.939  30.399  26.547  1.00  0.00     0.002 A 
ENDBRANCH  99 100
ENDBRANCH  87  99
ENDBRANCH  84  87
ENDBRANCH  82  83
BRANCH  82 110
ATOM    110  C   UNL A   1      33.207  21.280  25.972  1.00  0.00     0.101 C 
BRANCH 110 111
ATOM    111  S   UNL A   1      34.496  22.466  26.484  1.00  0.00    -0.177 SA
ATOM    112  H   UNL A   1      34.236  22.901  27.746  1.00  0.00     0.102 HD
ENDBRANCH 110 111
ENDBRANCH  82 110
ENDBRANCH  79  82
ENDBRANCH  77  78
BRANCH  77 113
ATOM    113  C   UNL A   1      32.455  17.945  25.634  1.00  0.00     0.191 C 
BRANCH 113 114
ATOM    114  O   UNL A   1      31.726  17.079  24.758  1.00  0.00    -0.394 OA
ATOM    115  H   UNL A   1      30.795  17.349  24.735  1.00  0.00     0.210 HD
ENDBRANCH 113 114
ENDBRANCH  77 113
ENDBRANCH   2  77
TORSDOF 22
ENDMDL
MODEL 2
REMARK VINA RESULT:     -11.9      5.158     10.966
REMARK SMILES O=C(NCCCNC(=O)[C@H](CO)NC(=O)[C@H](CS)NC(=O)[C@H](Cc1c[nH]c2ccccc12)NC(=O)c1ccc(F)cc1)c1ccc(-c2c3nc(c(-c4c(F)c(F)c(F)c(F)c4F)c4ccc([nH]4)c(-c4c(F)c(F)c(F)c(F)c4F)c4nc(c(-c5c(F)c(F)c(F)c(F)c5F)c5ccc2[nH]5)C=C4)C=C3)cc1
REMARK SMILES IDX 7 1 8 2 9 3 6 5 5 6 4 7 3 8 1 9 2 10 43 12 44 13 105 14
REMARK SMILES IDX 45 15 104 16 46 17 47 18 48 19 98 20 49 21 103 22 97 23
REMARK SMILES IDX 99 24 50 25 102 26 96 27 95 28 51 30 83 31 63 32 82 33 64 34
REMARK SMILES IDX 67 35 81 36 100 37 65 38 66 39 80 41 101 42 68 43 52 44
REMARK SMILES IDX 53 45 61 46 54 47 55 48 59 49 62 50 56 51 57 52 60 53 58 54
REMARK SMILES IDX 84 55 85 56 93 57 86 58 87 59 91 60 94 61 88 62 89 63 92 64
REMARK SMILES IDX 90 65 69 66 70 67 78 68 71 69 72 70 76 71 79 72 73 73 74 74
REMARK SMILES IDX 77 75 75 76 10 77 13 78 14 79 15 81 16 82 19 83 20 84 21 86
REMARK SMILES IDX 22 87 33 88 34 89 35 91 36 92 37 93 42 94 38 95 41 96 39 97
REMARK SMILES IDX 40 98 23 99 24 100 25 101 32 102 26 103 27 104 31 105 28 107
REMARK SMILES IDX 30 108 29 109 17 110 18 111 11 113 12 114
REMARK H PARENT 7 4 3 11 99 29 67 40 13 80 19 85 33 90 26 106 18 112 12 115
REMARK Flexibility Score: inf
ROOT
ATOM      1  N   UNL A   1      31.159  30.608  25.176  1.00  0.00    -0.354 N 
ATOM      2  C   UNL A   1      31.952  29.672  24.598  1.00  0.00     0.244 C 
ATOM      3  O   UNL A   1      31.687  29.354  23.436  1.00  0.00    -0.273 OA
ATOM      4  H   UNL A   1      30.414  30.914  24.609  1.00  0.00     0.163 HD
ENDROOT
BRANCH   1   5
ATOM      5  C   UNL A   1      31.213  31.239  26.483  1.00  0.00     0.117 C 
BRANCH   5   6
ATOM      6  C   UNL A   1      31.595  32.703  26.374  1.00  0.00     0.042 C 
BRANCH   6   7
ATOM      7  C   UNL A   1      32.536  33.166  27.474  1.00  0.00     0.118 C 
BRANCH   7   8
ATOM      8  N   UNL A   1      32.344  34.566  27.832  1.00  0.00    -0.352 N 
ATOM      9  O   UNL A   1      32.547  36.429  29.093  1.00  0.00    -0.269 OA
ATOM     10  C   UNL A   1      32.959  35.309  28.812  1.00  0.00     0.251 C 
ATOM     11  H   UNL A   1      31.677  35.050  27.293  1.00  0.00     0.163 HD
BRANCH  10  12
ATOM     12  C   UNL A   1      34.112  34.738  29.535  1.00  0.00     0.039 A 
ATOM     13  C   UNL A   1      35.373  34.742  28.942  1.00  0.00     0.014 A 
ATOM     14  C   UNL A   1      33.933  34.173  30.803  1.00  0.00     0.014 A 
ATOM     15  C   UNL A   1      36.399  34.010  29.512  1.00  0.00     0.010 A 
ATOM     16  C   UNL A   1      35.012  33.555  31.444  1.00  0.00     0.010 A 
ATOM     17  C   UNL A   1      36.247  33.441  30.789  1.00  0.00    -0.014 A 
BRANCH  17  18
ATOM     18  C   UNL A   1      37.443  32.827  31.420  1.00  0.00     0.031 A 
ATOM     19  C   UNL A   1      37.861  33.166  32.821  1.00  0.00     0.074 A 
ATOM     20  C   UNL A   1      38.087  31.867  30.727  1.00  0.00     0.049 A 
ATOM     21  N   UNL A   1      38.831  32.647  33.532  1.00  0.00    -0.248 NA
ATOM     22  C   UNL A   1      37.113  34.224  33.518  1.00  0.00     0.031 C 
ATOM     23  C   UNL A   1      37.766  31.471  29.352  1.00  0.00     0.029 A 
ATOM     24  N   UNL A   1      39.089  31.007  31.090  1.00  0.00    -0.354 N 
ATOM     25  C   UNL A   1      38.830  33.330  34.739  1.00  0.00     0.074 A 
ATOM     26  C   UNL A   1      37.767  34.309  34.671  1.00  0.00     0.031 C 
ATOM     27  C   UNL A   1      38.464  30.374  29.034  1.00  0.00     0.029 A 
ATOM     28  C   UNL A   1      39.353  30.048  30.140  1.00  0.00     0.049 A 
ATOM     29  H   UNL A   1      39.573  31.068  31.945  1.00  0.00     0.167 HD
ATOM     30  C   UNL A   1      39.647  33.149  35.804  1.00  0.00     0.037 A 
ATOM     31  C   UNL A   1      40.221  29.020  30.154  1.00  0.00     0.037 A 
ATOM     32  C   UNL A   1      40.680  32.146  35.873  1.00  0.00     0.049 A 
ATOM     33  C   UNL A   1      41.097  28.838  31.355  1.00  0.00     0.074 A 
ATOM     34  C   UNL A   1      41.556  31.881  36.911  1.00  0.00     0.029 A 
ATOM     35  N   UNL A   1      40.968  31.237  34.866  1.00  0.00    -0.354 N 
ATOM     36  N   UNL A   1      41.101  29.511  32.480  1.00  0.00    -0.248 NA
ATOM     37  C   UNL A   1      42.109  27.779  31.279  1.00  0.00     0.031 C 
ATOM     38  C   UNL A   1      42.393  30.831  36.521  1.00  0.00     0.029 A 
ATOM     39  C   UNL A   1      42.015  30.418  35.254  1.00  0.00     0.049 A 
ATOM     40  H   UNL A   1      40.496  31.182  34.002  1.00  0.00     0.167 HD
ATOM     41  C   UNL A   1      42.125  28.970  33.240  1.00  0.00     0.074 A 
ATOM     42  C   UNL A   1      42.690  27.882  32.466  1.00  0.00     0.031 C 
ATOM     43  C   UNL A   1      42.569  29.352  34.461  1.00  0.00     0.037 A 
BRANCH  30  44
ATOM     44  C   UNL A   1      39.480  34.053  36.989  1.00  0.00     0.064 A 
ATOM     45  C   UNL A   1      40.142  35.290  37.035  1.00  0.00     0.173 A 
ATOM     46  C   UNL A   1      38.756  33.653  38.121  1.00  0.00     0.173 A 
ATOM     47  F   UNL A   1      40.852  35.715  35.979  1.00  0.00    -0.203 F 
ATOM     48  C   UNL A   1      40.103  36.083  38.178  1.00  0.00     0.198 A 
ATOM     49  C   UNL A   1      38.704  34.458  39.257  1.00  0.00     0.198 A 
ATOM     50  F   UNL A   1      38.097  32.485  38.123  1.00  0.00    -0.203 F 
ATOM     51  F   UNL A   1      40.773  37.243  38.211  1.00  0.00    -0.200 F 
ATOM     52  C   UNL A   1      39.386  35.665  39.290  1.00  0.00     0.200 A 
ATOM     53  F   UNL A   1      37.996  34.063  40.325  1.00  0.00    -0.200 F 
ATOM     54  F   UNL A   1      39.353  36.428  40.392  1.00  0.00    -0.200 F 
ENDBRANCH  30  44
BRANCH  31  55
ATOM     55  C   UNL A   1      40.297  28.102  28.988  1.00  0.00     0.064 A 
ATOM     56  C   UNL A   1      41.031  28.440  27.842  1.00  0.00     0.173 A 
ATOM     57  C   UNL A   1      39.599  26.888  28.982  1.00  0.00     0.173 A 
ATOM     58  F   UNL A   1      41.711  29.594  27.795  1.00  0.00    -0.203 F 
ATOM     59  C   UNL A   1      41.041  27.612  26.723  1.00  0.00     0.198 A 
ATOM     60  C   UNL A   1      39.635  26.044  27.873  1.00  0.00     0.198 A 
ATOM     61  F   UNL A   1      38.896  26.513  30.061  1.00  0.00    -0.203 F 
ATOM     62  F   UNL A   1      41.712  27.983  25.623  1.00  0.00    -0.200 F 
ATOM     63  C   UNL A   1      40.347  26.412  26.740  1.00  0.00     0.200 A 
ATOM     64  F   UNL A   1      38.983  24.874  27.902  1.00  0.00    -0.200 F 
ATOM     65  F   UNL A   1      40.365  25.610  25.667  1.00  0.00    -0.200 F 
ENDBRANCH  31  55
BRANCH  43  66
ATOM     66  C   UNL A   1      43.735  28.597  35.020  1.00  0.00     0.064 A 
ATOM     67  C   UNL A   1      43.537  27.457  35.810  1.00  0.00     0.173 A 
ATOM     68  C   UNL A   1      45.051  29.031  34.798  1.00  0.00     0.173 A 
ATOM     69  F   UNL A   1      42.295  27.009  36.052  1.00  0.00    -0.203 F 
ATOM     70  C   UNL A   1      44.617  26.776  36.361  1.00  0.00     0.198 A 
ATOM     71  C   UNL A   1      46.129  28.334  35.332  1.00  0.00     0.198 A 
ATOM     72  F   UNL A   1      45.287  30.108  34.035  1.00  0.00    -0.203 F 
ATOM     73  F   UNL A   1      44.407  25.696  37.127  1.00  0.00    -0.200 F 
ATOM     74  C   UNL A   1      45.912  27.211  36.118  1.00  0.00     0.200 A 
ATOM     75  F   UNL A   1      47.381  28.739  35.075  1.00  0.00    -0.200 F 
ATOM     76  F   UNL A   1      46.952  26.543  36.635  1.00  0.00    -0.200 F 
ENDBRANCH  43  66
ENDBRANCH  17  18
ENDBRANCH  10  12
ENDBRANCH   7   8
ENDBRANCH   6   7
ENDBRANCH   5   6
ENDBRANCH   1   5
BRANCH   2  77
ATOM     77  C   UNL A   1      33.135  29.028  25.333  1.00  0.00     0.197 C 
BRANCH  77  78
ATOM     78  N   UNL A   1      32.785  28.610  26.694  1.00  0.00    -0.340 N 
ATOM     79  C   UNL A   1      32.133  27.497  27.141  1.00  0.00     0.244 C 
ATOM     80  H   UNL A   1      33.065  29.235  27.402  1.00  0.00     0.164 HD
ATOM     81  O   UNL A   1      31.831  27.505  28.336  1.00  0.00    -0.273 OA
BRANCH  79  82
ATOM     82  C   UNL A   1      31.829  26.300  26.200  1.00  0.00     0.181 C 
BRANCH  82  83
ATOM     83  N   UNL A   1      32.392  25.050  26.739  1.00  0.00    -0.342 N 
ATOM     84  C   UNL A   1      32.097  23.756  26.411  1.00  0.00     0.243 C 
ATOM     85  H   UNL A   1      33.080  25.163  27.433  1.00  0.00     0.164 HD
ATOM     86  O   UNL A   1      31.886  22.960  27.331  1.00  0.00    -0.273 OA
BRANCH  84  87
ATOM     87  C   UNL A   1      32.259  23.231  24.963  1.00  0.00     0.176 C 
BRANCH  87  88
ATOM     88  N   UNL A   1      32.676  24.288  24.046  1.00  0.00    -0.340 N 
ATOM     89  C   UNL A   1      33.926  24.524  23.522  1.00  0.00     0.251 C 
ATOM     90  H   UNL A   1      31.970  24.914  23.764  1.00  0.00     0.164 HD
ATOM     91  O   UNL A   1      34.066  25.347  22.629  1.00  0.00    -0.269 OA
BRANCH  89  92
ATOM     92  C   UNL A   1      35.121  23.846  24.083  1.00  0.00     0.040 A 
ATOM     93  C   UNL A   1      35.797  22.815  23.417  1.00  0.00     0.017 A 
ATOM     94  C   UNL A   1      35.571  24.283  25.337  1.00  0.00     0.017 A 
ATOM     95  C   UNL A   1      36.865  22.168  24.045  1.00  0.00     0.040 A 
ATOM     96  C   UNL A   1      36.650  23.644  25.952  1.00  0.00     0.040 A 
ATOM     97  C   UNL A   1      37.276  22.583  25.308  1.00  0.00     0.123 A 
ATOM     98  F   UNL A   1      38.293  21.954  25.911  1.00  0.00    -0.207 F 
ENDBRANCH  89  92
ENDBRANCH  87  88
BRANCH  87  99
ATOM     99  C   UNL A   1      33.140  21.961  24.857  1.00  0.00     0.072 C 
BRANCH  99 100
ATOM    100  C   UNL A   1      32.686  20.918  23.884  1.00  0.00    -0.020 A 
ATOM    101  C   UNL A   1      31.929  21.111  22.746  1.00  0.00     0.087 A 
ATOM    102  C   UNL A   1      32.998  19.516  23.940  1.00  0.00     0.003 A 
ATOM    103  N   UNL A   1      31.844  19.913  22.081  1.00  0.00    -0.361 N 
ATOM    104  C   UNL A   1      32.517  18.933  22.771  1.00  0.00     0.046 A 
ATOM    105  C   UNL A   1      33.717  18.706  24.845  1.00  0.00     0.010 A 
ATOM    106  H   UNL A   1      31.370  19.777  21.230  1.00  0.00     0.166 HD
ATOM    107  C   UNL A   1      32.756  17.593  22.439  1.00  0.00     0.026 A 
ATOM    108  C   UNL A   1      33.982  17.371  24.523  1.00  0.00     0.001 A 
ATOM    109  C   UNL A   1      33.513  16.827  23.332  1.00  0.00     0.002 A 
ENDBRANCH  99 100
ENDBRANCH  87  99
ENDBRANCH  84  87
ENDBRANCH  82  83
BRANCH  82 110
ATOM    110  C   UNL A   1      30.337  26.059  25.916  1.00  0.00     0.101 C 
BRANCH 110 111
ATOM    111  S   UNL A   1      29.834  26.381  24.192  1.00  0.00    -0.177 SA
ATOM    112  H   UNL A   1      30.939  26.601  23.431  1.00  0.00     0.102 HD
ENDBRANCH 110 111
ENDBRANCH  82 110
ENDBRANCH  79  82
ENDBRANCH  77  78
BRANCH  77 113
ATOM    113  C   UNL A   1      33.753  27.877  24.508  1.00  0.00     0.191 C 
BRANCH 113 114
ATOM    114  O   UNL A   1      34.304  28.317  23.263  1.00  0.00    -0.394 OA
ATOM    115  H   UNL A   1      33.630  28.251  22.569  1.00  0.00     0.210 HD
ENDBRANCH 113 114
ENDBRANCH  77 113
ENDBRANCH   2  77
TORSDOF 22
ENDMDL
MODEL 3
REMARK VINA RESULT:     -11.9      4.968      9.689
REMARK SMILES O=C(NCCCNC(=O)[C@H](CO)NC(=O)[C@H](CS)NC(=O)[C@H](Cc1c[nH]c2ccccc12)NC(=O)c1ccc(F)cc1)c1ccc(-c2c3nc(c(-c4c(F)c(F)c(F)c(F)c4F)c4ccc([nH]4)c(-c4c(F)c(F)c(F)c(F)c4F)c4nc(c(-c5c(F)c(F)c(F)c(F)c5F)c5ccc2[nH]5)C=C4)C=C3)cc1
REMARK SMILES IDX 7 1 8 2 9 3 6 5 5 6 4 7 3 8 1 9 2 10 43 12 44 13 105 14
REMARK SMILES IDX 45 15 104 16 46 17 47 18 48 19 98 20 49 21 103 22 97 23
REMARK SMILES IDX 99 24 50 25 102 26 96 27 95 28 51 30 83 31 63 32 82 33 64 34
REMARK SMILES IDX 67 35 81 36 100 37 65 38 66 39 80 41 101 42 68 43 52 44
REMARK SMILES IDX 53 45 61 46 54 47 55 48 59 49 62 50 56 51 57 52 60 53 58 54
REMARK SMILES IDX 84 55 85 56 93 57 86 58 87 59 91 60 94 61 88 62 89 63 92 64
REMARK SMILES IDX 90 65 69 66 70 67 78 68 71 69 72 70 76 71 79 72 73 73 74 74
REMARK SMILES IDX 77 75 75 76 10 77 13 78 14 79 15 81 16 82 19 83 20 84 21 86
REMARK SMILES IDX 22 87 33 88 34 89 35 91 36 92 37 93 42 94 38 95 41 96 39 97
REMARK SMILES IDX 40 98 23 99 24 100 25 101 32 102 26 103 27 104 31 105 28 107
REMARK SMILES IDX 30 108 29 109 17 110 18 111 11 113 12 114
REMARK H PARENT 7 4 3 11 99 29 67 40 13 80 19 85 33 90 26 106 18 112 12 115
REMARK Flexibility Score: inf
ROOT
ATOM      1  N   UNL A   1      31.063  30.628  25.034  1.00  0.00    -0.354 N 
ATOM      2  C   UNL A   1      31.985  29.737  24.592  1.00  0.00     0.244 C 
ATOM      3  O   UNL A   1      31.889  29.366  23.420  1.00  0.00    -0.273 OA
ATOM      4  H   UNL A   1      30.374  30.860  24.369  1.00  0.00     0.163 HD
ENDROOT
BRANCH   1   5
ATOM      5  C   UNL A   1      30.910  31.299  26.312  1.00  0.00     0.117 C 
BRANCH   5   6
ATOM      6  C   UNL A   1      31.435  32.722  26.255  1.00  0.00     0.042 C 
BRANCH   6   7
ATOM      7  C   UNL A   1      32.480  33.023  27.316  1.00  0.00     0.118 C 
BRANCH   7   8
ATOM      8  N   UNL A   1      32.511  34.429  27.698  1.00  0.00    -0.352 N 
ATOM      9  O   UNL A   1      33.011  36.217  28.987  1.00  0.00    -0.269 OA
ATOM     10  C   UNL A   1      33.242  35.052  28.683  1.00  0.00     0.251 C 
ATOM     11  H   UNL A   1      31.922  35.021  27.174  1.00  0.00     0.163 HD
BRANCH  10  12
ATOM     12  C   UNL A   1      34.298  34.296  29.385  1.00  0.00     0.039 A 
ATOM     13  C   UNL A   1      35.615  34.368  28.935  1.00  0.00     0.014 A 
ATOM     14  C   UNL A   1      33.973  33.494  30.483  1.00  0.00     0.014 A 
ATOM     15  C   UNL A   1      36.559  33.492  29.442  1.00  0.00     0.010 A 
ATOM     16  C   UNL A   1      34.963  32.712  31.087  1.00  0.00     0.010 A 
ATOM     17  C   UNL A   1      36.259  32.682  30.551  1.00  0.00    -0.014 A 
BRANCH  17  18
ATOM     18  C   UNL A   1      37.367  31.902  31.159  1.00  0.00     0.031 A 
ATOM     19  C   UNL A   1      38.169  30.914  30.362  1.00  0.00     0.074 A 
ATOM     20  C   UNL A   1      37.704  32.188  32.432  1.00  0.00     0.049 A 
ATOM     21  N   UNL A   1      39.219  30.225  30.735  1.00  0.00    -0.248 NA
ATOM     22  C   UNL A   1      37.746  30.651  28.978  1.00  0.00     0.031 C 
ATOM     23  C   UNL A   1      36.979  33.126  33.297  1.00  0.00     0.029 A 
ATOM     24  N   UNL A   1      38.763  31.785  33.201  1.00  0.00    -0.354 N 
ATOM     25  C   UNL A   1      39.561  29.430  29.652  1.00  0.00     0.074 A 
ATOM     26  C   UNL A   1      38.606  29.712  28.602  1.00  0.00     0.031 C 
ATOM     27  C   UNL A   1      37.678  33.318  34.422  1.00  0.00     0.029 A 
ATOM     28  C   UNL A   1      38.844  32.446  34.404  1.00  0.00     0.049 A 
ATOM     29  H   UNL A   1      39.402  31.090  32.922  1.00  0.00     0.167 HD
ATOM     30  C   UNL A   1      40.582  28.546  29.550  1.00  0.00     0.037 A 
ATOM     31  C   UNL A   1      39.756  32.358  35.389  1.00  0.00     0.037 A 
ATOM     32  C   UNL A   1      41.547  28.300  30.593  1.00  0.00     0.049 A 
ATOM     33  C   UNL A   1      40.883  31.383  35.238  1.00  0.00     0.074 A 
ATOM     34  C   UNL A   1      42.622  27.427  30.583  1.00  0.00     0.029 A 
ATOM     35  N   UNL A   1      41.561  28.936  31.825  1.00  0.00    -0.354 N 
ATOM     36  N   UNL A   1      41.177  30.618  34.215  1.00  0.00    -0.248 NA
ATOM     37  C   UNL A   1      41.786  31.234  36.385  1.00  0.00     0.031 C 
ATOM     38  C   UNL A   1      43.267  27.513  31.820  1.00  0.00     0.029 A 
ATOM     39  C   UNL A   1      42.617  28.466  32.587  1.00  0.00     0.049 A 
ATOM     40  H   UNL A   1      40.914  29.620  32.115  1.00  0.00     0.167 HD
ATOM     41  C   UNL A   1      42.286  29.883  34.599  1.00  0.00     0.074 A 
ATOM     42  C   UNL A   1      42.641  30.328  35.933  1.00  0.00     0.031 C 
ATOM     43  C   UNL A   1      42.941  28.914  33.917  1.00  0.00     0.037 A 
BRANCH  30  44
ATOM     44  C   UNL A   1      40.719  27.761  28.280  1.00  0.00     0.064 A 
ATOM     45  C   UNL A   1      40.133  26.490  28.167  1.00  0.00     0.173 A 
ATOM     46  C   UNL A   1      41.515  28.214  27.219  1.00  0.00     0.173 A 
ATOM     47  F   UNL A   1      39.366  26.010  29.158  1.00  0.00    -0.203 F 
ATOM     48  C   UNL A   1      40.357  25.693  27.048  1.00  0.00     0.198 A 
ATOM     49  C   UNL A   1      41.722  27.422  26.092  1.00  0.00     0.198 A 
ATOM     50  F   UNL A   1      42.087  29.425  27.275  1.00  0.00    -0.203 F 
ATOM     51  F   UNL A   1      39.816  24.469  26.977  1.00  0.00    -0.200 F 
ATOM     52  C   UNL A   1      41.153  26.159  26.012  1.00  0.00     0.200 A 
ATOM     53  F   UNL A   1      42.477  27.878  25.083  1.00  0.00    -0.200 F 
ATOM     54  F   UNL A   1      41.372  25.389  24.936  1.00  0.00    -0.200 F 
ENDBRANCH  30  44
BRANCH  31  55
ATOM     55  C   UNL A   1      39.623  33.214  36.597  1.00  0.00     0.064 A 
ATOM     56  C   UNL A   1      40.333  34.417  36.719  1.00  0.00     0.173 A 
ATOM     57  C   UNL A   1      38.815  32.821  37.671  1.00  0.00     0.173 A 
ATOM     58  F   UNL A   1      41.125  34.834  35.721  1.00  0.00    -0.203 F 
ATOM     59  C   UNL A   1      40.263  35.179  37.882  1.00  0.00     0.198 A 
ATOM     60  C   UNL A   1      38.720  33.601  38.822  1.00  0.00     0.198 A 
ATOM     61  F   UNL A   1      38.103  31.686  37.594  1.00  0.00    -0.203 F 
ATOM     62  F   UNL A   1      40.991  36.300  37.991  1.00  0.00    -0.200 F 
ATOM     63  C   UNL A   1      39.453  34.774  38.931  1.00  0.00     0.200 A 
ATOM     64  F   UNL A   1      37.918  33.217  39.824  1.00  0.00    -0.200 F 
ATOM     65  F   UNL A   1      39.377  35.513  40.046  1.00  0.00    -0.200 F 
ENDBRANCH  31  55
BRANCH  43  66
ATOM     66  C   UNL A   1      44.093  28.260  34.613  1.00  0.00     0.064 A 
ATOM     67  C   UNL A   1      45.388  28.785  34.503  1.00  0.00     0.173 A 
ATOM     68  C   UNL A   1      43.914  27.088  35.365  1.00  0.00     0.173 A 
ATOM     69  F   UNL A   1      45.606  29.901  33.791  1.00  0.00    -0.203 F 
ATOM     70  C   UNL A   1      46.466  28.158  35.119  1.00  0.00     0.198 A 
ATOM     71  C   UNL A   1      44.991  26.477  35.998  1.00  0.00     0.198 A 
ATOM     72  F   UNL A   1      42.690  26.560  35.511  1.00  0.00    -0.203 F 
ATOM     73  F   UNL A   1      47.699  28.666  34.988  1.00  0.00    -0.200 F 
ATOM     74  C   UNL A   1      46.266  27.008  35.870  1.00  0.00     0.200 A 
ATOM     75  F   UNL A   1      44.794  25.382  36.745  1.00  0.00    -0.200 F 
ATOM     76  F   UNL A   1      47.303  26.416  36.478  1.00  0.00    -0.200 F 
ENDBRANCH  43  66
ENDBRANCH  17  18
ENDBRANCH  10  12
ENDBRANCH   7   8
ENDBRANCH   6   7
ENDBRANCH   5   6
ENDBRANCH   1   5
BRANCH   2  77
ATOM     77  C   UNL A   1      33.111  29.207  25.489  1.00  0.00     0.197 C 
BRANCH  77  78
ATOM     78  N   UNL A   1      32.622  28.780  26.805  1.00  0.00    -0.340 N 
ATOM     79  C   UNL A   1      31.928  27.664  27.174  1.00  0.00     0.244 C 
ATOM     80  H   UNL A   1      32.827  29.399  27.541  1.00  0.00     0.164 HD
ATOM     81  O   UNL A   1      31.502  27.664  28.331  1.00  0.00    -0.273 OA
BRANCH  79  82
ATOM     82  C   UNL A   1      31.723  26.473  26.199  1.00  0.00     0.181 C 
BRANCH  82  83
ATOM     83  N   UNL A   1      32.358  25.250  26.720  1.00  0.00    -0.342 N 
ATOM     84  C   UNL A   1      32.115  23.944  26.397  1.00  0.00     0.243 C 
ATOM     85  H   UNL A   1      33.058  25.394  27.396  1.00  0.00     0.164 HD
ATOM     86  O   UNL A   1      31.965  23.139  27.322  1.00  0.00    -0.273 OA
BRANCH  84  87
ATOM     87  C   UNL A   1      32.263  23.428  24.944  1.00  0.00     0.176 C 
BRANCH  87  88
ATOM     88  N   UNL A   1      32.708  24.481  24.037  1.00  0.00    -0.340 N 
ATOM     89  C   UNL A   1      33.963  24.688  23.514  1.00  0.00     0.251 C 
ATOM     90  H   UNL A   1      32.018  25.130  23.762  1.00  0.00     0.164 HD
ATOM     91  O   UNL A   1      34.124  25.516  22.629  1.00  0.00    -0.269 OA
BRANCH  89  92
ATOM     92  C   UNL A   1      35.139  23.973  24.068  1.00  0.00     0.040 A 
ATOM     93  C   UNL A   1      35.802  22.947  23.381  1.00  0.00     0.017 A 
ATOM     94  C   UNL A   1      35.586  24.367  25.336  1.00  0.00     0.017 A 
ATOM     95  C   UNL A   1      36.852  22.263  24.001  1.00  0.00     0.040 A 
ATOM     96  C   UNL A   1      36.646  23.692  25.945  1.00  0.00     0.040 A 
ATOM     97  C   UNL A   1      37.258  22.637  25.278  1.00  0.00     0.123 A 
ATOM     98  F   UNL A   1      38.257  21.972  25.873  1.00  0.00    -0.207 F 
ENDBRANCH  89  92
ENDBRANCH  87  88
BRANCH  87  99
ATOM     99  C   UNL A   1      33.109  22.136  24.827  1.00  0.00     0.072 C 
BRANCH  99 100
ATOM    100  C   UNL A   1      32.642  21.126  23.824  1.00  0.00    -0.020 A 
ATOM    101  C   UNL A   1      31.953  21.369  22.653  1.00  0.00     0.087 A 
ATOM    102  C   UNL A   1      32.870  19.708  23.884  1.00  0.00     0.003 A 
ATOM    103  N   UNL A   1      31.832  20.182  21.976  1.00  0.00    -0.361 N 
ATOM    104  C   UNL A   1      32.412  19.160  22.689  1.00  0.00     0.046 A 
ATOM    105  C   UNL A   1      33.496  18.852  24.816  1.00  0.00     0.010 A 
ATOM    106  H   UNL A   1      31.392  20.078  21.102  1.00  0.00     0.166 HD
ATOM    107  C   UNL A   1      32.589  17.810  22.358  1.00  0.00     0.026 A 
ATOM    108  C   UNL A   1      33.698  17.506  24.497  1.00  0.00     0.001 A 
ATOM    109  C   UNL A   1      33.256  16.997  23.280  1.00  0.00     0.002 A 
ENDBRANCH  99 100
ENDBRANCH  87  99
ENDBRANCH  84  87
ENDBRANCH  82  83
BRANCH  82 110
ATOM    110  C   UNL A   1      30.256  26.140  25.877  1.00  0.00     0.101 C 
BRANCH 110 111
ATOM    111  S   UNL A   1      29.741  26.560  24.177  1.00  0.00    -0.177 SA
ATOM    112  H   UNL A   1      28.898  27.627  24.210  1.00  0.00     0.102 HD
ENDBRANCH 110 111
ENDBRANCH  82 110
ENDBRANCH  79  82
ENDBRANCH  77  78
BRANCH  77 113
ATOM    113  C   UNL A   1      33.923  28.100  24.780  1.00  0.00     0.191 C 
BRANCH 113 114
ATOM    114  O   UNL A   1      34.474  28.527  23.530  1.00  0.00    -0.394 OA
ATOM    115  H   UNL A   1      33.872  28.284  22.810  1.00  0.00     0.210 HD
ENDBRANCH 113 114
ENDBRANCH  77 113
ENDBRANCH   2  77
TORSDOF 22
ENDMDL
