MODEL 1
REMARK VINA RESULT:     -12.5      0.000      0.000
REMARK SMILES CC(C)N1C[C@H](C(=O)N[C@@H]2C=C[C@@H](C(=O)NCCCNC(=O)c3ccc(-c4c5nc(c(-c6c(F)c(F)c(F)c(F)c6F)c6ccc([nH]6)c(-c6c(F)c(F)c(F)c(F)c6F)c6nc(c(-c7c(F)c(F)c(F)c(F)c7F)c7ccc4[nH]7)C=C6)C=C5)cc3)C2)CC1=O
REMARK SMILES IDX 17 1 16 2 14 3 15 4 13 6 10 7 11 8 86 9 12 10 9 11 7 12 8 13
REMARK SMILES IDX 6 15 4 16 5 17 88 18 87 19 89 20 2 21 1 22 3 23 18 24 19 25
REMARK SMILES IDX 20 26 21 27 22 29 23 30 24 31 85 32 25 33 84 34 26 35 27 36
REMARK SMILES IDX 28 37 78 38 29 39 83 40 77 41 79 42 30 43 82 44 76 45 75 46
REMARK SMILES IDX 31 48 63 49 43 50 62 51 44 52 47 53 61 54 80 55 45 56 46 57
REMARK SMILES IDX 60 59 81 60 48 61 32 62 33 63 41 64 34 65 35 66 39 67 42 68
REMARK SMILES IDX 36 69 37 70 40 71 38 72 64 73 65 74 73 75 66 76 67 77 71 78
REMARK SMILES IDX 74 79 68 80 69 81 72 82 70 83 49 84 50 85 58 86 51 87 52 88
REMARK SMILES IDX 56 89 59 90 53 91 54 92 57 93 55 94
REMARK H PARENT 16 5 9 14 20 28 79 47 47 58
REMARK Flexibility Score: inf
ROOT
ATOM      1  C   UNL A   1      31.402  30.851  26.091  1.00  0.00     0.117 C 
ENDROOT
BRANCH   1   2
ATOM      2  N   UNL A   1      30.875  30.622  24.758  1.00  0.00    -0.356 N 
ATOM      3  C   UNL A   1      30.651  29.468  24.072  1.00  0.00     0.227 C 
ATOM      4  O   UNL A   1      30.140  29.570  22.953  1.00  0.00    -0.274 OA
ATOM      5  H   UNL A   1      30.639  31.442  24.266  1.00  0.00     0.163 HD
BRANCH   3   6
ATOM      6  C   UNL A   1      31.044  28.095  24.619  1.00  0.00     0.103 C 
ATOM      7  C   UNL A   1      31.252  25.748  23.927  1.00  0.00     0.106 C 
ATOM      8  C   UNL A   1      32.588  26.414  24.106  1.00  0.00    -0.006 C 
ATOM      9  C   UNL A   1      30.314  26.952  23.929  1.00  0.00     0.047 C 
ATOM     10  C   UNL A   1      32.477  27.698  24.476  1.00  0.00    -0.016 C 
BRANCH   7  11
ATOM     11  N   UNL A   1      31.099  24.762  24.976  1.00  0.00    -0.350 N 
ATOM     12  C   UNL A   1      31.754  23.576  25.169  1.00  0.00     0.225 C 
ATOM     13  O   UNL A   1      31.835  23.139  26.316  1.00  0.00    -0.275 OA
ATOM     14  H   UNL A   1      30.419  24.978  25.655  1.00  0.00     0.164 HD
BRANCH  12  15
ATOM     15  C   UNL A   1      32.300  22.822  23.971  1.00  0.00     0.107 C 
ATOM     16  N   UNL A   1      34.485  21.958  24.250  1.00  0.00    -0.339 N 
ATOM     17  C   UNL A   1      33.767  23.082  23.684  1.00  0.00     0.133 C 
ATOM     18  C   UNL A   1      33.632  20.947  24.661  1.00  0.00     0.223 C 
ATOM     19  C   UNL A   1      32.244  21.320  24.247  1.00  0.00     0.115 C 
ATOM     20  O   UNL A   1      33.902  19.886  25.191  1.00  0.00    -0.275 OA
BRANCH  16  21
ATOM     21  C   UNL A   1      35.950  21.963  24.347  1.00  0.00     0.078 C 
ATOM     22  C   UNL A   1      36.654  22.860  23.326  1.00  0.00     0.031 C 
ATOM     23  C   UNL A   1      36.400  22.362  25.756  1.00  0.00     0.031 C 
ENDBRANCH  16  21
ENDBRANCH  12  15
ENDBRANCH   7  11
ENDBRANCH   3   6
ENDBRANCH   1   2
BRANCH   1  24
ATOM     24  C   UNL A   1      31.331  32.319  26.504  1.00  0.00     0.042 C 
BRANCH  24  25
ATOM     25  C   UNL A   1      32.562  32.808  27.246  1.00  0.00     0.118 C 
BRANCH  25  26
ATOM     26  N   UNL A   1      32.444  34.206  27.627  1.00  0.00    -0.352 N 
ATOM     27  C   UNL A   1      33.029  34.888  28.661  1.00  0.00     0.251 C 
ATOM     28  H   UNL A   1      31.854  34.745  27.052  1.00  0.00     0.163 HD
ATOM     29  O   UNL A   1      32.587  35.984  28.992  1.00  0.00    -0.269 OA
BRANCH  27  30
ATOM     30  C   UNL A   1      34.181  34.308  29.383  1.00  0.00     0.039 A 
ATOM     31  C   UNL A   1      33.944  33.530  30.519  1.00  0.00     0.014 A 
ATOM     32  C   UNL A   1      35.492  34.558  28.969  1.00  0.00     0.014 A 
ATOM     33  C   UNL A   1      35.019  32.965  31.207  1.00  0.00     0.010 A 
ATOM     34  C   UNL A   1      36.553  33.914  29.594  1.00  0.00     0.010 A 
ATOM     35  C   UNL A   1      36.329  33.125  30.730  1.00  0.00    -0.014 A 
BRANCH  35  36
ATOM     36  C   UNL A   1      37.480  32.485  31.415  1.00  0.00     0.031 A 
ATOM     37  C   UNL A   1      38.197  31.332  30.768  1.00  0.00     0.074 A 
ATOM     38  C   UNL A   1      37.839  32.906  32.641  1.00  0.00     0.049 A 
ATOM     39  N   UNL A   1      39.185  30.606  31.231  1.00  0.00    -0.248 NA
ATOM     40  C   UNL A   1      37.725  30.920  29.437  1.00  0.00     0.031 C 
ATOM     41  C   UNL A   1      37.189  33.984  33.389  1.00  0.00     0.029 A 
ATOM     42  N   UNL A   1      38.835  32.474  33.481  1.00  0.00    -0.354 N 
ATOM     43  C   UNL A   1      39.440  29.651  30.257  1.00  0.00     0.074 A 
ATOM     44  C   UNL A   1      38.464  29.846  29.207  1.00  0.00     0.031 C 
ATOM     45  C   UNL A   1      37.821  34.149  34.560  1.00  0.00     0.029 A 
ATOM     46  C   UNL A   1      38.890  33.161  34.668  1.00  0.00     0.049 A 
ATOM     47  H   UNL A   1      39.451  31.741  33.253  1.00  0.00     0.167 HD
ATOM     48  C   UNL A   1      40.418  28.714  30.227  1.00  0.00     0.037 A 
ATOM     49  C   UNL A   1      39.704  33.003  35.729  1.00  0.00     0.037 A 
ATOM     50  C   UNL A   1      41.395  28.538  31.269  1.00  0.00     0.049 A 
ATOM     51  C   UNL A   1      40.765  31.938  35.683  1.00  0.00     0.074 A 
ATOM     52  C   UNL A   1      42.461  27.656  31.312  1.00  0.00     0.029 A 
ATOM     53  N   UNL A   1      41.420  29.254  32.458  1.00  0.00    -0.354 N 
ATOM     54  N   UNL A   1      41.046  31.088  34.725  1.00  0.00    -0.248 NA
ATOM     55  C   UNL A   1      41.629  31.816  36.865  1.00  0.00     0.031 C 
ATOM     56  C   UNL A   1      43.092  27.796  32.553  1.00  0.00     0.029 A 
ATOM     57  C   UNL A   1      42.464  28.811  33.256  1.00  0.00     0.049 A 
ATOM     58  H   UNL A   1      40.790  29.971  32.700  1.00  0.00     0.167 HD
ATOM     59  C   UNL A   1      42.132  30.350  35.174  1.00  0.00     0.074 A 
ATOM     60  C   UNL A   1      42.472  30.867  36.483  1.00  0.00     0.031 C 
ATOM     61  C   UNL A   1      42.790  29.337  34.558  1.00  0.00     0.037 A 
BRANCH  48  62
ATOM     62  C   UNL A   1      40.474  27.805  29.031  1.00  0.00     0.064 A 
ATOM     63  C   UNL A   1      41.302  28.079  27.932  1.00  0.00     0.173 A 
ATOM     64  C   UNL A   1      39.707  26.630  28.995  1.00  0.00     0.173 A 
ATOM     65  F   UNL A   1      42.047  29.194  27.909  1.00  0.00    -0.203 F 
ATOM     66  C   UNL A   1      41.332  27.233  26.826  1.00  0.00     0.198 A 
ATOM     67  C   UNL A   1      39.769  25.766  27.903  1.00  0.00     0.198 A 
ATOM     68  F   UNL A   1      38.902  26.314  30.019  1.00  0.00    -0.203 F 
ATOM     69  F   UNL A   1      42.086  27.548  25.763  1.00  0.00    -0.200 F 
ATOM     70  C   UNL A   1      40.572  26.074  26.816  1.00  0.00     0.200 A 
ATOM     71  F   UNL A   1      39.046  24.638  27.903  1.00  0.00    -0.200 F 
ATOM     72  F   UNL A   1      40.608  25.256  25.755  1.00  0.00    -0.200 F 
ENDBRANCH  48  62
BRANCH  49  73
ATOM     73  C   UNL A   1      39.560  33.891  36.913  1.00  0.00     0.064 A 
ATOM     74  C   UNL A   1      38.792  33.500  38.018  1.00  0.00     0.173 A 
ATOM     75  C   UNL A   1      40.185  35.146  36.965  1.00  0.00     0.173 A 
ATOM     76  F   UNL A   1      38.160  32.317  38.008  1.00  0.00    -0.203 F 
ATOM     77  C   UNL A   1      38.635  34.338  39.120  1.00  0.00     0.198 A 
ATOM     78  C   UNL A   1      40.054  35.970  38.081  1.00  0.00     0.198 A 
ATOM     79  F   UNL A   1      40.939  35.566  35.939  1.00  0.00    -0.203 F 
ATOM     80  F   UNL A   1      37.854  33.959  40.142  1.00  0.00    -0.200 F 
ATOM     81  C   UNL A   1      39.271  35.570  39.154  1.00  0.00     0.200 A 
ATOM     82  F   UNL A   1      40.687  37.150  38.118  1.00  0.00    -0.200 F 
ATOM     83  F   UNL A   1      39.126  36.373  40.216  1.00  0.00    -0.200 F 
ENDBRANCH  49  73
BRANCH  61  84
ATOM     84  C   UNL A   1      43.968  28.743  35.276  1.00  0.00     0.064 A 
ATOM     85  C   UNL A   1      43.829  27.647  36.143  1.00  0.00     0.173 A 
ATOM     86  C   UNL A   1      45.259  29.253  35.065  1.00  0.00     0.173 A 
ATOM     87  F   UNL A   1      42.616  27.132  36.391  1.00  0.00    -0.203 F 
ATOM     88  C   UNL A   1      44.935  27.106  36.794  1.00  0.00     0.198 A 
ATOM     89  C   UNL A   1      46.366  28.685  35.690  1.00  0.00     0.198 A 
ATOM     90  F   UNL A   1      45.448  30.293  34.241  1.00  0.00    -0.203 F 
ATOM     91  F   UNL A   1      44.771  26.097  37.660  1.00  0.00    -0.200 F 
ATOM     92  C   UNL A   1      46.202  27.619  36.561  1.00  0.00     0.200 A 
ATOM     93  F   UNL A   1      47.591  29.171  35.448  1.00  0.00    -0.200 F 
ATOM     94  F   UNL A   1      47.266  27.091  37.181  1.00  0.00    -0.200 F 
ENDBRANCH  61  84
ENDBRANCH  35  36
ENDBRANCH  27  30
ENDBRANCH  25  26
ENDBRANCH  24  25
ENDBRANCH   1  24
TORSDOF 13
ENDMDL
MODEL 2
REMARK VINA RESULT:     -12.5      1.949      3.514
REMARK SMILES CC(C)N1C[C@H](C(=O)N[C@@H]2C=C[C@@H](C(=O)NCCCNC(=O)c3ccc(-c4c5nc(c(-c6c(F)c(F)c(F)c(F)c6F)c6ccc([nH]6)c(-c6c(F)c(F)c(F)c(F)c6F)c6nc(c(-c7c(F)c(F)c(F)c(F)c7F)c7ccc4[nH]7)C=C6)C=C5)cc3)C2)CC1=O
REMARK SMILES IDX 17 1 16 2 14 3 15 4 13 6 10 7 11 8 86 9 12 10 9 11 7 12 8 13
REMARK SMILES IDX 6 15 4 16 5 17 88 18 87 19 89 20 2 21 1 22 3 23 18 24 19 25
REMARK SMILES IDX 20 26 21 27 22 29 23 30 24 31 85 32 25 33 84 34 26 35 27 36
REMARK SMILES IDX 28 37 78 38 29 39 83 40 77 41 79 42 30 43 82 44 76 45 75 46
REMARK SMILES IDX 31 48 63 49 43 50 62 51 44 52 47 53 61 54 80 55 45 56 46 57
REMARK SMILES IDX 60 59 81 60 48 61 32 62 33 63 41 64 34 65 35 66 39 67 42 68
REMARK SMILES IDX 36 69 37 70 40 71 38 72 64 73 65 74 73 75 66 76 67 77 71 78
REMARK SMILES IDX 74 79 68 80 69 81 72 82 70 83 49 84 50 85 58 86 51 87 52 88
REMARK SMILES IDX 56 89 59 90 53 91 54 92 57 93 55 94
REMARK H PARENT 16 5 9 14 20 28 79 47 47 58
REMARK Flexibility Score: inf
ROOT
ATOM      1  C   UNL A   1      31.587  30.768  26.711  1.00  0.00     0.117 C 
ENDROOT
BRANCH   1   2
ATOM      2  N   UNL A   1      32.833  30.267  27.262  1.00  0.00    -0.356 N 
ATOM      3  C   UNL A   1      33.586  29.184  26.926  1.00  0.00     0.227 C 
ATOM      4  O   UNL A   1      34.644  29.023  27.543  1.00  0.00    -0.274 OA
ATOM      5  H   UNL A   1      33.195  30.802  28.005  1.00  0.00     0.163 HD
BRANCH   3   6
ATOM      6  C   UNL A   1      33.148  28.172  25.867  1.00  0.00     0.103 C 
ATOM      7  C   UNL A   1      33.883  27.189  23.740  1.00  0.00     0.106 C 
ATOM      8  C   UNL A   1      34.000  26.226  24.887  1.00  0.00    -0.006 C 
ATOM      9  C   UNL A   1      33.666  28.508  24.476  1.00  0.00     0.047 C 
ATOM     10  C   UNL A   1      33.608  26.762  26.051  1.00  0.00    -0.016 C 
BRANCH   7  11
ATOM     11  N   UNL A   1      32.831  26.717  22.864  1.00  0.00    -0.350 N 
ATOM     12  C   UNL A   1      31.573  27.212  22.656  1.00  0.00     0.225 C 
ATOM     13  O   UNL A   1      31.033  26.987  21.574  1.00  0.00    -0.275 OA
ATOM     14  H   UNL A   1      33.056  25.915  22.337  1.00  0.00     0.164 HD
BRANCH  12  15
ATOM     15  C   UNL A   1      30.873  27.962  23.773  1.00  0.00     0.107 C 
ATOM     16  N   UNL A   1      28.877  29.064  23.135  1.00  0.00    -0.339 N 
ATOM     17  C   UNL A   1      30.289  29.301  23.358  1.00  0.00     0.133 C 
ATOM     18  C   UNL A   1      28.486  27.805  23.560  1.00  0.00     0.223 C 
ATOM     19  C   UNL A   1      29.655  27.164  24.237  1.00  0.00     0.115 C 
ATOM     20  O   UNL A   1      27.388  27.285  23.500  1.00  0.00    -0.275 OA
BRANCH  16  21
ATOM     21  C   UNL A   1      28.023  30.087  22.520  1.00  0.00     0.078 C 
ATOM     22  C   UNL A   1      27.652  31.249  23.445  1.00  0.00     0.031 C 
ATOM     23  C   UNL A   1      28.673  30.648  21.251  1.00  0.00     0.031 C 
ENDBRANCH  16  21
ENDBRANCH  12  15
ENDBRANCH   7  11
ENDBRANCH   3   6
ENDBRANCH   1   2
BRANCH   1  24
ATOM     24  C   UNL A   1      31.439  32.279  26.880  1.00  0.00     0.042 C 
BRANCH  24  25
ATOM     25  C   UNL A   1      32.753  32.999  27.129  1.00  0.00     0.118 C 
BRANCH  25  26
ATOM     26  N   UNL A   1      32.543  34.348  27.627  1.00  0.00    -0.352 N 
ATOM     27  C   UNL A   1      33.042  34.960  28.747  1.00  0.00     0.251 C 
ATOM     28  H   UNL A   1      31.953  34.909  27.074  1.00  0.00     0.163 HD
ATOM     29  O   UNL A   1      32.527  35.997  29.152  1.00  0.00    -0.269 OA
BRANCH  27  30
ATOM     30  C   UNL A   1      34.189  34.372  29.472  1.00  0.00     0.039 A 
ATOM     31  C   UNL A   1      33.947  33.633  30.632  1.00  0.00     0.014 A 
ATOM     32  C   UNL A   1      35.501  34.579  29.036  1.00  0.00     0.014 A 
ATOM     33  C   UNL A   1      35.016  33.061  31.323  1.00  0.00     0.010 A 
ATOM     34  C   UNL A   1      36.553  33.928  29.667  1.00  0.00     0.010 A 
ATOM     35  C   UNL A   1      36.324  33.176  30.827  1.00  0.00    -0.014 A 
BRANCH  35  36
ATOM     36  C   UNL A   1      37.468  32.528  31.516  1.00  0.00     0.031 A 
ATOM     37  C   UNL A   1      38.177  31.368  30.875  1.00  0.00     0.074 A 
ATOM     38  C   UNL A   1      37.827  32.949  32.743  1.00  0.00     0.049 A 
ATOM     39  N   UNL A   1      39.157  30.635  31.342  1.00  0.00    -0.248 NA
ATOM     40  C   UNL A   1      37.705  30.956  29.543  1.00  0.00     0.031 C 
ATOM     41  C   UNL A   1      37.185  34.035  33.486  1.00  0.00     0.029 A 
ATOM     42  N   UNL A   1      38.817  32.511  33.586  1.00  0.00    -0.354 N 
ATOM     43  C   UNL A   1      39.407  29.676  30.370  1.00  0.00     0.074 A 
ATOM     44  C   UNL A   1      38.436  29.875  29.318  1.00  0.00     0.031 C 
ATOM     45  C   UNL A   1      37.815  34.197  34.659  1.00  0.00     0.029 A 
ATOM     46  C   UNL A   1      38.874  33.200  34.772  1.00  0.00     0.049 A 
ATOM     47  H   UNL A   1      39.428  31.772  33.362  1.00  0.00     0.167 HD
ATOM     48  C   UNL A   1      40.378  28.730  30.346  1.00  0.00     0.037 A 
ATOM     49  C   UNL A   1      39.685  33.037  35.836  1.00  0.00     0.037 A 
ATOM     50  C   UNL A   1      41.350  28.548  31.390  1.00  0.00     0.049 A 
ATOM     51  C   UNL A   1      40.737  31.964  35.795  1.00  0.00     0.074 A 
ATOM     52  C   UNL A   1      42.408  27.657  31.439  1.00  0.00     0.029 A 
ATOM     53  N   UNL A   1      41.378  29.266  32.578  1.00  0.00    -0.354 N 
ATOM     54  N   UNL A   1      41.013  31.109  34.839  1.00  0.00    -0.248 NA
ATOM     55  C   UNL A   1      41.596  31.836  36.979  1.00  0.00     0.031 C 
ATOM     56  C   UNL A   1      43.037  27.794  32.680  1.00  0.00     0.029 A 
ATOM     57  C   UNL A   1      42.416  28.816  33.380  1.00  0.00     0.049 A 
ATOM     58  H   UNL A   1      40.753  29.989  32.816  1.00  0.00     0.167 HD
ATOM     59  C   UNL A   1      42.092  30.363  35.293  1.00  0.00     0.074 A 
ATOM     60  C   UNL A   1      42.433  30.880  36.602  1.00  0.00     0.031 C 
ATOM     61  C   UNL A   1      42.742  29.343  34.681  1.00  0.00     0.037 A 
BRANCH  48  62
ATOM     62  C   UNL A   1      40.429  27.818  29.152  1.00  0.00     0.064 A 
ATOM     63  C   UNL A   1      41.254  28.088  28.049  1.00  0.00     0.173 A 
ATOM     64  C   UNL A   1      39.661  26.643  29.121  1.00  0.00     0.173 A 
ATOM     65  F   UNL A   1      42.000  29.203  28.021  1.00  0.00    -0.203 F 
ATOM     66  C   UNL A   1      41.280  27.239  26.945  1.00  0.00     0.198 A 
ATOM     67  C   UNL A   1      39.719  25.777  28.031  1.00  0.00     0.198 A 
ATOM     68  F   UNL A   1      38.859  26.330  30.149  1.00  0.00    -0.203 F 
ATOM     69  F   UNL A   1      42.030  27.551  25.879  1.00  0.00    -0.200 F 
ATOM     70  C   UNL A   1      40.519  26.080  26.941  1.00  0.00     0.200 A 
ATOM     71  F   UNL A   1      38.994  24.649  28.036  1.00  0.00    -0.200 F 
ATOM     72  F   UNL A   1      40.550  25.260  25.882  1.00  0.00    -0.200 F 
ENDBRANCH  48  62
BRANCH  49  73
ATOM     73  C   UNL A   1      39.545  33.929  37.017  1.00  0.00     0.064 A 
ATOM     74  C   UNL A   1      38.794  33.536  38.133  1.00  0.00     0.173 A 
ATOM     75  C   UNL A   1      40.157  35.191  37.057  1.00  0.00     0.173 A 
ATOM     76  F   UNL A   1      38.174  32.346  38.136  1.00  0.00    -0.203 F 
ATOM     77  C   UNL A   1      38.641  34.377  39.232  1.00  0.00     0.198 A 
ATOM     78  C   UNL A   1      40.031  36.018  38.170  1.00  0.00     0.198 A 
ATOM     79  F   UNL A   1      40.895  35.614  36.020  1.00  0.00    -0.203 F 
ATOM     80  F   UNL A   1      37.876  33.995  40.265  1.00  0.00    -0.200 F 
ATOM     81  C   UNL A   1      39.264  35.616  39.254  1.00  0.00     0.200 A 
ATOM     82  F   UNL A   1      40.652  37.206  38.194  1.00  0.00    -0.200 F 
ATOM     83  F   UNL A   1      39.123  36.422  40.314  1.00  0.00    -0.200 F 
ENDBRANCH  49  73
BRANCH  61  84
ATOM     84  C   UNL A   1      43.913  28.740  35.404  1.00  0.00     0.064 A 
ATOM     85  C   UNL A   1      45.215  29.244  35.253  1.00  0.00     0.173 A 
ATOM     86  C   UNL A   1      43.725  27.668  36.290  1.00  0.00     0.173 A 
ATOM     87  F   UNL A   1      45.452  30.258  34.407  1.00  0.00    -0.203 F 
ATOM     88  C   UNL A   1      46.286  28.675  35.937  1.00  0.00     0.198 A 
ATOM     89  C   UNL A   1      44.792  27.127  37.001  1.00  0.00     0.198 A 
ATOM     90  F   UNL A   1      42.500  27.154  36.478  1.00  0.00    -0.203 F 
ATOM     91  F   UNL A   1      47.527  29.137  35.734  1.00  0.00    -0.200 F 
ATOM     92  C   UNL A   1      46.073  27.625  36.817  1.00  0.00     0.200 A 
ATOM     93  F   UNL A   1      44.580  26.124  37.863  1.00  0.00    -0.200 F 
ATOM     94  F   UNL A   1      47.104  27.086  37.482  1.00  0.00    -0.200 F 
ENDBRANCH  61  84
ENDBRANCH  35  36
ENDBRANCH  27  30
ENDBRANCH  25  26
ENDBRANCH  24  25
ENDBRANCH   1  24
TORSDOF 13
ENDMDL
MODEL 3
REMARK VINA RESULT:     -12.4      5.924     11.161
REMARK SMILES CC(C)N1C[C@H](C(=O)N[C@@H]2C=C[C@@H](C(=O)NCCCNC(=O)c3ccc(-c4c5nc(c(-c6c(F)c(F)c(F)c(F)c6F)c6ccc([nH]6)c(-c6c(F)c(F)c(F)c(F)c6F)c6nc(c(-c7c(F)c(F)c(F)c(F)c7F)c7ccc4[nH]7)C=C6)C=C5)cc3)C2)CC1=O
REMARK SMILES IDX 17 1 16 2 14 3 15 4 13 6 10 7 11 8 86 9 12 10 9 11 7 12 8 13
REMARK SMILES IDX 6 15 4 16 5 17 88 18 87 19 89 20 2 21 1 22 3 23 18 24 19 25
REMARK SMILES IDX 20 26 21 27 22 29 23 30 24 31 85 32 25 33 84 34 26 35 27 36
REMARK SMILES IDX 28 37 78 38 29 39 83 40 77 41 79 42 30 43 82 44 76 45 75 46
REMARK SMILES IDX 31 48 63 49 43 50 62 51 44 52 47 53 61 54 80 55 45 56 46 57
REMARK SMILES IDX 60 59 81 60 48 61 32 62 33 63 41 64 34 65 35 66 39 67 42 68
REMARK SMILES IDX 36 69 37 70 40 71 38 72 64 73 65 74 73 75 66 76 67 77 71 78
REMARK SMILES IDX 74 79 68 80 69 81 72 82 70 83 49 84 50 85 58 86 51 87 52 88
REMARK SMILES IDX 56 89 59 90 53 91 54 92 57 93 55 94
REMARK H PARENT 16 5 9 14 20 28 79 47 47 58
REMARK Flexibility Score: inf
ROOT
ATOM      1  C   UNL A   1      37.409  20.776  24.630  1.00  0.00     0.117 C 
ENDROOT
BRANCH   1   2
ATOM      2  N   UNL A   1      37.851  22.028  25.219  1.00  0.00    -0.356 N 
ATOM      3  C   UNL A   1      37.147  23.112  25.644  1.00  0.00     0.227 C 
ATOM      4  O   UNL A   1      37.789  24.032  26.158  1.00  0.00    -0.274 OA
ATOM      5  H   UNL A   1      38.826  22.105  25.330  1.00  0.00     0.163 HD
BRANCH   3   6
ATOM      6  C   UNL A   1      35.632  23.232  25.467  1.00  0.00     0.103 C 
ATOM      7  C   UNL A   1      33.598  23.799  26.721  1.00  0.00     0.106 C 
ATOM      8  C   UNL A   1      33.990  24.875  25.747  1.00  0.00    -0.006 C 
ATOM      9  C   UNL A   1      34.862  22.944  26.747  1.00  0.00     0.047 C 
ATOM     10  C   UNL A   1      35.105  24.571  25.067  1.00  0.00    -0.016 C 
BRANCH   7  11
ATOM     11  N   UNL A   1      32.372  23.191  26.249  1.00  0.00    -0.350 N 
ATOM     12  C   UNL A   1      32.170  21.984  25.638  1.00  0.00     0.225 C 
ATOM     13  O   UNL A   1      31.066  21.455  25.752  1.00  0.00    -0.275 OA
ATOM     14  H   UNL A   1      31.560  23.730  26.387  1.00  0.00     0.164 HD
BRANCH  12  15
ATOM     15  C   UNL A   1      33.281  21.374  24.804  1.00  0.00     0.107 C 
ATOM     16  N   UNL A   1      32.808  19.225  23.933  1.00  0.00    -0.339 N 
ATOM     17  C   UNL A   1      33.487  19.887  25.028  1.00  0.00     0.133 C 
ATOM     18  C   UNL A   1      32.392  20.118  22.961  1.00  0.00     0.223 C 
ATOM     19  C   UNL A   1      32.917  21.471  23.323  1.00  0.00     0.115 C 
ATOM     20  O   UNL A   1      31.780  19.899  21.932  1.00  0.00    -0.275 OA
BRANCH  16  21
ATOM     21  C   UNL A   1      32.616  17.769  23.927  1.00  0.00     0.078 C 
ATOM     22  C   UNL A   1      33.687  16.988  23.163  1.00  0.00     0.031 C 
ATOM     23  C   UNL A   1      32.528  17.226  25.357  1.00  0.00     0.031 C 
ENDBRANCH  16  21
ENDBRANCH  12  15
ENDBRANCH   7  11
ENDBRANCH   3   6
ENDBRANCH   1   2
BRANCH   1  24
ATOM     24  C   UNL A   1      38.315  19.604  25.001  1.00  0.00     0.042 C 
BRANCH  24  25
ATOM     25  C   UNL A   1      39.293  19.917  26.120  1.00  0.00     0.118 C 
BRANCH  25  26
ATOM     26  N   UNL A   1      40.419  18.997  26.126  1.00  0.00    -0.352 N 
ATOM     27  C   UNL A   1      41.764  19.254  26.081  1.00  0.00     0.251 C 
ATOM     28  H   UNL A   1      40.178  18.044  26.168  1.00  0.00     0.163 HD
ATOM     29  O   UNL A   1      42.546  18.349  25.803  1.00  0.00    -0.269 OA
BRANCH  27  30
ATOM     30  C   UNL A   1      42.275  20.613  26.358  1.00  0.00     0.039 A 
ATOM     31  C   UNL A   1      42.642  21.428  25.284  1.00  0.00     0.014 A 
ATOM     32  C   UNL A   1      42.432  21.073  27.668  1.00  0.00     0.014 A 
ATOM     33  C   UNL A   1      43.117  22.718  25.525  1.00  0.00     0.010 A 
ATOM     34  C   UNL A   1      42.808  22.389  27.903  1.00  0.00     0.010 A 
ATOM     35  C   UNL A   1      43.171  23.220  26.835  1.00  0.00    -0.014 A 
BRANCH  35  36
ATOM     36  C   UNL A   1      43.619  24.608  27.107  1.00  0.00     0.031 A 
ATOM     37  C   UNL A   1      42.641  25.631  27.617  1.00  0.00     0.074 A 
ATOM     38  C   UNL A   1      44.891  24.959  26.842  1.00  0.00     0.049 A 
ATOM     39  N   UNL A   1      42.826  26.905  27.860  1.00  0.00    -0.248 NA
ATOM     40  C   UNL A   1      41.265  25.169  27.858  1.00  0.00     0.031 C 
ATOM     41  C   UNL A   1      45.919  24.067  26.302  1.00  0.00     0.029 A 
ATOM     42  N   UNL A   1      45.536  26.162  26.982  1.00  0.00    -0.354 N 
ATOM     43  C   UNL A   1      41.592  27.394  28.270  1.00  0.00     0.074 A 
ATOM     44  C   UNL A   1      40.652  26.298  28.180  1.00  0.00     0.031 C 
ATOM     45  C   UNL A   1      47.071  24.744  26.186  1.00  0.00     0.029 A 
ATOM     46  C   UNL A   1      46.854  26.127  26.598  1.00  0.00     0.049 A 
ATOM     47  H   UNL A   1      45.097  26.973  27.325  1.00  0.00     0.167 HD
ATOM     48  C   UNL A   1      41.278  28.637  28.707  1.00  0.00     0.037 A 
ATOM     49  C   UNL A   1      47.780  27.105  26.571  1.00  0.00     0.037 A 
ATOM     50  C   UNL A   1      42.224  29.717  28.808  1.00  0.00     0.049 A 
ATOM     51  C   UNL A   1      47.400  28.483  27.037  1.00  0.00     0.074 A 
ATOM     52  C   UNL A   1      42.023  30.998  29.290  1.00  0.00     0.029 A 
ATOM     53  N   UNL A   1      43.552  29.644  28.410  1.00  0.00    -0.354 N 
ATOM     54  N   UNL A   1      46.249  28.916  27.492  1.00  0.00    -0.248 NA
ATOM     55  C   UNL A   1      48.451  29.508  26.993  1.00  0.00     0.031 C 
ATOM     56  C   UNL A   1      43.211  31.718  29.127  1.00  0.00     0.029 A 
ATOM     57  C   UNL A   1      44.173  30.868  28.606  1.00  0.00     0.049 A 
ATOM     58  H   UNL A   1      43.989  28.841  28.043  1.00  0.00     0.167 HD
ATOM     59  C   UNL A   1      46.443  30.253  27.814  1.00  0.00     0.074 A 
ATOM     60  C   UNL A   1      47.829  30.553  27.520  1.00  0.00     0.031 C 
ATOM     61  C   UNL A   1      45.555  31.150  28.309  1.00  0.00     0.037 A 
BRANCH  48  62
ATOM     62  C   UNL A   1      39.852  28.894  29.104  1.00  0.00     0.064 A 
ATOM     63  C   UNL A   1      39.408  28.721  30.424  1.00  0.00     0.173 A 
ATOM     64  C   UNL A   1      38.920  29.345  28.155  1.00  0.00     0.173 A 
ATOM     65  F   UNL A   1      40.253  28.282  31.368  1.00  0.00    -0.203 F 
ATOM     66  C   UNL A   1      38.079  28.953  30.772  1.00  0.00     0.198 A 
ATOM     67  C   UNL A   1      37.601  29.611  28.516  1.00  0.00     0.198 A 
ATOM     68  F   UNL A   1      39.288  29.534  26.880  1.00  0.00    -0.203 F 
ATOM     69  F   UNL A   1      37.667  28.722  32.026  1.00  0.00    -0.200 F 
ATOM     70  C   UNL A   1      37.180  29.405  29.820  1.00  0.00     0.200 A 
ATOM     71  F   UNL A   1      36.736  30.063  27.597  1.00  0.00    -0.200 F 
ATOM     72  F   UNL A   1      35.903  29.634  30.157  1.00  0.00    -0.200 F 
ENDBRANCH  48  62
BRANCH  49  73
ATOM     73  C   UNL A   1      49.161  26.806  26.107  1.00  0.00     0.064 A 
ATOM     74  C   UNL A   1      49.531  27.006  24.770  1.00  0.00     0.173 A 
ATOM     75  C   UNL A   1      50.137  26.315  26.987  1.00  0.00     0.173 A 
ATOM     76  F   UNL A   1      48.628  27.457  23.887  1.00  0.00    -0.203 F 
ATOM     77  C   UNL A   1      50.816  26.706  24.325  1.00  0.00     0.198 A 
ATOM     78  C   UNL A   1      51.432  26.046  26.548  1.00  0.00     0.198 A 
ATOM     79  F   UNL A   1      49.839  26.114  28.278  1.00  0.00    -0.203 F 
ATOM     80  F   UNL A   1      51.128  26.860  23.031  1.00  0.00    -0.200 F 
ATOM     81  C   UNL A   1      51.768  26.231  25.216  1.00  0.00     0.200 A 
ATOM     82  F   UNL A   1      52.353  25.608  27.417  1.00  0.00    -0.200 F 
ATOM     83  F   UNL A   1      53.006  25.949  24.789  1.00  0.00    -0.200 F 
ENDBRANCH  49  73
BRANCH  61  84
ATOM     84  C   UNL A   1      46.063  32.534  28.599  1.00  0.00     0.064 A 
ATOM     85  C   UNL A   1      45.995  33.562  27.645  1.00  0.00     0.173 A 
ATOM     86  C   UNL A   1      46.591  32.846  29.862  1.00  0.00     0.173 A 
ATOM     87  F   UNL A   1      45.513  33.313  26.418  1.00  0.00    -0.203 F 
ATOM     88  C   UNL A   1      46.465  34.840  27.936  1.00  0.00     0.198 A 
ATOM     89  C   UNL A   1      47.025  34.134  30.161  1.00  0.00     0.198 A 
ATOM     90  F   UNL A   1      46.672  31.903  30.813  1.00  0.00    -0.203 F 
ATOM     91  F   UNL A   1      46.441  35.790  26.992  1.00  0.00    -0.200 F 
ATOM     92  C   UNL A   1      46.971  35.127  29.195  1.00  0.00     0.200 A 
ATOM     93  F   UNL A   1      47.497  34.413  31.383  1.00  0.00    -0.200 F 
ATOM     94  F   UNL A   1      47.414  36.360  29.476  1.00  0.00    -0.200 F 
ENDBRANCH  61  84
ENDBRANCH  35  36
ENDBRANCH  27  30
ENDBRANCH  25  26
ENDBRANCH  24  25
ENDBRANCH   1  24
TORSDOF 13
ENDMDL
