MODEL 1
REMARK VINA RESULT:     -14.0      0.000      0.000
REMARK SMILES O=C(N/N=C/c1ccccc1O)C(=O)Nc1cccc(C(=O)NCCCNC(=O)c2ccc(-c3c4nc(c(-c5c(F)c(F)c(F)c(F)c5F)c5ccc([nH]5)c(-c5c(F)c(F)c(F)c(F)c5F)c5nc(c(-c6c(F)c(F)c(F)c(F)c6F)c6ccc3[nH]6)C=C5)C=C4)cc2)c1
REMARK SMILES IDX 21 1 22 2 23 3 20 5 16 6 17 7 93 8 18 9 19 10 15 11 13 12
REMARK SMILES IDX 14 13 2 15 1 16 3 17 4 19 5 20 6 21 7 22 11 23 8 24 10 25
REMARK SMILES IDX 9 26 12 27 24 29 25 30 26 31 27 32 28 33 29 35 30 36 31 37
REMARK SMILES IDX 92 38 32 39 91 40 33 41 34 42 35 43 85 44 36 45 90 46 84 47
REMARK SMILES IDX 86 48 37 49 89 50 83 51 82 52 38 54 70 55 50 56 69 57 51 58
REMARK SMILES IDX 54 59 68 60 87 61 52 62 53 63 67 65 88 66 55 67 39 68 40 69
REMARK SMILES IDX 48 70 41 71 42 72 46 73 49 74 43 75 44 76 47 77 45 78 71 79
REMARK SMILES IDX 72 80 80 81 73 82 74 83 78 84 81 85 75 86 76 87 79 88 77 89
REMARK SMILES IDX 56 90 57 91 65 92 58 93 59 94 63 95 66 96 60 97 61 98 64 99
REMARK SMILES IDX 62 100
REMARK H PARENT 23 4 15 14 3 18 12 28 27 34 86 53 54 64
REMARK Flexibility Score: inf
ROOT
ATOM      1  C   UNL A   1      37.246  23.251  25.827  1.00  0.00     0.251 C 
ATOM      2  O   UNL A   1      37.955  24.081  26.399  1.00  0.00    -0.269 OA
ATOM      3  N   UNL A   1      37.824  22.348  24.972  1.00  0.00    -0.352 N 
ATOM      4  H   UNL A   1      38.751  22.558  24.713  1.00  0.00     0.163 HD
ENDROOT
BRANCH   1   5
ATOM      5  C   UNL A   1      35.784  23.343  26.067  1.00  0.00     0.041 A 
ATOM      6  C   UNL A   1      32.953  24.685  25.669  1.00  0.00     0.042 A 
ATOM      7  C   UNL A   1      32.135  23.227  26.413  1.00  0.00     0.026 A 
ATOM      8  C   UNL A   1      34.766  24.786  25.560  1.00  0.00     0.040 A 
ATOM      9  C   UNL A   1      33.173  21.877  27.097  1.00  0.00     0.003 A 
ATOM     10  C   UNL A   1      34.976  21.926  26.880  1.00  0.00     0.014 A 
BRANCH   6  11
ATOM     11  N   UNL A   1      32.201  25.326  24.688  1.00  0.00    -0.318 N 
ATOM     12  C   UNL A   1      32.164  25.008  23.336  1.00  0.00     0.315 C 
ATOM     13  O   UNL A   1      31.318  25.592  22.652  1.00  0.00    -0.263 OA
ATOM     14  H   UNL A   1      31.638  26.078  24.982  1.00  0.00     0.170 HD
BRANCH  12  15
ATOM     15  C   UNL A   1      33.031  23.935  22.621  1.00  0.00     0.329 C 
ATOM     16  O   UNL A   1      34.215  24.188  22.399  1.00  0.00    -0.262 OA
ATOM     17  N   UNL A   1      32.477  22.761  22.094  1.00  0.00    -0.239 N 
ATOM     18  H   UNL A   1      32.421  22.602  21.123  1.00  0.00     0.194 HD
BRANCH  17  19
ATOM     19  N   UNL A   1      32.016  21.846  23.006  1.00  0.00    -0.180 NA
ATOM     20  C   UNL A   1      32.967  20.997  23.512  1.00  0.00     0.145 C 
BRANCH  20  21
ATOM     21  C   UNL A   1      33.114  18.940  24.050  1.00  0.00     0.036 A 
ATOM     22  C   UNL A   1      33.272  17.732  23.123  1.00  0.00     0.013 A 
ATOM     23  C   UNL A   1      33.182  18.184  25.375  1.00  0.00     0.124 A 
ATOM     24  C   UNL A   1      33.730  16.404  23.370  1.00  0.00     0.001 A 
ATOM     25  C   UNL A   1      33.706  16.869  25.643  1.00  0.00     0.047 A 
ATOM     26  C   UNL A   1      34.043  16.004  24.635  1.00  0.00     0.004 A 
BRANCH  23  27
ATOM     27  O   UNL A   1      32.522  18.552  26.552  1.00  0.00    -0.507 OA
ATOM     28  H   UNL A   1      31.854  19.208  26.530  1.00  0.00     0.293 HD
ENDBRANCH  23  27
ENDBRANCH  20  21
ENDBRANCH  17  19
ENDBRANCH  12  15
ENDBRANCH   6  11
ENDBRANCH   1   5
BRANCH   3  29
ATOM     29  C   UNL A   1      37.291  21.131  24.385  1.00  0.00     0.118 C 
BRANCH  29  30
ATOM     30  C   UNL A   1      37.976  19.867  24.888  1.00  0.00     0.042 C 
BRANCH  30  31
ATOM     31  C   UNL A   1      39.012  20.128  25.972  1.00  0.00     0.118 C 
BRANCH  31  32
ATOM     32  N   UNL A   1      40.116  19.176  25.934  1.00  0.00    -0.352 N 
ATOM     33  C   UNL A   1      41.472  19.377  26.023  1.00  0.00     0.251 C 
ATOM     34  H   UNL A   1      39.846  18.236  25.825  1.00  0.00     0.163 HD
ATOM     35  O   UNL A   1      42.241  18.446  25.801  1.00  0.00    -0.269 OA
BRANCH  33  36
ATOM     36  C   UNL A   1      42.020  20.705  26.375  1.00  0.00     0.039 A 
ATOM     37  C   UNL A   1      42.287  21.619  25.350  1.00  0.00     0.014 A 
ATOM     38  C   UNL A   1      42.315  21.037  27.700  1.00  0.00     0.014 A 
ATOM     39  C   UNL A   1      42.789  22.886  25.659  1.00  0.00     0.010 A 
ATOM     40  C   UNL A   1      42.747  22.322  28.013  1.00  0.00     0.010 A 
ATOM     41  C   UNL A   1      42.995  23.257  26.996  1.00  0.00    -0.014 A 
BRANCH  41  42
ATOM     42  C   UNL A   1      43.494  24.605  27.361  1.00  0.00     0.031 A 
ATOM     43  C   UNL A   1      42.550  25.618  27.942  1.00  0.00     0.074 A 
ATOM     44  C   UNL A   1      44.768  24.945  27.089  1.00  0.00     0.049 A 
ATOM     45  N   UNL A   1      42.749  26.887  28.199  1.00  0.00    -0.248 NA
ATOM     46  C   UNL A   1      41.188  25.152  28.245  1.00  0.00     0.031 C 
ATOM     47  C   UNL A   1      45.768  24.066  26.482  1.00  0.00     0.029 A 
ATOM     48  N   UNL A   1      45.433  26.131  27.271  1.00  0.00    -0.354 N 
ATOM     49  C   UNL A   1      41.531  27.375  28.652  1.00  0.00     0.074 A 
ATOM     50  C   UNL A   1      40.590  26.276  28.610  1.00  0.00     0.031 C 
ATOM     51  C   UNL A   1      46.925  24.738  26.358  1.00  0.00     0.029 A 
ATOM     52  C   UNL A   1      46.737  26.101  26.844  1.00  0.00     0.049 A 
ATOM     53  H   UNL A   1      45.015  26.928  27.671  1.00  0.00     0.167 HD
ATOM     54  C   UNL A   1      41.229  28.624  29.077  1.00  0.00     0.037 A 
ATOM     55  C   UNL A   1      47.674  27.069  26.841  1.00  0.00     0.037 A 
ATOM     56  C   UNL A   1      42.179  29.699  29.177  1.00  0.00     0.049 A 
ATOM     57  C   UNL A   1      47.328  28.431  27.373  1.00  0.00     0.074 A 
ATOM     58  C   UNL A   1      41.989  30.978  29.669  1.00  0.00     0.029 A 
ATOM     59  N   UNL A   1      43.507  29.612  28.787  1.00  0.00    -0.354 N 
ATOM     60  N   UNL A   1      46.185  28.870  27.838  1.00  0.00    -0.248 NA
ATOM     61  C   UNL A   1      48.405  29.431  27.383  1.00  0.00     0.031 C 
ATOM     62  C   UNL A   1      43.199  31.672  29.560  1.00  0.00     0.029 A 
ATOM     63  C   UNL A   1      44.147  30.816  29.023  1.00  0.00     0.049 A 
ATOM     64  H   UNL A   1      43.931  28.813  28.398  1.00  0.00     0.167 HD
ATOM     65  C   UNL A   1      46.407  30.186  28.214  1.00  0.00     0.074 A 
ATOM     66  C   UNL A   1      47.798  30.475  27.930  1.00  0.00     0.031 C 
ATOM     67  C   UNL A   1      45.535  31.077  28.745  1.00  0.00     0.037 A 
BRANCH  54  68
ATOM     68  C   UNL A   1      39.810  28.892  29.476  1.00  0.00     0.064 A 
ATOM     69  C   UNL A   1      38.867  29.376  28.557  1.00  0.00     0.173 A 
ATOM     70  C   UNL A   1      39.381  28.639  30.788  1.00  0.00     0.173 A 
ATOM     71  F   UNL A   1      39.234  29.646  27.295  1.00  0.00    -0.203 F 
ATOM     72  C   UNL A   1      37.553  29.621  28.942  1.00  0.00     0.198 A 
ATOM     73  C   UNL A   1      38.059  28.864  31.163  1.00  0.00     0.198 A 
ATOM     74  F   UNL A   1      40.243  28.174  31.704  1.00  0.00    -0.203 F 
ATOM     75  F   UNL A   1      36.680  30.125  28.058  1.00  0.00    -0.200 F 
ATOM     76  C   UNL A   1      37.149  29.361  30.243  1.00  0.00     0.200 A 
ATOM     77  F   UNL A   1      37.668  28.606  32.419  1.00  0.00    -0.200 F 
ATOM     78  F   UNL A   1      35.882  29.597  30.612  1.00  0.00    -0.200 F 
ENDBRANCH  54  68
BRANCH  55  79
ATOM     79  C   UNL A   1      49.039  26.768  26.346  1.00  0.00     0.064 A 
ATOM     80  C   UNL A   1      49.381  27.007  25.009  1.00  0.00     0.173 A 
ATOM     81  C   UNL A   1      50.028  26.253  27.195  1.00  0.00     0.173 A 
ATOM     82  F   UNL A   1      48.460  27.479  24.157  1.00  0.00    -0.203 F 
ATOM     83  C   UNL A   1      50.662  26.731  24.534  1.00  0.00     0.198 A 
ATOM     84  C   UNL A   1      51.314  25.995  26.724  1.00  0.00     0.198 A 
ATOM     85  F   UNL A   1      49.747  26.010  28.484  1.00  0.00    -0.203 F 
ATOM     86  F   UNL A   1      50.955  26.939  23.244  1.00  0.00    -0.200 F 
ATOM     87  C   UNL A   1      51.628  26.231  25.393  1.00  0.00     0.200 A 
ATOM     88  F   UNL A   1      52.248  25.517  27.558  1.00  0.00    -0.200 F 
ATOM     89  F   UNL A   1      52.860  25.967  24.938  1.00  0.00    -0.200 F 
ENDBRANCH  55  79
BRANCH  67  90
ATOM     90  C   UNL A   1      46.065  32.436  29.079  1.00  0.00     0.064 A 
ATOM     91  C   UNL A   1      46.648  32.706  30.324  1.00  0.00     0.173 A 
ATOM     92  C   UNL A   1      46.037  33.463  28.124  1.00  0.00     0.173 A 
ATOM     93  F   UNL A   1      46.684  31.756  31.272  1.00  0.00    -0.203 F 
ATOM     94  C   UNL A   1      47.175  33.963  30.608  1.00  0.00     0.198 A 
ATOM     95  C   UNL A   1      46.580  34.713  28.405  1.00  0.00     0.198 A 
ATOM     96  F   UNL A   1      45.491  33.249  26.918  1.00  0.00    -0.203 F 
ATOM     97  F   UNL A   1      47.703  34.209  31.815  1.00  0.00    -0.200 F 
ATOM     98  C   UNL A   1      47.145  34.962  29.646  1.00  0.00     0.200 A 
ATOM     99  F   UNL A   1      46.557  35.677  27.474  1.00  0.00    -0.200 F 
ATOM    100  F   UNL A   1      47.658  36.170  29.920  1.00  0.00    -0.200 F 
ENDBRANCH  67  90
ENDBRANCH  41  42
ENDBRANCH  33  36
ENDBRANCH  31  32
ENDBRANCH  30  31
ENDBRANCH  29  30
ENDBRANCH   3  29
TORSDOF 15
ENDMDL
MODEL 2
REMARK VINA RESULT:     -13.7      1.966      4.374
REMARK SMILES O=C(N/N=C/c1ccccc1O)C(=O)Nc1cccc(C(=O)NCCCNC(=O)c2ccc(-c3c4nc(c(-c5c(F)c(F)c(F)c(F)c5F)c5ccc([nH]5)c(-c5c(F)c(F)c(F)c(F)c5F)c5nc(c(-c6c(F)c(F)c(F)c(F)c6F)c6ccc3[nH]6)C=C5)C=C4)cc2)c1
REMARK SMILES IDX 21 1 22 2 23 3 20 5 16 6 17 7 93 8 18 9 19 10 15 11 13 12
REMARK SMILES IDX 14 13 2 15 1 16 3 17 4 19 5 20 6 21 7 22 11 23 8 24 10 25
REMARK SMILES IDX 9 26 12 27 24 29 25 30 26 31 27 32 28 33 29 35 30 36 31 37
REMARK SMILES IDX 92 38 32 39 91 40 33 41 34 42 35 43 85 44 36 45 90 46 84 47
REMARK SMILES IDX 86 48 37 49 89 50 83 51 82 52 38 54 70 55 50 56 69 57 51 58
REMARK SMILES IDX 54 59 68 60 87 61 52 62 53 63 67 65 88 66 55 67 39 68 40 69
REMARK SMILES IDX 48 70 41 71 42 72 46 73 49 74 43 75 44 76 47 77 45 78 71 79
REMARK SMILES IDX 72 80 80 81 73 82 74 83 78 84 81 85 75 86 76 87 79 88 77 89
REMARK SMILES IDX 56 90 57 91 65 92 58 93 59 94 63 95 66 96 60 97 61 98 64 99
REMARK SMILES IDX 62 100
REMARK H PARENT 23 4 15 14 3 18 12 28 27 34 86 53 54 64
REMARK Flexibility Score: inf
ROOT
ATOM      1  C   UNL A   1      36.576  22.421  25.398  1.00  0.00     0.251 C 
ATOM      2  O   UNL A   1      36.863  23.408  26.079  1.00  0.00    -0.269 OA
ATOM      3  N   UNL A   1      37.545  21.491  25.122  1.00  0.00    -0.352 N 
ATOM      4  H   UNL A   1      38.466  21.782  25.317  1.00  0.00     0.163 HD
ENDROOT
BRANCH   1   5
ATOM      5  C   UNL A   1      35.191  22.354  24.869  1.00  0.00     0.041 A 
ATOM      6  C   UNL A   1      32.092  21.833  25.175  1.00  0.00     0.042 A 
ATOM      7  C   UNL A   1      31.780  22.613  23.550  1.00  0.00     0.026 A 
ATOM      8  C   UNL A   1      33.786  21.632  25.806  1.00  0.00     0.040 A 
ATOM      9  C   UNL A   1      33.208  23.152  22.533  1.00  0.00     0.003 A 
ATOM     10  C   UNL A   1      34.889  23.059  23.216  1.00  0.00     0.014 A 
BRANCH   6  11
ATOM     11  N   UNL A   1      31.064  22.003  26.100  1.00  0.00    -0.318 N 
ATOM     12  C   UNL A   1      30.721  23.184  26.745  1.00  0.00     0.315 C 
ATOM     13  O   UNL A   1      29.682  23.170  27.413  1.00  0.00    -0.263 OA
ATOM     14  H   UNL A   1      30.527  21.207  26.316  1.00  0.00     0.170 HD
BRANCH  12  15
ATOM     15  C   UNL A   1      31.476  24.539  26.645  1.00  0.00     0.329 C 
ATOM     16  O   UNL A   1      32.673  24.567  26.931  1.00  0.00    -0.262 OA
ATOM     17  N   UNL A   1      30.811  25.744  26.386  1.00  0.00    -0.239 N 
ATOM     18  H   UNL A   1      30.721  26.447  27.070  1.00  0.00     0.194 HD
BRANCH  17  19
ATOM     19  N   UNL A   1      30.290  25.890  25.126  1.00  0.00    -0.180 NA
ATOM     20  C   UNL A   1      30.587  27.077  24.505  1.00  0.00     0.145 C 
BRANCH  20  21
ATOM     21  C   UNL A   1      29.599  28.485  23.248  1.00  0.00     0.036 A 
ATOM     22  C   UNL A   1      28.095  28.641  23.006  1.00  0.00     0.013 A 
ATOM     23  C   UNL A   1      30.061  29.665  22.394  1.00  0.00     0.124 A 
ATOM     24  C   UNL A   1      27.328  29.730  22.498  1.00  0.00     0.001 A 
ATOM     25  C   UNL A   1      29.306  30.802  21.936  1.00  0.00     0.047 A 
ATOM     26  C   UNL A   1      27.942  30.862  22.050  1.00  0.00     0.004 A 
BRANCH  23  27
ATOM     27  O   UNL A   1      31.271  29.734  21.696  1.00  0.00    -0.507 OA
ATOM     28  H   UNL A   1      31.388  30.375  21.023  1.00  0.00     0.293 HD
ENDBRANCH  23  27
ENDBRANCH  20  21
ENDBRANCH  17  19
ENDBRANCH  12  15
ENDBRANCH   6  11
ENDBRANCH   1   5
BRANCH   3  29
ATOM     29  C   UNL A   1      37.434  20.145  24.587  1.00  0.00     0.118 C 
BRANCH  29  30
ATOM     30  C   UNL A   1      38.347  19.142  25.281  1.00  0.00     0.042 C 
BRANCH  30  31
ATOM     31  C   UNL A   1      39.591  19.772  25.890  1.00  0.00     0.118 C 
BRANCH  31  32
ATOM     32  N   UNL A   1      40.724  18.855  25.927  1.00  0.00    -0.352 N 
ATOM     33  C   UNL A   1      42.070  19.101  26.053  1.00  0.00     0.251 C 
ATOM     34  H   UNL A   1      40.487  17.903  25.847  1.00  0.00     0.163 HD
ATOM     35  O   UNL A   1      42.873  18.187  25.895  1.00  0.00    -0.269 OA
BRANCH  33  36
ATOM     36  C   UNL A   1      42.565  20.458  26.370  1.00  0.00     0.039 A 
ATOM     37  C   UNL A   1      43.090  21.243  25.337  1.00  0.00     0.014 A 
ATOM     38  C   UNL A   1      42.558  20.943  27.680  1.00  0.00     0.014 A 
ATOM     39  C   UNL A   1      43.549  22.535  25.608  1.00  0.00     0.010 A 
ATOM     40  C   UNL A   1      42.948  22.254  27.936  1.00  0.00     0.010 A 
ATOM     41  C   UNL A   1      43.454  23.060  26.905  1.00  0.00    -0.014 A 
BRANCH  41  42
ATOM     42  C   UNL A   1      43.899  24.440  27.220  1.00  0.00     0.031 A 
ATOM     43  C   UNL A   1      42.910  25.444  27.740  1.00  0.00     0.074 A 
ATOM     44  C   UNL A   1      45.166  24.812  26.957  1.00  0.00     0.049 A 
ATOM     45  N   UNL A   1      43.061  26.728  27.944  1.00  0.00    -0.248 NA
ATOM     46  C   UNL A   1      41.559  24.943  28.037  1.00  0.00     0.031 C 
ATOM     47  C   UNL A   1      46.207  23.943  26.408  1.00  0.00     0.029 A 
ATOM     48  N   UNL A   1      45.787  26.027  27.100  1.00  0.00    -0.354 N 
ATOM     49  C   UNL A   1      41.818  27.192  28.353  1.00  0.00     0.074 A 
ATOM     50  C   UNL A   1      40.916  26.060  28.342  1.00  0.00     0.031 C 
ATOM     51  C   UNL A   1      47.343  24.649  26.276  1.00  0.00     0.029 A 
ATOM     52  C   UNL A   1      47.099  26.024  26.699  1.00  0.00     0.049 A 
ATOM     53  H   UNL A   1      45.334  26.825  27.457  1.00  0.00     0.167 HD
ATOM     54  C   UNL A   1      41.465  28.447  28.717  1.00  0.00     0.037 A 
ATOM     55  C   UNL A   1      48.002  27.023  26.671  1.00  0.00     0.037 A 
ATOM     56  C   UNL A   1      42.376  29.558  28.788  1.00  0.00     0.049 A 
ATOM     57  C   UNL A   1      47.600  28.394  27.137  1.00  0.00     0.074 A 
ATOM     58  C   UNL A   1      42.132  30.850  29.220  1.00  0.00     0.029 A 
ATOM     59  N   UNL A   1      43.713  29.501  28.426  1.00  0.00    -0.354 N 
ATOM     60  N   UNL A   1      46.434  28.813  27.561  1.00  0.00    -0.248 NA
ATOM     61  C   UNL A   1      48.642  29.431  27.123  1.00  0.00     0.031 C 
ATOM     62  C   UNL A   1      43.319  31.580  29.104  1.00  0.00     0.029 A 
ATOM     63  C   UNL A   1      44.307  30.735  28.622  1.00  0.00     0.049 A 
ATOM     64  H   UNL A   1      44.171  28.701  28.081  1.00  0.00     0.167 HD
ATOM     65  C   UNL A   1      46.603  30.151  27.883  1.00  0.00     0.074 A 
ATOM     66  C   UNL A   1      47.988  30.476  27.613  1.00  0.00     0.031 C 
ATOM     67  C   UNL A   1      45.690  31.032  28.358  1.00  0.00     0.037 A 
BRANCH  54  68
ATOM     68  C   UNL A   1      40.029  28.683  29.078  1.00  0.00     0.064 A 
ATOM     69  C   UNL A   1      39.096  29.122  28.128  1.00  0.00     0.173 A 
ATOM     70  C   UNL A   1      39.577  28.442  30.384  1.00  0.00     0.173 A 
ATOM     71  F   UNL A   1      39.484  29.378  26.870  1.00  0.00    -0.203 F 
ATOM     72  C   UNL A   1      37.766  29.337  28.478  1.00  0.00     0.198 A 
ATOM     73  C   UNL A   1      38.241  28.637  30.725  1.00  0.00     0.198 A 
ATOM     74  F   UNL A   1      40.430  28.019  31.329  1.00  0.00    -0.203 F 
ATOM     75  F   UNL A   1      36.901  29.799  27.564  1.00  0.00    -0.200 F 
ATOM     76  C   UNL A   1      37.339  29.090  29.774  1.00  0.00     0.200 A 
ATOM     77  F   UNL A   1      37.827  28.392  31.976  1.00  0.00    -0.200 F 
ATOM     78  F   UNL A   1      36.058  29.297  30.108  1.00  0.00    -0.200 F 
ENDBRANCH  54  68
BRANCH  55  79
ATOM     79  C   UNL A   1      49.387  26.749  26.215  1.00  0.00     0.064 A 
ATOM     80  C   UNL A   1      50.346  26.255  27.108  1.00  0.00     0.173 A 
ATOM     81  C   UNL A   1      49.774  26.959  24.884  1.00  0.00     0.173 A 
ATOM     82  F   UNL A   1      50.025  26.061  28.395  1.00  0.00    -0.203 F 
ATOM     83  C   UNL A   1      51.649  25.991  26.690  1.00  0.00     0.198 A 
ATOM     84  C   UNL A   1      51.072  26.676  24.462  1.00  0.00     0.198 A 
ATOM     85  F   UNL A   1      48.889  27.428  23.993  1.00  0.00    -0.203 F 
ATOM     86  F   UNL A   1      52.556  25.549  27.570  1.00  0.00    -0.200 F 
ATOM     87  C   UNL A   1      52.009  26.196  25.367  1.00  0.00     0.200 A 
ATOM     88  F   UNL A   1      51.415  26.869  23.182  1.00  0.00    -0.200 F 
ATOM     89  F   UNL A   1      53.260  25.940  24.964  1.00  0.00    -0.200 F 
ENDBRANCH  55  79
BRANCH  67  90
ATOM     90  C   UNL A   1      46.167  32.422  28.642  1.00  0.00     0.064 A 
ATOM     91  C   UNL A   1      46.097  33.430  27.672  1.00  0.00     0.173 A 
ATOM     92  C   UNL A   1      46.651  32.760  29.915  1.00  0.00     0.173 A 
ATOM     93  F   UNL A   1      45.654  33.148  26.437  1.00  0.00    -0.203 F 
ATOM     94  C   UNL A   1      46.506  34.729  27.962  1.00  0.00     0.198 A 
ATOM     95  C   UNL A   1      47.042  34.063  30.206  1.00  0.00     0.198 A 
ATOM     96  F   UNL A   1      46.733  31.828  30.876  1.00  0.00    -0.203 F 
ATOM     97  F   UNL A   1      46.457  35.673  27.011  1.00  0.00    -0.200 F 
ATOM     98  C   UNL A   1      46.973  35.045  29.230  1.00  0.00     0.200 A 
ATOM     99  F   UNL A   1      47.487  34.370  31.434  1.00  0.00    -0.200 F 
ATOM    100  F   UNL A   1      47.360  36.297  29.508  1.00  0.00    -0.200 F 
ENDBRANCH  67  90
ENDBRANCH  41  42
ENDBRANCH  33  36
ENDBRANCH  31  32
ENDBRANCH  30  31
ENDBRANCH  29  30
ENDBRANCH   3  29
TORSDOF 15
ENDMDL
MODEL 3
REMARK VINA RESULT:     -13.7      5.021     10.429
REMARK SMILES O=C(N/N=C/c1ccccc1O)C(=O)Nc1cccc(C(=O)NCCCNC(=O)c2ccc(-c3c4nc(c(-c5c(F)c(F)c(F)c(F)c5F)c5ccc([nH]5)c(-c5c(F)c(F)c(F)c(F)c5F)c5nc(c(-c6c(F)c(F)c(F)c(F)c6F)c6ccc3[nH]6)C=C5)C=C4)cc2)c1
REMARK SMILES IDX 21 1 22 2 23 3 20 5 16 6 17 7 93 8 18 9 19 10 15 11 13 12
REMARK SMILES IDX 14 13 2 15 1 16 3 17 4 19 5 20 6 21 7 22 11 23 8 24 10 25
REMARK SMILES IDX 9 26 12 27 24 29 25 30 26 31 27 32 28 33 29 35 30 36 31 37
REMARK SMILES IDX 92 38 32 39 91 40 33 41 34 42 35 43 85 44 36 45 90 46 84 47
REMARK SMILES IDX 86 48 37 49 89 50 83 51 82 52 38 54 70 55 50 56 69 57 51 58
REMARK SMILES IDX 54 59 68 60 87 61 52 62 53 63 67 65 88 66 55 67 39 68 40 69
REMARK SMILES IDX 48 70 41 71 42 72 46 73 49 74 43 75 44 76 47 77 45 78 71 79
REMARK SMILES IDX 72 80 80 81 73 82 74 83 78 84 81 85 75 86 76 87 79 88 77 89
REMARK SMILES IDX 56 90 57 91 65 92 58 93 59 94 63 95 66 96 60 97 61 98 64 99
REMARK SMILES IDX 62 100
REMARK H PARENT 23 4 15 14 3 18 12 28 27 34 86 53 54 64
REMARK Flexibility Score: inf
ROOT
ATOM      1  C   UNL A   1      30.842  24.274  26.481  1.00  0.00     0.251 C 
ATOM      2  O   UNL A   1      30.461  23.390  27.251  1.00  0.00    -0.269 OA
ATOM      3  N   UNL A   1      30.246  25.508  26.527  1.00  0.00    -0.352 N 
ATOM      4  H   UNL A   1      29.405  25.542  27.039  1.00  0.00     0.163 HD
ENDROOT
BRANCH   1   5
ATOM      5  C   UNL A   1      31.893  23.900  25.502  1.00  0.00     0.041 A 
ATOM      6  C   UNL A   1      32.938  23.374  22.569  1.00  0.00     0.042 A 
ATOM      7  C   UNL A   1      34.667  23.353  23.167  1.00  0.00     0.026 A 
ATOM      8  C   UNL A   1      31.550  23.570  23.728  1.00  0.00     0.040 A 
ATOM      9  C   UNL A   1      34.986  23.484  24.969  1.00  0.00     0.003 A 
ATOM     10  C   UNL A   1      33.608  23.798  26.110  1.00  0.00     0.014 A 
BRANCH   6  11
ATOM     11  N   UNL A   1      32.786  23.866  21.274  1.00  0.00    -0.318 N 
ATOM     12  C   UNL A   1      32.905  25.190  20.874  1.00  0.00     0.315 C 
ATOM     13  O   UNL A   1      32.887  25.406  19.658  1.00  0.00    -0.263 OA
ATOM     14  H   UNL A   1      32.573  23.208  20.573  1.00  0.00     0.170 HD
BRANCH  12  15
ATOM     15  C   UNL A   1      33.134  26.414  21.804  1.00  0.00     0.329 C 
ATOM     16  O   UNL A   1      34.140  27.102  21.632  1.00  0.00    -0.262 OA
ATOM     17  N   UNL A   1      32.318  26.668  22.913  1.00  0.00    -0.239 N 
ATOM     18  H   UNL A   1      32.649  26.571  23.836  1.00  0.00     0.194 HD
BRANCH  17  19
ATOM     19  N   UNL A   1      31.031  27.057  22.643  1.00  0.00    -0.180 NA
ATOM     20  C   UNL A   1      30.896  28.341  22.176  1.00  0.00     0.145 C 
BRANCH  20  21
ATOM     21  C   UNL A   1      29.547  29.971  22.424  1.00  0.00     0.036 A 
ATOM     22  C   UNL A   1      29.359  30.862  23.655  1.00  0.00     0.013 A 
ATOM     23  C   UNL A   1      28.555  30.687  21.509  1.00  0.00     0.124 A 
ATOM     24  C   UNL A   1      28.778  32.155  23.806  1.00  0.00     0.001 A 
ATOM     25  C   UNL A   1      28.016  32.017  21.620  1.00  0.00     0.047 A 
ATOM     26  C   UNL A   1      28.187  32.777  22.747  1.00  0.00     0.004 A 
BRANCH  23  27
ATOM     27  O   UNL A   1      27.798  30.078  20.502  1.00  0.00    -0.507 OA
ATOM     28  H   UNL A   1      27.084  29.514  20.728  1.00  0.00     0.293 HD
ENDBRANCH  23  27
ENDBRANCH  20  21
ENDBRANCH  17  19
ENDBRANCH  12  15
ENDBRANCH   6  11
ENDBRANCH   1   5
BRANCH   3  29
ATOM     29  C   UNL A   1      30.653  26.774  25.942  1.00  0.00     0.118 C 
BRANCH  29  30
ATOM     30  C   UNL A   1      31.533  27.608  26.863  1.00  0.00     0.042 C 
BRANCH  30  31
ATOM     31  C   UNL A   1      32.583  28.427  26.125  1.00  0.00     0.118 C 
BRANCH  31  32
ATOM     32  N   UNL A   1      32.310  29.859  26.167  1.00  0.00    -0.352 N 
ATOM     33  C   UNL A   1      32.942  30.868  26.852  1.00  0.00     0.251 C 
ATOM     34  H   UNL A   1      31.548  30.150  25.616  1.00  0.00     0.163 HD
ATOM     35  O   UNL A   1      32.445  31.991  26.877  1.00  0.00    -0.269 OA
BRANCH  33  36
ATOM     36  C   UNL A   1      34.211  30.619  27.569  1.00  0.00     0.039 A 
ATOM     37  C   UNL A   1      35.092  31.687  27.773  1.00  0.00     0.014 A 
ATOM     38  C   UNL A   1      34.558  29.337  28.001  1.00  0.00     0.014 A 
ATOM     39  C   UNL A   1      36.290  31.481  28.463  1.00  0.00     0.010 A 
ATOM     40  C   UNL A   1      35.715  29.146  28.750  1.00  0.00     0.010 A 
ATOM     41  C   UNL A   1      36.596  30.214  28.981  1.00  0.00    -0.014 A 
BRANCH  41  42
ATOM     42  C   UNL A   1      37.842  29.968  29.748  1.00  0.00     0.031 A 
ATOM     43  C   UNL A   1      38.892  29.050  29.193  1.00  0.00     0.074 A 
ATOM     44  C   UNL A   1      37.988  30.498  30.978  1.00  0.00     0.049 A 
ATOM     45  N   UNL A   1      39.981  28.595  29.760  1.00  0.00    -0.248 NA
ATOM     46  C   UNL A   1      38.671  28.546  27.828  1.00  0.00     0.031 C 
ATOM     47  C   UNL A   1      37.018  31.367  31.646  1.00  0.00     0.029 A 
ATOM     48  N   UNL A   1      39.003  30.366  31.891  1.00  0.00    -0.354 N 
ATOM     49  C   UNL A   1      40.549  27.725  28.839  1.00  0.00     0.074 A 
ATOM     50  C   UNL A   1      39.674  27.692  27.687  1.00  0.00     0.031 C 
ATOM     51  C   UNL A   1      37.494  31.704  32.857  1.00  0.00     0.029 A 
ATOM     52  C   UNL A   1      38.781  31.048  33.061  1.00  0.00     0.049 A 
ATOM     53  H   UNL A   1      39.813  29.832  31.723  1.00  0.00     0.167 HD
ATOM     54  C   UNL A   1      41.705  27.027  28.941  1.00  0.00     0.037 A 
ATOM     55  C   UNL A   1      39.533  31.130  34.176  1.00  0.00     0.037 A 
ATOM     56  C   UNL A   1      42.606  27.108  30.058  1.00  0.00     0.049 A 
ATOM     57  C   UNL A   1      40.841  30.392  34.239  1.00  0.00     0.074 A 
ATOM     58  C   UNL A   1      43.839  26.501  30.222  1.00  0.00     0.029 A 
ATOM     59  N   UNL A   1      42.372  27.857  31.202  1.00  0.00    -0.354 N 
ATOM     60  N   UNL A   1      41.389  29.606  33.346  1.00  0.00    -0.248 NA
ATOM     61  C   UNL A   1      41.635  30.556  35.464  1.00  0.00     0.031 C 
ATOM     62  C   UNL A   1      44.344  26.869  31.473  1.00  0.00     0.029 A 
ATOM     63  C   UNL A   1      43.436  27.724  32.077  1.00  0.00     0.049 A 
ATOM     64  H   UNL A   1      41.569  28.400  31.368  1.00  0.00     0.167 HD
ATOM     65  C   UNL A   1      42.598  29.197  33.889  1.00  0.00     0.074 A 
ATOM     66  C   UNL A   1      42.709  29.829  35.188  1.00  0.00     0.031 C 
ATOM     67  C   UNL A   1      43.531  28.371  33.359  1.00  0.00     0.037 A 
BRANCH  54  68
ATOM     68  C   UNL A   1      42.065  26.120  27.803  1.00  0.00     0.064 A 
ATOM     69  C   UNL A   1      41.485  24.851  27.664  1.00  0.00     0.173 A 
ATOM     70  C   UNL A   1      42.984  26.535  26.828  1.00  0.00     0.173 A 
ATOM     71  F   UNL A   1      40.611  24.406  28.580  1.00  0.00    -0.203 F 
ATOM     72  C   UNL A   1      41.829  24.019  26.604  1.00  0.00     0.198 A 
ATOM     73  C   UNL A   1      43.309  25.709  25.755  1.00  0.00     0.198 A 
ATOM     74  F   UNL A   1      43.565  27.741  26.914  1.00  0.00    -0.203 F 
ATOM     75  F   UNL A   1      41.295  22.793  26.514  1.00  0.00    -0.200 F 
ATOM     76  C   UNL A   1      42.737  24.450  25.647  1.00  0.00     0.200 A 
ATOM     77  F   UNL A   1      44.181  26.129  24.828  1.00  0.00    -0.200 F 
ATOM     78  F   UNL A   1      43.067  23.648  24.626  1.00  0.00    -0.200 F 
ENDBRANCH  54  68
BRANCH  55  79
ATOM     79  C   UNL A   1      39.078  31.973  35.308  1.00  0.00     0.064 A 
ATOM     80  C   UNL A   1      38.339  31.415  36.359  1.00  0.00     0.173 A 
ATOM     81  C   UNL A   1      39.382  33.339  35.371  1.00  0.00     0.173 A 
ATOM     82  F   UNL A   1      38.008  30.116  36.329  1.00  0.00    -0.203 F 
ATOM     83  C   UNL A   1      37.909  32.197  37.429  1.00  0.00     0.198 A 
ATOM     84  C   UNL A   1      38.968  34.117  36.451  1.00  0.00     0.198 A 
ATOM     85  F   UNL A   1      40.089  33.916  34.389  1.00  0.00    -0.203 F 
ATOM     86  F   UNL A   1      37.177  31.647  38.407  1.00  0.00    -0.200 F 
ATOM     87  C   UNL A   1      38.229  33.545  37.478  1.00  0.00     0.200 A 
ATOM     88  F   UNL A   1      39.284  35.418  36.498  1.00  0.00    -0.200 F 
ATOM     89  F   UNL A   1      37.818  34.297  38.507  1.00  0.00    -0.200 F 
ENDBRANCH  55  79
BRANCH  67  90
ATOM     90  C   UNL A   1      44.765  28.125  34.170  1.00  0.00     0.064 A 
ATOM     91  C   UNL A   1      45.892  28.949  34.053  1.00  0.00     0.173 A 
ATOM     92  C   UNL A   1      44.800  27.086  35.112  1.00  0.00     0.173 A 
ATOM     93  F   UNL A   1      45.907  29.947  33.155  1.00  0.00    -0.203 F 
ATOM     94  C   UNL A   1      47.018  28.735  34.843  1.00  0.00     0.198 A 
ATOM     95  C   UNL A   1      45.921  26.885  35.912  1.00  0.00     0.198 A 
ATOM     96  F   UNL A   1      43.743  26.273  35.261  1.00  0.00    -0.203 F 
ATOM     97  F   UNL A   1      48.096  29.518  34.695  1.00  0.00    -0.200 F 
ATOM     98  C   UNL A   1      47.029  27.707  35.774  1.00  0.00     0.200 A 
ATOM     99  F   UNL A   1      45.928  25.896  36.817  1.00  0.00    -0.200 F 
ATOM    100  F   UNL A   1      48.112  27.506  36.537  1.00  0.00    -0.200 F 
ENDBRANCH  67  90
ENDBRANCH  41  42
ENDBRANCH  33  36
ENDBRANCH  31  32
ENDBRANCH  30  31
ENDBRANCH  29  30
ENDBRANCH   3  29
TORSDOF 15
ENDMDL
