MODEL 1
REMARK VINA RESULT:     -11.3      0.000      0.000
REMARK SMILES Cc1nn(C)c(OCC(C)(C)[NH+](C)C)c1C(=O)NCCCNC(=O)c1ccc(-c2c3nc(c(-c4c(F)c(F)c(F)c(F)c4F)c4ccc([nH]4)c(-c4c(F)c(F)c(F)c(F)c4F)c4nc(c(-c5c(F)c(F)c(F)c(F)c5F)c5ccc2[nH]5)C=C4)C=C3)cc1
REMARK SMILES IDX 19 1 18 2 16 3 17 4 15 6 1 7 2 8 3 9 4 10 6 11 5 12 7 13
REMARK SMILES IDX 8 14 9 15 10 16 11 17 12 18 13 19 14 20 20 22 21 23 22 24
REMARK SMILES IDX 23 25 24 27 25 28 26 29 87 30 27 31 86 32 28 33 29 34 30 35
REMARK SMILES IDX 80 36 31 37 85 38 79 39 81 40 32 41 84 42 78 43 77 44 33 46
REMARK SMILES IDX 65 47 45 48 64 49 46 50 49 51 63 52 82 53 47 54 48 55 62 57
REMARK SMILES IDX 83 58 50 59 34 60 35 61 43 62 36 63 37 64 41 65 44 66 38 67
REMARK SMILES IDX 39 68 42 69 40 70 66 71 67 72 75 73 68 74 69 75 73 76 76 77
REMARK SMILES IDX 70 78 71 79 74 80 72 81 51 82 52 83 60 84 53 85 54 86 58 87
REMARK SMILES IDX 61 88 55 89 56 90 59 91 57 92
REMARK H PARENT 18 5 12 21 22 26 81 45 49 56
REMARK Flexibility Score: inf
ROOT
ATOM      1  C   UNL A   1      31.606  30.397  26.363  1.00  0.00     0.118 C 
ENDROOT
BRANCH   1   2
ATOM      2  N   UNL A   1      32.374  30.196  25.153  1.00  0.00    -0.352 N 
ATOM      3  C   UNL A   1      32.508  29.111  24.332  1.00  0.00     0.258 C 
ATOM      4  O   UNL A   1      33.407  29.175  23.493  1.00  0.00    -0.269 OA
ATOM      5  H   UNL A   1      32.894  30.983  24.870  1.00  0.00     0.163 HD
BRANCH   3   6
ATOM      6  C   UNL A   1      31.583  27.998  24.376  1.00  0.00     0.124 A 
ATOM      7  C   UNL A   1      29.552  28.552  22.737  1.00  0.00     0.070 C 
ATOM      8  C   UNL A   1      30.310  27.781  23.749  1.00  0.00     0.076 A 
ATOM      9  N   UNL A   1      29.710  26.680  24.212  1.00  0.00    -0.174 NA
ATOM     10  N   UNL A   1      30.538  26.238  25.163  1.00  0.00    -0.236 N 
ATOM     11  C   UNL A   1      31.756  26.870  25.181  1.00  0.00     0.225 A 
ATOM     12  C   UNL A   1      30.074  25.202  26.054  1.00  0.00     0.178 C 
BRANCH  11  13
ATOM     13  O   UNL A   1      32.716  26.335  25.941  1.00  0.00    -0.471 OA
BRANCH  13  14
ATOM     14  C   UNL A   1      33.969  25.913  25.408  1.00  0.00     0.299 C 
BRANCH  14  15
ATOM     15  C   UNL A   1      34.267  24.363  25.287  1.00  0.00     0.126 C 
ATOM     16  C   UNL A   1      35.755  24.054  25.547  1.00  0.00     0.082 C 
ATOM     17  C   UNL A   1      33.478  23.737  26.477  1.00  0.00     0.082 C 
BRANCH  15  18
ATOM     18  N   UNL A   1      33.771  23.732  24.023  1.00  0.00    -0.333 N 
ATOM     19  C   UNL A   1      32.499  23.019  24.168  1.00  0.00     0.333 C 
ATOM     20  C   UNL A   1      33.659  24.647  22.880  1.00  0.00     0.333 C 
ATOM     21  H   UNL A   1      34.509  23.056  23.823  1.00  0.00     0.348 HD
ENDBRANCH  15  18
ENDBRANCH  14  15
ENDBRANCH  13  14
ENDBRANCH  11  13
ENDBRANCH   3   6
ENDBRANCH   1   2
BRANCH   1  22
ATOM     22  C   UNL A   1      31.445  31.898  26.572  1.00  0.00     0.042 C 
BRANCH  22  23
ATOM     23  C   UNL A   1      32.657  32.510  27.256  1.00  0.00     0.118 C 
BRANCH  23  24
ATOM     24  N   UNL A   1      32.455  33.922  27.522  1.00  0.00    -0.352 N 
ATOM     25  C   UNL A   1      33.038  34.687  28.504  1.00  0.00     0.251 C 
ATOM     26  H   UNL A   1      31.823  34.389  26.929  1.00  0.00     0.163 HD
ATOM     27  O   UNL A   1      32.582  35.788  28.784  1.00  0.00    -0.269 OA
BRANCH  25  28
ATOM     28  C   UNL A   1      34.209  34.154  29.233  1.00  0.00     0.039 A 
ATOM     29  C   UNL A   1      34.002  33.262  30.286  1.00  0.00     0.014 A 
ATOM     30  C   UNL A   1      35.506  34.524  28.864  1.00  0.00     0.014 A 
ATOM     31  C   UNL A   1      35.101  32.708  30.943  1.00  0.00     0.010 A 
ATOM     32  C   UNL A   1      36.598  33.903  29.458  1.00  0.00     0.010 A 
ATOM     33  C   UNL A   1      36.407  33.002  30.516  1.00  0.00    -0.014 A 
BRANCH  33  34
ATOM     34  C   UNL A   1      37.588  32.393  31.177  1.00  0.00     0.031 A 
ATOM     35  C   UNL A   1      38.337  31.280  30.497  1.00  0.00     0.074 A 
ATOM     36  C   UNL A   1      37.952  32.806  32.406  1.00  0.00     0.049 A 
ATOM     37  N   UNL A   1      39.355  30.581  30.929  1.00  0.00    -0.248 NA
ATOM     38  C   UNL A   1      37.858  30.879  29.164  1.00  0.00     0.031 C 
ATOM     39  C   UNL A   1      37.276  33.846  33.183  1.00  0.00     0.029 A 
ATOM     40  N   UNL A   1      38.977  32.396  33.222  1.00  0.00    -0.354 N 
ATOM     41  C   UNL A   1      39.629  29.657  29.930  1.00  0.00     0.074 A 
ATOM     42  C   UNL A   1      38.633  29.838  28.898  1.00  0.00     0.031 C 
ATOM     43  C   UNL A   1      37.919  34.012  34.349  1.00  0.00     0.029 A 
ATOM     44  C   UNL A   1      39.025  33.062  34.422  1.00  0.00     0.049 A 
ATOM     45  H   UNL A   1      39.616  31.691  32.971  1.00  0.00     0.167 HD
ATOM     46  C   UNL A   1      40.639  28.756  29.866  1.00  0.00     0.037 A 
ATOM     47  C   UNL A   1      39.863  32.915  35.466  1.00  0.00     0.037 A 
ATOM     48  C   UNL A   1      41.637  28.595  30.890  1.00  0.00     0.049 A 
ATOM     49  C   UNL A   1      40.962  31.890  35.379  1.00  0.00     0.074 A 
ATOM     50  C   UNL A   1      42.733  27.749  30.901  1.00  0.00     0.029 A 
ATOM     51  N   UNL A   1      41.657  29.292  32.090  1.00  0.00    -0.354 N 
ATOM     52  N   UNL A   1      41.256  31.071  34.399  1.00  0.00    -0.248 NA
ATOM     53  C   UNL A   1      41.851  31.774  36.544  1.00  0.00     0.031 C 
ATOM     54  C   UNL A   1      43.382  27.891  32.132  1.00  0.00     0.029 A 
ATOM     55  C   UNL A   1      42.731  28.874  32.862  1.00  0.00     0.049 A 
ATOM     56  H   UNL A   1      41.005  29.980  32.355  1.00  0.00     0.167 HD
ATOM     57  C   UNL A   1      42.379  30.366  34.813  1.00  0.00     0.074 A 
ATOM     58  C   UNL A   1      42.722  30.868  36.128  1.00  0.00     0.031 C 
ATOM     59  C   UNL A   1      43.063  29.391  34.165  1.00  0.00     0.037 A 
BRANCH  46  60
ATOM     60  C   UNL A   1      40.713  27.878  28.650  1.00  0.00     0.064 A 
ATOM     61  C   UNL A   1      40.022  26.658  28.576  1.00  0.00     0.173 A 
ATOM     62  C   UNL A   1      41.459  28.275  27.530  1.00  0.00     0.173 A 
ATOM     63  F   UNL A   1      39.304  26.225  29.624  1.00  0.00    -0.203 F 
ATOM     64  C   UNL A   1      40.101  25.856  27.441  1.00  0.00     0.198 A 
ATOM     65  C   UNL A   1      41.506  27.486  26.383  1.00  0.00     0.198 A 
ATOM     66  F   UNL A   1      42.136  29.433  27.542  1.00  0.00    -0.203 F 
ATOM     67  F   UNL A   1      39.476  24.669  27.417  1.00  0.00    -0.200 F 
ATOM     68  C   UNL A   1      40.835  26.274  26.343  1.00  0.00     0.200 A 
ATOM     69  F   UNL A   1      42.205  27.899  25.316  1.00  0.00    -0.200 F 
ATOM     70  F   UNL A   1      40.903  25.504  25.248  1.00  0.00    -0.200 F 
ENDBRANCH  46  60
BRANCH  47  71
ATOM     71  C   UNL A   1      39.710  33.772  36.672  1.00  0.00     0.064 A 
ATOM     72  C   UNL A   1      38.913  33.363  37.749  1.00  0.00     0.173 A 
ATOM     73  C   UNL A   1      40.348  35.018  36.768  1.00  0.00     0.173 A 
ATOM     74  F   UNL A   1      38.268  32.189  37.697  1.00  0.00    -0.203 F 
ATOM     75  C   UNL A   1      38.738  34.178  38.866  1.00  0.00     0.198 A 
ATOM     76  C   UNL A   1      40.198  35.817  37.900  1.00  0.00     0.198 A 
ATOM     77  F   UNL A   1      41.127  35.454  35.769  1.00  0.00    -0.203 F 
ATOM     78  F   UNL A   1      37.927  33.785  39.859  1.00  0.00    -0.200 F 
ATOM     79  C   UNL A   1      39.385  35.403  38.944  1.00  0.00     0.200 A 
ATOM     80  F   UNL A   1      40.840  36.991  37.978  1.00  0.00    -0.200 F 
ATOM     81  F   UNL A   1      39.218  36.183  40.018  1.00  0.00    -0.200 F 
ENDBRANCH  47  71
BRANCH  59  82
ATOM     82  C   UNL A   1      44.279  28.832  34.847  1.00  0.00     0.064 A 
ATOM     83  C   UNL A   1      44.209  27.698  35.671  1.00  0.00     0.173 A 
ATOM     84  C   UNL A   1      45.538  29.414  34.636  1.00  0.00     0.173 A 
ATOM     85  F   UNL A   1      43.028  27.113  35.916  1.00  0.00    -0.203 F 
ATOM     86  C   UNL A   1      45.351  27.188  36.281  1.00  0.00     0.198 A 
ATOM     87  C   UNL A   1      46.683  28.879  35.220  1.00  0.00     0.198 A 
ATOM     88  F   UNL A   1      45.662  30.495  33.851  1.00  0.00    -0.203 F 
ATOM     89  F   UNL A   1      45.253  26.137  37.108  1.00  0.00    -0.200 F 
ATOM     90  C   UNL A   1      46.588  27.773  36.049  1.00  0.00     0.200 A 
ATOM     91  F   UNL A   1      47.878  29.435  34.979  1.00  0.00    -0.200 F 
ATOM     92  F   UNL A   1      47.686  27.272  36.630  1.00  0.00    -0.200 F 
ENDBRANCH  59  82
ENDBRANCH  33  34
ENDBRANCH  25  28
ENDBRANCH  23  24
ENDBRANCH  22  23
ENDBRANCH   1  22
TORSDOF 14
ENDMDL
MODEL 2
REMARK VINA RESULT:     -11.3      5.469     10.953
REMARK SMILES Cc1nn(C)c(OCC(C)(C)[NH+](C)C)c1C(=O)NCCCNC(=O)c1ccc(-c2c3nc(c(-c4c(F)c(F)c(F)c(F)c4F)c4ccc([nH]4)c(-c4c(F)c(F)c(F)c(F)c4F)c4nc(c(-c5c(F)c(F)c(F)c(F)c5F)c5ccc2[nH]5)C=C4)C=C3)cc1
REMARK SMILES IDX 19 1 18 2 16 3 17 4 15 6 1 7 2 8 3 9 4 10 6 11 5 12 7 13
REMARK SMILES IDX 8 14 9 15 10 16 11 17 12 18 13 19 14 20 20 22 21 23 22 24
REMARK SMILES IDX 23 25 24 27 25 28 26 29 87 30 27 31 86 32 28 33 29 34 30 35
REMARK SMILES IDX 80 36 31 37 85 38 79 39 81 40 32 41 84 42 78 43 77 44 33 46
REMARK SMILES IDX 65 47 45 48 64 49 46 50 49 51 63 52 82 53 47 54 48 55 62 57
REMARK SMILES IDX 83 58 50 59 34 60 35 61 43 62 36 63 37 64 41 65 44 66 38 67
REMARK SMILES IDX 39 68 42 69 40 70 66 71 67 72 75 73 68 74 69 75 73 76 76 77
REMARK SMILES IDX 70 78 71 79 74 80 72 81 51 82 52 83 60 84 53 85 54 86 58 87
REMARK SMILES IDX 61 88 55 89 56 90 59 91 57 92
REMARK H PARENT 18 5 12 21 22 26 81 45 49 56
REMARK Flexibility Score: inf
ROOT
ATOM      1  C   UNL A   1      36.770  20.923  24.717  1.00  0.00     0.118 C 
ENDROOT
BRANCH   1   2
ATOM      2  N   UNL A   1      35.952  21.048  25.903  1.00  0.00    -0.352 N 
ATOM      3  C   UNL A   1      34.595  21.070  26.073  1.00  0.00     0.258 C 
ATOM      4  O   UNL A   1      34.194  21.408  27.187  1.00  0.00    -0.269 OA
ATOM      5  H   UNL A   1      36.464  21.131  26.740  1.00  0.00     0.163 HD
BRANCH   3   6
ATOM      6  C   UNL A   1      33.687  20.624  25.038  1.00  0.00     0.124 A 
ATOM      7  C   UNL A   1      33.879  17.969  24.864  1.00  0.00     0.070 C 
ATOM      8  C   UNL A   1      33.421  19.326  24.486  1.00  0.00     0.076 A 
ATOM      9  N   UNL A   1      32.629  19.395  23.412  1.00  0.00    -0.174 NA
ATOM     10  N   UNL A   1      32.448  20.707  23.230  1.00  0.00    -0.236 N 
ATOM     11  C   UNL A   1      32.895  21.482  24.271  1.00  0.00     0.225 A 
ATOM     12  C   UNL A   1      31.849  21.155  21.996  1.00  0.00     0.178 C 
BRANCH  11  13
ATOM     13  O   UNL A   1      32.545  22.771  24.271  1.00  0.00    -0.471 OA
BRANCH  13  14
ATOM     14  C   UNL A   1      33.426  23.803  23.835  1.00  0.00     0.299 C 
BRANCH  14  15
ATOM     15  C   UNL A   1      33.837  24.943  24.855  1.00  0.00     0.126 C 
ATOM     16  C   UNL A   1      32.942  24.924  26.109  1.00  0.00     0.082 C 
ATOM     17  C   UNL A   1      35.261  24.524  25.329  1.00  0.00     0.082 C 
BRANCH  15  18
ATOM     18  N   UNL A   1      33.936  26.310  24.251  1.00  0.00    -0.333 N 
ATOM     19  C   UNL A   1      33.350  26.418  22.913  1.00  0.00     0.333 C 
ATOM     20  C   UNL A   1      33.392  27.392  25.082  1.00  0.00     0.333 C 
ATOM     21  H   UNL A   1      34.947  26.434  24.183  1.00  0.00     0.348 HD
ENDBRANCH  15  18
ENDBRANCH  14  15
ENDBRANCH  13  14
ENDBRANCH  11  13
ENDBRANCH   3   6
ENDBRANCH   1   2
BRANCH   1  22
ATOM     22  C   UNL A   1      37.778  19.806  24.958  1.00  0.00     0.042 C 
BRANCH  22  23
ATOM     23  C   UNL A   1      39.006  20.299  25.706  1.00  0.00     0.118 C 
BRANCH  23  24
ATOM     24  N   UNL A   1      39.974  19.233  25.892  1.00  0.00    -0.352 N 
ATOM     25  C   UNL A   1      41.333  19.348  26.058  1.00  0.00     0.251 C 
ATOM     26  H   UNL A   1      39.613  18.318  25.899  1.00  0.00     0.163 HD
ATOM     27  O   UNL A   1      42.058  18.369  25.936  1.00  0.00    -0.269 OA
BRANCH  25  28
ATOM     28  C   UNL A   1      41.912  20.675  26.364  1.00  0.00     0.039 A 
ATOM     29  C   UNL A   1      42.200  21.546  25.312  1.00  0.00     0.014 A 
ATOM     30  C   UNL A   1      42.154  21.058  27.687  1.00  0.00     0.014 A 
ATOM     31  C   UNL A   1      42.692  22.822  25.593  1.00  0.00     0.010 A 
ATOM     32  C   UNL A   1      42.557  22.358  27.967  1.00  0.00     0.010 A 
ATOM     33  C   UNL A   1      42.848  23.247  26.923  1.00  0.00    -0.014 A 
BRANCH  33  34
ATOM     34  C   UNL A   1      43.333  24.613  27.241  1.00  0.00     0.031 A 
ATOM     35  C   UNL A   1      42.385  25.631  27.811  1.00  0.00     0.074 A 
ATOM     36  C   UNL A   1      44.609  24.948  26.970  1.00  0.00     0.049 A 
ATOM     37  N   UNL A   1      42.599  26.889  28.104  1.00  0.00    -0.248 NA
ATOM     38  C   UNL A   1      41.004  25.185  28.057  1.00  0.00     0.031 C 
ATOM     39  C   UNL A   1      45.609  24.059  26.376  1.00  0.00     0.029 A 
ATOM     40  N   UNL A   1      45.283  26.129  27.151  1.00  0.00    -0.354 N 
ATOM     41  C   UNL A   1      41.381  27.382  28.557  1.00  0.00     0.074 A 
ATOM     42  C   UNL A   1      40.419  26.309  28.440  1.00  0.00     0.031 C 
ATOM     43  C   UNL A   1      46.774  24.716  26.268  1.00  0.00     0.029 A 
ATOM     44  C   UNL A   1      46.593  26.084  26.743  1.00  0.00     0.049 A 
ATOM     45  H   UNL A   1      44.866  26.933  27.537  1.00  0.00     0.167 HD
ATOM     46  C   UNL A   1      41.099  28.611  29.052  1.00  0.00     0.037 A 
ATOM     47  C   UNL A   1      47.540  27.043  26.745  1.00  0.00     0.037 A 
ATOM     48  C   UNL A   1      42.068  29.667  29.181  1.00  0.00     0.049 A 
ATOM     49  C   UNL A   1      47.192  28.408  27.278  1.00  0.00     0.074 A 
ATOM     50  C   UNL A   1      41.900  30.931  29.718  1.00  0.00     0.029 A 
ATOM     51  N   UNL A   1      43.389  29.582  28.762  1.00  0.00    -0.354 N 
ATOM     52  N   UNL A   1      46.058  28.841  27.770  1.00  0.00    -0.248 NA
ATOM     53  C   UNL A   1      48.262  29.415  27.261  1.00  0.00     0.031 C 
ATOM     54  C   UNL A   1      43.101  31.632  29.570  1.00  0.00     0.029 A 
ATOM     55  C   UNL A   1      44.038  30.783  29.002  1.00  0.00     0.049 A 
ATOM     56  H   UNL A   1      43.802  28.787  28.354  1.00  0.00     0.167 HD
ATOM     57  C   UNL A   1      46.284  30.158  28.151  1.00  0.00     0.074 A 
ATOM     58  C   UNL A   1      47.671  30.445  27.847  1.00  0.00     0.031 C 
ATOM     59  C   UNL A   1      45.422  31.048  28.701  1.00  0.00     0.037 A 
BRANCH  46  60
ATOM     60  C   UNL A   1      39.688  28.878  29.490  1.00  0.00     0.064 A 
ATOM     61  C   UNL A   1      38.725  29.392  28.608  1.00  0.00     0.173 A 
ATOM     62  C   UNL A   1      39.282  28.585  30.801  1.00  0.00     0.173 A 
ATOM     63  F   UNL A   1      39.062  29.701  27.346  1.00  0.00    -0.203 F 
ATOM     64  C   UNL A   1      37.420  29.633  29.029  1.00  0.00     0.198 A 
ATOM     65  C   UNL A   1      37.967  28.794  31.209  1.00  0.00     0.198 A 
ATOM     66  F   UNL A   1      40.158  28.087  31.687  1.00  0.00    -0.203 F 
ATOM     67  F   UNL A   1      36.534  30.177  28.182  1.00  0.00    -0.200 F 
ATOM     68  C   UNL A   1      37.039  29.327  30.326  1.00  0.00     0.200 A 
ATOM     69  F   UNL A   1      37.597  28.484  32.460  1.00  0.00    -0.200 F 
ATOM     70  F   UNL A   1      35.781  29.552  30.728  1.00  0.00    -0.200 F 
ENDBRANCH  46  60
BRANCH  47  71
ATOM     71  C   UNL A   1      48.907  26.742  26.245  1.00  0.00     0.064 A 
ATOM     72  C   UNL A   1      49.277  27.046  24.928  1.00  0.00     0.173 A 
ATOM     73  C   UNL A   1      49.869  26.138  27.069  1.00  0.00     0.173 A 
ATOM     74  F   UNL A   1      48.387  27.608  24.097  1.00  0.00    -0.203 F 
ATOM     75  C   UNL A   1      50.546  26.734  24.445  1.00  0.00     0.198 A 
ATOM     76  C   UNL A   1      51.149  25.857  26.594  1.00  0.00     0.198 A 
ATOM     77  F   UNL A   1      49.571  25.833  28.339  1.00  0.00    -0.203 F 
ATOM     78  F   UNL A   1      50.854  26.988  23.165  1.00  0.00    -0.200 F 
ATOM     79  C   UNL A   1      51.483  26.144  25.279  1.00  0.00     0.200 A 
ATOM     80  F   UNL A   1      52.057  25.303  27.410  1.00  0.00    -0.200 F 
ATOM     81  F   UNL A   1      52.704  25.847  24.815  1.00  0.00    -0.200 F 
ENDBRANCH  47  71
BRANCH  59  82
ATOM     82  C   UNL A   1      45.963  32.405  29.052  1.00  0.00     0.064 A 
ATOM     83  C   UNL A   1      46.564  32.664  30.293  1.00  0.00     0.173 A 
ATOM     84  C   UNL A   1      45.917  33.448  28.115  1.00  0.00     0.173 A 
ATOM     85  F   UNL A   1      46.620  31.705  31.229  1.00  0.00    -0.203 F 
ATOM     86  C   UNL A   1      47.072  33.925  30.592  1.00  0.00     0.198 A 
ATOM     87  C   UNL A   1      46.458  34.698  28.404  1.00  0.00     0.198 A 
ATOM     88  F   UNL A   1      45.361  33.252  26.910  1.00  0.00    -0.203 F 
ATOM     89  F   UNL A   1      47.593  34.165  31.804  1.00  0.00    -0.200 F 
ATOM     90  C   UNL A   1      47.027  34.938  29.645  1.00  0.00     0.200 A 
ATOM     91  F   UNL A   1      46.430  35.669  27.481  1.00  0.00    -0.200 F 
ATOM     92  F   UNL A   1      47.526  36.148  29.932  1.00  0.00    -0.200 F 
ENDBRANCH  59  82
ENDBRANCH  33  34
ENDBRANCH  25  28
ENDBRANCH  23  24
ENDBRANCH  22  23
ENDBRANCH   1  22
TORSDOF 14
ENDMDL
MODEL 3
REMARK VINA RESULT:     -11.2      5.318     10.534
REMARK SMILES Cc1nn(C)c(OCC(C)(C)[NH+](C)C)c1C(=O)NCCCNC(=O)c1ccc(-c2c3nc(c(-c4c(F)c(F)c(F)c(F)c4F)c4ccc([nH]4)c(-c4c(F)c(F)c(F)c(F)c4F)c4nc(c(-c5c(F)c(F)c(F)c(F)c5F)c5ccc2[nH]5)C=C4)C=C3)cc1
REMARK SMILES IDX 19 1 18 2 16 3 17 4 15 6 1 7 2 8 3 9 4 10 6 11 5 12 7 13
REMARK SMILES IDX 8 14 9 15 10 16 11 17 12 18 13 19 14 20 20 22 21 23 22 24
REMARK SMILES IDX 23 25 24 27 25 28 26 29 87 30 27 31 86 32 28 33 29 34 30 35
REMARK SMILES IDX 80 36 31 37 85 38 79 39 81 40 32 41 84 42 78 43 77 44 33 46
REMARK SMILES IDX 65 47 45 48 64 49 46 50 49 51 63 52 82 53 47 54 48 55 62 57
REMARK SMILES IDX 83 58 50 59 34 60 35 61 43 62 36 63 37 64 41 65 44 66 38 67
REMARK SMILES IDX 39 68 42 69 40 70 66 71 67 72 75 73 68 74 69 75 73 76 76 77
REMARK SMILES IDX 70 78 71 79 74 80 72 81 51 82 52 83 60 84 53 85 54 86 58 87
REMARK SMILES IDX 61 88 55 89 56 90 59 91 57 92
REMARK H PARENT 18 5 12 21 22 26 81 45 49 56
REMARK Flexibility Score: inf
ROOT
ATOM      1  C   UNL A   1      36.814  20.973  24.763  1.00  0.00     0.118 C 
ENDROOT
BRANCH   1   2
ATOM      2  N   UNL A   1      35.991  21.084  25.947  1.00  0.00    -0.352 N 
ATOM      3  C   UNL A   1      34.634  21.082  26.114  1.00  0.00     0.258 C 
ATOM      4  O   UNL A   1      34.225  21.414  27.227  1.00  0.00    -0.269 OA
ATOM      5  H   UNL A   1      36.501  21.177  26.785  1.00  0.00     0.163 HD
BRANCH   3   6
ATOM      6  C   UNL A   1      33.736  20.620  25.077  1.00  0.00     0.124 A 
ATOM      7  C   UNL A   1      34.102  17.993  24.785  1.00  0.00     0.070 C 
ATOM      8  C   UNL A   1      33.546  19.331  24.475  1.00  0.00     0.076 A 
ATOM      9  N   UNL A   1      32.729  19.391  23.419  1.00  0.00    -0.174 NA
ATOM     10  N   UNL A   1      32.456  20.694  23.298  1.00  0.00    -0.236 N 
ATOM     11  C   UNL A   1      32.872  21.453  24.363  1.00  0.00     0.225 A 
ATOM     12  C   UNL A   1      31.802  21.152  22.096  1.00  0.00     0.178 C 
BRANCH  11  13
ATOM     13  O   UNL A   1      32.437  22.715  24.426  1.00  0.00    -0.471 OA
BRANCH  13  14
ATOM     14  C   UNL A   1      33.141  23.798  23.824  1.00  0.00     0.299 C 
BRANCH  14  15
ATOM     15  C   UNL A   1      33.834  24.873  24.757  1.00  0.00     0.126 C 
ATOM     16  C   UNL A   1      33.257  24.835  26.185  1.00  0.00     0.082 C 
ATOM     17  C   UNL A   1      35.308  24.376  24.869  1.00  0.00     0.082 C 
BRANCH  15  18
ATOM     18  N   UNL A   1      33.859  26.261  24.194  1.00  0.00    -0.333 N 
ATOM     19  C   UNL A   1      33.197  26.391  22.893  1.00  0.00     0.333 C 
ATOM     20  C   UNL A   1      33.328  27.299  25.087  1.00  0.00     0.333 C 
ATOM     21  H   UNL A   1      34.860  26.420  24.075  1.00  0.00     0.348 HD
ENDBRANCH  15  18
ENDBRANCH  14  15
ENDBRANCH  13  14
ENDBRANCH  11  13
ENDBRANCH   3   6
ENDBRANCH   1   2
BRANCH   1  22
ATOM     22  C   UNL A   1      37.815  19.846  24.991  1.00  0.00     0.042 C 
BRANCH  22  23
ATOM     23  C   UNL A   1      39.050  20.324  25.737  1.00  0.00     0.118 C 
BRANCH  23  24
ATOM     24  N   UNL A   1      40.030  19.262  25.869  1.00  0.00    -0.352 N 
ATOM     25  C   UNL A   1      41.384  19.384  26.069  1.00  0.00     0.251 C 
ATOM     26  H   UNL A   1      39.683  18.343  25.808  1.00  0.00     0.163 HD
ATOM     27  O   UNL A   1      42.125  18.425  25.896  1.00  0.00    -0.269 OA
BRANCH  25  28
ATOM     28  C   UNL A   1      41.937  20.694  26.475  1.00  0.00     0.039 A 
ATOM     29  C   UNL A   1      42.339  21.595  25.486  1.00  0.00     0.014 A 
ATOM     30  C   UNL A   1      42.043  21.035  27.827  1.00  0.00     0.014 A 
ATOM     31  C   UNL A   1      42.808  22.856  25.856  1.00  0.00     0.010 A 
ATOM     32  C   UNL A   1      42.424  22.321  28.188  1.00  0.00     0.010 A 
ATOM     33  C   UNL A   1      42.828  23.239  27.208  1.00  0.00    -0.014 A 
BRANCH  33  34
ATOM     34  C   UNL A   1      43.287  24.589  27.618  1.00  0.00     0.031 A 
ATOM     35  C   UNL A   1      42.279  25.650  27.967  1.00  0.00     0.074 A 
ATOM     36  C   UNL A   1      44.604  24.873  27.625  1.00  0.00     0.049 A 
ATOM     37  N   UNL A   1      42.474  26.902  28.294  1.00  0.00    -0.248 NA
ATOM     38  C   UNL A   1      40.861  25.258  27.913  1.00  0.00     0.031 C 
ATOM     39  C   UNL A   1      45.671  23.940  27.263  1.00  0.00     0.029 A 
ATOM     40  N   UNL A   1      45.268  26.031  27.942  1.00  0.00    -0.354 N 
ATOM     41  C   UNL A   1      41.208  27.446  28.473  1.00  0.00     0.074 A 
ATOM     42  C   UNL A   1      40.252  26.409  28.156  1.00  0.00     0.031 C 
ATOM     43  C   UNL A   1      46.857  24.552  27.404  1.00  0.00     0.029 A 
ATOM     44  C   UNL A   1      46.633  25.932  27.824  1.00  0.00     0.049 A 
ATOM     45  H   UNL A   1      44.811  26.855  28.226  1.00  0.00     0.167 HD
ATOM     46  C   UNL A   1      40.875  28.690  28.890  1.00  0.00     0.037 A 
ATOM     47  C   UNL A   1      47.594  26.855  28.025  1.00  0.00     0.037 A 
ATOM     48  C   UNL A   1      41.835  29.711  29.221  1.00  0.00     0.049 A 
ATOM     49  C   UNL A   1      47.194  28.237  28.465  1.00  0.00     0.074 A 
ATOM     50  C   UNL A   1      41.605  30.987  29.704  1.00  0.00     0.029 A 
ATOM     51  N   UNL A   1      43.210  29.572  29.095  1.00  0.00    -0.354 N 
ATOM     52  N   UNL A   1      45.998  28.719  28.701  1.00  0.00    -0.248 NA
ATOM     53  C   UNL A   1      48.282  29.204  28.674  1.00  0.00     0.031 C 
ATOM     54  C   UNL A   1      42.837  31.640  29.814  1.00  0.00     0.029 A 
ATOM     55  C   UNL A   1      43.840  30.750  29.463  1.00  0.00     0.049 A 
ATOM     56  H   UNL A   1      43.670  28.757  28.788  1.00  0.00     0.167 HD
ATOM     57  C   UNL A   1      46.189  30.031  29.116  1.00  0.00     0.074 A 
ATOM     58  C   UNL A   1      47.619  30.263  29.115  1.00  0.00     0.031 C 
ATOM     59  C   UNL A   1      45.266  30.960  29.465  1.00  0.00     0.037 A 
BRANCH  46  60
ATOM     60  C   UNL A   1      39.414  29.015  29.015  1.00  0.00     0.064 A 
ATOM     61  C   UNL A   1      38.752  28.979  30.252  1.00  0.00     0.173 A 
ATOM     62  C   UNL A   1      38.672  29.402  27.888  1.00  0.00     0.173 A 
ATOM     63  F   UNL A   1      39.411  28.604  31.360  1.00  0.00    -0.203 F 
ATOM     64  C   UNL A   1      37.397  29.283  30.351  1.00  0.00     0.198 A 
ATOM     65  C   UNL A   1      37.326  29.741  27.997  1.00  0.00     0.198 A 
ATOM     66  F   UNL A   1      39.254  29.460  26.681  1.00  0.00    -0.203 F 
ATOM     67  F   UNL A   1      36.775  29.186  31.535  1.00  0.00    -0.200 F 
ATOM     68  C   UNL A   1      36.687  29.673  29.226  1.00  0.00     0.200 A 
ATOM     69  F   UNL A   1      36.645  30.131  26.911  1.00  0.00    -0.200 F 
ATOM     70  F   UNL A   1      35.385  29.974  29.324  1.00  0.00    -0.200 F 
ENDBRANCH  46  60
BRANCH  47  71
ATOM     71  C   UNL A   1      49.024  26.496  27.831  1.00  0.00     0.064 A 
ATOM     72  C   UNL A   1      49.848  26.204  28.927  1.00  0.00     0.173 A 
ATOM     73  C   UNL A   1      49.599  26.448  26.552  1.00  0.00     0.173 A 
ATOM     74  F   UNL A   1      49.350  26.255  30.171  1.00  0.00    -0.203 F 
ATOM     75  C   UNL A   1      51.197  25.903  28.754  1.00  0.00     0.198 A 
ATOM     76  C   UNL A   1      50.940  26.113  26.379  1.00  0.00     0.198 A 
ATOM     77  F   UNL A   1      48.854  26.711  25.470  1.00  0.00    -0.203 F 
ATOM     78  F   UNL A   1      51.974  25.679  29.823  1.00  0.00    -0.200 F 
ATOM     79  C   UNL A   1      51.742  25.852  27.479  1.00  0.00     0.200 A 
ATOM     80  F   UNL A   1      51.457  26.048  25.144  1.00  0.00    -0.200 F 
ATOM     81  F   UNL A   1      53.038  25.559  27.314  1.00  0.00    -0.200 F 
ENDBRANCH  47  71
BRANCH  59  82
ATOM     82  C   UNL A   1      45.772  32.300  29.918  1.00  0.00     0.064 A 
ATOM     83  C   UNL A   1      45.943  33.367  29.023  1.00  0.00     0.173 A 
ATOM     84  C   UNL A   1      46.048  32.530  31.275  1.00  0.00     0.173 A 
ATOM     85  F   UNL A   1      45.707  33.195  27.715  1.00  0.00    -0.203 F 
ATOM     86  C   UNL A   1      46.399  34.605  29.467  1.00  0.00     0.198 A 
ATOM     87  C   UNL A   1      46.470  33.780  31.719  1.00  0.00     0.198 A 
ATOM     88  F   UNL A   1      45.893  31.546  32.173  1.00  0.00    -0.203 F 
ATOM     89  F   UNL A   1      46.607  35.594  28.586  1.00  0.00    -0.200 F 
ATOM     90  C   UNL A   1      46.653  34.813  30.814  1.00  0.00     0.200 A 
ATOM     91  F   UNL A   1      46.697  33.983  33.024  1.00  0.00    -0.200 F 
ATOM     92  F   UNL A   1      47.083  36.009  31.239  1.00  0.00    -0.200 F 
ENDBRANCH  59  82
ENDBRANCH  33  34
ENDBRANCH  25  28
ENDBRANCH  23  24
ENDBRANCH  22  23
ENDBRANCH   1  22
TORSDOF 14
ENDMDL
