MODEL 1
REMARK VINA RESULT:     -12.8      0.000      0.000
REMARK SMILES O=C(NCCCNC(=O)[C@H]1C[N@H+](Cc2cccc(Cl)c2)CC12CCCCC2)c1ccc(-c2c3nc(c(-c4c(F)c(F)c(F)c(F)c4F)c4ccc([nH]4)c(-c4c(F)c(F)c(F)c(F)c4F)c4nc(c(-c5c(F)c(F)c(F)c(F)c5F)c5ccc2[nH]5)C=C4)C=C3)cc1
REMARK SMILES IDX 5 1 4 2 3 3 1 4 2 5 28 7 29 8 90 9 30 10 89 11 31 12 32 13
REMARK SMILES IDX 33 14 83 15 34 16 88 17 82 18 84 19 35 20 87 21 81 22 80 23
REMARK SMILES IDX 36 25 68 26 48 27 67 28 49 29 52 30 66 31 85 32 50 33 51 34
REMARK SMILES IDX 65 36 86 37 53 38 37 39 38 40 46 41 39 42 40 43 44 44 47 45
REMARK SMILES IDX 41 46 42 47 45 48 43 49 69 50 70 51 78 52 71 53 72 54 76 55
REMARK SMILES IDX 79 56 73 57 74 58 77 59 75 60 54 61 55 62 63 63 56 64 57 65
REMARK SMILES IDX 61 66 64 67 58 68 59 69 62 70 60 71 6 72 7 73 8 74 9 76
REMARK SMILES IDX 10 77 11 78 22 79 12 80 21 81 23 82 27 83 24 85 26 86 25 87
REMARK SMILES IDX 13 88 14 89 15 90 20 91 16 92 18 93 17 94 19 95
REMARK H PARENT 3 6 84 24 52 35 7 75 12 84
REMARK Flexibility Score: inf
ROOT
ATOM      1  C   UNL A   1      32.270  28.114  25.389  1.00  0.00     0.042 C 
ENDROOT
BRANCH   1   2
ATOM      2  C   UNL A   1      33.265  29.262  25.384  1.00  0.00     0.118 C 
BRANCH   2   3
ATOM      3  N   UNL A   1      32.742  30.491  25.967  1.00  0.00    -0.352 N 
ATOM      4  O   UNL A   1      32.552  32.200  27.426  1.00  0.00    -0.269 OA
ATOM      5  C   UNL A   1      33.222  31.264  27.000  1.00  0.00     0.251 C 
ATOM      6  H   UNL A   1      31.911  30.822  25.555  1.00  0.00     0.163 HD
BRANCH   5   7
ATOM      7  C   UNL A   1      34.524  30.947  27.625  1.00  0.00     0.039 A 
ATOM      8  C   UNL A   1      34.804  29.657  28.069  1.00  0.00     0.014 A 
ATOM      9  C   UNL A   1      35.481  31.956  27.778  1.00  0.00     0.014 A 
ATOM     10  C   UNL A   1      35.925  29.427  28.853  1.00  0.00     0.010 A 
ATOM     11  C   UNL A   1      36.678  31.688  28.452  1.00  0.00     0.010 A 
ATOM     12  C   UNL A   1      36.890  30.431  29.035  1.00  0.00    -0.014 A 
BRANCH  12  13
ATOM     13  C   UNL A   1      38.126  30.092  29.789  1.00  0.00     0.031 A 
ATOM     14  C   UNL A   1      38.346  30.565  31.199  1.00  0.00     0.074 A 
ATOM     15  C   UNL A   1      39.022  29.273  29.203  1.00  0.00     0.049 A 
ATOM     16  N   UNL A   1      39.337  30.291  32.012  1.00  0.00    -0.248 NA
ATOM     17  C   UNL A   1      37.336  31.467  31.773  1.00  0.00     0.031 C 
ATOM     18  C   UNL A   1      38.925  28.771  27.828  1.00  0.00     0.029 A 
ATOM     19  N   UNL A   1      40.159  28.683  29.688  1.00  0.00    -0.354 N 
ATOM     20  C   UNL A   1      39.080  30.997  33.179  1.00  0.00     0.074 A 
ATOM     21  C   UNL A   1      37.854  31.734  32.965  1.00  0.00     0.031 C 
ATOM     22  C   UNL A   1      39.909  27.890  27.609  1.00  0.00     0.029 A 
ATOM     23  C   UNL A   1      40.750  27.820  28.797  1.00  0.00     0.049 A 
ATOM     24  H   UNL A   1      40.517  28.859  30.589  1.00  0.00     0.167 HD
ATOM     25  C   UNL A   1      39.801  31.020  34.327  1.00  0.00     0.037 A 
ATOM     26  C   UNL A   1      41.854  27.062  28.916  1.00  0.00     0.037 A 
ATOM     27  C   UNL A   1      41.015  30.272  34.541  1.00  0.00     0.049 A 
ATOM     28  C   UNL A   1      42.620  27.094  30.206  1.00  0.00     0.074 A 
ATOM     29  C   UNL A   1      41.819  30.231  35.666  1.00  0.00     0.029 A 
ATOM     30  N   UNL A   1      41.595  29.425  33.606  1.00  0.00    -0.354 N 
ATOM     31  N   UNL A   1      42.361  27.767  31.301  1.00  0.00    -0.248 NA
ATOM     32  C   UNL A   1      43.831  26.269  30.274  1.00  0.00     0.031 C 
ATOM     33  C   UNL A   1      42.901  29.383  35.404  1.00  0.00     0.029 A 
ATOM     34  C   UNL A   1      42.749  28.863  34.128  1.00  0.00     0.049 A 
ATOM     35  H   UNL A   1      41.239  29.250  32.706  1.00  0.00     0.167 HD
ATOM     36  C   UNL A   1      43.377  27.450  32.187  1.00  0.00     0.074 A 
ATOM     37  C   UNL A   1      44.235  26.493  31.516  1.00  0.00     0.031 C 
ATOM     38  C   UNL A   1      43.592  27.920  33.439  1.00  0.00     0.037 A 
BRANCH  25  39
ATOM     39  C   UNL A   1      39.305  31.889  35.447  1.00  0.00     0.064 A 
ATOM     40  C   UNL A   1      39.646  33.246  35.529  1.00  0.00     0.173 A 
ATOM     41  C   UNL A   1      38.431  31.372  36.416  1.00  0.00     0.173 A 
ATOM     42  F   UNL A   1      40.489  33.786  34.636  1.00  0.00    -0.203 F 
ATOM     43  C   UNL A   1      39.143  34.052  36.549  1.00  0.00     0.198 A 
ATOM     44  C   UNL A   1      37.911  32.186  37.420  1.00  0.00     0.198 A 
ATOM     45  F   UNL A   1      38.069  30.082  36.380  1.00  0.00    -0.203 F 
ATOM     46  F   UNL A   1      39.509  35.339  36.627  1.00  0.00    -0.200 F 
ATOM     47  C   UNL A   1      38.269  33.523  37.488  1.00  0.00     0.200 A 
ATOM     48  F   UNL A   1      37.059  31.676  38.320  1.00  0.00    -0.200 F 
ATOM     49  F   UNL A   1      37.778  34.302  38.461  1.00  0.00    -0.200 F 
ENDBRANCH  25  39
BRANCH  26  50
ATOM     50  C   UNL A   1      42.296  26.224  27.774  1.00  0.00     0.064 A 
ATOM     51  C   UNL A   1      43.301  26.658  26.898  1.00  0.00     0.173 A 
ATOM     52  C   UNL A   1      41.737  24.956  27.548  1.00  0.00     0.173 A 
ATOM     53  F   UNL A   1      43.854  27.869  27.064  1.00  0.00    -0.203 F 
ATOM     54  C   UNL A   1      43.719  25.865  25.833  1.00  0.00     0.198 A 
ATOM     55  C   UNL A   1      42.177  24.151  26.502  1.00  0.00     0.198 A 
ATOM     56  F   UNL A   1      40.778  24.491  28.363  1.00  0.00    -0.203 F 
ATOM     57  F   UNL A   1      44.653  26.320  24.988  1.00  0.00    -0.200 F 
ATOM     58  C   UNL A   1      43.163  24.608  25.641  1.00  0.00     0.200 A 
ATOM     59  F   UNL A   1      41.653  22.930  26.333  1.00  0.00    -0.200 F 
ATOM     60  F   UNL A   1      43.573  23.839  24.623  1.00  0.00    -0.200 F 
ENDBRANCH  26  50
BRANCH  38  61
ATOM     61  C   UNL A   1      44.800  27.398  34.156  1.00  0.00     0.064 A 
ATOM     62  C   UNL A   1      46.041  28.045  34.061  1.00  0.00     0.173 A 
ATOM     63  C   UNL A   1      44.716  26.243  34.946  1.00  0.00     0.173 A 
ATOM     64  F   UNL A   1      46.173  29.143  33.301  1.00  0.00    -0.203 F 
ATOM     65  C   UNL A   1      47.163  27.535  34.706  1.00  0.00     0.198 A 
ATOM     66  C   UNL A   1      45.836  25.750  35.612  1.00  0.00     0.198 A 
ATOM     67  F   UNL A   1      43.550  25.591  35.070  1.00  0.00    -0.203 F 
ATOM     68  F   UNL A   1      48.351  28.138  34.558  1.00  0.00    -0.200 F 
ATOM     69  C   UNL A   1      47.058  26.391  35.483  1.00  0.00     0.200 A 
ATOM     70  F   UNL A   1      45.732  24.649  36.369  1.00  0.00    -0.200 F 
ATOM     71  F   UNL A   1      48.141  25.899  36.102  1.00  0.00    -0.200 F 
ENDBRANCH  38  61
ENDBRANCH  12  13
ENDBRANCH   5   7
ENDBRANCH   2   3
ENDBRANCH   1   2
BRANCH   1  72
ATOM     72  C   UNL A   1      32.096  27.437  26.735  1.00  0.00     0.117 C 
BRANCH  72  73
ATOM     73  N   UNL A   1      30.889  26.636  26.816  1.00  0.00    -0.356 N 
ATOM     74  C   UNL A   1      30.688  25.293  26.682  1.00  0.00     0.229 C 
ATOM     75  H   UNL A   1      30.071  27.151  27.001  1.00  0.00     0.163 HD
ATOM     76  O   UNL A   1      29.524  24.915  26.789  1.00  0.00    -0.275 OA
BRANCH  74  77
ATOM     77  C   UNL A   1      31.875  24.376  26.388  1.00  0.00     0.145 C 
ATOM     78  C   UNL A   1      31.556  22.954  26.853  1.00  0.00     0.276 C 
ATOM     79  C   UNL A   1      32.386  24.183  24.914  1.00  0.00     0.037 C 
ATOM     80  N   UNL A   1      32.479  22.075  26.158  1.00  0.00    -0.330 N 
ATOM     81  C   UNL A   1      32.649  22.645  24.829  1.00  0.00     0.270 C 
ATOM     82  C   UNL A   1      31.406  24.609  23.791  1.00  0.00     0.014 C 
ATOM     83  C   UNL A   1      33.678  25.011  24.685  1.00  0.00     0.014 C 
ATOM     84  H   UNL A   1      32.080  21.139  26.080  1.00  0.00     0.348 HD
ATOM     85  C   UNL A   1      31.972  24.389  22.384  1.00  0.00     0.001 C 
ATOM     86  C   UNL A   1      34.299  24.799  23.302  1.00  0.00     0.001 C 
ATOM     87  C   UNL A   1      33.306  25.105  22.188  1.00  0.00     0.000 C 
BRANCH  80  88
ATOM     88  C   UNL A   1      33.679  21.646  26.881  1.00  0.00     0.299 C 
BRANCH  88  89
ATOM     89  C   UNL A   1      35.015  21.705  26.173  1.00  0.00     0.008 A 
ATOM     90  C   UNL A   1      35.424  20.696  25.288  1.00  0.00     0.009 A 
ATOM     91  C   UNL A   1      35.882  22.788  26.398  1.00  0.00     0.030 A 
ATOM     92  C   UNL A   1      36.694  20.725  24.703  1.00  0.00     0.002 A 
ATOM     93  C   UNL A   1      37.144  22.822  25.801  1.00  0.00     0.041 A 
ATOM     94  C   UNL A   1      37.559  21.787  24.967  1.00  0.00     0.020 A 
ATOM     95  Cl  UNL A   1      38.207  24.135  26.128  1.00  0.00    -0.084 Cl
ENDBRANCH  88  89
ENDBRANCH  80  88
ENDBRANCH  74  77
ENDBRANCH  72  73
ENDBRANCH   1  72
TORSDOF 12
ENDMDL
MODEL 2
REMARK VINA RESULT:     -12.7      0.250      1.602
REMARK SMILES O=C(NCCCNC(=O)[C@H]1C[N@H+](Cc2cccc(Cl)c2)CC12CCCCC2)c1ccc(-c2c3nc(c(-c4c(F)c(F)c(F)c(F)c4F)c4ccc([nH]4)c(-c4c(F)c(F)c(F)c(F)c4F)c4nc(c(-c5c(F)c(F)c(F)c(F)c5F)c5ccc2[nH]5)C=C4)C=C3)cc1
REMARK SMILES IDX 5 1 4 2 3 3 1 4 2 5 28 7 29 8 90 9 30 10 89 11 31 12 32 13
REMARK SMILES IDX 33 14 83 15 34 16 88 17 82 18 84 19 35 20 87 21 81 22 80 23
REMARK SMILES IDX 36 25 68 26 48 27 67 28 49 29 52 30 66 31 85 32 50 33 51 34
REMARK SMILES IDX 65 36 86 37 53 38 37 39 38 40 46 41 39 42 40 43 44 44 47 45
REMARK SMILES IDX 41 46 42 47 45 48 43 49 69 50 70 51 78 52 71 53 72 54 76 55
REMARK SMILES IDX 79 56 73 57 74 58 77 59 75 60 54 61 55 62 63 63 56 64 57 65
REMARK SMILES IDX 61 66 64 67 58 68 59 69 62 70 60 71 6 72 7 73 8 74 9 76
REMARK SMILES IDX 10 77 11 78 22 79 12 80 21 81 23 82 27 83 24 85 26 86 25 87
REMARK SMILES IDX 13 88 14 89 15 90 20 91 16 92 18 93 17 94 19 95
REMARK H PARENT 3 6 84 24 52 35 7 75 12 84
REMARK Flexibility Score: inf
ROOT
ATOM      1  C   UNL A   1      32.000  28.459  25.664  1.00  0.00     0.042 C 
ENDROOT
BRANCH   1   2
ATOM      2  C   UNL A   1      33.124  29.479  25.707  1.00  0.00     0.118 C 
BRANCH   2   3
ATOM      3  N   UNL A   1      32.706  30.788  26.193  1.00  0.00    -0.352 N 
ATOM      4  O   UNL A   1      32.688  32.628  27.496  1.00  0.00    -0.269 OA
ATOM      5  C   UNL A   1      33.278  31.614  27.134  1.00  0.00     0.251 C 
ATOM      6  H   UNL A   1      31.883  31.138  25.782  1.00  0.00     0.163 HD
BRANCH   5   7
ATOM      7  C   UNL A   1      34.580  31.265  27.741  1.00  0.00     0.039 A 
ATOM      8  C   UNL A   1      34.825  29.975  28.205  1.00  0.00     0.014 A 
ATOM      9  C   UNL A   1      35.573  32.244  27.857  1.00  0.00     0.014 A 
ATOM     10  C   UNL A   1      35.952  29.721  28.972  1.00  0.00     0.010 A 
ATOM     11  C   UNL A   1      36.773  31.947  28.513  1.00  0.00     0.010 A 
ATOM     12  C   UNL A   1      36.954  30.695  29.116  1.00  0.00    -0.014 A 
BRANCH  12  13
ATOM     13  C   UNL A   1      38.192  30.329  29.853  1.00  0.00     0.031 A 
ATOM     14  C   UNL A   1      38.430  30.774  31.269  1.00  0.00     0.074 A 
ATOM     15  C   UNL A   1      39.073  29.509  29.245  1.00  0.00     0.049 A 
ATOM     16  N   UNL A   1      39.425  30.475  32.068  1.00  0.00    -0.248 NA
ATOM     17  C   UNL A   1      37.436  31.678  31.867  1.00  0.00     0.031 C 
ATOM     18  C   UNL A   1      38.958  29.032  27.863  1.00  0.00     0.029 A 
ATOM     19  N   UNL A   1      40.207  28.897  29.711  1.00  0.00    -0.354 N 
ATOM     20  C   UNL A   1      39.187  31.164  33.250  1.00  0.00     0.074 A 
ATOM     21  C   UNL A   1      37.967  31.918  33.059  1.00  0.00     0.031 C 
ATOM     22  C   UNL A   1      39.929  28.143  27.621  1.00  0.00     0.029 A 
ATOM     23  C   UNL A   1      40.779  28.043  28.800  1.00  0.00     0.049 A 
ATOM     24  H   UNL A   1      40.575  29.053  30.611  1.00  0.00     0.167 HD
ATOM     25  C   UNL A   1      39.918  31.158  34.391  1.00  0.00     0.037 A 
ATOM     26  C   UNL A   1      41.876  27.269  28.895  1.00  0.00     0.037 A 
ATOM     27  C   UNL A   1      41.124  30.391  34.582  1.00  0.00     0.049 A 
ATOM     28  C   UNL A   1      42.652  27.270  30.179  1.00  0.00     0.074 A 
ATOM     29  C   UNL A   1      41.938  30.321  35.699  1.00  0.00     0.029 A 
ATOM     30  N   UNL A   1      41.686  29.554  33.627  1.00  0.00    -0.354 N 
ATOM     31  N   UNL A   1      42.412  27.927  31.287  1.00  0.00    -0.248 NA
ATOM     32  C   UNL A   1      43.854  26.429  30.222  1.00  0.00     0.031 C 
ATOM     33  C   UNL A   1      43.006  29.465  35.412  1.00  0.00     0.029 A 
ATOM     34  C   UNL A   1      42.838  28.969  34.130  1.00  0.00     0.049 A 
ATOM     35  H   UNL A   1      41.319  29.399  32.728  1.00  0.00     0.167 HD
ATOM     36  C   UNL A   1      43.431  27.582  32.160  1.00  0.00     0.074 A 
ATOM     37  C   UNL A   1      44.271  26.627  31.464  1.00  0.00     0.031 C 
ATOM     38  C   UNL A   1      43.663  28.028  33.418  1.00  0.00     0.037 A 
BRANCH  25  39
ATOM     39  C   UNL A   1      39.442  32.013  35.530  1.00  0.00     0.064 A 
ATOM     40  C   UNL A   1      38.533  31.529  36.482  1.00  0.00     0.173 A 
ATOM     41  C   UNL A   1      39.946  33.312  35.706  1.00  0.00     0.173 A 
ATOM     42  F   UNL A   1      38.012  30.300  36.353  1.00  0.00    -0.203 F 
ATOM     43  C   UNL A   1      38.135  32.318  37.560  1.00  0.00     0.198 A 
ATOM     44  C   UNL A   1      39.564  34.088  36.797  1.00  0.00     0.198 A 
ATOM     45  F   UNL A   1      40.821  33.821  34.827  1.00  0.00    -0.203 F 
ATOM     46  F   UNL A   1      37.240  31.846  38.439  1.00  0.00    -0.200 F 
ATOM     47  C   UNL A   1      38.656  33.594  37.720  1.00  0.00     0.200 A 
ATOM     48  F   UNL A   1      40.077  35.317  36.956  1.00  0.00    -0.200 F 
ATOM     49  F   UNL A   1      38.280  34.346  38.763  1.00  0.00    -0.200 F 
ENDBRANCH  25  39
BRANCH  26  50
ATOM     50  C   UNL A   1      42.297  26.445  27.735  1.00  0.00     0.064 A 
ATOM     51  C   UNL A   1      43.271  26.901  26.835  1.00  0.00     0.173 A 
ATOM     52  C   UNL A   1      41.750  25.171  27.516  1.00  0.00     0.173 A 
ATOM     53  F   UNL A   1      43.811  28.118  26.995  1.00  0.00    -0.203 F 
ATOM     54  C   UNL A   1      43.670  26.120  25.754  1.00  0.00     0.198 A 
ATOM     55  C   UNL A   1      42.172  24.380  26.452  1.00  0.00     0.198 A 
ATOM     56  F   UNL A   1      40.822  24.687  28.353  1.00  0.00    -0.203 F 
ATOM     57  F   UNL A   1      44.574  26.595  24.886  1.00  0.00    -0.200 F 
ATOM     58  C   UNL A   1      43.128  24.857  25.567  1.00  0.00     0.200 A 
ATOM     59  F   UNL A   1      41.661  23.152  26.289  1.00  0.00    -0.200 F 
ATOM     60  F   UNL A   1      43.520  24.102  24.533  1.00  0.00    -0.200 F 
ENDBRANCH  26  50
BRANCH  38  61
ATOM     61  C   UNL A   1      44.871  27.479  34.114  1.00  0.00     0.064 A 
ATOM     62  C   UNL A   1      44.803  26.302  34.873  1.00  0.00     0.173 A 
ATOM     63  C   UNL A   1      46.107  28.135  34.020  1.00  0.00     0.173 A 
ATOM     64  F   UNL A   1      43.637  25.651  35.006  1.00  0.00    -0.203 F 
ATOM     65  C   UNL A   1      45.924  25.817  35.540  1.00  0.00     0.198 A 
ATOM     66  C   UNL A   1      47.232  27.632  34.668  1.00  0.00     0.198 A 
ATOM     67  F   UNL A   1      46.222  29.263  33.304  1.00  0.00    -0.203 F 
ATOM     68  F   UNL A   1      45.825  24.720  36.303  1.00  0.00    -0.200 F 
ATOM     69  C   UNL A   1      47.137  26.480  35.434  1.00  0.00     0.200 A 
ATOM     70  F   UNL A   1      48.406  28.269  34.558  1.00  0.00    -0.200 F 
ATOM     71  F   UNL A   1      48.215  26.014  36.080  1.00  0.00    -0.200 F 
ENDBRANCH  38  61
ENDBRANCH  12  13
ENDBRANCH   5   7
ENDBRANCH   2   3
ENDBRANCH   1   2
BRANCH   1  72
ATOM     72  C   UNL A   1      32.038  27.431  26.779  1.00  0.00     0.117 C 
BRANCH  72  73
ATOM     73  N   UNL A   1      30.849  26.600  26.827  1.00  0.00    -0.356 N 
ATOM     74  C   UNL A   1      30.681  25.257  26.661  1.00  0.00     0.229 C 
ATOM     75  H   UNL A   1      30.017  27.093  27.014  1.00  0.00     0.163 HD
ATOM     76  O   UNL A   1      29.525  24.850  26.745  1.00  0.00    -0.275 OA
BRANCH  74  77
ATOM     77  C   UNL A   1      31.892  24.375  26.361  1.00  0.00     0.145 C 
ATOM     78  C   UNL A   1      31.585  22.927  26.749  1.00  0.00     0.276 C 
ATOM     79  C   UNL A   1      32.450  24.259  24.896  1.00  0.00     0.037 C 
ATOM     80  N   UNL A   1      32.543  22.097  26.043  1.00  0.00    -0.330 N 
ATOM     81  C   UNL A   1      32.743  22.732  24.747  1.00  0.00     0.270 C 
ATOM     82  C   UNL A   1      31.496  24.721  23.765  1.00  0.00     0.014 C 
ATOM     83  C   UNL A   1      33.733  25.118  24.745  1.00  0.00     0.014 C 
ATOM     84  H   UNL A   1      32.164  21.159  25.910  1.00  0.00     0.348 HD
ATOM     85  C   UNL A   1      32.107  24.577  22.366  1.00  0.00     0.001 C 
ATOM     86  C   UNL A   1      34.398  24.981  23.373  1.00  0.00     0.001 C 
ATOM     87  C   UNL A   1      33.433  25.323  22.245  1.00  0.00     0.000 C 
BRANCH  80  88
ATOM     88  C   UNL A   1      33.729  21.654  26.782  1.00  0.00     0.299 C 
BRANCH  88  89
ATOM     89  C   UNL A   1      35.083  21.761  26.115  1.00  0.00     0.008 A 
ATOM     90  C   UNL A   1      35.546  20.778  25.226  1.00  0.00     0.009 A 
ATOM     91  C   UNL A   1      35.913  22.863  26.382  1.00  0.00     0.030 A 
ATOM     92  C   UNL A   1      36.831  20.851  24.681  1.00  0.00     0.002 A 
ATOM     93  C   UNL A   1      37.190  22.941  25.825  1.00  0.00     0.041 A 
ATOM     94  C   UNL A   1      37.659  21.932  24.988  1.00  0.00     0.020 A 
ATOM     95  Cl  UNL A   1      38.206  24.277  26.204  1.00  0.00    -0.084 Cl
ENDBRANCH  88  89
ENDBRANCH  80  88
ENDBRANCH  74  77
ENDBRANCH  72  73
ENDBRANCH   1  72
TORSDOF 12
ENDMDL
MODEL 3
REMARK VINA RESULT:     -12.7      1.423      2.330
REMARK SMILES O=C(NCCCNC(=O)[C@H]1C[N@H+](Cc2cccc(Cl)c2)CC12CCCCC2)c1ccc(-c2c3nc(c(-c4c(F)c(F)c(F)c(F)c4F)c4ccc([nH]4)c(-c4c(F)c(F)c(F)c(F)c4F)c4nc(c(-c5c(F)c(F)c(F)c(F)c5F)c5ccc2[nH]5)C=C4)C=C3)cc1
REMARK SMILES IDX 5 1 4 2 3 3 1 4 2 5 28 7 29 8 90 9 30 10 89 11 31 12 32 13
REMARK SMILES IDX 33 14 83 15 34 16 88 17 82 18 84 19 35 20 87 21 81 22 80 23
REMARK SMILES IDX 36 25 68 26 48 27 67 28 49 29 52 30 66 31 85 32 50 33 51 34
REMARK SMILES IDX 65 36 86 37 53 38 37 39 38 40 46 41 39 42 40 43 44 44 47 45
REMARK SMILES IDX 41 46 42 47 45 48 43 49 69 50 70 51 78 52 71 53 72 54 76 55
REMARK SMILES IDX 79 56 73 57 74 58 77 59 75 60 54 61 55 62 63 63 56 64 57 65
REMARK SMILES IDX 61 66 64 67 58 68 59 69 62 70 60 71 6 72 7 73 8 74 9 76
REMARK SMILES IDX 10 77 11 78 22 79 12 80 21 81 23 82 27 83 24 85 26 86 25 87
REMARK SMILES IDX 13 88 14 89 15 90 20 91 16 92 18 93 17 94 19 95
REMARK H PARENT 3 6 84 24 52 35 7 75 12 84
REMARK Flexibility Score: inf
ROOT
ATOM      1  C   UNL A   1      31.996  28.108  25.665  1.00  0.00     0.042 C 
ENDROOT
BRANCH   1   2
ATOM      2  C   UNL A   1      33.087  29.164  25.666  1.00  0.00     0.118 C 
BRANCH   2   3
ATOM      3  N   UNL A   1      32.629  30.477  26.104  1.00  0.00    -0.352 N 
ATOM      4  O   UNL A   1      32.550  32.361  27.341  1.00  0.00    -0.269 OA
ATOM      5  C   UNL A   1      33.171  31.353  27.017  1.00  0.00     0.251 C 
ATOM      6  H   UNL A   1      31.797  30.787  25.678  1.00  0.00     0.163 HD
BRANCH   5   7
ATOM      7  C   UNL A   1      34.480  31.064  27.641  1.00  0.00     0.039 A 
ATOM      8  C   UNL A   1      34.790  29.780  28.082  1.00  0.00     0.014 A 
ATOM      9  C   UNL A   1      35.414  32.094  27.794  1.00  0.00     0.014 A 
ATOM     10  C   UNL A   1      35.917  29.574  28.864  1.00  0.00     0.010 A 
ATOM     11  C   UNL A   1      36.618  31.851  28.466  1.00  0.00     0.010 A 
ATOM     12  C   UNL A   1      36.859  30.599  29.047  1.00  0.00    -0.014 A 
BRANCH  12  13
ATOM     13  C   UNL A   1      38.103  30.287  29.798  1.00  0.00     0.031 A 
ATOM     14  C   UNL A   1      38.306  30.745  31.216  1.00  0.00     0.074 A 
ATOM     15  C   UNL A   1      39.025  29.504  29.202  1.00  0.00     0.049 A 
ATOM     16  N   UNL A   1      39.304  30.490  32.027  1.00  0.00    -0.248 NA
ATOM     17  C   UNL A   1      37.268  31.608  31.800  1.00  0.00     0.031 C 
ATOM     18  C   UNL A   1      38.946  29.020  27.820  1.00  0.00     0.029 A 
ATOM     19  N   UNL A   1      40.179  28.942  29.682  1.00  0.00    -0.354 N 
ATOM     20  C   UNL A   1      39.024  31.170  33.204  1.00  0.00     0.074 A 
ATOM     21  C   UNL A   1      37.775  31.872  32.998  1.00  0.00     0.031 C 
ATOM     22  C   UNL A   1      39.957  28.173  27.591  1.00  0.00     0.029 A 
ATOM     23  C   UNL A   1      40.797  28.111  28.779  1.00  0.00     0.049 A 
ATOM     24  H   UNL A   1      40.529  29.115  30.585  1.00  0.00     0.167 HD
ATOM     25  C   UNL A   1      39.741  31.198  34.353  1.00  0.00     0.037 A 
ATOM     26  C   UNL A   1      41.924  27.385  28.889  1.00  0.00     0.037 A 
ATOM     27  C   UNL A   1      40.976  30.484  34.559  1.00  0.00     0.049 A 
ATOM     28  C   UNL A   1      42.686  27.421  30.181  1.00  0.00     0.074 A 
ATOM     29  C   UNL A   1      41.780  30.450  35.686  1.00  0.00     0.029 A 
ATOM     30  N   UNL A   1      41.584  29.669  33.613  1.00  0.00    -0.354 N 
ATOM     31  N   UNL A   1      42.405  28.069  31.286  1.00  0.00    -0.248 NA
ATOM     32  C   UNL A   1      43.921  26.632  30.240  1.00  0.00     0.031 C 
ATOM     33  C   UNL A   1      42.887  29.640  35.413  1.00  0.00     0.029 A 
ATOM     34  C   UNL A   1      42.754  29.134  34.130  1.00  0.00     0.049 A 
ATOM     35  H   UNL A   1      41.235  29.496  32.710  1.00  0.00     0.167 HD
ATOM     36  C   UNL A   1      43.428  27.770  32.170  1.00  0.00     0.074 A 
ATOM     37  C   UNL A   1      44.316  26.850  31.487  1.00  0.00     0.031 C 
ATOM     38  C   UNL A   1      43.626  28.228  33.429  1.00  0.00     0.037 A 
BRANCH  25  39
ATOM     39  C   UNL A   1      39.217  32.035  35.485  1.00  0.00     0.064 A 
ATOM     40  C   UNL A   1      38.414  31.484  36.494  1.00  0.00     0.173 A 
ATOM     41  C   UNL A   1      39.570  33.389  35.593  1.00  0.00     0.173 A 
ATOM     42  F   UNL A   1      38.037  30.199  36.431  1.00  0.00    -0.203 F 
ATOM     43  C   UNL A   1      37.972  32.262  37.563  1.00  0.00     0.198 A 
ATOM     44  C   UNL A   1      39.146  34.157  36.675  1.00  0.00     0.198 A 
ATOM     45  F   UNL A   1      40.340  33.964  34.657  1.00  0.00    -0.203 F 
ATOM     46  F   UNL A   1      37.178  31.722  38.498  1.00  0.00    -0.200 F 
ATOM     47  C   UNL A   1      38.344  33.595  37.656  1.00  0.00     0.200 A 
ATOM     48  F   UNL A   1      39.515  35.442  36.769  1.00  0.00    -0.200 F 
ATOM     49  F   UNL A   1      37.927  34.338  38.690  1.00  0.00    -0.200 F 
ENDBRANCH  25  39
BRANCH  26  50
ATOM     50  C   UNL A   1      42.393  26.577  27.736  1.00  0.00     0.064 A 
ATOM     51  C   UNL A   1      41.899  25.286  27.503  1.00  0.00     0.173 A 
ATOM     52  C   UNL A   1      43.332  27.089  26.828  1.00  0.00     0.173 A 
ATOM     53  F   UNL A   1      41.012  24.747  28.353  1.00  0.00    -0.203 F 
ATOM     54  C   UNL A   1      42.335  24.535  26.415  1.00  0.00     0.198 A 
ATOM     55  C   UNL A   1      43.744  26.350  25.723  1.00  0.00     0.198 A 
ATOM     56  F   UNL A   1      43.830  28.323  27.002  1.00  0.00    -0.203 F 
ATOM     57  F   UNL A   1      41.876  23.289  26.237  1.00  0.00    -0.200 F 
ATOM     58  C   UNL A   1      43.250  25.070  25.521  1.00  0.00     0.200 A 
ATOM     59  F   UNL A   1      44.613  26.880  24.851  1.00  0.00    -0.200 F 
ATOM     60  F   UNL A   1      43.662  24.352  24.468  1.00  0.00    -0.200 F 
ENDBRANCH  26  50
BRANCH  38  61
ATOM     61  C   UNL A   1      44.849  27.732  34.141  1.00  0.00     0.064 A 
ATOM     62  C   UNL A   1      46.081  28.391  34.019  1.00  0.00     0.173 A 
ATOM     63  C   UNL A   1      44.786  26.591  34.953  1.00  0.00     0.173 A 
ATOM     64  F   UNL A   1      46.191  29.476  33.237  1.00  0.00    -0.203 F 
ATOM     65  C   UNL A   1      47.216  27.905  34.660  1.00  0.00     0.198 A 
ATOM     66  C   UNL A   1      45.919  26.123  35.614  1.00  0.00     0.198 A 
ATOM     67  F   UNL A   1      43.629  25.929  35.103  1.00  0.00    -0.203 F 
ATOM     68  F   UNL A   1      48.395  28.517  34.487  1.00  0.00    -0.200 F 
ATOM     69  C   UNL A   1      47.133  26.774  35.460  1.00  0.00     0.200 A 
ATOM     70  F   UNL A   1      45.836  25.035  36.393  1.00  0.00    -0.200 F 
ATOM     71  F   UNL A   1      48.228  26.305  36.074  1.00  0.00    -0.200 F 
ENDBRANCH  38  61
ENDBRANCH  12  13
ENDBRANCH   5   7
ENDBRANCH   2   3
ENDBRANCH   1   2
BRANCH   1  72
ATOM     72  C   UNL A   1      32.271  26.917  26.563  1.00  0.00     0.117 C 
BRANCH  72  73
ATOM     73  N   UNL A   1      31.084  26.127  26.838  1.00  0.00    -0.356 N 
ATOM     74  C   UNL A   1      30.752  24.849  26.493  1.00  0.00     0.229 C 
ATOM     75  H   UNL A   1      30.399  26.596  27.367  1.00  0.00     0.163 HD
ATOM     76  O   UNL A   1      29.647  24.467  26.868  1.00  0.00    -0.275 OA
BRANCH  74  77
ATOM     77  C   UNL A   1      31.726  24.012  25.666  1.00  0.00     0.145 C 
ATOM     78  C   UNL A   1      31.225  22.569  25.584  1.00  0.00     0.276 C 
ATOM     79  C   UNL A   1      32.030  24.389  24.171  1.00  0.00     0.037 C 
ATOM     80  N   UNL A   1      31.902  21.959  24.454  1.00  0.00    -0.330 N 
ATOM     81  C   UNL A   1      32.017  23.004  23.446  1.00  0.00     0.270 C 
ATOM     82  C   UNL A   1      31.018  25.344  23.489  1.00  0.00     0.014 C 
ATOM     83  C   UNL A   1      33.410  25.090  24.068  1.00  0.00     0.014 C 
ATOM     84  H   UNL A   1      31.344  21.189  24.085  1.00  0.00     0.348 HD
ATOM     85  C   UNL A   1      31.378  25.664  22.034  1.00  0.00     0.001 C 
ATOM     86  C   UNL A   1      33.828  25.401  22.628  1.00  0.00     0.001 C 
ATOM     87  C   UNL A   1      32.784  26.246  21.911  1.00  0.00     0.000 C 
BRANCH  80  88
ATOM     88  C   UNL A   1      33.084  21.141  24.735  1.00  0.00     0.299 C 
BRANCH  88  89
ATOM     89  C   UNL A   1      33.166  19.751  24.142  1.00  0.00     0.008 A 
ATOM     90  C   UNL A   1      32.387  19.376  23.036  1.00  0.00     0.009 A 
ATOM     91  C   UNL A   1      34.035  18.799  24.701  1.00  0.00     0.030 A 
ATOM     92  C   UNL A   1      32.416  18.065  22.549  1.00  0.00     0.002 A 
ATOM     93  C   UNL A   1      34.072  17.495  24.203  1.00  0.00     0.041 A 
ATOM     94  C   UNL A   1      33.255  17.120  23.140  1.00  0.00     0.020 A 
ATOM     95  Cl  UNL A   1      35.109  16.332  24.934  1.00  0.00    -0.084 Cl
ENDBRANCH  88  89
ENDBRANCH  80  88
ENDBRANCH  74  77
ENDBRANCH  72  73
ENDBRANCH   1  72
TORSDOF 12
ENDMDL
