MODEL 1
REMARK VINA RESULT:     -13.4      0.000      0.000
REMARK SMILES C[C@@H](C(=O)NCCCNC(=O)c1ccc(-c2c3nc(c(-c4c(F)c(F)c(F)c(F)c4F)c4ccc([nH]4)c(-c4c(F)c(F)c(F)c(F)c4F)c4nc(c(-c5c(F)c(F)c(F)c(F)c5F)c5ccc2[nH]5)C=C4)C=C3)cc1)c1ccc2c(c1)[nH]c1ccc(Cl)cc12
REMARK SMILES IDX 7 1 6 2 5 3 3 4 4 5 2 7 1 8 75 9 76 10 80 11 77 12 79 13
REMARK SMILES IDX 78 14 81 15 88 16 82 17 87 19 83 20 85 21 84 22 86 23 8 24
REMARK SMILES IDX 9 25 10 26 11 28 12 29 13 30 74 31 14 32 73 33 15 34 16 35
REMARK SMILES IDX 17 36 67 37 18 38 72 39 66 40 68 41 19 42 71 43 65 44 64 45
REMARK SMILES IDX 20 47 52 48 32 49 51 50 33 51 36 52 50 53 69 54 34 55 35 56
REMARK SMILES IDX 49 58 70 59 37 60 21 61 22 62 30 63 23 64 24 65 28 66 31 67
REMARK SMILES IDX 25 68 26 69 29 70 27 71 53 72 54 73 62 74 55 75 56 76 60 77
REMARK SMILES IDX 63 78 57 79 58 80 61 81 59 82 38 83 39 84 47 85 40 86 41 87
REMARK SMILES IDX 45 88 48 89 42 90 43 91 46 92 44 93
REMARK H PARENT 5 6 81 18 9 27 68 46 36 57
REMARK Flexibility Score: inf
ROOT
ATOM      1  C   UNL A   1      31.389  32.374  26.521  1.00  0.00     0.042 C 
ENDROOT
BRANCH   1   2
ATOM      2  C   UNL A   1      31.327  30.842  26.504  1.00  0.00     0.117 C 
BRANCH   2   3
ATOM      3  N   UNL A   1      31.925  30.288  25.299  1.00  0.00    -0.356 N 
ATOM      4  C   UNL A   1      32.782  29.235  25.106  1.00  0.00     0.227 C 
ATOM      5  O   UNL A   1      33.138  29.044  23.942  1.00  0.00    -0.274 OA
ATOM      6  H   UNL A   1      31.667  30.753  24.471  1.00  0.00     0.163 HD
BRANCH   4   7
ATOM      7  C   UNL A   1      33.203  28.327  26.283  1.00  0.00     0.105 C 
ATOM      8  C   UNL A   1      34.605  28.708  26.792  1.00  0.00     0.023 C 
BRANCH   7   9
ATOM      9  C   UNL A   1      33.109  26.808  26.000  1.00  0.00    -0.034 A 
ATOM     10  C   UNL A   1      32.010  26.037  26.421  1.00  0.00     0.005 A 
ATOM     11  C   UNL A   1      34.187  26.130  25.403  1.00  0.00     0.031 A 
ATOM     12  C   UNL A   1      31.968  24.632  26.245  1.00  0.00     0.011 A 
ATOM     13  C   UNL A   1      34.173  24.738  25.326  1.00  0.00     0.047 A 
ATOM     14  C   UNL A   1      33.088  23.961  25.707  1.00  0.00     0.007 A 
ATOM     15  N   UNL A   1      35.172  23.898  24.918  1.00  0.00    -0.355 N 
ATOM     16  C   UNL A   1      33.449  22.594  25.442  1.00  0.00     0.009 A 
ATOM     17  C   UNL A   1      34.790  22.590  25.050  1.00  0.00     0.047 A 
ATOM     18  H   UNL A   1      36.046  24.193  24.576  1.00  0.00     0.167 HD
ATOM     19  C   UNL A   1      32.789  21.350  25.533  1.00  0.00     0.031 A 
ATOM     20  C   UNL A   1      35.538  21.428  24.843  1.00  0.00     0.028 A 
ATOM     21  C   UNL A   1      33.513  20.177  25.276  1.00  0.00     0.041 A 
ATOM     22  C   UNL A   1      34.872  20.211  24.968  1.00  0.00     0.022 A 
ATOM     23  Cl  UNL A   1      32.711  18.653  25.340  1.00  0.00    -0.084 Cl
ENDBRANCH   7   9
ENDBRANCH   4   7
ENDBRANCH   2   3
ENDBRANCH   1   2
BRANCH   1  24
ATOM     24  C   UNL A   1      32.570  32.954  27.296  1.00  0.00     0.118 C 
BRANCH  24  25
ATOM     25  N   UNL A   1      32.344  34.328  27.710  1.00  0.00    -0.352 N 
ATOM     26  C   UNL A   1      32.955  35.082  28.681  1.00  0.00     0.251 C 
ATOM     27  H   UNL A   1      31.636  34.796  27.211  1.00  0.00     0.163 HD
ATOM     28  O   UNL A   1      32.471  36.166  28.992  1.00  0.00    -0.269 OA
BRANCH  26  29
ATOM     29  C   UNL A   1      34.169  34.599  29.380  1.00  0.00     0.039 A 
ATOM     30  C   UNL A   1      34.022  34.031  30.650  1.00  0.00     0.014 A 
ATOM     31  C   UNL A   1      35.444  34.729  28.823  1.00  0.00     0.014 A 
ATOM     32  C   UNL A   1      35.136  33.520  31.321  1.00  0.00     0.010 A 
ATOM     33  C   UNL A   1      36.547  34.162  29.465  1.00  0.00     0.010 A 
ATOM     34  C   UNL A   1      36.400  33.534  30.712  1.00  0.00    -0.014 A 
BRANCH  34  35
ATOM     35  C   UNL A   1      37.555  32.830  31.330  1.00  0.00     0.031 A 
ATOM     36  C   UNL A   1      38.181  31.634  30.669  1.00  0.00     0.074 A 
ATOM     37  C   UNL A   1      37.995  33.237  32.539  1.00  0.00     0.049 A 
ATOM     38  N   UNL A   1      39.140  30.857  31.107  1.00  0.00    -0.248 NA
ATOM     39  C   UNL A   1      37.650  31.248  29.353  1.00  0.00     0.031 C 
ATOM     40  C   UNL A   1      37.444  34.359  33.302  1.00  0.00     0.029 A 
ATOM     41  N   UNL A   1      38.990  32.746  33.349  1.00  0.00    -0.354 N 
ATOM     42  C   UNL A   1      39.319  29.887  30.129  1.00  0.00     0.074 A 
ATOM     43  C   UNL A   1      38.349  30.151  29.089  1.00  0.00     0.031 C 
ATOM     44  C   UNL A   1      38.113  34.477  34.460  1.00  0.00     0.029 A 
ATOM     45  C   UNL A   1      39.105  33.411  34.546  1.00  0.00     0.049 A 
ATOM     46  H   UNL A   1      39.566  31.989  33.095  1.00  0.00     0.167 HD
ATOM     47  C   UNL A   1      40.222  28.877  30.101  1.00  0.00     0.037 A 
ATOM     48  C   UNL A   1      39.901  33.175  35.606  1.00  0.00     0.037 A 
ATOM     49  C   UNL A   1      41.203  28.632  31.128  1.00  0.00     0.049 A 
ATOM     50  C   UNL A   1      40.872  32.025  35.554  1.00  0.00     0.074 A 
ATOM     51  C   UNL A   1      42.214  27.686  31.143  1.00  0.00     0.029 A 
ATOM     52  N   UNL A   1      41.289  29.326  32.324  1.00  0.00    -0.354 N 
ATOM     53  N   UNL A   1      41.093  31.173  34.583  1.00  0.00    -0.248 NA
ATOM     54  C   UNL A   1      41.701  31.802  36.746  1.00  0.00     0.031 C 
ATOM     55  C   UNL A   1      42.870  27.765  32.375  1.00  0.00     0.029 A 
ATOM     56  C   UNL A   1      42.308  28.799  33.104  1.00  0.00     0.049 A 
ATOM     57  H   UNL A   1      40.713  30.081  32.582  1.00  0.00     0.167 HD
ATOM     58  C   UNL A   1      42.099  30.331  35.037  1.00  0.00     0.074 A 
ATOM     59  C   UNL A   1      42.465  30.791  36.360  1.00  0.00     0.031 C 
ATOM     60  C   UNL A   1      42.663  29.266  34.418  1.00  0.00     0.037 A 
BRANCH  47  61
ATOM     61  C   UNL A   1      40.209  27.944  28.924  1.00  0.00     0.064 A 
ATOM     62  C   UNL A   1      40.955  28.209  27.767  1.00  0.00     0.173 A 
ATOM     63  C   UNL A   1      39.526  26.720  29.000  1.00  0.00     0.173 A 
ATOM     64  F   UNL A   1      41.622  29.366  27.643  1.00  0.00    -0.203 F 
ATOM     65  C   UNL A   1      41.011  27.285  26.726  1.00  0.00     0.198 A 
ATOM     66  C   UNL A   1      39.605  25.788  27.968  1.00  0.00     0.198 A 
ATOM     67  F   UNL A   1      38.805  26.414  30.090  1.00  0.00    -0.203 F 
ATOM     68  F   UNL A   1      41.713  27.568  25.619  1.00  0.00    -0.200 F 
ATOM     69  C   UNL A   1      40.346  26.072  26.832  1.00  0.00     0.200 A 
ATOM     70  F   UNL A   1      38.977  24.610  28.081  1.00  0.00    -0.200 F 
ATOM     71  F   UNL A   1      40.422  25.176  25.839  1.00  0.00    -0.200 F 
ENDBRANCH  47  61
BRANCH  48  72
ATOM     72  C   UNL A   1      39.807  34.026  36.823  1.00  0.00     0.064 A 
ATOM     73  C   UNL A   1      38.981  33.664  37.897  1.00  0.00     0.173 A 
ATOM     74  C   UNL A   1      40.503  35.241  36.918  1.00  0.00     0.173 A 
ATOM     75  F   UNL A   1      38.277  32.523  37.845  1.00  0.00    -0.203 F 
ATOM     76  C   UNL A   1      38.827  34.501  39.001  1.00  0.00     0.198 A 
ATOM     77  C   UNL A   1      40.377  36.058  38.039  1.00  0.00     0.198 A 
ATOM     78  F   UNL A   1      41.310  35.634  35.923  1.00  0.00    -0.203 F 
ATOM     79  F   UNL A   1      37.978  34.162  39.981  1.00  0.00    -0.200 F 
ATOM     80  C   UNL A   1      39.527  35.695  39.073  1.00  0.00     0.200 A 
ATOM     81  F   UNL A   1      41.068  37.203  38.112  1.00  0.00    -0.200 F 
ATOM     82  F   UNL A   1      39.374  36.502  40.132  1.00  0.00    -0.200 F 
ENDBRANCH  48  72
BRANCH  60  83
ATOM     83  C   UNL A   1      43.748  28.535  35.157  1.00  0.00     0.064 A 
ATOM     84  C   UNL A   1      43.457  27.454  36.004  1.00  0.00     0.173 A 
ATOM     85  C   UNL A   1      45.093  28.894  34.989  1.00  0.00     0.173 A 
ATOM     86  F   UNL A   1      42.185  27.082  36.212  1.00  0.00    -0.203 F 
ATOM     87  C   UNL A   1      44.473  26.779  36.675  1.00  0.00     0.198 A 
ATOM     88  C   UNL A   1      46.108  28.195  35.636  1.00  0.00     0.198 A 
ATOM     89  F   UNL A   1      45.426  29.916  34.187  1.00  0.00    -0.203 F 
ATOM     90  F   UNL A   1      44.168  25.783  37.519  1.00  0.00    -0.200 F 
ATOM     91  C   UNL A   1      45.797  27.144  36.484  1.00  0.00     0.200 A 
ATOM     92  F   UNL A   1      47.388  28.539  35.438  1.00  0.00    -0.200 F 
ATOM     93  F   UNL A   1      46.773  26.485  37.125  1.00  0.00    -0.200 F 
ENDBRANCH  60  83
ENDBRANCH  34  35
ENDBRANCH  26  29
ENDBRANCH  24  25
ENDBRANCH   1  24
TORSDOF 11
ENDMDL
MODEL 2
REMARK VINA RESULT:     -13.4      0.972      1.708
REMARK SMILES C[C@@H](C(=O)NCCCNC(=O)c1ccc(-c2c3nc(c(-c4c(F)c(F)c(F)c(F)c4F)c4ccc([nH]4)c(-c4c(F)c(F)c(F)c(F)c4F)c4nc(c(-c5c(F)c(F)c(F)c(F)c5F)c5ccc2[nH]5)C=C4)C=C3)cc1)c1ccc2c(c1)[nH]c1ccc(Cl)cc12
REMARK SMILES IDX 7 1 6 2 5 3 3 4 4 5 2 7 1 8 75 9 76 10 80 11 77 12 79 13
REMARK SMILES IDX 78 14 81 15 88 16 82 17 87 19 83 20 85 21 84 22 86 23 8 24
REMARK SMILES IDX 9 25 10 26 11 28 12 29 13 30 74 31 14 32 73 33 15 34 16 35
REMARK SMILES IDX 17 36 67 37 18 38 72 39 66 40 68 41 19 42 71 43 65 44 64 45
REMARK SMILES IDX 20 47 52 48 32 49 51 50 33 51 36 52 50 53 69 54 34 55 35 56
REMARK SMILES IDX 49 58 70 59 37 60 21 61 22 62 30 63 23 64 24 65 28 66 31 67
REMARK SMILES IDX 25 68 26 69 29 70 27 71 53 72 54 73 62 74 55 75 56 76 60 77
REMARK SMILES IDX 63 78 57 79 58 80 61 81 59 82 38 83 39 84 47 85 40 86 41 87
REMARK SMILES IDX 45 88 48 89 42 90 43 91 46 92 44 93
REMARK H PARENT 5 6 81 18 9 27 68 46 36 57
REMARK Flexibility Score: inf
ROOT
ATOM      1  C   UNL A   1      31.473  31.954  26.493  1.00  0.00     0.042 C 
ENDROOT
BRANCH   1   2
ATOM      2  C   UNL A   1      31.766  30.567  25.907  1.00  0.00     0.117 C 
BRANCH   2   3
ATOM      3  N   UNL A   1      31.640  29.518  26.906  1.00  0.00    -0.356 N 
ATOM      4  C   UNL A   1      31.608  28.152  26.795  1.00  0.00     0.227 C 
ATOM      5  O   UNL A   1      31.449  27.536  27.850  1.00  0.00    -0.274 OA
ATOM      6  H   UNL A   1      31.563  29.849  27.830  1.00  0.00     0.163 HD
BRANCH   4   7
ATOM      7  C   UNL A   1      31.823  27.459  25.432  1.00  0.00     0.105 C 
ATOM      8  C   UNL A   1      30.484  27.263  24.700  1.00  0.00     0.023 C 
BRANCH   7   9
ATOM      9  C   UNL A   1      32.622  26.134  25.493  1.00  0.00    -0.034 A 
ATOM     10  C   UNL A   1      34.026  26.104  25.422  1.00  0.00     0.005 A 
ATOM     11  C   UNL A   1      31.947  24.900  25.510  1.00  0.00     0.031 A 
ATOM     12  C   UNL A   1      34.750  24.888  25.383  1.00  0.00     0.011 A 
ATOM     13  C   UNL A   1      32.667  23.714  25.373  1.00  0.00     0.047 A 
ATOM     14  C   UNL A   1      34.052  23.660  25.332  1.00  0.00     0.007 A 
ATOM     15  N   UNL A   1      32.190  22.441  25.224  1.00  0.00    -0.355 N 
ATOM     16  C   UNL A   1      34.406  22.270  25.222  1.00  0.00     0.009 A 
ATOM     17  C   UNL A   1      33.219  21.554  25.054  1.00  0.00     0.047 A 
ATOM     18  H   UNL A   1      31.237  22.195  25.239  1.00  0.00     0.167 HD
ATOM     19  C   UNL A   1      35.617  21.545  25.208  1.00  0.00     0.031 A 
ATOM     20  C   UNL A   1      33.166  20.187  24.772  1.00  0.00     0.028 A 
ATOM     21  C   UNL A   1      35.577  20.162  24.979  1.00  0.00     0.041 A 
ATOM     22  C   UNL A   1      34.376  19.498  24.732  1.00  0.00     0.022 A 
ATOM     23  Cl  UNL A   1      37.042  19.255  25.001  1.00  0.00    -0.084 Cl
ENDBRANCH   7   9
ENDBRANCH   4   7
ENDBRANCH   2   3
ENDBRANCH   1   2
BRANCH   1  24
ATOM     24  C   UNL A   1      32.614  32.552  27.313  1.00  0.00     0.118 C 
BRANCH  24  25
ATOM     25  N   UNL A   1      32.399  33.954  27.627  1.00  0.00    -0.352 N 
ATOM     26  C   UNL A   1      33.007  34.768  28.551  1.00  0.00     0.251 C 
ATOM     27  H   UNL A   1      31.702  34.394  27.088  1.00  0.00     0.163 HD
ATOM     28  O   UNL A   1      32.532  35.876  28.780  1.00  0.00    -0.269 OA
BRANCH  26  29
ATOM     29  C   UNL A   1      34.207  34.321  29.297  1.00  0.00     0.039 A 
ATOM     30  C   UNL A   1      34.029  33.765  30.569  1.00  0.00     0.014 A 
ATOM     31  C   UNL A   1      35.497  34.475  28.783  1.00  0.00     0.014 A 
ATOM     32  C   UNL A   1      35.130  33.289  31.284  1.00  0.00     0.010 A 
ATOM     33  C   UNL A   1      36.589  33.941  29.469  1.00  0.00     0.010 A 
ATOM     34  C   UNL A   1      36.414  33.325  30.718  1.00  0.00    -0.014 A 
BRANCH  34  35
ATOM     35  C   UNL A   1      37.563  32.656  31.385  1.00  0.00     0.031 A 
ATOM     36  C   UNL A   1      38.251  31.479  30.751  1.00  0.00     0.074 A 
ATOM     37  C   UNL A   1      37.940  33.077  32.610  1.00  0.00     0.049 A 
ATOM     38  N   UNL A   1      39.214  30.730  31.230  1.00  0.00    -0.248 NA
ATOM     39  C   UNL A   1      37.787  31.077  29.415  1.00  0.00     0.031 C 
ATOM     40  C   UNL A   1      37.325  34.181  33.348  1.00  0.00     0.029 A 
ATOM     41  N   UNL A   1      38.915  32.615  33.461  1.00  0.00    -0.354 N 
ATOM     42  C   UNL A   1      39.462  29.766  30.261  1.00  0.00     0.074 A 
ATOM     43  C   UNL A   1      38.528  30.001  29.182  1.00  0.00     0.031 C 
ATOM     44  C   UNL A   1      37.942  34.319  34.533  1.00  0.00     0.029 A 
ATOM     45  C   UNL A   1      38.961  33.284  34.661  1.00  0.00     0.049 A 
ATOM     46  H   UNL A   1      39.524  31.875  33.232  1.00  0.00     0.167 HD
ATOM     47  C   UNL A   1      40.395  28.784  30.272  1.00  0.00     0.037 A 
ATOM     48  C   UNL A   1      39.719  33.072  35.753  1.00  0.00     0.037 A 
ATOM     49  C   UNL A   1      41.339  28.568  31.339  1.00  0.00     0.049 A 
ATOM     50  C   UNL A   1      40.725  31.951  35.742  1.00  0.00     0.074 A 
ATOM     51  C   UNL A   1      42.377  27.652  31.397  1.00  0.00     0.029 A 
ATOM     52  N   UNL A   1      41.356  29.265  32.537  1.00  0.00    -0.354 N 
ATOM     53  N   UNL A   1      41.012  31.105  34.783  1.00  0.00    -0.248 NA
ATOM     54  C   UNL A   1      41.511  31.752  36.968  1.00  0.00     0.031 C 
ATOM     55  C   UNL A   1      42.979  27.751  32.655  1.00  0.00     0.029 A 
ATOM     56  C   UNL A   1      42.356  28.768  33.358  1.00  0.00     0.049 A 
ATOM     57  H   UNL A   1      40.747  30.002  32.770  1.00  0.00     0.167 HD
ATOM     58  C   UNL A   1      42.023  30.294  35.279  1.00  0.00     0.074 A 
ATOM     59  C   UNL A   1      42.320  30.764  36.615  1.00  0.00     0.031 C 
ATOM     60  C   UNL A   1      42.643  29.246  34.686  1.00  0.00     0.037 A 
BRANCH  47  61
ATOM     61  C   UNL A   1      40.458  27.850  29.097  1.00  0.00     0.064 A 
ATOM     62  C   UNL A   1      39.665  26.695  29.033  1.00  0.00     0.173 A 
ATOM     63  C   UNL A   1      41.241  28.174  27.978  1.00  0.00     0.173 A 
ATOM     64  F   UNL A   1      38.903  26.339  30.078  1.00  0.00    -0.203 F 
ATOM     65  C   UNL A   1      39.661  25.894  27.893  1.00  0.00     0.198 A 
ATOM     66  C   UNL A   1      41.214  27.385  26.831  1.00  0.00     0.198 A 
ATOM     67  F   UNL A   1      42.009  29.274  27.986  1.00  0.00    -0.203 F 
ATOM     68  F   UNL A   1      38.913  24.782  27.861  1.00  0.00    -0.200 F 
ATOM     69  C   UNL A   1      40.426  26.246  26.790  1.00  0.00     0.200 A 
ATOM     70  F   UNL A   1      41.939  27.737  25.760  1.00  0.00    -0.200 F 
ATOM     71  F   UNL A   1      40.401  25.486  25.686  1.00  0.00    -0.200 F 
ENDBRANCH  47  61
BRANCH  48  72
ATOM     72  C   UNL A   1      39.550  33.920  36.964  1.00  0.00     0.064 A 
ATOM     73  C   UNL A   1      38.757  33.495  38.040  1.00  0.00     0.173 A 
ATOM     74  C   UNL A   1      40.138  35.191  37.051  1.00  0.00     0.173 A 
ATOM     75  F   UNL A   1      38.155  32.296  37.995  1.00  0.00    -0.203 F 
ATOM     76  C   UNL A   1      38.529  34.322  39.138  1.00  0.00     0.198 A 
ATOM     77  C   UNL A   1      39.939  36.002  38.166  1.00  0.00     0.198 A 
ATOM     78  F   UNL A   1      40.909  35.645  36.053  1.00  0.00    -0.203 F 
ATOM     79  F   UNL A   1      37.712  33.918  40.119  1.00  0.00    -0.200 F 
ATOM     80  C   UNL A   1      39.122  35.574  39.201  1.00  0.00     0.200 A 
ATOM     81  F   UNL A   1      40.529  37.203  38.231  1.00  0.00    -0.200 F 
ATOM     82  F   UNL A   1      38.898  36.371  40.255  1.00  0.00    -0.200 F 
ENDBRANCH  48  72
BRANCH  60  83
ATOM     83  C   UNL A   1      43.718  28.547  35.469  1.00  0.00     0.064 A 
ATOM     84  C   UNL A   1      43.419  27.484  36.334  1.00  0.00     0.173 A 
ATOM     85  C   UNL A   1      45.062  28.921  35.328  1.00  0.00     0.173 A 
ATOM     86  F   UNL A   1      42.147  27.099  36.519  1.00  0.00    -0.203 F 
ATOM     87  C   UNL A   1      44.426  26.839  37.048  1.00  0.00     0.198 A 
ATOM     88  C   UNL A   1      46.068  28.251  36.017  1.00  0.00     0.198 A 
ATOM     89  F   UNL A   1      45.402  29.929  34.510  1.00  0.00    -0.203 F 
ATOM     90  F   UNL A   1      44.112  25.859  37.908  1.00  0.00    -0.200 F 
ATOM     91  C   UNL A   1      45.749  27.216  36.882  1.00  0.00     0.200 A 
ATOM     92  F   UNL A   1      47.349  28.609  35.844  1.00  0.00    -0.200 F 
ATOM     93  F   UNL A   1      46.717  26.587  37.564  1.00  0.00    -0.200 F 
ENDBRANCH  60  83
ENDBRANCH  34  35
ENDBRANCH  26  29
ENDBRANCH  24  25
ENDBRANCH   1  24
TORSDOF 11
ENDMDL
MODEL 3
REMARK VINA RESULT:     -13.3      6.082     11.388
REMARK SMILES C[C@@H](C(=O)NCCCNC(=O)c1ccc(-c2c3nc(c(-c4c(F)c(F)c(F)c(F)c4F)c4ccc([nH]4)c(-c4c(F)c(F)c(F)c(F)c4F)c4nc(c(-c5c(F)c(F)c(F)c(F)c5F)c5ccc2[nH]5)C=C4)C=C3)cc1)c1ccc2c(c1)[nH]c1ccc(Cl)cc12
REMARK SMILES IDX 7 1 6 2 5 3 3 4 4 5 2 7 1 8 75 9 76 10 80 11 77 12 79 13
REMARK SMILES IDX 78 14 81 15 88 16 82 17 87 19 83 20 85 21 84 22 86 23 8 24
REMARK SMILES IDX 9 25 10 26 11 28 12 29 13 30 74 31 14 32 73 33 15 34 16 35
REMARK SMILES IDX 17 36 67 37 18 38 72 39 66 40 68 41 19 42 71 43 65 44 64 45
REMARK SMILES IDX 20 47 52 48 32 49 51 50 33 51 36 52 50 53 69 54 34 55 35 56
REMARK SMILES IDX 49 58 70 59 37 60 21 61 22 62 30 63 23 64 24 65 28 66 31 67
REMARK SMILES IDX 25 68 26 69 29 70 27 71 53 72 54 73 62 74 55 75 56 76 60 77
REMARK SMILES IDX 63 78 57 79 58 80 61 81 59 82 38 83 39 84 47 85 40 86 41 87
REMARK SMILES IDX 45 88 48 89 42 90 43 91 46 92 44 93
REMARK H PARENT 5 6 81 18 9 27 68 46 36 57
REMARK Flexibility Score: inf
ROOT
ATOM      1  C   UNL A   1      37.779  19.777  25.009  1.00  0.00     0.042 C 
ENDROOT
BRANCH   1   2
ATOM      2  C   UNL A   1      36.712  20.861  24.812  1.00  0.00     0.117 C 
BRANCH   2   3
ATOM      3  N   UNL A   1      35.368  20.342  25.005  1.00  0.00    -0.356 N 
ATOM      4  C   UNL A   1      34.284  20.842  25.679  1.00  0.00     0.227 C 
ATOM      5  O   UNL A   1      33.282  20.124  25.685  1.00  0.00    -0.274 OA
ATOM      6  H   UNL A   1      35.206  19.472  24.573  1.00  0.00     0.163 HD
BRANCH   4   7
ATOM      7  C   UNL A   1      34.327  22.244  26.325  1.00  0.00     0.105 C 
ATOM      8  C   UNL A   1      33.779  22.201  27.763  1.00  0.00     0.023 C 
BRANCH   7   9
ATOM      9  C   UNL A   1      33.641  23.362  25.503  1.00  0.00    -0.034 A 
ATOM     10  C   UNL A   1      34.357  24.459  24.990  1.00  0.00     0.005 A 
ATOM     11  C   UNL A   1      32.244  23.366  25.339  1.00  0.00     0.031 A 
ATOM     12  C   UNL A   1      33.713  25.527  24.319  1.00  0.00     0.011 A 
ATOM     13  C   UNL A   1      31.616  24.470  24.764  1.00  0.00     0.047 A 
ATOM     14  C   UNL A   1      32.304  25.547  24.225  1.00  0.00     0.007 A 
ATOM     15  N   UNL A   1      30.277  24.723  24.649  1.00  0.00    -0.355 N 
ATOM     16  C   UNL A   1      31.312  26.449  23.704  1.00  0.00     0.009 A 
ATOM     17  C   UNL A   1      30.062  25.950  24.080  1.00  0.00     0.047 A 
ATOM     18  H   UNL A   1      29.564  24.108  24.935  1.00  0.00     0.167 HD
ATOM     19  C   UNL A   1      31.344  27.663  22.985  1.00  0.00     0.031 A 
ATOM     20  C   UNL A   1      28.859  26.629  23.876  1.00  0.00     0.028 A 
ATOM     21  C   UNL A   1      30.138  28.330  22.725  1.00  0.00     0.041 A 
ATOM     22  C   UNL A   1      28.919  27.840  23.190  1.00  0.00     0.022 A 
ATOM     23  Cl  UNL A   1      30.156  29.791  21.811  1.00  0.00    -0.084 Cl
ENDBRANCH   7   9
ENDBRANCH   4   7
ENDBRANCH   2   3
ENDBRANCH   1   2
BRANCH   1  24
ATOM     24  C   UNL A   1      39.035  20.247  25.739  1.00  0.00     0.118 C 
BRANCH  24  25
ATOM     25  N   UNL A   1      40.039  19.202  25.848  1.00  0.00    -0.352 N 
ATOM     26  C   UNL A   1      41.394  19.282  26.054  1.00  0.00     0.251 C 
ATOM     27  H   UNL A   1      39.690  18.286  25.760  1.00  0.00     0.163 HD
ATOM     28  O   UNL A   1      42.082  18.275  25.917  1.00  0.00    -0.269 OA
BRANCH  26  29
ATOM     29  C   UNL A   1      42.044  20.566  26.407  1.00  0.00     0.039 A 
ATOM     30  C   UNL A   1      42.596  21.336  25.378  1.00  0.00     0.014 A 
ATOM     31  C   UNL A   1      42.150  21.001  27.731  1.00  0.00     0.014 A 
ATOM     32  C   UNL A   1      43.175  22.575  25.664  1.00  0.00     0.010 A 
ATOM     33  C   UNL A   1      42.670  22.267  28.009  1.00  0.00     0.010 A 
ATOM     34  C   UNL A   1      43.171  23.074  26.976  1.00  0.00    -0.014 A 
BRANCH  34  35
ATOM     35  C   UNL A   1      43.612  24.465  27.267  1.00  0.00     0.031 A 
ATOM     36  C   UNL A   1      42.641  25.502  27.756  1.00  0.00     0.074 A 
ATOM     37  C   UNL A   1      44.893  24.806  27.016  1.00  0.00     0.049 A 
ATOM     38  N   UNL A   1      42.840  26.777  27.982  1.00  0.00    -0.248 NA
ATOM     39  C   UNL A   1      41.262  25.057  28.008  1.00  0.00     0.031 C 
ATOM     40  C   UNL A   1      45.922  23.901  26.500  1.00  0.00     0.029 A 
ATOM     41  N   UNL A   1      45.546  26.009  27.140  1.00  0.00    -0.354 N 
ATOM     42  C   UNL A   1      41.615  27.286  28.391  1.00  0.00     0.074 A 
ATOM     43  C   UNL A   1      40.668  26.192  28.351  1.00  0.00     0.031 C 
ATOM     44  C   UNL A   1      47.075  24.575  26.362  1.00  0.00     0.029 A 
ATOM     45  C   UNL A   1      46.858  25.969  26.731  1.00  0.00     0.049 A 
ATOM     46  H   UNL A   1      45.114  26.823  27.489  1.00  0.00     0.167 HD
ATOM     47  C   UNL A   1      41.315  28.550  28.777  1.00  0.00     0.037 A 
ATOM     48  C   UNL A   1      47.776  26.949  26.637  1.00  0.00     0.037 A 
ATOM     49  C   UNL A   1      42.266  29.630  28.838  1.00  0.00     0.049 A 
ATOM     50  C   UNL A   1      47.399  28.349  27.044  1.00  0.00     0.074 A 
ATOM     51  C   UNL A   1      42.071  30.922  29.299  1.00  0.00     0.029 A 
ATOM     52  N   UNL A   1      43.584  29.552  28.417  1.00  0.00    -0.354 N 
ATOM     53  N   UNL A   1      46.262  28.796  27.517  1.00  0.00    -0.248 NA
ATOM     54  C   UNL A   1      48.435  29.383  26.903  1.00  0.00     0.031 C 
ATOM     55  C   UNL A   1      43.253  31.642  29.097  1.00  0.00     0.029 A 
ATOM     56  C   UNL A   1      44.201  30.785  28.565  1.00  0.00     0.049 A 
ATOM     57  H   UNL A   1      44.018  28.742  28.065  1.00  0.00     0.167 HD
ATOM     58  C   UNL A   1      46.451  30.151  27.749  1.00  0.00     0.074 A 
ATOM     59  C   UNL A   1      47.821  30.450  27.393  1.00  0.00     0.031 C 
ATOM     60  C   UNL A   1      45.566  31.070  28.208  1.00  0.00     0.037 A 
BRANCH  47  61
ATOM     61  C   UNL A   1      39.897  28.856  29.168  1.00  0.00     0.064 A 
ATOM     62  C   UNL A   1      38.945  29.260  28.222  1.00  0.00     0.173 A 
ATOM     63  C   UNL A   1      39.465  28.640  30.485  1.00  0.00     0.173 A 
ATOM     64  F   UNL A   1      39.308  29.486  26.950  1.00  0.00    -0.203 F 
ATOM     65  C   UNL A   1      37.612  29.444  28.583  1.00  0.00     0.198 A 
ATOM     66  C   UNL A   1      38.127  28.798  30.837  1.00  0.00     0.198 A 
ATOM     67  F   UNL A   1      40.335  28.243  31.426  1.00  0.00    -0.203 F 
ATOM     68  F   UNL A   1      36.721  29.851  27.667  1.00  0.00    -0.200 F 
ATOM     69  C   UNL A   1      37.202  29.201  29.886  1.00  0.00     0.200 A 
ATOM     70  F   UNL A   1      37.730  28.546  32.092  1.00  0.00    -0.200 F 
ATOM     71  F   UNL A   1      35.915  29.355  30.225  1.00  0.00    -0.200 F 
ENDBRANCH  47  61
BRANCH  48  72
ATOM     72  C   UNL A   1      49.139  26.657  26.116  1.00  0.00     0.064 A 
ATOM     73  C   UNL A   1      49.473  26.915  24.779  1.00  0.00     0.173 A 
ATOM     74  C   UNL A   1      50.120  26.072  26.931  1.00  0.00     0.173 A 
ATOM     75  F   UNL A   1      48.562  27.453  23.954  1.00  0.00    -0.203 F 
ATOM     76  C   UNL A   1      50.721  26.565  24.269  1.00  0.00     0.198 A 
ATOM     77  C   UNL A   1      51.380  25.756  26.429  1.00  0.00     0.198 A 
ATOM     78  F   UNL A   1      49.856  25.808  28.219  1.00  0.00    -0.203 F 
ATOM     79  F   UNL A   1      50.989  26.759  22.970  1.00  0.00    -0.200 F 
ATOM     80  C   UNL A   1      51.675  25.988  25.094  1.00  0.00     0.200 A 
ATOM     81  F   UNL A   1      52.304  25.216  27.234  1.00  0.00    -0.200 F 
ATOM     82  F   UNL A   1      52.873  25.647  24.600  1.00  0.00    -0.200 F 
ENDBRANCH  48  72
BRANCH  60  83
ATOM     83  C   UNL A   1      46.057  32.480  28.367  1.00  0.00     0.064 A 
ATOM     84  C   UNL A   1      46.662  32.915  29.556  1.00  0.00     0.173 A 
ATOM     85  C   UNL A   1      45.954  33.396  27.310  1.00  0.00     0.173 A 
ATOM     86  F   UNL A   1      46.769  32.084  30.603  1.00  0.00    -0.203 F 
ATOM     87  C   UNL A   1      47.122  34.223  29.687  1.00  0.00     0.198 A 
ATOM     88  C   UNL A   1      46.446  34.692  27.434  1.00  0.00     0.198 A 
ATOM     89  F   UNL A   1      45.388  33.030  26.150  1.00  0.00    -0.203 F 
ATOM     90  F   UNL A   1      47.650  34.631  30.850  1.00  0.00    -0.200 F 
ATOM     91  C   UNL A   1      47.021  35.107  28.624  1.00  0.00     0.200 A 
ATOM     92  F   UNL A   1      46.360  35.541  26.399  1.00  0.00    -0.200 F 
ATOM     93  F   UNL A   1      47.473  36.363  28.751  1.00  0.00    -0.200 F 
ENDBRANCH  60  83
ENDBRANCH  34  35
ENDBRANCH  26  29
ENDBRANCH  24  25
ENDBRANCH   1  24
TORSDOF 11
ENDMDL
