MODEL 1
REMARK VINA RESULT:     -11.4      0.000      0.000
REMARK SMILES CCOc1ccc(-c2csc3ncn([C@H](C)C(=O)NCCCNC(=O)c4ccc(-c5c6nc(c(-c7c(F)c(F)c(F)c(F)c7F)c7ccc([nH]7)c(-c7c(F)c(F)c(F)c(F)c7F)c7nc(c(-c8c(F)c(F)c(F)c(F)c8F)c8ccc5[nH]8)C=C7)C=C6)cc4)c(=O)c23)cc1
REMARK SMILES IDX 20 1 19 2 17 3 18 4 15 6 16 7 14 8 8 9 9 10 91 11 10 12
REMARK SMILES IDX 11 13 89 14 12 15 90 16 13 17 7 18 4 19 5 20 93 21 6 22
REMARK SMILES IDX 92 23 3 24 2 25 1 26 21 27 22 28 23 29 24 30 25 32 26 33
REMARK SMILES IDX 27 34 88 35 28 36 87 37 29 38 30 39 31 40 81 41 32 42 86 43
REMARK SMILES IDX 80 44 82 45 33 46 85 47 79 48 78 49 34 51 66 52 46 53 65 54
REMARK SMILES IDX 47 55 50 56 64 57 83 58 48 59 49 60 63 62 84 63 51 64 35 65
REMARK SMILES IDX 36 66 44 67 37 68 38 69 42 70 45 71 39 72 40 73 43 74 41 75
REMARK SMILES IDX 67 76 68 77 76 78 69 79 70 80 74 81 77 82 71 83 72 84 75 85
REMARK SMILES IDX 73 86 52 87 53 88 61 89 54 90 55 91 59 92 62 93 56 94 57 95
REMARK SMILES IDX 60 96 58 97
REMARK H PARENT 19 5 23 31 82 50 50 61
REMARK Flexibility Score: inf
ROOT
ATOM      1  C   UNL A   1      42.675  21.001  26.461  1.00  0.00     0.117 C 
ENDROOT
BRANCH   1   2
ATOM      2  N   UNL A   1      43.046  21.326  25.094  1.00  0.00    -0.354 N 
ATOM      3  C   UNL A   1      44.230  21.705  24.532  1.00  0.00     0.242 C 
ATOM      4  O   UNL A   1      44.171  22.167  23.388  1.00  0.00    -0.273 OA
ATOM      5  H   UNL A   1      42.302  21.262  24.451  1.00  0.00     0.163 HD
BRANCH   3   6
ATOM      6  C   UNL A   1      45.558  21.751  25.322  1.00  0.00     0.177 C 
ATOM      7  C   UNL A   1      46.475  20.663  24.764  1.00  0.00     0.042 C 
BRANCH   6   8
ATOM      8  N   UNL A   1      46.117  23.112  25.390  1.00  0.00    -0.286 N 
ATOM      9  C   UNL A   1      46.191  26.195  27.598  1.00  0.00     0.007 A 
ATOM     10  C   UNL A   1      46.730  27.393  27.162  1.00  0.00     0.076 A 
ATOM     11  C   UNL A   1      46.337  25.177  26.595  1.00  0.00     0.085 A 
ATOM     12  S   UNL A   1      47.380  27.288  25.584  1.00  0.00    -0.123 S 
ATOM     13  C   UNL A   1      46.969  25.640  25.462  1.00  0.00     0.131 A 
ATOM     14  C   UNL A   1      45.895  23.792  26.598  1.00  0.00     0.263 A 
ATOM     15  N   UNL A   1      47.252  24.929  24.344  1.00  0.00    -0.227 NA
ATOM     16  O   UNL A   1      45.352  23.267  27.557  1.00  0.00    -0.268 OA
ATOM     17  C   UNL A   1      46.823  23.707  24.365  1.00  0.00     0.204 A 
BRANCH   9  18
ATOM     18  C   UNL A   1      45.557  26.103  28.911  1.00  0.00    -0.016 A 
ATOM     19  C   UNL A   1      44.362  25.941  31.444  1.00  0.00     0.119 A 
ATOM     20  C   UNL A   1      43.570  26.118  30.312  1.00  0.00     0.047 A 
ATOM     21  C   UNL A   1      45.741  25.806  31.312  1.00  0.00     0.047 A 
ATOM     22  C   UNL A   1      44.166  26.194  29.048  1.00  0.00     0.012 A 
ATOM     23  C   UNL A   1      46.339  25.908  30.054  1.00  0.00     0.012 A 
BRANCH  19  24
ATOM     24  O   UNL A   1      43.737  25.769  32.647  1.00  0.00    -0.494 OA
BRANCH  24  25
ATOM     25  C   UNL A   1      44.535  25.097  33.630  1.00  0.00     0.226 C 
ATOM     26  C   UNL A   1      43.689  24.435  34.707  1.00  0.00     0.049 C 
ENDBRANCH  24  25
ENDBRANCH  19  24
ENDBRANCH   9  18
ENDBRANCH   6   8
ENDBRANCH   3   6
ENDBRANCH   1   2
BRANCH   1  27
ATOM     27  C   UNL A   1      42.083  22.191  27.215  1.00  0.00     0.042 C 
BRANCH  27  28
ATOM     28  C   UNL A   1      40.688  21.906  27.734  1.00  0.00     0.118 C 
BRANCH  28  29
ATOM     29  N   UNL A   1      39.633  22.226  26.765  1.00  0.00    -0.352 N 
ATOM     30  C   UNL A   1      39.003  23.443  26.569  1.00  0.00     0.251 C 
ATOM     31  H   UNL A   1      39.338  21.486  26.186  1.00  0.00     0.163 HD
ATOM     32  O   UNL A   1      37.921  23.516  25.995  1.00  0.00    -0.269 OA
BRANCH  30  33
ATOM     33  C   UNL A   1      39.671  24.656  27.064  1.00  0.00     0.039 A 
ATOM     34  C   UNL A   1      40.435  25.485  26.239  1.00  0.00     0.014 A 
ATOM     35  C   UNL A   1      39.438  24.993  28.391  1.00  0.00     0.014 A 
ATOM     36  C   UNL A   1      40.887  26.695  26.759  1.00  0.00     0.010 A 
ATOM     37  C   UNL A   1      39.652  26.274  28.804  1.00  0.00     0.010 A 
ATOM     38  C   UNL A   1      40.465  27.092  28.040  1.00  0.00    -0.014 A 
BRANCH  38  39
ATOM     39  C   UNL A   1      40.751  28.414  28.577  1.00  0.00     0.031 A 
ATOM     40  C   UNL A   1      41.949  29.037  27.968  1.00  0.00     0.074 A 
ATOM     41  C   UNL A   1      39.896  29.088  29.380  1.00  0.00     0.049 A 
ATOM     42  N   UNL A   1      43.106  29.183  28.518  1.00  0.00    -0.248 NA
ATOM     43  C   UNL A   1      41.930  29.353  26.529  1.00  0.00     0.031 C 
ATOM     44  C   UNL A   1      38.541  28.699  29.800  1.00  0.00     0.029 A 
ATOM     45  N   UNL A   1      40.023  30.327  29.932  1.00  0.00    -0.354 N 
ATOM     46  C   UNL A   1      43.885  29.849  27.581  1.00  0.00     0.074 A 
ATOM     47  C   UNL A   1      43.201  29.711  26.324  1.00  0.00     0.031 C 
ATOM     48  C   UNL A   1      37.900  29.763  30.331  1.00  0.00     0.029 A 
ATOM     49  C   UNL A   1      38.845  30.854  30.459  1.00  0.00     0.049 A 
ATOM     50  H   UNL A   1      40.880  30.811  29.957  1.00  0.00     0.167 HD
ATOM     51  C   UNL A   1      44.838  30.726  28.002  1.00  0.00     0.037 A 
ATOM     52  C   UNL A   1      38.664  32.102  30.962  1.00  0.00     0.037 A 
ATOM     53  C   UNL A   1      45.122  30.525  29.407  1.00  0.00     0.049 A 
ATOM     54  C   UNL A   1      40.007  32.622  31.310  1.00  0.00     0.074 A 
ATOM     55  C   UNL A   1      45.579  29.476  30.180  1.00  0.00     0.029 A 
ATOM     56  N   UNL A   1      44.533  31.405  30.279  1.00  0.00    -0.354 N 
ATOM     57  N   UNL A   1      40.744  32.134  32.269  1.00  0.00    -0.248 NA
ATOM     58  C   UNL A   1      40.719  33.378  30.295  1.00  0.00     0.031 C 
ATOM     59  C   UNL A   1      44.856  29.573  31.410  1.00  0.00     0.029 A 
ATOM     60  C   UNL A   1      44.057  30.715  31.360  1.00  0.00     0.049 A 
ATOM     61  H   UNL A   1      44.465  32.377  30.147  1.00  0.00     0.167 HD
ATOM     62  C   UNL A   1      42.026  32.113  31.742  1.00  0.00     0.074 A 
ATOM     63  C   UNL A   1      41.966  32.992  30.574  1.00  0.00     0.031 C 
ATOM     64  C   UNL A   1      42.915  31.152  32.131  1.00  0.00     0.037 A 
BRANCH  51  65
ATOM     65  C   UNL A   1      45.136  32.050  27.323  1.00  0.00     0.064 A 
ATOM     66  C   UNL A   1      46.426  32.247  26.785  1.00  0.00     0.173 A 
ATOM     67  C   UNL A   1      44.362  33.222  27.474  1.00  0.00     0.173 A 
ATOM     68  F   UNL A   1      47.254  31.208  26.600  1.00  0.00    -0.203 F 
ATOM     69  C   UNL A   1      46.938  33.524  26.539  1.00  0.00     0.198 A 
ATOM     70  C   UNL A   1      44.860  34.490  27.177  1.00  0.00     0.198 A 
ATOM     71  F   UNL A   1      43.142  33.221  28.017  1.00  0.00    -0.203 F 
ATOM     72  F   UNL A   1      48.220  33.666  26.176  1.00  0.00    -0.200 F 
ATOM     73  C   UNL A   1      46.159  34.645  26.747  1.00  0.00     0.200 A 
ATOM     74  F   UNL A   1      44.092  35.566  27.403  1.00  0.00    -0.200 F 
ATOM     75  F   UNL A   1      46.669  35.872  26.583  1.00  0.00    -0.200 F 
ENDBRANCH  51  65
BRANCH  52  76
ATOM     76  C   UNL A   1      37.477  32.991  30.880  1.00  0.00     0.064 A 
ATOM     77  C   UNL A   1      37.009  33.461  29.640  1.00  0.00     0.173 A 
ATOM     78  C   UNL A   1      36.601  33.137  31.972  1.00  0.00     0.173 A 
ATOM     79  F   UNL A   1      37.760  33.319  28.538  1.00  0.00    -0.203 F 
ATOM     80  C   UNL A   1      35.729  34.009  29.494  1.00  0.00     0.198 A 
ATOM     81  C   UNL A   1      35.324  33.688  31.826  1.00  0.00     0.198 A 
ATOM     82  F   UNL A   1      36.924  32.655  33.180  1.00  0.00    -0.203 F 
ATOM     83  F   UNL A   1      35.292  34.379  28.281  1.00  0.00    -0.200 F 
ATOM     84  C   UNL A   1      34.883  34.109  30.585  1.00  0.00     0.200 A 
ATOM     85  F   UNL A   1      34.499  33.741  32.880  1.00  0.00    -0.200 F 
ATOM     86  F   UNL A   1      33.632  34.566  30.433  1.00  0.00    -0.200 F 
ENDBRANCH  52  76
BRANCH  64  87
ATOM     87  C   UNL A   1      42.581  30.360  33.367  1.00  0.00     0.064 A 
ATOM     88  C   UNL A   1      42.728  30.826  34.686  1.00  0.00     0.173 A 
ATOM     89  C   UNL A   1      41.988  29.102  33.195  1.00  0.00     0.173 A 
ATOM     90  F   UNL A   1      43.199  32.054  34.938  1.00  0.00    -0.203 F 
ATOM     91  C   UNL A   1      42.345  30.046  35.777  1.00  0.00     0.198 A 
ATOM     92  C   UNL A   1      41.571  28.342  34.283  1.00  0.00     0.198 A 
ATOM     93  F   UNL A   1      41.776  28.625  31.959  1.00  0.00    -0.203 F 
ATOM     94  F   UNL A   1      42.517  30.505  37.027  1.00  0.00    -0.200 F 
ATOM     95  C   UNL A   1      41.762  28.807  35.574  1.00  0.00     0.200 A 
ATOM     96  F   UNL A   1      40.964  27.165  34.078  1.00  0.00    -0.200 F 
ATOM     97  F   UNL A   1      41.363  28.069  36.620  1.00  0.00    -0.200 F 
ENDBRANCH  64  87
ENDBRANCH  38  39
ENDBRANCH  30  33
ENDBRANCH  28  29
ENDBRANCH  27  28
ENDBRANCH   1  27
TORSDOF 14
ENDMDL
MODEL 2
REMARK VINA RESULT:     -11.2      4.672     10.710
REMARK SMILES CCOc1ccc(-c2csc3ncn([C@H](C)C(=O)NCCCNC(=O)c4ccc(-c5c6nc(c(-c7c(F)c(F)c(F)c(F)c7F)c7ccc([nH]7)c(-c7c(F)c(F)c(F)c(F)c7F)c7nc(c(-c8c(F)c(F)c(F)c(F)c8F)c8ccc5[nH]8)C=C7)C=C6)cc4)c(=O)c23)cc1
REMARK SMILES IDX 20 1 19 2 17 3 18 4 15 6 16 7 14 8 8 9 9 10 91 11 10 12
REMARK SMILES IDX 11 13 89 14 12 15 90 16 13 17 7 18 4 19 5 20 93 21 6 22
REMARK SMILES IDX 92 23 3 24 2 25 1 26 21 27 22 28 23 29 24 30 25 32 26 33
REMARK SMILES IDX 27 34 88 35 28 36 87 37 29 38 30 39 31 40 81 41 32 42 86 43
REMARK SMILES IDX 80 44 82 45 33 46 85 47 79 48 78 49 34 51 66 52 46 53 65 54
REMARK SMILES IDX 47 55 50 56 64 57 83 58 48 59 49 60 63 62 84 63 51 64 35 65
REMARK SMILES IDX 36 66 44 67 37 68 38 69 42 70 45 71 39 72 40 73 43 74 41 75
REMARK SMILES IDX 67 76 68 77 76 78 69 79 70 80 74 81 77 82 71 83 72 84 75 85
REMARK SMILES IDX 73 86 52 87 53 88 61 89 54 90 55 91 59 92 62 93 56 94 57 95
REMARK SMILES IDX 60 96 58 97
REMARK H PARENT 19 5 23 31 82 50 50 61
REMARK Flexibility Score: inf
ROOT
ATOM      1  C   UNL A   1      35.314  29.163  26.874  1.00  0.00     0.117 C 
ENDROOT
BRANCH   1   2
ATOM      2  N   UNL A   1      34.242  29.470  25.942  1.00  0.00    -0.354 N 
ATOM      3  C   UNL A   1      33.021  28.900  25.731  1.00  0.00     0.242 C 
ATOM      4  O   UNL A   1      32.439  29.219  24.689  1.00  0.00    -0.273 OA
ATOM      5  H   UNL A   1      34.433  30.234  25.350  1.00  0.00     0.163 HD
BRANCH   3   6
ATOM      6  C   UNL A   1      32.455  27.770  26.623  1.00  0.00     0.177 C 
ATOM      7  C   UNL A   1      31.474  28.399  27.612  1.00  0.00     0.042 C 
BRANCH   6   8
ATOM      8  N   UNL A   1      31.955  26.636  25.830  1.00  0.00    -0.286 N 
ATOM      9  C   UNL A   1      33.094  23.400  24.210  1.00  0.00     0.007 A 
ATOM     10  C   UNL A   1      32.274  22.684  23.354  1.00  0.00     0.076 A 
ATOM     11  C   UNL A   1      32.406  24.551  24.726  1.00  0.00     0.085 A 
ATOM     12  S   UNL A   1      30.728  23.392  23.174  1.00  0.00    -0.123 S 
ATOM     13  C   UNL A   1      31.119  24.655  24.248  1.00  0.00     0.131 A 
ATOM     14  C   UNL A   1      32.876  25.597  25.620  1.00  0.00     0.263 A 
ATOM     15  N   UNL A   1      30.220  25.624  24.544  1.00  0.00    -0.227 NA
ATOM     16  O   UNL A   1      33.986  25.592  26.129  1.00  0.00    -0.268 OA
ATOM     17  C   UNL A   1      30.674  26.555  25.321  1.00  0.00     0.204 A 
BRANCH   9  18
ATOM     18  C   UNL A   1      34.466  22.966  24.456  1.00  0.00    -0.016 A 
ATOM     19  C   UNL A   1      37.113  22.159  24.920  1.00  0.00     0.119 A 
ATOM     20  C   UNL A   1      36.090  21.700  25.747  1.00  0.00     0.047 A 
ATOM     21  C   UNL A   1      36.813  22.986  23.842  1.00  0.00     0.047 A 
ATOM     22  C   UNL A   1      34.770  22.098  25.513  1.00  0.00     0.012 A 
ATOM     23  C   UNL A   1      35.499  23.406  23.622  1.00  0.00     0.012 A 
BRANCH  19  24
ATOM     24  O   UNL A   1      38.372  21.667  25.118  1.00  0.00    -0.494 OA
BRANCH  24  25
ATOM     25  C   UNL A   1      39.007  22.146  26.311  1.00  0.00     0.226 C 
ATOM     26  C   UNL A   1      38.878  23.653  26.468  1.00  0.00     0.049 C 
ENDBRANCH  24  25
ENDBRANCH  19  24
ENDBRANCH   9  18
ENDBRANCH   6   8
ENDBRANCH   3   6
ENDBRANCH   1   2
BRANCH   1  27
ATOM     27  C   UNL A   1      35.129  29.834  28.234  1.00  0.00     0.042 C 
BRANCH  27  28
ATOM     28  C   UNL A   1      35.832  31.174  28.314  1.00  0.00     0.118 C 
BRANCH  28  29
ATOM     29  N   UNL A   1      35.479  31.943  29.513  1.00  0.00    -0.352 N 
ATOM     30  C   UNL A   1      35.864  31.700  30.820  1.00  0.00     0.251 C 
ATOM     31  H   UNL A   1      34.899  32.726  29.370  1.00  0.00     0.163 HD
ATOM     32  O   UNL A   1      35.248  32.178  31.766  1.00  0.00    -0.269 OA
BRANCH  30  33
ATOM     33  C   UNL A   1      37.045  30.851  31.048  1.00  0.00     0.039 A 
ATOM     34  C   UNL A   1      36.952  29.474  31.262  1.00  0.00     0.014 A 
ATOM     35  C   UNL A   1      38.282  31.477  30.957  1.00  0.00     0.014 A 
ATOM     36  C   UNL A   1      38.131  28.734  31.301  1.00  0.00     0.010 A 
ATOM     37  C   UNL A   1      39.396  30.724  30.733  1.00  0.00     0.010 A 
ATOM     38  C   UNL A   1      39.351  29.370  31.008  1.00  0.00    -0.014 A 
BRANCH  38  39
ATOM     39  C   UNL A   1      40.595  28.630  30.856  1.00  0.00     0.031 A 
ATOM     40  C   UNL A   1      41.305  28.426  32.140  1.00  0.00     0.074 A 
ATOM     41  C   UNL A   1      40.952  28.009  29.708  1.00  0.00     0.049 A 
ATOM     42  N   UNL A   1      42.373  29.033  32.535  1.00  0.00    -0.248 NA
ATOM     43  C   UNL A   1      40.660  27.614  33.185  1.00  0.00     0.031 C 
ATOM     44  C   UNL A   1      40.180  27.881  28.463  1.00  0.00     0.029 A 
ATOM     45  N   UNL A   1      42.064  27.272  29.433  1.00  0.00    -0.354 N 
ATOM     46  C   UNL A   1      42.679  28.483  33.773  1.00  0.00     0.074 A 
ATOM     47  C   UNL A   1      41.488  27.811  34.216  1.00  0.00     0.031 C 
ATOM     48  C   UNL A   1      40.734  26.935  27.672  1.00  0.00     0.029 A 
ATOM     49  C   UNL A   1      41.991  26.520  28.261  1.00  0.00     0.049 A 
ATOM     50  H   UNL A   1      42.856  27.270  30.018  1.00  0.00     0.167 HD
ATOM     51  C   UNL A   1      43.982  28.356  34.147  1.00  0.00     0.037 A 
ATOM     52  C   UNL A   1      42.902  25.620  27.812  1.00  0.00     0.037 A 
ATOM     53  C   UNL A   1      44.828  29.181  33.310  1.00  0.00     0.049 A 
ATOM     54  C   UNL A   1      44.181  25.929  28.494  1.00  0.00     0.074 A 
ATOM     55  C   UNL A   1      44.919  30.529  33.024  1.00  0.00     0.029 A 
ATOM     56  N   UNL A   1      45.499  28.538  32.301  1.00  0.00    -0.354 N 
ATOM     57  N   UNL A   1      44.867  27.018  28.283  1.00  0.00    -0.248 NA
ATOM     58  C   UNL A   1      44.457  25.247  29.745  1.00  0.00     0.031 C 
ATOM     59  C   UNL A   1      45.257  30.597  31.636  1.00  0.00     0.029 A 
ATOM     60  C   UNL A   1      45.435  29.296  31.165  1.00  0.00     0.049 A 
ATOM     61  H   UNL A   1      45.953  27.669  32.382  1.00  0.00     0.167 HD
ATOM     62  C   UNL A   1      45.296  27.404  29.543  1.00  0.00     0.074 A 
ATOM     63  C   UNL A   1      45.111  26.221  30.383  1.00  0.00     0.031 C 
ATOM     64  C   UNL A   1      45.470  28.728  29.836  1.00  0.00     0.037 A 
BRANCH  51  65
ATOM     65  C   UNL A   1      44.543  27.156  34.889  1.00  0.00     0.064 A 
ATOM     66  C   UNL A   1      44.261  25.869  34.382  1.00  0.00     0.173 A 
ATOM     67  C   UNL A   1      45.030  27.187  36.214  1.00  0.00     0.173 A 
ATOM     68  F   UNL A   1      43.789  25.715  33.136  1.00  0.00    -0.203 F 
ATOM     69  C   UNL A   1      44.344  24.725  35.180  1.00  0.00     0.198 A 
ATOM     70  C   UNL A   1      45.159  26.036  36.990  1.00  0.00     0.198 A 
ATOM     71  F   UNL A   1      45.294  28.324  36.863  1.00  0.00    -0.203 F 
ATOM     72  F   UNL A   1      43.919  23.549  34.700  1.00  0.00    -0.200 F 
ATOM     73  C   UNL A   1      44.781  24.811  36.487  1.00  0.00     0.200 A 
ATOM     74  F   UNL A   1      45.569  26.145  38.261  1.00  0.00    -0.200 F 
ATOM     75  F   UNL A   1      44.790  23.731  37.277  1.00  0.00    -0.200 F 
ENDBRANCH  51  65
BRANCH  52  76
ATOM     76  C   UNL A   1      42.689  24.341  27.089  1.00  0.00     0.064 A 
ATOM     77  C   UNL A   1      43.111  24.182  25.757  1.00  0.00     0.173 A 
ATOM     78  C   UNL A   1      42.359  23.160  27.782  1.00  0.00     0.173 A 
ATOM     79  F   UNL A   1      43.490  25.250  25.038  1.00  0.00    -0.203 F 
ATOM     80  C   UNL A   1      43.232  22.919  25.167  1.00  0.00     0.198 A 
ATOM     81  C   UNL A   1      42.476  21.900  27.190  1.00  0.00     0.198 A 
ATOM     82  F   UNL A   1      42.016  23.199  29.077  1.00  0.00    -0.203 F 
ATOM     83  F   UNL A   1      43.707  22.805  23.917  1.00  0.00    -0.200 F 
ATOM     84  C   UNL A   1      42.927  21.778  25.888  1.00  0.00     0.200 A 
ATOM     85  F   UNL A   1      42.219  20.800  27.912  1.00  0.00    -0.200 F 
ATOM     86  F   UNL A   1      43.111  20.564  25.348  1.00  0.00    -0.200 F 
ENDBRANCH  52  76
BRANCH  64  87
ATOM     87  C   UNL A   1      45.517  29.691  28.681  1.00  0.00     0.064 A 
ATOM     88  C   UNL A   1      44.393  30.296  28.091  1.00  0.00     0.173 A 
ATOM     89  C   UNL A   1      46.777  30.094  28.219  1.00  0.00     0.173 A 
ATOM     90  F   UNL A   1      43.155  30.039  28.534  1.00  0.00    -0.203 F 
ATOM     91  C   UNL A   1      44.527  31.221  27.055  1.00  0.00     0.198 A 
ATOM     92  C   UNL A   1      46.910  31.046  27.212  1.00  0.00     0.198 A 
ATOM     93  F   UNL A   1      47.888  29.590  28.776  1.00  0.00    -0.203 F 
ATOM     94  F   UNL A   1      43.437  31.767  26.493  1.00  0.00    -0.200 F 
ATOM     95  C   UNL A   1      45.786  31.598  26.620  1.00  0.00     0.200 A 
ATOM     96  F   UNL A   1      48.132  31.442  26.830  1.00  0.00    -0.200 F 
ATOM     97  F   UNL A   1      45.919  32.511  25.647  1.00  0.00    -0.200 F 
ENDBRANCH  64  87
ENDBRANCH  38  39
ENDBRANCH  30  33
ENDBRANCH  28  29
ENDBRANCH  27  28
ENDBRANCH   1  27
TORSDOF 14
ENDMDL
MODEL 3
REMARK VINA RESULT:     -10.6      4.183      7.689
REMARK SMILES CCOc1ccc(-c2csc3ncn([C@H](C)C(=O)NCCCNC(=O)c4ccc(-c5c6nc(c(-c7c(F)c(F)c(F)c(F)c7F)c7ccc([nH]7)c(-c7c(F)c(F)c(F)c(F)c7F)c7nc(c(-c8c(F)c(F)c(F)c(F)c8F)c8ccc5[nH]8)C=C7)C=C6)cc4)c(=O)c23)cc1
REMARK SMILES IDX 20 1 19 2 17 3 18 4 15 6 16 7 14 8 8 9 9 10 91 11 10 12
REMARK SMILES IDX 11 13 89 14 12 15 90 16 13 17 7 18 4 19 5 20 93 21 6 22
REMARK SMILES IDX 92 23 3 24 2 25 1 26 21 27 22 28 23 29 24 30 25 32 26 33
REMARK SMILES IDX 27 34 88 35 28 36 87 37 29 38 30 39 31 40 81 41 32 42 86 43
REMARK SMILES IDX 80 44 82 45 33 46 85 47 79 48 78 49 34 51 66 52 46 53 65 54
REMARK SMILES IDX 47 55 50 56 64 57 83 58 48 59 49 60 63 62 84 63 51 64 35 65
REMARK SMILES IDX 36 66 44 67 37 68 38 69 42 70 45 71 39 72 40 73 43 74 41 75
REMARK SMILES IDX 67 76 68 77 76 78 69 79 70 80 74 81 77 82 71 83 72 84 75 85
REMARK SMILES IDX 73 86 52 87 53 88 61 89 54 90 55 91 59 92 62 93 56 94 57 95
REMARK SMILES IDX 60 96 58 97
REMARK H PARENT 19 5 23 31 82 50 50 61
REMARK Flexibility Score: inf
ROOT
ATOM      1  C   UNL A   1      39.595  21.121  26.437  1.00  0.00     0.117 C 
ENDROOT
BRANCH   1   2
ATOM      2  N   UNL A   1      38.952  21.580  25.217  1.00  0.00    -0.354 N 
ATOM      3  C   UNL A   1      37.866  22.377  24.999  1.00  0.00     0.242 C 
ATOM      4  O   UNL A   1      37.405  22.374  23.853  1.00  0.00    -0.273 OA
ATOM      5  H   UNL A   1      39.380  21.255  24.392  1.00  0.00     0.163 HD
BRANCH   3   6
ATOM      6  C   UNL A   1      37.112  23.102  26.138  1.00  0.00     0.177 C 
ATOM      7  C   UNL A   1      37.919  24.342  26.520  1.00  0.00     0.042 C 
BRANCH   6   8
ATOM      8  N   UNL A   1      35.691  23.314  25.816  1.00  0.00    -0.286 N 
ATOM      9  C   UNL A   1      32.592  21.462  24.651  1.00  0.00     0.007 A 
ATOM     10  C   UNL A   1      31.437  22.131  24.285  1.00  0.00     0.076 A 
ATOM     11  C   UNL A   1      33.593  22.389  25.103  1.00  0.00     0.085 A 
ATOM     12  S   UNL A   1      31.567  23.825  24.472  1.00  0.00    -0.123 S 
ATOM     13  C   UNL A   1      33.160  23.695  25.061  1.00  0.00     0.131 A 
ATOM     14  C   UNL A   1      34.957  22.148  25.546  1.00  0.00     0.263 A 
ATOM     15  N   UNL A   1      33.866  24.795  25.418  1.00  0.00    -0.227 NA
ATOM     16  O   UNL A   1      35.437  21.030  25.653  1.00  0.00    -0.268 OA
ATOM     17  C   UNL A   1      35.085  24.552  25.784  1.00  0.00     0.204 A 
BRANCH   9  18
ATOM     18  C   UNL A   1      32.679  20.010  24.522  1.00  0.00    -0.016 A 
ATOM     19  C   UNL A   1      32.859  17.224  24.249  1.00  0.00     0.119 A 
ATOM     20  C   UNL A   1      32.994  17.809  25.506  1.00  0.00     0.047 A 
ATOM     21  C   UNL A   1      32.596  18.019  23.138  1.00  0.00     0.047 A 
ATOM     22  C   UNL A   1      32.900  19.198  25.643  1.00  0.00     0.012 A 
ATOM     23  C   UNL A   1      32.528  19.408  23.269  1.00  0.00     0.012 A 
BRANCH  19  24
ATOM     24  O   UNL A   1      32.855  15.859  24.172  1.00  0.00    -0.494 OA
BRANCH  24  25
ATOM     25  C   UNL A   1      33.068  15.201  25.427  1.00  0.00     0.226 C 
ATOM     26  C   UNL A   1      31.768  14.724  26.056  1.00  0.00     0.049 C 
ENDBRANCH  24  25
ENDBRANCH  19  24
ENDBRANCH   9  18
ENDBRANCH   6   8
ENDBRANCH   3   6
ENDBRANCH   1   2
BRANCH   1  27
ATOM     27  C   UNL A   1      40.553  19.954  26.200  1.00  0.00     0.042 C 
BRANCH  27  28
ATOM     28  C   UNL A   1      41.874  20.141  26.918  1.00  0.00     0.118 C 
BRANCH  28  29
ATOM     29  N   UNL A   1      43.037  19.792  26.093  1.00  0.00    -0.352 N 
ATOM     30  C   UNL A   1      43.831  20.644  25.344  1.00  0.00     0.251 C 
ATOM     31  H   UNL A   1      43.280  18.839  26.069  1.00  0.00     0.163 HD
ATOM     32  O   UNL A   1      44.539  20.222  24.437  1.00  0.00    -0.269 OA
BRANCH  30  33
ATOM     33  C   UNL A   1      43.808  22.078  25.671  1.00  0.00     0.039 A 
ATOM     34  C   UNL A   1      43.012  22.995  24.981  1.00  0.00     0.014 A 
ATOM     35  C   UNL A   1      44.564  22.474  26.767  1.00  0.00     0.014 A 
ATOM     36  C   UNL A   1      42.933  24.296  25.470  1.00  0.00     0.010 A 
ATOM     37  C   UNL A   1      44.278  23.655  27.385  1.00  0.00     0.010 A 
ATOM     38  C   UNL A   1      43.553  24.609  26.694  1.00  0.00    -0.014 A 
BRANCH  38  39
ATOM     39  C   UNL A   1      43.367  25.893  27.353  1.00  0.00     0.031 A 
ATOM     40  C   UNL A   1      44.339  26.917  26.906  1.00  0.00     0.074 A 
ATOM     41  C   UNL A   1      42.292  26.181  28.123  1.00  0.00     0.049 A 
ATOM     42  N   UNL A   1      45.351  27.361  27.570  1.00  0.00    -0.248 NA
ATOM     43  C   UNL A   1      44.311  27.355  25.500  1.00  0.00     0.031 C 
ATOM     44  C   UNL A   1      41.109  25.347  28.386  1.00  0.00     0.029 A 
ATOM     45  N   UNL A   1      41.981  27.335  28.777  1.00  0.00    -0.354 N 
ATOM     46  C   UNL A   1      45.934  28.328  26.761  1.00  0.00     0.074 A 
ATOM     47  C   UNL A   1      45.411  28.112  25.440  1.00  0.00     0.031 C 
ATOM     48  C   UNL A   1      40.129  26.099  28.935  1.00  0.00     0.029 A 
ATOM     49  C   UNL A   1      40.666  27.411  29.231  1.00  0.00     0.049 A 
ATOM     50  H   UNL A   1      42.635  28.058  28.916  1.00  0.00     0.167 HD
ATOM     51  C   UNL A   1      46.528  29.412  27.333  1.00  0.00     0.037 A 
ATOM     52  C   UNL A   1      40.064  28.482  29.809  1.00  0.00     0.037 A 
ATOM     53  C   UNL A   1      46.772  29.169  28.739  1.00  0.00     0.049 A 
ATOM     54  C   UNL A   1      41.145  29.358  30.317  1.00  0.00     0.074 A 
ATOM     55  C   UNL A   1      47.490  28.243  29.469  1.00  0.00     0.029 A 
ATOM     56  N   UNL A   1      45.879  29.728  29.618  1.00  0.00    -0.354 N 
ATOM     57  N   UNL A   1      41.938  29.031  31.300  1.00  0.00    -0.248 NA
ATOM     58  C   UNL A   1      41.641  30.397  29.432  1.00  0.00     0.031 C 
ATOM     59  C   UNL A   1      46.698  27.985  30.632  1.00  0.00     0.029 A 
ATOM     60  C   UNL A   1      45.581  28.819  30.595  1.00  0.00     0.049 A 
ATOM     61  H   UNL A   1      45.512  30.639  29.554  1.00  0.00     0.167 HD
ATOM     62  C   UNL A   1      43.189  29.466  30.893  1.00  0.00     0.074 A 
ATOM     63  C   UNL A   1      42.926  30.395  29.794  1.00  0.00     0.031 C 
ATOM     64  C   UNL A   1      44.313  28.797  31.288  1.00  0.00     0.037 A 
BRANCH  51  65
ATOM     65  C   UNL A   1      46.429  30.825  26.787  1.00  0.00     0.064 A 
ATOM     66  C   UNL A   1      47.587  31.631  26.812  1.00  0.00     0.173 A 
ATOM     67  C   UNL A   1      45.218  31.519  26.570  1.00  0.00     0.173 A 
ATOM     68  F   UNL A   1      48.795  31.084  27.016  1.00  0.00    -0.203 F 
ATOM     69  C   UNL A   1      47.520  33.025  26.749  1.00  0.00     0.198 A 
ATOM     70  C   UNL A   1      45.163  32.908  26.456  1.00  0.00     0.198 A 
ATOM     71  F   UNL A   1      44.026  30.917  26.571  1.00  0.00    -0.203 F 
ATOM     72  F   UNL A   1      48.631  33.752  26.932  1.00  0.00    -0.200 F 
ATOM     73  C   UNL A   1      46.307  33.663  26.584  1.00  0.00     0.200 A 
ATOM     74  F   UNL A   1      43.972  33.507  26.312  1.00  0.00    -0.200 F 
ATOM     75  F   UNL A   1      46.229  34.999  26.598  1.00  0.00    -0.200 F 
ENDBRANCH  51  65
BRANCH  52  76
ATOM     76  C   UNL A   1      38.663  28.959  29.685  1.00  0.00     0.064 A 
ATOM     77  C   UNL A   1      37.873  29.191  30.827  1.00  0.00     0.173 A 
ATOM     78  C   UNL A   1      38.179  29.493  28.476  1.00  0.00     0.173 A 
ATOM     79  F   UNL A   1      38.282  28.758  32.028  1.00  0.00    -0.203 F 
ATOM     80  C   UNL A   1      36.694  29.943  30.767  1.00  0.00     0.198 A 
ATOM     81  C   UNL A   1      37.000  30.240  28.418  1.00  0.00     0.198 A 
ATOM     82  F   UNL A   1      38.894  29.389  27.347  1.00  0.00    -0.203 F 
ATOM     83  F   UNL A   1      36.008  30.203  31.891  1.00  0.00    -0.200 F 
ATOM     84  C   UNL A   1      36.266  30.478  29.565  1.00  0.00     0.200 A 
ATOM     85  F   UNL A   1      36.618  30.788  27.256  1.00  0.00    -0.200 F 
ATOM     86  F   UNL A   1      35.176  31.258  29.520  1.00  0.00    -0.200 F 
ENDBRANCH  52  76
BRANCH  64  87
ATOM     87  C   UNL A   1      44.172  27.820  32.425  1.00  0.00     0.064 A 
ATOM     88  C   UNL A   1      44.034  26.428  32.277  1.00  0.00     0.173 A 
ATOM     89  C   UNL A   1      44.284  28.317  33.730  1.00  0.00     0.173 A 
ATOM     90  F   UNL A   1      44.014  25.859  31.065  1.00  0.00    -0.203 F 
ATOM     91  C   UNL A   1      43.962  25.585  33.387  1.00  0.00     0.198 A 
ATOM     92  C   UNL A   1      44.251  27.471  34.835  1.00  0.00     0.198 A 
ATOM     93  F   UNL A   1      44.467  29.631  33.934  1.00  0.00    -0.203 F 
ATOM     94  F   UNL A   1      43.807  24.262  33.219  1.00  0.00    -0.200 F 
ATOM     95  C   UNL A   1      44.075  26.107  34.664  1.00  0.00     0.200 A 
ATOM     96  F   UNL A   1      44.409  27.978  36.065  1.00  0.00    -0.200 F 
ATOM     97  F   UNL A   1      44.039  25.296  35.731  1.00  0.00    -0.200 F 
ENDBRANCH  64  87
ENDBRANCH  38  39
ENDBRANCH  30  33
ENDBRANCH  28  29
ENDBRANCH  27  28
ENDBRANCH   1  27
TORSDOF 14
ENDMDL
