MODEL 1
REMARK VINA RESULT:     -12.4      0.000      0.000
REMARK SMILES C[C@H](CCc1ccco1)NC(=O)c1cccn1CC(=O)NCCCNC(=O)c1ccc(-c2c3nc(c(-c4c(F)c(F)c(F)c(F)c4F)c4ccc([nH]4)c(-c4c(F)c(F)c(F)c(F)c4F)c4nc(c(-c5c(F)c(F)c(F)c(F)c5F)c5ccc2[nH]5)C=C4)C=C3)cc1
REMARK SMILES IDX 19 1 20 2 21 3 18 5 17 6 13 7 14 8 15 9 16 10 11 11 10 12
REMARK SMILES IDX 12 14 2 15 1 16 3 17 4 18 5 19 6 20 9 21 7 22 8 23 22 24
REMARK SMILES IDX 23 25 24 26 25 27 26 28 27 30 28 31 29 32 90 33 30 34 89 35
REMARK SMILES IDX 31 36 32 37 33 38 83 39 34 40 88 41 82 42 84 43 35 44 87 45
REMARK SMILES IDX 81 46 80 47 36 49 68 50 48 51 67 52 49 53 52 54 66 55 85 56
REMARK SMILES IDX 50 57 51 58 65 60 86 61 53 62 37 63 38 64 46 65 39 66 40 67
REMARK SMILES IDX 44 68 47 69 41 70 42 71 45 72 43 73 69 74 70 75 78 76 71 77
REMARK SMILES IDX 72 78 76 79 79 80 73 81 74 82 77 83 75 84 54 85 55 86 63 87
REMARK SMILES IDX 56 88 57 89 61 90 64 91 58 92 59 93 62 94 60 95
REMARK H PARENT 21 4 10 13 25 29 84 48 52 59
REMARK Flexibility Score: inf
ROOT
ATOM      1  C   UNL A   1      31.543  25.987  26.294  1.00  0.00     0.239 C 
ATOM      2  O   UNL A   1      30.516  25.335  26.497  1.00  0.00    -0.273 OA
ATOM      3  N   UNL A   1      31.463  27.350  26.377  1.00  0.00    -0.354 N 
ATOM      4  H   UNL A   1      30.607  27.714  26.699  1.00  0.00     0.163 HD
ENDROOT
BRANCH   1   5
ATOM      5  C   UNL A   1      32.876  25.313  26.020  1.00  0.00     0.222 C 
BRANCH   5   6
ATOM      6  N   UNL A   1      33.082  24.962  24.620  1.00  0.00    -0.334 N 
ATOM      7  C   UNL A   1      34.120  24.202  24.089  1.00  0.00     0.107 A 
ATOM      8  C   UNL A   1      33.841  24.076  22.734  1.00  0.00     0.033 A 
ATOM      9  C   UNL A   1      32.680  24.820  22.432  1.00  0.00     0.020 A 
ATOM     10  C   UNL A   1      32.226  25.349  23.614  1.00  0.00     0.087 A 
BRANCH   7  11
ATOM     11  C   UNL A   1      35.210  23.631  24.868  1.00  0.00     0.268 C 
ATOM     12  N   UNL A   1      35.046  22.418  25.503  1.00  0.00    -0.348 N 
ATOM     13  H   UNL A   1      35.852  22.077  25.951  1.00  0.00     0.164 HD
ATOM     14  O   UNL A   1      36.319  24.145  24.930  1.00  0.00    -0.268 OA
BRANCH  12  15
ATOM     15  C   UNL A   1      33.871  21.553  25.617  1.00  0.00     0.079 C 
ATOM     16  C   UNL A   1      33.690  21.176  27.080  1.00  0.00     0.031 C 
BRANCH  15  17
ATOM     17  C   UNL A   1      33.932  20.389  24.591  1.00  0.00     0.032 C 
BRANCH  17  18
ATOM     18  C   UNL A   1      32.664  19.585  24.297  1.00  0.00     0.077 C 
BRANCH  18  19
ATOM     19  C   UNL A   1      32.854  18.135  24.569  1.00  0.00     0.103 A 
ATOM     20  C   UNL A   1      33.386  17.091  23.839  1.00  0.00     0.045 A 
ATOM     21  O   UNL A   1      32.384  17.676  25.761  1.00  0.00    -0.469 OA
ATOM     22  C   UNL A   1      33.174  15.922  24.609  1.00  0.00     0.042 A 
ATOM     23  C   UNL A   1      32.558  16.330  25.767  1.00  0.00     0.195 A 
ENDBRANCH  18  19
ENDBRANCH  17  18
ENDBRANCH  15  17
ENDBRANCH  12  15
ENDBRANCH   7  11
ENDBRANCH   5   6
ENDBRANCH   1   5
BRANCH   3  24
ATOM     24  C   UNL A   1      32.484  28.321  26.049  1.00  0.00     0.117 C 
BRANCH  24  25
ATOM     25  C   UNL A   1      33.362  28.623  27.263  1.00  0.00     0.042 C 
BRANCH  25  26
ATOM     26  C   UNL A   1      34.804  28.902  26.881  1.00  0.00     0.118 C 
BRANCH  26  27
ATOM     27  N   UNL A   1      35.206  30.247  27.272  1.00  0.00    -0.352 N 
ATOM     28  C   UNL A   1      36.335  30.675  27.921  1.00  0.00     0.251 C 
ATOM     29  H   UNL A   1      34.569  30.957  27.032  1.00  0.00     0.163 HD
ATOM     30  O   UNL A   1      36.359  31.807  28.392  1.00  0.00    -0.269 OA
BRANCH  28  31
ATOM     31  C   UNL A   1      37.494  29.779  28.102  1.00  0.00     0.039 A 
ATOM     32  C   UNL A   1      38.464  29.754  27.093  1.00  0.00     0.014 A 
ATOM     33  C   UNL A   1      37.624  28.953  29.223  1.00  0.00     0.014 A 
ATOM     34  C   UNL A   1      39.600  28.971  27.251  1.00  0.00     0.010 A 
ATOM     35  C   UNL A   1      38.784  28.217  29.416  1.00  0.00     0.010 A 
ATOM     36  C   UNL A   1      39.776  28.239  28.433  1.00  0.00    -0.014 A 
BRANCH  36  37
ATOM     37  C   UNL A   1      41.092  27.622  28.694  1.00  0.00     0.031 A 
ATOM     38  C   UNL A   1      41.149  26.178  28.153  1.00  0.00     0.074 A 
ATOM     39  C   UNL A   1      42.005  28.389  29.362  1.00  0.00     0.049 A 
ATOM     40  N   UNL A   1      41.815  25.147  28.578  1.00  0.00    -0.248 NA
ATOM     41  C   UNL A   1      40.276  25.807  27.002  1.00  0.00     0.031 C 
ATOM     42  C   UNL A   1      41.793  29.804  29.744  1.00  0.00     0.029 A 
ATOM     43  N   UNL A   1      43.274  28.164  29.858  1.00  0.00    -0.354 N 
ATOM     44  C   UNL A   1      41.594  24.086  27.668  1.00  0.00     0.074 A 
ATOM     45  C   UNL A   1      40.546  24.515  26.795  1.00  0.00     0.031 C 
ATOM     46  C   UNL A   1      42.837  30.276  30.456  1.00  0.00     0.029 A 
ATOM     47  C   UNL A   1      43.829  29.232  30.615  1.00  0.00     0.049 A 
ATOM     48  H   UNL A   1      43.760  27.322  29.698  1.00  0.00     0.167 HD
ATOM     49  C   UNL A   1      42.397  22.979  27.604  1.00  0.00     0.037 A 
ATOM     50  C   UNL A   1      44.976  29.258  31.365  1.00  0.00     0.037 A 
ATOM     51  C   UNL A   1      43.416  23.071  28.593  1.00  0.00     0.049 A 
ATOM     52  C   UNL A   1      45.619  27.963  31.110  1.00  0.00     0.074 A 
ATOM     53  C   UNL A   1      43.397  22.948  29.956  1.00  0.00     0.029 A 
ATOM     54  N   UNL A   1      44.586  23.678  28.210  1.00  0.00    -0.354 N 
ATOM     55  N   UNL A   1      46.255  27.656  30.021  1.00  0.00    -0.248 NA
ATOM     56  C   UNL A   1      45.457  26.894  32.104  1.00  0.00     0.031 C 
ATOM     57  C   UNL A   1      44.330  23.916  30.379  1.00  0.00     0.029 A 
ATOM     58  C   UNL A   1      45.023  24.423  29.273  1.00  0.00     0.049 A 
ATOM     59  H   UNL A   1      45.029  23.592  27.335  1.00  0.00     0.167 HD
ATOM     60  C   UNL A   1      46.272  26.284  30.079  1.00  0.00     0.074 A 
ATOM     61  C   UNL A   1      46.103  25.921  31.467  1.00  0.00     0.031 C 
ATOM     62  C   UNL A   1      45.858  25.569  29.003  1.00  0.00     0.037 A 
BRANCH  49  63
ATOM     63  C   UNL A   1      42.569  21.889  26.578  1.00  0.00     0.064 A 
ATOM     64  C   UNL A   1      42.098  20.588  26.904  1.00  0.00     0.173 A 
ATOM     65  C   UNL A   1      43.474  21.965  25.514  1.00  0.00     0.173 A 
ATOM     66  F   UNL A   1      41.186  20.410  27.873  1.00  0.00    -0.203 F 
ATOM     67  C   UNL A   1      42.623  19.439  26.315  1.00  0.00     0.198 A 
ATOM     68  C   UNL A   1      43.959  20.810  24.888  1.00  0.00     0.198 A 
ATOM     69  F   UNL A   1      43.989  23.138  25.126  1.00  0.00    -0.203 F 
ATOM     70  F   UNL A   1      42.262  18.231  26.767  1.00  0.00    -0.200 F 
ATOM     71  C   UNL A   1      43.572  19.552  25.319  1.00  0.00     0.200 A 
ATOM     72  F   UNL A   1      44.871  20.922  23.912  1.00  0.00    -0.200 F 
ATOM     73  F   UNL A   1      44.137  18.454  24.800  1.00  0.00    -0.200 F 
ENDBRANCH  49  63
BRANCH  50  74
ATOM     74  C   UNL A   1      45.664  30.159  32.370  1.00  0.00     0.064 A 
ATOM     75  C   UNL A   1      46.795  30.950  32.137  1.00  0.00     0.173 A 
ATOM     76  C   UNL A   1      45.140  30.285  33.692  1.00  0.00     0.173 A 
ATOM     77  F   UNL A   1      47.484  30.848  30.995  1.00  0.00    -0.203 F 
ATOM     78  C   UNL A   1      47.282  31.862  33.096  1.00  0.00     0.198 A 
ATOM     79  C   UNL A   1      45.593  31.216  34.627  1.00  0.00     0.198 A 
ATOM     80  F   UNL A   1      44.156  29.497  34.143  1.00  0.00    -0.203 F 
ATOM     81  F   UNL A   1      48.366  32.602  32.819  1.00  0.00    -0.200 F 
ATOM     82  C   UNL A   1      46.659  32.021  34.323  1.00  0.00     0.200 A 
ATOM     83  F   UNL A   1      44.972  31.322  35.811  1.00  0.00    -0.200 F 
ATOM     84  F   UNL A   1      47.092  32.926  35.209  1.00  0.00    -0.200 F 
ENDBRANCH  50  74
BRANCH  62  85
ATOM     85  C   UNL A   1      45.981  26.311  27.685  1.00  0.00     0.064 A 
ATOM     86  C   UNL A   1      44.825  26.638  26.957  1.00  0.00     0.173 A 
ATOM     87  C   UNL A   1      47.202  26.595  27.053  1.00  0.00     0.173 A 
ATOM     88  F   UNL A   1      43.615  26.417  27.492  1.00  0.00    -0.203 F 
ATOM     89  C   UNL A   1      44.894  27.191  25.675  1.00  0.00     0.198 A 
ATOM     90  C   UNL A   1      47.277  27.154  25.775  1.00  0.00     0.198 A 
ATOM     91  F   UNL A   1      48.357  26.335  27.662  1.00  0.00    -0.203 F 
ATOM     92  F   UNL A   1      43.765  27.482  25.013  1.00  0.00    -0.200 F 
ATOM     93  C   UNL A   1      46.120  27.447  25.083  1.00  0.00     0.200 A 
ATOM     94  F   UNL A   1      48.474  27.411  25.223  1.00  0.00    -0.200 F 
ATOM     95  F   UNL A   1      46.185  27.987  23.857  1.00  0.00    -0.200 F 
ENDBRANCH  62  85
ENDBRANCH  36  37
ENDBRANCH  28  31
ENDBRANCH  26  27
ENDBRANCH  25  26
ENDBRANCH  24  25
ENDBRANCH   3  24
TORSDOF 16
ENDMDL
MODEL 2
REMARK VINA RESULT:     -12.3      3.031      8.260
REMARK SMILES C[C@H](CCc1ccco1)NC(=O)c1cccn1CC(=O)NCCCNC(=O)c1ccc(-c2c3nc(c(-c4c(F)c(F)c(F)c(F)c4F)c4ccc([nH]4)c(-c4c(F)c(F)c(F)c(F)c4F)c4nc(c(-c5c(F)c(F)c(F)c(F)c5F)c5ccc2[nH]5)C=C4)C=C3)cc1
REMARK SMILES IDX 19 1 20 2 21 3 18 5 17 6 13 7 14 8 15 9 16 10 11 11 10 12
REMARK SMILES IDX 12 14 2 15 1 16 3 17 4 18 5 19 6 20 9 21 7 22 8 23 22 24
REMARK SMILES IDX 23 25 24 26 25 27 26 28 27 30 28 31 29 32 90 33 30 34 89 35
REMARK SMILES IDX 31 36 32 37 33 38 83 39 34 40 88 41 82 42 84 43 35 44 87 45
REMARK SMILES IDX 81 46 80 47 36 49 68 50 48 51 67 52 49 53 52 54 66 55 85 56
REMARK SMILES IDX 50 57 51 58 65 60 86 61 53 62 37 63 38 64 46 65 39 66 40 67
REMARK SMILES IDX 44 68 47 69 41 70 42 71 45 72 43 73 69 74 70 75 78 76 71 77
REMARK SMILES IDX 72 78 76 79 79 80 73 81 74 82 77 83 75 84 54 85 55 86 63 87
REMARK SMILES IDX 56 88 57 89 61 90 64 91 58 92 59 93 62 94 60 95
REMARK H PARENT 21 4 10 13 25 29 84 48 52 59
REMARK Flexibility Score: inf
ROOT
ATOM      1  C   UNL A   1      36.262  22.546  23.812  1.00  0.00     0.239 C 
ATOM      2  O   UNL A   1      36.587  23.324  22.912  1.00  0.00    -0.273 OA
ATOM      3  N   UNL A   1      37.118  21.523  24.114  1.00  0.00    -0.354 N 
ATOM      4  H   UNL A   1      37.991  21.542  23.660  1.00  0.00     0.163 HD
ENDROOT
BRANCH   1   5
ATOM      5  C   UNL A   1      34.985  22.738  24.610  1.00  0.00     0.222 C 
BRANCH   5   6
ATOM      6  N   UNL A   1      33.807  22.142  23.990  1.00  0.00    -0.334 N 
ATOM      7  C   UNL A   1      32.914  22.758  23.119  1.00  0.00     0.107 A 
ATOM      8  C   UNL A   1      32.014  21.771  22.739  1.00  0.00     0.033 A 
ATOM      9  C   UNL A   1      32.315  20.580  23.436  1.00  0.00     0.020 A 
ATOM     10  C   UNL A   1      33.431  20.833  24.194  1.00  0.00     0.087 A 
BRANCH   7  11
ATOM     11  C   UNL A   1      33.005  24.145  22.685  1.00  0.00     0.268 C 
ATOM     12  N   UNL A   1      32.423  25.145  23.434  1.00  0.00    -0.348 N 
ATOM     13  H   UNL A   1      32.588  26.056  23.103  1.00  0.00     0.164 HD
ATOM     14  O   UNL A   1      33.652  24.491  21.704  1.00  0.00    -0.268 OA
BRANCH  12  15
ATOM     15  C   UNL A   1      31.601  25.075  24.644  1.00  0.00     0.079 C 
ATOM     16  C   UNL A   1      30.362  25.933  24.436  1.00  0.00     0.031 C 
BRANCH  15  17
ATOM     17  C   UNL A   1      32.451  25.355  25.912  1.00  0.00     0.032 C 
BRANCH  17  18
ATOM     18  C   UNL A   1      33.719  26.202  25.790  1.00  0.00     0.077 C 
BRANCH  18  19
ATOM     19  C   UNL A   1      33.523  27.574  26.329  1.00  0.00     0.103 A 
ATOM     20  C   UNL A   1      34.374  28.636  26.562  1.00  0.00     0.045 A 
ATOM     21  O   UNL A   1      32.263  27.893  26.731  1.00  0.00    -0.469 OA
ATOM     22  C   UNL A   1      33.597  29.634  27.197  1.00  0.00     0.042 A 
ATOM     23  C   UNL A   1      32.320  29.133  27.280  1.00  0.00     0.195 A 
ENDBRANCH  18  19
ENDBRANCH  17  18
ENDBRANCH  15  17
ENDBRANCH  12  15
ENDBRANCH   7  11
ENDBRANCH   5   6
ENDBRANCH   1   5
BRANCH   3  24
ATOM     24  C   UNL A   1      36.897  20.418  25.022  1.00  0.00     0.117 C 
BRANCH  24  25
ATOM     25  C   UNL A   1      38.085  19.457  25.014  1.00  0.00     0.042 C 
BRANCH  25  26
ATOM     26  C   UNL A   1      39.270  19.995  25.795  1.00  0.00     0.118 C 
BRANCH  26  27
ATOM     27  N   UNL A   1      40.329  19.000  25.905  1.00  0.00    -0.352 N 
ATOM     28  C   UNL A   1      41.675  19.163  26.104  1.00  0.00     0.251 C 
ATOM     29  H   UNL A   1      40.031  18.065  25.823  1.00  0.00     0.163 HD
ATOM     30  O   UNL A   1      42.429  18.218  25.899  1.00  0.00    -0.269 OA
BRANCH  28  31
ATOM     31  C   UNL A   1      42.229  20.470  26.512  1.00  0.00     0.039 A 
ATOM     32  C   UNL A   1      42.748  21.301  25.512  1.00  0.00     0.014 A 
ATOM     33  C   UNL A   1      42.269  20.871  27.851  1.00  0.00     0.014 A 
ATOM     34  C   UNL A   1      43.223  22.563  25.846  1.00  0.00     0.010 A 
ATOM     35  C   UNL A   1      42.684  22.153  28.183  1.00  0.00     0.010 A 
ATOM     36  C   UNL A   1      43.148  23.000  27.175  1.00  0.00    -0.014 A 
BRANCH  36  37
ATOM     37  C   UNL A   1      43.416  24.423  27.467  1.00  0.00     0.031 A 
ATOM     38  C   UNL A   1      42.104  25.220  27.622  1.00  0.00     0.074 A 
ATOM     39  C   UNL A   1      44.730  24.796  27.533  1.00  0.00     0.049 A 
ATOM     40  N   UNL A   1      41.840  26.464  27.361  1.00  0.00    -0.248 NA
ATOM     41  C   UNL A   1      40.876  24.501  28.070  1.00  0.00     0.031 C 
ATOM     42  C   UNL A   1      45.873  23.861  27.429  1.00  0.00     0.029 A 
ATOM     43  N   UNL A   1      45.382  26.002  27.694  1.00  0.00    -0.354 N 
ATOM     44  C   UNL A   1      40.511  26.720  27.774  1.00  0.00     0.074 A 
ATOM     45  C   UNL A   1      39.934  25.448  28.084  1.00  0.00     0.031 C 
ATOM     46  C   UNL A   1      47.047  24.526  27.456  1.00  0.00     0.029 A 
ATOM     47  C   UNL A   1      46.798  25.948  27.577  1.00  0.00     0.049 A 
ATOM     48  H   UNL A   1      44.900  26.841  27.878  1.00  0.00     0.167 HD
ATOM     49  C   UNL A   1      40.022  27.982  27.974  1.00  0.00     0.037 A 
ATOM     50  C   UNL A   1      47.703  26.976  27.522  1.00  0.00     0.037 A 
ATOM     51  C   UNL A   1      41.030  28.938  27.670  1.00  0.00     0.049 A 
ATOM     52  C   UNL A   1      46.908  28.187  27.760  1.00  0.00     0.074 A 
ATOM     53  C   UNL A   1      41.578  29.364  26.490  1.00  0.00     0.029 A 
ATOM     54  N   UNL A   1      41.843  29.321  28.708  1.00  0.00    -0.354 N 
ATOM     55  N   UNL A   1      46.454  28.557  28.919  1.00  0.00    -0.248 NA
ATOM     56  C   UNL A   1      46.505  28.998  26.604  1.00  0.00     0.031 C 
ATOM     57  C   UNL A   1      42.934  29.562  26.816  1.00  0.00     0.029 A 
ATOM     58  C   UNL A   1      43.108  29.462  28.202  1.00  0.00     0.049 A 
ATOM     59  H   UNL A   1      41.568  29.467  29.642  1.00  0.00     0.167 HD
ATOM     60  C   UNL A   1      45.461  29.438  28.567  1.00  0.00     0.074 A 
ATOM     61  C   UNL A   1      45.772  29.909  27.237  1.00  0.00     0.031 C 
ATOM     62  C   UNL A   1      44.224  29.291  29.102  1.00  0.00     0.037 A 
BRANCH  49  63
ATOM     63  C   UNL A   1      38.797  28.514  28.672  1.00  0.00     0.064 A 
ATOM     64  C   UNL A   1      38.081  29.571  28.047  1.00  0.00     0.173 A 
ATOM     65  C   UNL A   1      38.536  28.316  30.032  1.00  0.00     0.173 A 
ATOM     66  F   UNL A   1      38.217  29.810  26.732  1.00  0.00    -0.203 F 
ATOM     67  C   UNL A   1      37.290  30.462  28.771  1.00  0.00     0.198 A 
ATOM     68  C   UNL A   1      37.698  29.182  30.745  1.00  0.00     0.198 A 
ATOM     69  F   UNL A   1      39.159  27.355  30.724  1.00  0.00    -0.203 F 
ATOM     70  F   UNL A   1      36.764  31.534  28.164  1.00  0.00    -0.200 F 
ATOM     71  C   UNL A   1      37.116  30.278  30.127  1.00  0.00     0.200 A 
ATOM     72  F   UNL A   1      37.519  28.995  32.060  1.00  0.00    -0.200 F 
ATOM     73  F   UNL A   1      36.421  31.171  30.843  1.00  0.00    -0.200 F 
ENDBRANCH  49  63
BRANCH  50  74
ATOM     74  C   UNL A   1      49.174  27.190  27.224  1.00  0.00     0.064 A 
ATOM     75  C   UNL A   1      50.158  27.571  28.143  1.00  0.00     0.173 A 
ATOM     76  C   UNL A   1      49.675  26.965  25.906  1.00  0.00     0.173 A 
ATOM     77  F   UNL A   1      49.834  27.947  29.384  1.00  0.00    -0.203 F 
ATOM     78  C   UNL A   1      51.526  27.611  27.801  1.00  0.00     0.198 A 
ATOM     79  C   UNL A   1      51.030  26.962  25.576  1.00  0.00     0.198 A 
ATOM     80  F   UNL A   1      48.862  26.740  24.867  1.00  0.00    -0.203 F 
ATOM     81  F   UNL A   1      52.431  27.977  28.721  1.00  0.00    -0.200 F 
ATOM     82  C   UNL A   1      51.963  27.271  26.531  1.00  0.00     0.200 A 
ATOM     83  F   UNL A   1      51.407  26.646  24.329  1.00  0.00    -0.200 F 
ATOM     84  F   UNL A   1      53.267  27.258  26.227  1.00  0.00    -0.200 F 
ENDBRANCH  50  74
BRANCH  62  85
ATOM     85  C   UNL A   1      44.209  28.569  30.437  1.00  0.00     0.064 A 
ATOM     86  C   UNL A   1      44.660  29.228  31.592  1.00  0.00     0.173 A 
ATOM     87  C   UNL A   1      43.889  27.210  30.593  1.00  0.00     0.173 A 
ATOM     88  F   UNL A   1      44.971  30.532  31.538  1.00  0.00    -0.203 F 
ATOM     89  C   UNL A   1      44.799  28.561  32.813  1.00  0.00     0.198 A 
ATOM     90  C   UNL A   1      44.019  26.541  31.812  1.00  0.00     0.198 A 
ATOM     91  F   UNL A   1      43.440  26.498  29.563  1.00  0.00    -0.203 F 
ATOM     92  F   UNL A   1      45.240  29.228  33.890  1.00  0.00    -0.200 F 
ATOM     93  C   UNL A   1      44.482  27.218  32.923  1.00  0.00     0.200 A 
ATOM     94  F   UNL A   1      43.692  25.242  31.904  1.00  0.00    -0.200 F 
ATOM     95  F   UNL A   1      44.607  26.582  34.096  1.00  0.00    -0.200 F 
ENDBRANCH  62  85
ENDBRANCH  36  37
ENDBRANCH  28  31
ENDBRANCH  26  27
ENDBRANCH  25  26
ENDBRANCH  24  25
ENDBRANCH   3  24
TORSDOF 16
ENDMDL
MODEL 3
REMARK VINA RESULT:     -12.3      1.029      1.871
REMARK SMILES C[C@H](CCc1ccco1)NC(=O)c1cccn1CC(=O)NCCCNC(=O)c1ccc(-c2c3nc(c(-c4c(F)c(F)c(F)c(F)c4F)c4ccc([nH]4)c(-c4c(F)c(F)c(F)c(F)c4F)c4nc(c(-c5c(F)c(F)c(F)c(F)c5F)c5ccc2[nH]5)C=C4)C=C3)cc1
REMARK SMILES IDX 19 1 20 2 21 3 18 5 17 6 13 7 14 8 15 9 16 10 11 11 10 12
REMARK SMILES IDX 12 14 2 15 1 16 3 17 4 18 5 19 6 20 9 21 7 22 8 23 22 24
REMARK SMILES IDX 23 25 24 26 25 27 26 28 27 30 28 31 29 32 90 33 30 34 89 35
REMARK SMILES IDX 31 36 32 37 33 38 83 39 34 40 88 41 82 42 84 43 35 44 87 45
REMARK SMILES IDX 81 46 80 47 36 49 68 50 48 51 67 52 49 53 52 54 66 55 85 56
REMARK SMILES IDX 50 57 51 58 65 60 86 61 53 62 37 63 38 64 46 65 39 66 40 67
REMARK SMILES IDX 44 68 47 69 41 70 42 71 45 72 43 73 69 74 70 75 78 76 71 77
REMARK SMILES IDX 72 78 76 79 79 80 73 81 74 82 77 83 75 84 54 85 55 86 63 87
REMARK SMILES IDX 56 88 57 89 61 90 64 91 58 92 59 93 62 94 60 95
REMARK H PARENT 21 4 10 13 25 29 84 48 52 59
REMARK Flexibility Score: inf
ROOT
ATOM      1  C   UNL A   1      31.428  25.993  26.075  1.00  0.00     0.239 C 
ATOM      2  O   UNL A   1      30.709  25.089  26.509  1.00  0.00    -0.273 OA
ATOM      3  N   UNL A   1      31.676  27.061  26.893  1.00  0.00    -0.354 N 
ATOM      4  H   UNL A   1      31.347  26.984  27.818  1.00  0.00     0.163 HD
ENDROOT
BRANCH   1   5
ATOM      5  C   UNL A   1      32.074  25.911  24.705  1.00  0.00     0.222 C 
BRANCH   5   6
ATOM      6  N   UNL A   1      33.328  25.165  24.687  1.00  0.00    -0.334 N 
ATOM      7  C   UNL A   1      33.889  24.491  23.608  1.00  0.00     0.107 A 
ATOM      8  C   UNL A   1      35.113  24.010  24.057  1.00  0.00     0.033 A 
ATOM      9  C   UNL A   1      35.258  24.327  25.425  1.00  0.00     0.020 A 
ATOM     10  C   UNL A   1      34.147  25.047  25.788  1.00  0.00     0.087 A 
BRANCH   7  11
ATOM     11  C   UNL A   1      33.289  24.405  22.284  1.00  0.00     0.268 C 
ATOM     12  N   UNL A   1      32.608  23.268  21.905  1.00  0.00    -0.348 N 
ATOM     13  H   UNL A   1      32.181  23.321  21.020  1.00  0.00     0.164 HD
ATOM     14  O   UNL A   1      33.292  25.341  21.494  1.00  0.00    -0.268 OA
BRANCH  12  15
ATOM     15  C   UNL A   1      32.412  21.996  22.602  1.00  0.00     0.079 C 
ATOM     16  C   UNL A   1      31.831  20.992  21.619  1.00  0.00     0.031 C 
BRANCH  15  17
ATOM     17  C   UNL A   1      31.646  22.204  23.937  1.00  0.00     0.032 C 
BRANCH  17  18
ATOM     18  C   UNL A   1      32.212  21.602  25.225  1.00  0.00     0.077 C 
BRANCH  18  19
ATOM     19  C   UNL A   1      33.155  20.486  24.946  1.00  0.00     0.103 A 
ATOM     20  C   UNL A   1      32.985  19.163  24.592  1.00  0.00     0.045 A 
ATOM     21  O   UNL A   1      34.479  20.760  25.096  1.00  0.00    -0.469 OA
ATOM     22  C   UNL A   1      34.278  18.586  24.585  1.00  0.00     0.042 A 
ATOM     23  C   UNL A   1      35.152  19.598  24.901  1.00  0.00     0.195 A 
ENDBRANCH  18  19
ENDBRANCH  17  18
ENDBRANCH  15  17
ENDBRANCH  12  15
ENDBRANCH   7  11
ENDBRANCH   5   6
ENDBRANCH   1   5
BRANCH   3  24
ATOM     24  C   UNL A   1      32.365  28.290  26.564  1.00  0.00     0.117 C 
BRANCH  24  25
ATOM     25  C   UNL A   1      33.514  28.551  27.538  1.00  0.00     0.042 C 
BRANCH  25  26
ATOM     26  C   UNL A   1      34.802  28.925  26.827  1.00  0.00     0.118 C 
BRANCH  26  27
ATOM     27  N   UNL A   1      35.229  30.273  27.179  1.00  0.00    -0.352 N 
ATOM     28  C   UNL A   1      36.361  30.698  27.825  1.00  0.00     0.251 C 
ATOM     29  H   UNL A   1      34.609  30.989  26.912  1.00  0.00     0.163 HD
ATOM     30  O   UNL A   1      36.406  31.844  28.260  1.00  0.00    -0.269 OA
BRANCH  28  31
ATOM     31  C   UNL A   1      37.500  29.784  28.044  1.00  0.00     0.039 A 
ATOM     32  C   UNL A   1      38.499  29.738  27.065  1.00  0.00     0.014 A 
ATOM     33  C   UNL A   1      37.582  28.961  29.172  1.00  0.00     0.014 A 
ATOM     34  C   UNL A   1      39.616  28.937  27.260  1.00  0.00     0.010 A 
ATOM     35  C   UNL A   1      38.723  28.207  29.403  1.00  0.00     0.010 A 
ATOM     36  C   UNL A   1      39.744  28.209  28.451  1.00  0.00    -0.014 A 
BRANCH  36  37
ATOM     37  C   UNL A   1      41.041  27.570  28.754  1.00  0.00     0.031 A 
ATOM     38  C   UNL A   1      41.107  26.138  28.185  1.00  0.00     0.074 A 
ATOM     39  C   UNL A   1      41.933  28.313  29.477  1.00  0.00     0.049 A 
ATOM     40  N   UNL A   1      41.742  25.091  28.615  1.00  0.00    -0.248 NA
ATOM     41  C   UNL A   1      40.279  25.801  26.990  1.00  0.00     0.031 C 
ATOM     42  C   UNL A   1      41.720  29.722  29.879  1.00  0.00     0.029 A 
ATOM     43  N   UNL A   1      43.177  28.063  30.021  1.00  0.00    -0.354 N 
ATOM     44  C   UNL A   1      41.550  24.052  27.674  1.00  0.00     0.074 A 
ATOM     45  C   UNL A   1      40.544  24.511  26.766  1.00  0.00     0.031 C 
ATOM     46  C   UNL A   1      42.737  30.167  30.645  1.00  0.00     0.029 A 
ATOM     47  C   UNL A   1      43.710  29.108  30.824  1.00  0.00     0.049 A 
ATOM     48  H   UNL A   1      43.661  27.220  29.864  1.00  0.00     0.167 HD
ATOM     49  C   UNL A   1      42.343  22.937  27.620  1.00  0.00     0.037 A 
ATOM     50  C   UNL A   1      44.825  29.105  31.622  1.00  0.00     0.037 A 
ATOM     51  C   UNL A   1      43.320  22.997  28.653  1.00  0.00     0.049 A 
ATOM     52  C   UNL A   1      45.465  27.808  31.367  1.00  0.00     0.074 A 
ATOM     53  C   UNL A   1      43.241  22.846  30.011  1.00  0.00     0.029 A 
ATOM     54  N   UNL A   1      44.511  23.598  28.333  1.00  0.00    -0.354 N 
ATOM     55  N   UNL A   1      46.144  27.518  30.299  1.00  0.00    -0.248 NA
ATOM     56  C   UNL A   1      45.249  26.721  32.329  1.00  0.00     0.031 C 
ATOM     57  C   UNL A   1      44.165  23.793  30.494  1.00  0.00     0.029 A 
ATOM     58  C   UNL A   1      44.911  24.315  29.430  1.00  0.00     0.049 A 
ATOM     59  H   UNL A   1      44.991  23.526  27.476  1.00  0.00     0.167 HD
ATOM     60  C   UNL A   1      46.143  26.145  30.328  1.00  0.00     0.074 A 
ATOM     61  C   UNL A   1      45.912  25.754  31.700  1.00  0.00     0.031 C 
ATOM     62  C   UNL A   1      45.768  25.457  29.220  1.00  0.00     0.037 A 
BRANCH  49  63
ATOM     63  C   UNL A   1      42.547  21.867  26.579  1.00  0.00     0.064 A 
ATOM     64  C   UNL A   1      42.085  20.556  26.873  1.00  0.00     0.173 A 
ATOM     65  C   UNL A   1      43.472  21.972  25.534  1.00  0.00     0.173 A 
ATOM     66  F   UNL A   1      41.155  20.351  27.820  1.00  0.00    -0.203 F 
ATOM     67  C   UNL A   1      42.634  19.423  26.274  1.00  0.00     0.198 A 
ATOM     68  C   UNL A   1      43.982  20.834  24.898  1.00  0.00     0.198 A 
ATOM     69  F   UNL A   1      43.982  23.157  25.177  1.00  0.00    -0.203 F 
ATOM     70  F   UNL A   1      42.277  18.203  26.698  1.00  0.00    -0.200 F 
ATOM     71  C   UNL A   1      43.600  19.563  25.300  1.00  0.00     0.200 A 
ATOM     72  F   UNL A   1      44.912  20.972  23.943  1.00  0.00    -0.200 F 
ATOM     73  F   UNL A   1      44.187  18.481  24.773  1.00  0.00    -0.200 F 
ENDBRANCH  49  63
BRANCH  50  74
ATOM     74  C   UNL A   1      45.479  29.977  32.675  1.00  0.00     0.064 A 
ATOM     75  C   UNL A   1      46.571  30.830  32.483  1.00  0.00     0.173 A 
ATOM     76  C   UNL A   1      44.958  30.003  34.004  1.00  0.00     0.173 A 
ATOM     77  F   UNL A   1      47.257  30.825  31.334  1.00  0.00    -0.203 F 
ATOM     78  C   UNL A   1      47.024  31.707  33.491  1.00  0.00     0.198 A 
ATOM     79  C   UNL A   1      45.376  30.897  34.989  1.00  0.00     0.198 A 
ATOM     80  F   UNL A   1      44.013  29.147  34.413  1.00  0.00    -0.203 F 
ATOM     81  F   UNL A   1      48.072  32.509  33.253  1.00  0.00    -0.200 F 
ATOM     82  C   UNL A   1      46.403  31.766  34.728  1.00  0.00     0.200 A 
ATOM     83  F   UNL A   1      44.759  30.907  36.180  1.00  0.00    -0.200 F 
ATOM     84  F   UNL A   1      46.801  32.638  35.663  1.00  0.00    -0.200 F 
ENDBRANCH  50  74
BRANCH  62  85
ATOM     85  C   UNL A   1      45.955  26.225  27.925  1.00  0.00     0.064 A 
ATOM     86  C   UNL A   1      47.246  26.573  27.499  1.00  0.00     0.173 A 
ATOM     87  C   UNL A   1      44.898  26.741  27.156  1.00  0.00     0.173 A 
ATOM     88  F   UNL A   1      48.315  26.109  28.164  1.00  0.00    -0.203 F 
ATOM     89  C   UNL A   1      47.460  27.400  26.392  1.00  0.00     0.198 A 
ATOM     90  C   UNL A   1      45.105  27.562  26.045  1.00  0.00     0.198 A 
ATOM     91  F   UNL A   1      43.635  26.461  27.467  1.00  0.00    -0.203 F 
ATOM     92  F   UNL A   1      48.711  27.711  26.024  1.00  0.00    -0.200 F 
ATOM     93  C   UNL A   1      46.390  27.896  25.666  1.00  0.00     0.200 A 
ATOM     94  F   UNL A   1      44.056  28.021  25.344  1.00  0.00    -0.200 F 
ATOM     95  F   UNL A   1      46.595  28.681  24.599  1.00  0.00    -0.200 F 
ENDBRANCH  62  85
ENDBRANCH  36  37
ENDBRANCH  28  31
ENDBRANCH  26  27
ENDBRANCH  25  26
ENDBRANCH  24  25
ENDBRANCH   3  24
TORSDOF 16
ENDMDL
