MODEL 1
REMARK VINA RESULT:     -11.2      0.000      0.000
REMARK SMILES CCOC(=O)[C@H]1CCCN(c2cc(C(=O)NCCCNC(=O)c3ccc(-c4c5nc(c(-c6c(F)c(F)c(F)c(F)c6F)c6ccc([nH]6)c(-c6c(F)c(F)c(F)c(F)c6F)c6nc(c(-c7c(F)c(F)c(F)c(F)c7F)c7ccc4[nH]7)C=C6)C=C5)cc3)c3cc(NC(=O)c4ccc(Cl)cc4)ccc3n2)C1
REMARK SMILES IDX 17 1 16 2 14 3 15 4 13 6 11 7 12 8 102 9 101 10 86 11 100 12
REMARK SMILES IDX 87 13 99 14 88 15 10 16 6 17 7 18 103 19 8 20 9 21 4 22 5 23
REMARK SMILES IDX 3 24 2 25 1 26 89 27 90 28 91 30 92 31 93 32 98 33 94 34
REMARK SMILES IDX 97 35 95 36 96 37 18 38 19 39 20 40 21 41 22 43 23 44 24 45
REMARK SMILES IDX 85 46 25 47 84 48 26 49 27 50 28 51 78 52 29 53 83 54 77 55
REMARK SMILES IDX 79 56 30 57 82 58 76 59 75 60 31 62 63 63 43 64 62 65 44 66
REMARK SMILES IDX 47 67 61 68 80 69 45 70 46 71 60 73 81 74 48 75 32 76 33 77
REMARK SMILES IDX 41 78 34 79 35 80 39 81 42 82 36 83 37 84 40 85 38 86 64 87
REMARK SMILES IDX 65 88 73 89 66 90 67 91 71 92 74 93 68 94 69 95 72 96 70 97
REMARK SMILES IDX 49 98 50 99 58 100 51 101 52 102 56 103 59 104 53 105 54 106
REMARK SMILES IDX 57 107 55 108
REMARK H PARENT 16 5 89 29 20 42 79 61 47 72
REMARK Flexibility Score: inf
ROOT
ATOM      1  C   UNL A   1      47.838  25.847  29.853  1.00  0.00     0.118 C 
ENDROOT
BRANCH   1   2
ATOM      2  N   UNL A   1      46.537  25.246  30.102  1.00  0.00    -0.352 N 
ATOM      3  C   UNL A   1      45.582  24.689  29.284  1.00  0.00     0.252 C 
ATOM      4  O   UNL A   1      44.601  24.199  29.851  1.00  0.00    -0.269 OA
ATOM      5  H   UNL A   1      46.288  25.237  31.055  1.00  0.00     0.163 HD
BRANCH   3   6
ATOM      6  C   UNL A   1      45.603  24.676  27.788  1.00  0.00     0.052 A 
ATOM      7  C   UNL A   1      45.338  23.266  25.838  1.00  0.00     0.130 A 
ATOM      8  C   UNL A   1      45.237  23.455  27.211  1.00  0.00     0.061 A 
ATOM      9  N   UNL A   1      45.656  24.290  25.024  1.00  0.00    -0.231 NA
ATOM     10  C   UNL A   1      46.015  25.467  25.550  1.00  0.00     0.074 A 
ATOM     11  C   UNL A   1      46.099  25.680  26.934  1.00  0.00     0.015 A 
ATOM     12  C   UNL A   1      46.388  26.495  24.690  1.00  0.00     0.031 A 
ATOM     13  C   UNL A   1      46.768  26.833  27.368  1.00  0.00     0.037 A 
ATOM     14  C   UNL A   1      46.970  27.680  25.157  1.00  0.00     0.028 A 
ATOM     15  C   UNL A   1      47.253  27.810  26.507  1.00  0.00     0.042 A 
BRANCH   7  16
ATOM     16  N   UNL A   1      45.227  22.002  25.305  1.00  0.00    -0.356 N 
ATOM     17  C   UNL A   1      44.154  19.856  25.694  1.00  0.00     0.118 C 
ATOM     18  C   UNL A   1      45.248  19.193  24.839  1.00  0.00     0.019 C 
ATOM     19  C   UNL A   1      43.948  21.309  25.272  1.00  0.00     0.133 C 
ATOM     20  C   UNL A   1      46.541  20.014  24.856  1.00  0.00     0.022 C 
ATOM     21  C   UNL A   1      46.296  21.477  24.465  1.00  0.00     0.118 C 
BRANCH  17  22
ATOM     22  C   UNL A   1      42.797  19.190  25.639  1.00  0.00     0.310 C 
ATOM     23  O   UNL A   1      42.640  17.989  25.822  1.00  0.00    -0.252 OA
BRANCH  22  24
ATOM     24  O   UNL A   1      41.790  20.075  25.419  1.00  0.00    -0.466 OA
BRANCH  24  25
ATOM     25  C   UNL A   1      40.700  20.021  26.351  1.00  0.00     0.229 C 
ATOM     26  C   UNL A   1      41.065  20.744  27.633  1.00  0.00     0.049 C 
ENDBRANCH  24  25
ENDBRANCH  22  24
ENDBRANCH  17  22
ENDBRANCH   7  16
BRANCH  15  27
ATOM     27  N   UNL A   1      48.011  28.908  26.947  1.00  0.00    -0.322 N 
ATOM     28  C   UNL A   1      47.636  30.158  27.409  1.00  0.00     0.255 C 
ATOM     29  H   UNL A   1      48.985  28.761  26.923  1.00  0.00     0.170 HD
ATOM     30  O   UNL A   1      48.483  31.048  27.477  1.00  0.00    -0.269 OA
BRANCH  28  31
ATOM     31  C   UNL A   1      46.245  30.457  27.854  1.00  0.00     0.040 A 
ATOM     32  C   UNL A   1      45.846  30.010  29.116  1.00  0.00     0.015 A 
ATOM     33  C   UNL A   1      45.350  31.214  27.083  1.00  0.00     0.015 A 
ATOM     34  C   UNL A   1      44.626  30.426  29.661  1.00  0.00     0.021 A 
ATOM     35  C   UNL A   1      44.154  31.672  27.647  1.00  0.00     0.021 A 
ATOM     36  C   UNL A   1      43.808  31.294  28.943  1.00  0.00     0.041 A 
ATOM     37  Cl  UNL A   1      42.381  31.919  29.670  1.00  0.00    -0.084 Cl
ENDBRANCH  28  31
ENDBRANCH  15  27
ENDBRANCH   3   6
ENDBRANCH   1   2
BRANCH   1  38
ATOM     38  C   UNL A   1      48.673  26.125  31.094  1.00  0.00     0.042 C 
BRANCH  38  39
ATOM     39  C   UNL A   1      48.126  25.519  32.386  1.00  0.00     0.118 C 
BRANCH  39  40
ATOM     40  N   UNL A   1      48.698  26.057  33.622  1.00  0.00    -0.352 N 
ATOM     41  C   UNL A   1      48.235  26.976  34.538  1.00  0.00     0.251 C 
ATOM     42  H   UNL A   1      49.585  25.691  33.841  1.00  0.00     0.163 HD
ATOM     43  O   UNL A   1      48.901  27.283  35.522  1.00  0.00    -0.269 OA
BRANCH  41  44
ATOM     44  C   UNL A   1      46.932  27.614  34.333  1.00  0.00     0.039 A 
ATOM     45  C   UNL A   1      46.820  28.774  33.556  1.00  0.00     0.014 A 
ATOM     46  C   UNL A   1      45.812  27.021  34.893  1.00  0.00     0.014 A 
ATOM     47  C   UNL A   1      45.552  29.256  33.225  1.00  0.00     0.010 A 
ATOM     48  C   UNL A   1      44.566  27.417  34.459  1.00  0.00     0.010 A 
ATOM     49  C   UNL A   1      44.419  28.532  33.615  1.00  0.00    -0.014 A 
BRANCH  49  50
ATOM     50  C   UNL A   1      43.030  28.851  33.208  1.00  0.00     0.031 A 
ATOM     51  C   UNL A   1      42.565  28.324  31.882  1.00  0.00     0.074 A 
ATOM     52  C   UNL A   1      42.335  29.796  33.868  1.00  0.00     0.049 A 
ATOM     53  N   UNL A   1      41.691  28.819  31.049  1.00  0.00    -0.248 NA
ATOM     54  C   UNL A   1      43.284  27.142  31.378  1.00  0.00     0.031 C 
ATOM     55  C   UNL A   1      42.714  30.407  35.142  1.00  0.00     0.029 A 
ATOM     56  N   UNL A   1      41.185  30.455  33.512  1.00  0.00    -0.354 N 
ATOM     57  C   UNL A   1      41.828  28.072  29.887  1.00  0.00     0.074 A 
ATOM     58  C   UNL A   1      42.897  27.123  30.113  1.00  0.00     0.031 C 
ATOM     59  C   UNL A   1      41.813  31.350  35.464  1.00  0.00     0.029 A 
ATOM     60  C   UNL A   1      40.834  31.453  34.389  1.00  0.00     0.049 A 
ATOM     61  H   UNL A   1      40.663  30.233  32.709  1.00  0.00     0.167 HD
ATOM     62  C   UNL A   1      41.117  28.177  28.740  1.00  0.00     0.037 A 
ATOM     63  C   UNL A   1      39.850  32.367  34.306  1.00  0.00     0.037 A 
ATOM     64  C   UNL A   1      39.998  29.069  28.594  1.00  0.00     0.049 A 
ATOM     65  C   UNL A   1      38.985  32.379  33.075  1.00  0.00     0.074 A 
ATOM     66  C   UNL A   1      39.126  29.202  27.530  1.00  0.00     0.029 A 
ATOM     67  N   UNL A   1      39.581  29.961  29.573  1.00  0.00    -0.354 N 
ATOM     68  N   UNL A   1      39.102  31.667  31.978  1.00  0.00    -0.248 NA
ATOM     69  C   UNL A   1      37.855  33.316  33.065  1.00  0.00     0.031 C 
ATOM     70  C   UNL A   1      38.184  30.181  27.865  1.00  0.00     0.029 A 
ATOM     71  C   UNL A   1      38.448  30.632  29.150  1.00  0.00     0.049 A 
ATOM     72  H   UNL A   1      40.024  30.095  30.442  1.00  0.00     0.167 HD
ATOM     73  C   UNL A   1      38.042  32.040  31.165  1.00  0.00     0.074 A 
ATOM     74  C   UNL A   1      37.293  33.044  31.896  1.00  0.00     0.031 C 
ATOM     75  C   UNL A   1      37.714  31.598  29.927  1.00  0.00     0.037 A 
BRANCH  62  76
ATOM     76  C   UNL A   1      41.519  27.301  27.585  1.00  0.00     0.064 A 
ATOM     77  C   UNL A   1      41.117  25.958  27.498  1.00  0.00     0.173 A 
ATOM     78  C   UNL A   1      42.324  27.806  26.552  1.00  0.00     0.173 A 
ATOM     79  F   UNL A   1      40.354  25.419  28.461  1.00  0.00    -0.203 F 
ATOM     80  C   UNL A   1      41.551  25.142  26.457  1.00  0.00     0.198 A 
ATOM     81  C   UNL A   1      42.722  26.998  25.489  1.00  0.00     0.198 A 
ATOM     82  F   UNL A   1      42.732  29.084  26.574  1.00  0.00    -0.203 F 
ATOM     83  F   UNL A   1      41.219  23.844  26.445  1.00  0.00    -0.200 F 
ATOM     84  C   UNL A   1      42.349  25.664  25.450  1.00  0.00     0.200 A 
ATOM     85  F   UNL A   1      43.480  27.507  24.508  1.00  0.00    -0.200 F 
ATOM     86  F   UNL A   1      42.766  24.877  24.448  1.00  0.00    -0.200 F 
ENDBRANCH  62  76
BRANCH  63  87
ATOM     87  C   UNL A   1      39.599  33.292  35.441  1.00  0.00     0.064 A 
ATOM     88  C   UNL A   1      38.714  32.923  36.464  1.00  0.00     0.173 A 
ATOM     89  C   UNL A   1      40.251  34.527  35.559  1.00  0.00     0.173 A 
ATOM     90  F   UNL A   1      38.056  31.757  36.388  1.00  0.00    -0.203 F 
ATOM     91  C   UNL A   1      38.478  33.758  37.553  1.00  0.00     0.198 A 
ATOM     92  C   UNL A   1      40.034  35.353  36.662  1.00  0.00     0.198 A 
ATOM     93  F   UNL A   1      41.121  34.921  34.617  1.00  0.00    -0.203 F 
ATOM     94  F   UNL A   1      37.604  33.392  38.499  1.00  0.00    -0.200 F 
ATOM     95  C   UNL A   1      39.145  34.970  37.655  1.00  0.00     0.200 A 
ATOM     96  F   UNL A   1      40.692  36.515  36.767  1.00  0.00    -0.200 F 
ATOM     97  F   UNL A   1      38.927  35.769  38.709  1.00  0.00    -0.200 F 
ENDBRANCH  63  87
BRANCH  75  98
ATOM     98  C   UNL A   1      36.458  32.139  29.318  1.00  0.00     0.064 A 
ATOM     99  C   UNL A   1      36.351  33.477  28.921  1.00  0.00     0.173 A 
ATOM    100  C   UNL A   1      35.379  31.280  29.061  1.00  0.00     0.173 A 
ATOM    101  F   UNL A   1      37.355  34.334  29.161  1.00  0.00    -0.203 F 
ATOM    102  C   UNL A   1      35.200  33.942  28.292  1.00  0.00     0.198 A 
ATOM    103  C   UNL A   1      34.240  31.743  28.412  1.00  0.00     0.198 A 
ATOM    104  F   UNL A   1      35.441  29.989  29.420  1.00  0.00    -0.203 F 
ATOM    105  F   UNL A   1      35.104  35.233  27.943  1.00  0.00    -0.200 F 
ATOM    106  C   UNL A   1      34.150  33.073  28.030  1.00  0.00     0.200 A 
ATOM    107  F   UNL A   1      33.231  30.900  28.148  1.00  0.00    -0.200 F 
ATOM    108  F   UNL A   1      33.049  33.520  27.411  1.00  0.00    -0.200 F 
ENDBRANCH  75  98
ENDBRANCH  49  50
ENDBRANCH  41  44
ENDBRANCH  39  40
ENDBRANCH  38  39
ENDBRANCH   1  38
TORSDOF 16
ENDMDL
MODEL 2
REMARK VINA RESULT:     -10.6      1.871      2.862
REMARK SMILES CCOC(=O)[C@H]1CCCN(c2cc(C(=O)NCCCNC(=O)c3ccc(-c4c5nc(c(-c6c(F)c(F)c(F)c(F)c6F)c6ccc([nH]6)c(-c6c(F)c(F)c(F)c(F)c6F)c6nc(c(-c7c(F)c(F)c(F)c(F)c7F)c7ccc4[nH]7)C=C6)C=C5)cc3)c3cc(NC(=O)c4ccc(Cl)cc4)ccc3n2)C1
REMARK SMILES IDX 17 1 16 2 14 3 15 4 13 6 11 7 12 8 102 9 101 10 86 11 100 12
REMARK SMILES IDX 87 13 99 14 88 15 10 16 6 17 7 18 103 19 8 20 9 21 4 22 5 23
REMARK SMILES IDX 3 24 2 25 1 26 89 27 90 28 91 30 92 31 93 32 98 33 94 34
REMARK SMILES IDX 97 35 95 36 96 37 18 38 19 39 20 40 21 41 22 43 23 44 24 45
REMARK SMILES IDX 85 46 25 47 84 48 26 49 27 50 28 51 78 52 29 53 83 54 77 55
REMARK SMILES IDX 79 56 30 57 82 58 76 59 75 60 31 62 63 63 43 64 62 65 44 66
REMARK SMILES IDX 47 67 61 68 80 69 45 70 46 71 60 73 81 74 48 75 32 76 33 77
REMARK SMILES IDX 41 78 34 79 35 80 39 81 42 82 36 83 37 84 40 85 38 86 64 87
REMARK SMILES IDX 65 88 73 89 66 90 67 91 71 92 74 93 68 94 69 95 72 96 70 97
REMARK SMILES IDX 49 98 50 99 58 100 51 101 52 102 56 103 59 104 53 105 54 106
REMARK SMILES IDX 57 107 55 108
REMARK H PARENT 16 5 89 29 20 42 79 61 47 72
REMARK Flexibility Score: inf
ROOT
ATOM      1  C   UNL A   1      46.930  25.457  29.455  1.00  0.00     0.118 C 
ENDROOT
BRANCH   1   2
ATOM      2  N   UNL A   1      45.762  25.204  30.284  1.00  0.00    -0.352 N 
ATOM      3  C   UNL A   1      44.483  24.778  30.008  1.00  0.00     0.252 C 
ATOM      4  O   UNL A   1      43.749  24.599  30.984  1.00  0.00    -0.269 OA
ATOM      5  H   UNL A   1      45.919  25.372  31.240  1.00  0.00     0.163 HD
BRANCH   3   6
ATOM      6  C   UNL A   1      43.898  24.570  28.646  1.00  0.00     0.052 A 
ATOM      7  C   UNL A   1      42.624  23.035  27.276  1.00  0.00     0.130 A 
ATOM      8  C   UNL A   1      43.118  23.415  28.517  1.00  0.00     0.061 A 
ATOM      9  N   UNL A   1      42.766  23.835  26.203  1.00  0.00    -0.231 NA
ATOM     10  C   UNL A   1      43.511  24.943  26.298  1.00  0.00     0.074 A 
ATOM     11  C   UNL A   1      44.180  25.302  27.477  1.00  0.00     0.015 A 
ATOM     12  C   UNL A   1      43.684  25.729  25.163  1.00  0.00     0.031 A 
ATOM     13  C   UNL A   1      45.163  26.298  27.381  1.00  0.00     0.037 A 
ATOM     14  C   UNL A   1      44.607  26.781  25.121  1.00  0.00     0.028 A 
ATOM     15  C   UNL A   1      45.427  27.007  26.215  1.00  0.00     0.042 A 
BRANCH   7  16
ATOM     16  N   UNL A   1      42.084  21.781  27.103  1.00  0.00    -0.356 N 
ATOM     17  C   UNL A   1      42.445  19.698  25.903  1.00  0.00     0.118 C 
ATOM     18  C   UNL A   1      40.947  19.386  26.063  1.00  0.00     0.019 C 
ATOM     19  C   UNL A   1      42.932  20.600  27.036  1.00  0.00     0.133 C 
ATOM     20  C   UNL A   1      40.124  20.669  26.205  1.00  0.00     0.022 C 
ATOM     21  C   UNL A   1      40.658  21.571  27.325  1.00  0.00     0.118 C 
BRANCH  17  22
ATOM     22  C   UNL A   1      43.360  18.493  25.884  1.00  0.00     0.310 C 
ATOM     23  O   UNL A   1      43.427  17.698  26.814  1.00  0.00    -0.252 OA
BRANCH  22  24
ATOM     24  O   UNL A   1      44.042  18.372  24.716  1.00  0.00    -0.466 OA
BRANCH  24  25
ATOM     25  C   UNL A   1      45.014  19.395  24.455  1.00  0.00     0.229 C 
ATOM     26  C   UNL A   1      46.226  19.212  25.348  1.00  0.00     0.049 C 
ENDBRANCH  24  25
ENDBRANCH  22  24
ENDBRANCH  17  22
ENDBRANCH   7  16
BRANCH  15  27
ATOM     27  N   UNL A   1      46.481  27.928  26.104  1.00  0.00    -0.322 N 
ATOM     28  C   UNL A   1      46.556  29.280  26.396  1.00  0.00     0.255 C 
ATOM     29  H   UNL A   1      47.318  27.544  25.756  1.00  0.00     0.170 HD
ATOM     30  O   UNL A   1      47.502  29.933  25.958  1.00  0.00    -0.269 OA
BRANCH  28  31
ATOM     31  C   UNL A   1      45.541  29.967  27.245  1.00  0.00     0.040 A 
ATOM     32  C   UNL A   1      45.548  29.710  28.618  1.00  0.00     0.015 A 
ATOM     33  C   UNL A   1      44.627  30.898  26.729  1.00  0.00     0.015 A 
ATOM     34  C   UNL A   1      44.752  30.469  29.484  1.00  0.00     0.021 A 
ATOM     35  C   UNL A   1      43.869  31.691  27.597  1.00  0.00     0.021 A 
ATOM     36  C   UNL A   1      43.953  31.488  28.974  1.00  0.00     0.041 A 
ATOM     37  Cl  UNL A   1      43.087  32.513  30.049  1.00  0.00    -0.084 Cl
ENDBRANCH  28  31
ENDBRANCH  15  27
ENDBRANCH   3   6
ENDBRANCH   1   2
BRANCH   1  38
ATOM     38  C   UNL A   1      48.144  25.999  30.194  1.00  0.00     0.042 C 
BRANCH  38  39
ATOM     39  C   UNL A   1      48.112  25.810  31.710  1.00  0.00     0.118 C 
BRANCH  39  40
ATOM     40  N   UNL A   1      49.152  26.525  32.452  1.00  0.00    -0.352 N 
ATOM     41  C   UNL A   1      49.130  27.677  33.206  1.00  0.00     0.251 C 
ATOM     42  H   UNL A   1      50.038  26.099  32.404  1.00  0.00     0.163 HD
ATOM     43  O   UNL A   1      50.146  28.101  33.749  1.00  0.00    -0.269 OA
BRANCH  41  44
ATOM     44  C   UNL A   1      47.879  28.426  33.355  1.00  0.00     0.039 A 
ATOM     45  C   UNL A   1      47.525  29.414  32.429  1.00  0.00     0.014 A 
ATOM     46  C   UNL A   1      47.040  28.104  34.410  1.00  0.00     0.014 A 
ATOM     47  C   UNL A   1      46.250  29.981  32.487  1.00  0.00     0.010 A 
ATOM     48  C   UNL A   1      45.742  28.564  34.388  1.00  0.00     0.010 A 
ATOM     49  C   UNL A   1      45.327  29.501  33.425  1.00  0.00    -0.014 A 
BRANCH  49  50
ATOM     50  C   UNL A   1      43.904  29.910  33.496  1.00  0.00     0.031 A 
ATOM     51  C   UNL A   1      42.964  29.308  32.494  1.00  0.00     0.074 A 
ATOM     52  C   UNL A   1      43.547  30.974  34.239  1.00  0.00     0.049 A 
ATOM     53  N   UNL A   1      41.878  29.802  31.968  1.00  0.00    -0.248 NA
ATOM     54  C   UNL A   1      43.389  28.021  31.916  1.00  0.00     0.031 C 
ATOM     55  C   UNL A   1      44.392  31.664  35.214  1.00  0.00     0.029 A 
ATOM     56  N   UNL A   1      42.384  31.702  34.234  1.00  0.00    -0.354 N 
ATOM     57  C   UNL A   1      41.546  28.940  30.932  1.00  0.00     0.074 A 
ATOM     58  C   UNL A   1      42.571  27.920  30.880  1.00  0.00     0.031 C 
ATOM     59  C   UNL A   1      43.720  32.714  35.715  1.00  0.00     0.029 A 
ATOM     60  C   UNL A   1      42.427  32.807  35.049  1.00  0.00     0.049 A 
ATOM     61  H   UNL A   1      41.595  31.457  33.699  1.00  0.00     0.167 HD
ATOM     62  C   UNL A   1      40.476  29.004  30.104  1.00  0.00     0.037 A 
ATOM     63  C   UNL A   1      41.531  33.798  35.208  1.00  0.00     0.037 A 
ATOM     64  C   UNL A   1      39.431  29.980  30.255  1.00  0.00     0.049 A 
ATOM     65  C   UNL A   1      40.283  33.777  34.368  1.00  0.00     0.074 A 
ATOM     66  C   UNL A   1      38.243  30.095  29.558  1.00  0.00     0.029 A 
ATOM     67  N   UNL A   1      39.443  30.995  31.202  1.00  0.00    -0.354 N 
ATOM     68  N   UNL A   1      39.957  32.957  33.396  1.00  0.00    -0.248 NA
ATOM     69  C   UNL A   1      39.278  34.811  34.644  1.00  0.00     0.031 C 
ATOM     70  C   UNL A   1      37.539  31.185  30.082  1.00  0.00     0.029 A 
ATOM     71  C   UNL A   1      38.273  31.728  31.126  1.00  0.00     0.049 A 
ATOM     72  H   UNL A   1      40.177  31.168  31.836  1.00  0.00     0.167 HD
ATOM     73  C   UNL A   1      38.698  33.351  32.969  1.00  0.00     0.074 A 
ATOM     74  C   UNL A   1      38.318  34.485  33.789  1.00  0.00     0.031 C 
ATOM     75  C   UNL A   1      37.922  32.827  31.989  1.00  0.00     0.037 A 
BRANCH  62  76
ATOM     76  C   UNL A   1      40.386  27.990  28.997  1.00  0.00     0.064 A 
ATOM     77  C   UNL A   1      40.981  28.206  27.744  1.00  0.00     0.173 A 
ATOM     78  C   UNL A   1      39.689  26.786  29.186  1.00  0.00     0.173 A 
ATOM     79  F   UNL A   1      41.653  29.343  27.504  1.00  0.00    -0.203 F 
ATOM     80  C   UNL A   1      40.833  27.288  26.708  1.00  0.00     0.198 A 
ATOM     81  C   UNL A   1      39.579  25.850  28.161  1.00  0.00     0.198 A 
ATOM     82  F   UNL A   1      39.107  26.518  30.365  1.00  0.00    -0.203 F 
ATOM     83  F   UNL A   1      41.342  27.560  25.498  1.00  0.00    -0.200 F 
ATOM     84  C   UNL A   1      40.136  26.108  26.918  1.00  0.00     0.200 A 
ATOM     85  F   UNL A   1      38.919  24.702  28.370  1.00  0.00    -0.200 F 
ATOM     86  F   UNL A   1      39.995  25.224  25.920  1.00  0.00    -0.200 F 
ENDBRANCH  62  76
BRANCH  63  87
ATOM     87  C   UNL A   1      41.757  34.845  36.238  1.00  0.00     0.064 A 
ATOM     88  C   UNL A   1      41.239  34.681  37.530  1.00  0.00     0.173 A 
ATOM     89  C   UNL A   1      42.514  35.997  35.981  1.00  0.00     0.173 A 
ATOM     90  F   UNL A   1      40.498  33.601  37.820  1.00  0.00    -0.203 F 
ATOM     91  C   UNL A   1      41.456  35.633  38.523  1.00  0.00     0.198 A 
ATOM     92  C   UNL A   1      42.752  36.938  36.982  1.00  0.00     0.198 A 
ATOM     93  F   UNL A   1      43.045  36.196  34.766  1.00  0.00    -0.203 F 
ATOM     94  F   UNL A   1      40.924  35.462  39.740  1.00  0.00    -0.200 F 
ATOM     95  C   UNL A   1      42.219  36.758  38.250  1.00  0.00     0.200 A 
ATOM     96  F   UNL A   1      43.504  38.016  36.721  1.00  0.00    -0.200 F 
ATOM     97  F   UNL A   1      42.439  37.669  39.208  1.00  0.00    -0.200 F 
ENDBRANCH  63  87
BRANCH  75  98
ATOM     98  C   UNL A   1      36.563  33.425  31.800  1.00  0.00     0.064 A 
ATOM     99  C   UNL A   1      36.233  34.154  30.651  1.00  0.00     0.173 A 
ATOM    100  C   UNL A   1      35.558  33.194  32.752  1.00  0.00     0.173 A 
ATOM    101  F   UNL A   1      37.168  34.410  29.723  1.00  0.00    -0.203 F 
ATOM    102  C   UNL A   1      34.943  34.641  30.464  1.00  0.00     0.198 A 
ATOM    103  C   UNL A   1      34.265  33.662  32.550  1.00  0.00     0.198 A 
ATOM    104  F   UNL A   1      35.828  32.495  33.865  1.00  0.00    -0.203 F 
ATOM    105  F   UNL A   1      34.653  35.361  29.371  1.00  0.00    -0.200 F 
ATOM    106  C   UNL A   1      33.959  34.387  31.408  1.00  0.00     0.200 A 
ATOM    107  F   UNL A   1      33.311  33.405  33.457  1.00  0.00    -0.200 F 
ATOM    108  F   UNL A   1      32.713  34.844  31.218  1.00  0.00    -0.200 F 
ENDBRANCH  75  98
ENDBRANCH  49  50
ENDBRANCH  41  44
ENDBRANCH  39  40
ENDBRANCH  38  39
ENDBRANCH   1  38
TORSDOF 16
ENDMDL
MODEL 3
REMARK VINA RESULT:     -10.6      4.142      8.713
REMARK SMILES CCOC(=O)[C@H]1CCCN(c2cc(C(=O)NCCCNC(=O)c3ccc(-c4c5nc(c(-c6c(F)c(F)c(F)c(F)c6F)c6ccc([nH]6)c(-c6c(F)c(F)c(F)c(F)c6F)c6nc(c(-c7c(F)c(F)c(F)c(F)c7F)c7ccc4[nH]7)C=C6)C=C5)cc3)c3cc(NC(=O)c4ccc(Cl)cc4)ccc3n2)C1
REMARK SMILES IDX 17 1 16 2 14 3 15 4 13 6 11 7 12 8 102 9 101 10 86 11 100 12
REMARK SMILES IDX 87 13 99 14 88 15 10 16 6 17 7 18 103 19 8 20 9 21 4 22 5 23
REMARK SMILES IDX 3 24 2 25 1 26 89 27 90 28 91 30 92 31 93 32 98 33 94 34
REMARK SMILES IDX 97 35 95 36 96 37 18 38 19 39 20 40 21 41 22 43 23 44 24 45
REMARK SMILES IDX 85 46 25 47 84 48 26 49 27 50 28 51 78 52 29 53 83 54 77 55
REMARK SMILES IDX 79 56 30 57 82 58 76 59 75 60 31 62 63 63 43 64 62 65 44 66
REMARK SMILES IDX 47 67 61 68 80 69 45 70 46 71 60 73 81 74 48 75 32 76 33 77
REMARK SMILES IDX 41 78 34 79 35 80 39 81 42 82 36 83 37 84 40 85 38 86 64 87
REMARK SMILES IDX 65 88 73 89 66 90 67 91 71 92 74 93 68 94 69 95 72 96 70 97
REMARK SMILES IDX 49 98 50 99 58 100 51 101 52 102 56 103 59 104 53 105 54 106
REMARK SMILES IDX 57 107 55 108
REMARK H PARENT 16 5 89 29 20 42 79 61 47 72
REMARK Flexibility Score: inf
ROOT
ATOM      1  C   UNL A   1      41.305  26.077  25.454  1.00  0.00     0.118 C 
ENDROOT
BRANCH   1   2
ATOM      2  N   UNL A   1      40.638  25.978  26.742  1.00  0.00    -0.352 N 
ATOM      3  C   UNL A   1      40.068  24.932  27.432  1.00  0.00     0.252 C 
ATOM      4  O   UNL A   1      39.642  25.196  28.560  1.00  0.00    -0.269 OA
ATOM      5  H   UNL A   1      40.582  26.836  27.220  1.00  0.00     0.163 HD
BRANCH   3   6
ATOM      6  C   UNL A   1      39.873  23.541  26.918  1.00  0.00     0.052 A 
ATOM      7  C   UNL A   1      40.998  21.445  26.468  1.00  0.00     0.130 A 
ATOM      8  C   UNL A   1      41.001  22.718  27.023  1.00  0.00     0.061 A 
ATOM      9  N   UNL A   1      39.872  20.926  25.942  1.00  0.00    -0.231 NA
ATOM     10  C   UNL A   1      38.781  21.692  25.826  1.00  0.00     0.074 A 
ATOM     11  C   UNL A   1      38.763  23.041  26.211  1.00  0.00     0.015 A 
ATOM     12  C   UNL A   1      37.645  21.149  25.234  1.00  0.00     0.031 A 
ATOM     13  C   UNL A   1      37.685  23.821  25.771  1.00  0.00     0.037 A 
ATOM     14  C   UNL A   1      36.539  21.935  24.887  1.00  0.00     0.028 A 
ATOM     15  C   UNL A   1      36.599  23.307  25.071  1.00  0.00     0.042 A 
BRANCH   7  16
ATOM     16  N   UNL A   1      42.175  20.743  26.344  1.00  0.00    -0.356 N 
ATOM     17  C   UNL A   1      44.184  20.615  24.981  1.00  0.00     0.118 C 
ATOM     18  C   UNL A   1      44.358  19.156  25.436  1.00  0.00     0.019 C 
ATOM     19  C   UNL A   1      43.425  21.421  26.034  1.00  0.00     0.133 C 
ATOM     20  C   UNL A   1      43.014  18.529  25.820  1.00  0.00     0.022 C 
ATOM     21  C   UNL A   1      42.259  19.379  26.850  1.00  0.00     0.118 C 
BRANCH  17  22
ATOM     22  C   UNL A   1      45.468  21.364  24.703  1.00  0.00     0.310 C 
ATOM     23  O   UNL A   1      46.575  20.867  24.871  1.00  0.00    -0.252 OA
BRANCH  22  24
ATOM     24  O   UNL A   1      45.250  22.608  24.204  1.00  0.00    -0.466 OA
BRANCH  24  25
ATOM     25  C   UNL A   1      45.651  23.696  25.050  1.00  0.00     0.229 C 
ATOM     26  C   UNL A   1      46.911  24.347  24.513  1.00  0.00     0.049 C 
ENDBRANCH  24  25
ENDBRANCH  22  24
ENDBRANCH  17  22
ENDBRANCH   7  16
BRANCH  15  27
ATOM     27  N   UNL A   1      35.577  24.115  24.547  1.00  0.00    -0.322 N 
ATOM     28  C   UNL A   1      34.289  23.815  24.133  1.00  0.00     0.255 C 
ATOM     29  H   UNL A   1      35.818  25.065  24.458  1.00  0.00     0.170 HD
ATOM     30  O   UNL A   1      33.675  24.638  23.455  1.00  0.00    -0.269 OA
BRANCH  28  31
ATOM     31  C   UNL A   1      33.612  22.540  24.503  1.00  0.00     0.040 A 
ATOM     32  C   UNL A   1      33.129  21.727  23.474  1.00  0.00     0.015 A 
ATOM     33  C   UNL A   1      33.497  22.101  25.830  1.00  0.00     0.015 A 
ATOM     34  C   UNL A   1      32.662  20.437  23.750  1.00  0.00     0.021 A 
ATOM     35  C   UNL A   1      33.079  20.794  26.102  1.00  0.00     0.021 A 
ATOM     36  C   UNL A   1      32.685  19.959  25.058  1.00  0.00     0.041 A 
ATOM     37  Cl  UNL A   1      32.249  18.328  25.378  1.00  0.00    -0.084 Cl
ENDBRANCH  28  31
ENDBRANCH  15  27
ENDBRANCH   3   6
ENDBRANCH   1   2
BRANCH   1  38
ATOM     38  C   UNL A   1      42.819  26.215  25.517  1.00  0.00     0.042 C 
BRANCH  38  39
ATOM     39  C   UNL A   1      43.395  27.365  24.690  1.00  0.00     0.118 C 
BRANCH  39  40
ATOM     40  N   UNL A   1      44.856  27.463  24.687  1.00  0.00    -0.352 N 
ATOM     41  C   UNL A   1      45.766  27.807  25.663  1.00  0.00     0.251 C 
ATOM     42  H   UNL A   1      45.267  27.240  23.821  1.00  0.00     0.163 HD
ATOM     43  O   UNL A   1      46.971  27.822  25.429  1.00  0.00    -0.269 OA
BRANCH  41  44
ATOM     44  C   UNL A   1      45.296  28.176  27.000  1.00  0.00     0.039 A 
ATOM     45  C   UNL A   1      45.032  29.514  27.318  1.00  0.00     0.014 A 
ATOM     46  C   UNL A   1      45.081  27.167  27.925  1.00  0.00     0.014 A 
ATOM     47  C   UNL A   1      44.412  29.819  28.532  1.00  0.00     0.010 A 
ATOM     48  C   UNL A   1      44.353  27.453  29.060  1.00  0.00     0.010 A 
ATOM     49  C   UNL A   1      44.002  28.778  29.375  1.00  0.00    -0.014 A 
BRANCH  49  50
ATOM     50  C   UNL A   1      43.209  28.956  30.614  1.00  0.00     0.031 A 
ATOM     51  C   UNL A   1      41.757  29.301  30.457  1.00  0.00     0.074 A 
ATOM     52  C   UNL A   1      43.832  29.078  31.800  1.00  0.00     0.049 A 
ATOM     53  N   UNL A   1      40.976  29.995  31.238  1.00  0.00    -0.248 NA
ATOM     54  C   UNL A   1      41.144  28.910  29.175  1.00  0.00     0.031 C 
ATOM     55  C   UNL A   1      45.247  28.809  32.059  1.00  0.00     0.029 A 
ATOM     56  N   UNL A   1      43.355  29.529  33.005  1.00  0.00    -0.354 N 
ATOM     57  C   UNL A   1      39.819  30.211  30.502  1.00  0.00     0.074 A 
ATOM     58  C   UNL A   1      40.021  29.610  29.202  1.00  0.00     0.031 C 
ATOM     59  C   UNL A   1      45.524  29.097  33.341  1.00  0.00     0.029 A 
ATOM     60  C   UNL A   1      44.324  29.631  33.973  1.00  0.00     0.049 A 
ATOM     61  H   UNL A   1      42.410  29.755  33.161  1.00  0.00     0.167 HD
ATOM     62  C   UNL A   1      38.692  30.854  30.890  1.00  0.00     0.037 A 
ATOM     63  C   UNL A   1      44.250  30.135  35.219  1.00  0.00     0.037 A 
ATOM     64  C   UNL A   1      38.498  31.351  32.225  1.00  0.00     0.049 A 
ATOM     65  C   UNL A   1      42.944  30.728  35.675  1.00  0.00     0.074 A 
ATOM     66  C   UNL A   1      37.372  31.925  32.783  1.00  0.00     0.029 A 
ATOM     67  N   UNL A   1      39.460  31.294  33.225  1.00  0.00    -0.354 N 
ATOM     68  N   UNL A   1      41.843  30.923  34.989  1.00  0.00    -0.248 NA
ATOM     69  C   UNL A   1      42.867  31.169  37.073  1.00  0.00     0.031 C 
ATOM     70  C   UNL A   1      37.656  32.222  34.121  1.00  0.00     0.029 A 
ATOM     71  C   UNL A   1      38.947  31.802  34.405  1.00  0.00     0.049 A 
ATOM     72  H   UNL A   1      40.373  30.945  33.112  1.00  0.00     0.167 HD
ATOM     73  C   UNL A   1      40.931  31.473  35.877  1.00  0.00     0.074 A 
ATOM     74  C   UNL A   1      41.610  31.582  37.154  1.00  0.00     0.031 C 
ATOM     75  C   UNL A   1      39.648  31.855  35.662  1.00  0.00     0.037 A 
BRANCH  62  76
ATOM     76  C   UNL A   1      37.601  31.029  29.870  1.00  0.00     0.064 A 
ATOM     77  C   UNL A   1      37.394  32.251  29.210  1.00  0.00     0.173 A 
ATOM     78  C   UNL A   1      36.742  29.966  29.552  1.00  0.00     0.173 A 
ATOM     79  F   UNL A   1      38.179  33.305  29.480  1.00  0.00    -0.203 F 
ATOM     80  C   UNL A   1      36.338  32.418  28.317  1.00  0.00     0.198 A 
ATOM     81  C   UNL A   1      35.713  30.123  28.627  1.00  0.00     0.198 A 
ATOM     82  F   UNL A   1      36.895  28.771  30.143  1.00  0.00    -0.203 F 
ATOM     83  F   UNL A   1      36.116  33.618  27.765  1.00  0.00    -0.200 F 
ATOM     84  C   UNL A   1      35.501  31.353  28.022  1.00  0.00     0.200 A 
ATOM     85  F   UNL A   1      34.914  29.088  28.330  1.00  0.00    -0.200 F 
ATOM     86  F   UNL A   1      34.486  31.515  27.162  1.00  0.00    -0.200 F 
ENDBRANCH  62  76
BRANCH  63  87
ATOM     87  C   UNL A   1      45.422  30.043  36.128  1.00  0.00     0.064 A 
ATOM     88  C   UNL A   1      46.310  31.122  36.239  1.00  0.00     0.173 A 
ATOM     89  C   UNL A   1      45.663  28.916  36.927  1.00  0.00     0.173 A 
ATOM     90  F   UNL A   1      46.128  32.216  35.485  1.00  0.00    -0.203 F 
ATOM     91  C   UNL A   1      47.403  31.074  37.101  1.00  0.00     0.198 A 
ATOM     92  C   UNL A   1      46.743  28.878  37.808  1.00  0.00     0.198 A 
ATOM     93  F   UNL A   1      44.835  27.863  36.871  1.00  0.00    -0.203 F 
ATOM     94  F   UNL A   1      48.251  32.108  37.163  1.00  0.00    -0.200 F 
ATOM     95  C   UNL A   1      47.614  29.953  37.891  1.00  0.00     0.200 A 
ATOM     96  F   UNL A   1      46.935  27.802  38.583  1.00  0.00    -0.200 F 
ATOM     97  F   UNL A   1      48.658  29.911  38.730  1.00  0.00    -0.200 F 
ENDBRANCH  63  87
BRANCH  75  98
ATOM     98  C   UNL A   1      38.877  32.356  36.844  1.00  0.00     0.064 A 
ATOM     99  C   UNL A   1      37.949  31.548  37.512  1.00  0.00     0.173 A 
ATOM    100  C   UNL A   1      39.133  33.637  37.355  1.00  0.00     0.173 A 
ATOM    101  F   UNL A   1      37.664  30.322  37.047  1.00  0.00    -0.203 F 
ATOM    102  C   UNL A   1      37.295  32.008  38.650  1.00  0.00     0.198 A 
ATOM    103  C   UNL A   1      38.496  34.085  38.506  1.00  0.00     0.198 A 
ATOM    104  F   UNL A   1      40.020  34.442  36.750  1.00  0.00    -0.203 F 
ATOM    105  F   UNL A   1      36.390  31.232  39.261  1.00  0.00    -0.200 F 
ATOM    106  C   UNL A   1      37.576  33.272  39.152  1.00  0.00     0.200 A 
ATOM    107  F   UNL A   1      38.776  35.301  38.996  1.00  0.00    -0.200 F 
ATOM    108  F   UNL A   1      36.956  33.708  40.257  1.00  0.00    -0.200 F 
ENDBRANCH  75  98
ENDBRANCH  49  50
ENDBRANCH  41  44
ENDBRANCH  39  40
ENDBRANCH  38  39
ENDBRANCH   1  38
TORSDOF 16
ENDMDL
