MODEL 1
REMARK VINA RESULT:     -13.2      0.000      0.000
REMARK SMILES CC(C)CCc1cc2c(cc1Cl)C=C(C(=O)NCCCNC(=O)c1ccc(-c3c4nc(c(-c5c(F)c(F)c(F)c(F)c5F)c5ccc([nH]5)c(-c5c(F)c(F)c(F)c(F)c5F)c5nc(c(-c6c(F)c(F)c(F)c(F)c6F)c6ccc3[nH]6)C=C5)C=C4)cc1)[C@H](C(F)(F)F)O2
REMARK SMILES IDX 18 1 17 2 15 3 16 4 14 6 6 7 7 8 11 9 8 10 10 11 12 12 9 13
REMARK SMILES IDX 92 14 13 15 87 16 5 17 4 18 2 19 1 20 3 21 88 22 89 23 90 24
REMARK SMILES IDX 91 25 19 26 20 27 21 28 22 29 23 31 24 32 25 33 86 34 26 35
REMARK SMILES IDX 85 36 27 37 28 38 29 39 79 40 30 41 84 42 78 43 80 44 31 45
REMARK SMILES IDX 83 46 77 47 76 48 32 50 64 51 44 52 63 53 45 54 48 55 62 56
REMARK SMILES IDX 81 57 46 58 47 59 61 61 82 62 49 63 33 64 34 65 42 66 35 67
REMARK SMILES IDX 36 68 40 69 43 70 37 71 38 72 41 73 39 74 65 75 66 76 74 77
REMARK SMILES IDX 67 78 68 79 72 80 75 81 69 82 70 83 73 84 71 85 50 86 51 87
REMARK SMILES IDX 59 88 52 89 53 90 57 91 60 92 54 93 55 94 58 95 56 96
REMARK H PARENT 17 5 21 30 80 49 48 60
REMARK Flexibility Score: inf
ROOT
ATOM      1  C   UNL A   1      33.603  28.738  25.173  1.00  0.00     0.118 C 
ENDROOT
BRANCH   1   2
ATOM      2  N   UNL A   1      33.886  28.642  23.751  1.00  0.00    -0.352 N 
ATOM      3  C   UNL A   1      33.765  27.707  22.783  1.00  0.00     0.251 C 
ATOM      4  O   UNL A   1      34.119  28.068  21.657  1.00  0.00    -0.270 OA
ATOM      5  H   UNL A   1      34.266  29.478  23.400  1.00  0.00     0.163 HD
BRANCH   3   6
ATOM      6  C   UNL A   1      33.234  26.329  22.985  1.00  0.00     0.067 C 
ATOM      7  C   UNL A   1      32.890  21.425  24.223  1.00  0.00    -0.026 A 
ATOM      8  C   UNL A   1      32.043  22.360  23.594  1.00  0.00     0.052 A 
ATOM      9  C   UNL A   1      34.181  21.856  24.573  1.00  0.00     0.045 A 
ATOM     10  C   UNL A   1      32.446  23.676  23.373  1.00  0.00     0.128 A 
ATOM     11  C   UNL A   1      34.571  23.189  24.377  1.00  0.00     0.032 A 
ATOM     12  Cl  UNL A   1      35.396  20.803  25.203  1.00  0.00    -0.084 Cl
ATOM     13  C   UNL A   1      33.705  24.101  23.773  1.00  0.00     0.019 A 
ATOM     14  O   UNL A   1      31.566  24.475  22.705  1.00  0.00    -0.475 OA
ATOM     15  C   UNL A   1      34.125  25.465  23.503  1.00  0.00     0.025 C 
ATOM     16  C   UNL A   1      31.810  25.910  22.730  1.00  0.00     0.314 C 
BRANCH   7  17
ATOM     17  C   UNL A   1      32.347  20.019  24.391  1.00  0.00     0.037 C 
BRANCH  17  18
ATOM     18  C   UNL A   1      32.536  18.999  23.259  1.00  0.00     0.008 C 
BRANCH  18  19
ATOM     19  C   UNL A   1      32.732  17.537  23.702  1.00  0.00    -0.017 C 
ATOM     20  C   UNL A   1      34.083  16.983  23.257  1.00  0.00     0.007 C 
ATOM     21  C   UNL A   1      32.597  17.439  25.224  1.00  0.00     0.007 C 
ENDBRANCH  18  19
ENDBRANCH  17  18
ENDBRANCH   7  17
BRANCH  16  22
ATOM     22  C   UNL A   1      30.787  26.574  23.666  1.00  0.00     0.429 C 
ATOM     23  F   UNL A   1      29.576  25.973  23.632  1.00  0.00    -0.167 F 
ATOM     24  F   UNL A   1      31.186  26.590  24.958  1.00  0.00    -0.167 F 
ATOM     25  F   UNL A   1      30.601  27.871  23.303  1.00  0.00    -0.167 F 
ENDBRANCH  16  22
ENDBRANCH   3   6
ENDBRANCH   1   2
BRANCH   1  26
ATOM     26  C   UNL A   1      32.453  29.700  25.440  1.00  0.00     0.042 C 
BRANCH  26  27
ATOM     27  C   UNL A   1      32.446  30.222  26.873  1.00  0.00     0.118 C 
BRANCH  27  28
ATOM     28  N   UNL A   1      32.491  31.679  26.925  1.00  0.00    -0.352 N 
ATOM     29  C   UNL A   1      33.397  32.513  27.535  1.00  0.00     0.251 C 
ATOM     30  H   UNL A   1      31.760  32.134  26.451  1.00  0.00     0.163 HD
ATOM     31  O   UNL A   1      33.131  33.705  27.673  1.00  0.00    -0.269 OA
BRANCH  29  32
ATOM     32  C   UNL A   1      34.677  31.980  28.047  1.00  0.00     0.039 A 
ATOM     33  C   UNL A   1      34.799  30.633  28.390  1.00  0.00     0.014 A 
ATOM     34  C   UNL A   1      35.775  32.835  28.183  1.00  0.00     0.014 A 
ATOM     35  C   UNL A   1      35.937  30.190  29.052  1.00  0.00     0.010 A 
ATOM     36  C   UNL A   1      36.962  32.358  28.747  1.00  0.00     0.010 A 
ATOM     37  C   UNL A   1      37.036  31.044  29.237  1.00  0.00    -0.014 A 
BRANCH  37  38
ATOM     38  C   UNL A   1      38.238  30.539  29.950  1.00  0.00     0.031 A 
ATOM     39  C   UNL A   1      38.508  30.931  31.378  1.00  0.00     0.074 A 
ATOM     40  C   UNL A   1      39.054  29.664  29.327  1.00  0.00     0.049 A 
ATOM     41  N   UNL A   1      39.499  30.577  32.159  1.00  0.00    -0.248 NA
ATOM     42  C   UNL A   1      37.546  31.844  32.016  1.00  0.00     0.031 C 
ATOM     43  C   UNL A   1      38.887  29.196  27.951  1.00  0.00     0.029 A 
ATOM     44  N   UNL A   1      40.162  28.990  29.775  1.00  0.00    -0.354 N 
ATOM     45  C   UNL A   1      39.290  31.234  33.365  1.00  0.00     0.074 A 
ATOM     46  C   UNL A   1      38.098  32.039  33.206  1.00  0.00     0.031 C 
ATOM     47  C   UNL A   1      39.813  28.262  27.688  1.00  0.00     0.029 A 
ATOM     48  C   UNL A   1      40.687  28.123  28.848  1.00  0.00     0.049 A 
ATOM     49  H   UNL A   1      40.544  29.115  30.674  1.00  0.00     0.167 HD
ATOM     50  C   UNL A   1      40.016  31.160  34.505  1.00  0.00     0.037 A 
ATOM     51  C   UNL A   1      41.762  27.316  28.915  1.00  0.00     0.037 A 
ATOM     52  C   UNL A   1      41.184  30.333  34.669  1.00  0.00     0.049 A 
ATOM     53  C   UNL A   1      42.581  27.295  30.174  1.00  0.00     0.074 A 
ATOM     54  C   UNL A   1      41.975  30.174  35.794  1.00  0.00     0.029 A 
ATOM     55  N   UNL A   1      41.724  29.522  33.682  1.00  0.00    -0.354 N 
ATOM     56  N   UNL A   1      42.372  27.922  31.305  1.00  0.00    -0.248 NA
ATOM     57  C   UNL A   1      43.794  26.465  30.162  1.00  0.00     0.031 C 
ATOM     58  C   UNL A   1      43.021  29.304  35.473  1.00  0.00     0.029 A 
ATOM     59  C   UNL A   1      42.854  28.881  34.164  1.00  0.00     0.049 A 
ATOM     60  H   UNL A   1      41.360  29.419  32.774  1.00  0.00     0.167 HD
ATOM     61  C   UNL A   1      43.417  27.560  32.142  1.00  0.00     0.074 A 
ATOM     62  C   UNL A   1      44.247  26.636  31.396  1.00  0.00     0.031 C 
ATOM     63  C   UNL A   1      43.671  27.964  33.410  1.00  0.00     0.037 A 
BRANCH  50  64
ATOM     64  C   UNL A   1      39.580  31.995  35.675  1.00  0.00     0.064 A 
ATOM     65  C   UNL A   1      40.086  33.286  35.886  1.00  0.00     0.173 A 
ATOM     66  C   UNL A   1      38.589  31.528  36.552  1.00  0.00     0.173 A 
ATOM     67  F   UNL A   1      41.042  33.777  35.083  1.00  0.00    -0.203 F 
ATOM     68  C   UNL A   1      39.628  34.072  36.942  1.00  0.00     0.198 A 
ATOM     69  C   UNL A   1      38.113  32.327  37.588  1.00  0.00     0.198 A 
ATOM     70  F   UNL A   1      38.067  30.304  36.391  1.00  0.00    -0.203 F 
ATOM     71  F   UNL A   1      40.150  35.290  37.144  1.00  0.00    -0.200 F 
ATOM     72  C   UNL A   1      38.635  33.596  37.785  1.00  0.00     0.200 A 
ATOM     73  F   UNL A   1      37.143  31.871  38.394  1.00  0.00    -0.200 F 
ATOM     74  F   UNL A   1      38.184  34.360  38.789  1.00  0.00    -0.200 F 
ENDBRANCH  50  64
BRANCH  51  75
ATOM     75  C   UNL A   1      42.120  26.469  27.747  1.00  0.00     0.064 A 
ATOM     76  C   UNL A   1      43.085  26.888  26.823  1.00  0.00     0.173 A 
ATOM     77  C   UNL A   1      41.528  25.212  27.549  1.00  0.00     0.173 A 
ATOM     78  F   UNL A   1      43.664  28.090  26.957  1.00  0.00    -0.203 F 
ATOM     79  C   UNL A   1      43.444  26.083  25.743  1.00  0.00     0.198 A 
ATOM     80  C   UNL A   1      41.910  24.395  26.487  1.00  0.00     0.198 A 
ATOM     81  F   UNL A   1      40.599  24.764  28.407  1.00  0.00    -0.203 F 
ATOM     82  F   UNL A   1      44.349  26.521  24.856  1.00  0.00    -0.200 F 
ATOM     83  C   UNL A   1      42.864  24.834  25.582  1.00  0.00     0.200 A 
ATOM     84  F   UNL A   1      41.360  23.182  26.346  1.00  0.00    -0.200 F 
ATOM     85  F   UNL A   1      43.222  24.054  24.553  1.00  0.00    -0.200 F 
ENDBRANCH  51  75
BRANCH  63  86
ATOM     86  C   UNL A   1      44.891  27.409  34.082  1.00  0.00     0.064 A 
ATOM     87  C   UNL A   1      46.111  28.101  34.065  1.00  0.00     0.173 A 
ATOM     88  C   UNL A   1      44.822  26.213  34.812  1.00  0.00     0.173 A 
ATOM     89  F   UNL A   1      46.230  29.241  33.368  1.00  0.00    -0.203 F 
ATOM     90  C   UNL A   1      47.221  27.608  34.745  1.00  0.00     0.198 A 
ATOM     91  C   UNL A   1      45.926  25.739  35.515  1.00  0.00     0.198 A 
ATOM     92  F   UNL A   1      43.675  25.519  34.866  1.00  0.00    -0.203 F 
ATOM     93  F   UNL A   1      48.386  28.268  34.687  1.00  0.00    -0.200 F 
ATOM     94  C   UNL A   1      47.125  26.435  35.478  1.00  0.00     0.200 A 
ATOM     95  F   UNL A   1      45.827  24.614  36.235  1.00  0.00    -0.200 F 
ATOM     96  F   UNL A   1      48.190  25.972  36.147  1.00  0.00    -0.200 F 
ENDBRANCH  63  86
ENDBRANCH  37  38
ENDBRANCH  29  32
ENDBRANCH  27  28
ENDBRANCH  26  27
ENDBRANCH   1  26
TORSDOF 14
ENDMDL
MODEL 2
REMARK VINA RESULT:     -13.2      2.053      3.189
REMARK SMILES CC(C)CCc1cc2c(cc1Cl)C=C(C(=O)NCCCNC(=O)c1ccc(-c3c4nc(c(-c5c(F)c(F)c(F)c(F)c5F)c5ccc([nH]5)c(-c5c(F)c(F)c(F)c(F)c5F)c5nc(c(-c6c(F)c(F)c(F)c(F)c6F)c6ccc3[nH]6)C=C5)C=C4)cc1)[C@H](C(F)(F)F)O2
REMARK SMILES IDX 18 1 17 2 15 3 16 4 14 6 6 7 7 8 11 9 8 10 10 11 12 12 9 13
REMARK SMILES IDX 92 14 13 15 87 16 5 17 4 18 2 19 1 20 3 21 88 22 89 23 90 24
REMARK SMILES IDX 91 25 19 26 20 27 21 28 22 29 23 31 24 32 25 33 86 34 26 35
REMARK SMILES IDX 85 36 27 37 28 38 29 39 79 40 30 41 84 42 78 43 80 44 31 45
REMARK SMILES IDX 83 46 77 47 76 48 32 50 64 51 44 52 63 53 45 54 48 55 62 56
REMARK SMILES IDX 81 57 46 58 47 59 61 61 82 62 49 63 33 64 34 65 42 66 35 67
REMARK SMILES IDX 36 68 40 69 43 70 37 71 38 72 41 73 39 74 65 75 66 76 74 77
REMARK SMILES IDX 67 78 68 79 72 80 75 81 69 82 70 83 73 84 71 85 50 86 51 87
REMARK SMILES IDX 59 88 52 89 53 90 57 91 60 92 54 93 55 94 58 95 56 96
REMARK H PARENT 17 5 21 30 80 49 48 60
REMARK Flexibility Score: inf
ROOT
ATOM      1  C   UNL A   1      31.541  30.767  26.244  1.00  0.00     0.118 C 
ENDROOT
BRANCH   1   2
ATOM      2  N   UNL A   1      31.032  30.415  24.929  1.00  0.00    -0.352 N 
ATOM      3  C   UNL A   1      31.007  29.315  24.143  1.00  0.00     0.251 C 
ATOM      4  O   UNL A   1      30.425  29.455  23.064  1.00  0.00    -0.270 OA
ATOM      5  H   UNL A   1      30.587  31.178  24.496  1.00  0.00     0.163 HD
BRANCH   3   6
ATOM      6  C   UNL A   1      31.602  27.996  24.498  1.00  0.00     0.067 C 
ATOM      7  C   UNL A   1      32.158  23.264  26.230  1.00  0.00    -0.026 A 
ATOM      8  C   UNL A   1      33.018  24.235  25.679  1.00  0.00     0.052 A 
ATOM      9  C   UNL A   1      30.817  23.631  26.437  1.00  0.00     0.045 A 
ATOM     10  C   UNL A   1      32.552  25.495  25.304  1.00  0.00     0.128 A 
ATOM     11  C   UNL A   1      30.346  24.887  26.030  1.00  0.00     0.032 A 
ATOM     12  Cl  UNL A   1      29.670  22.624  27.244  1.00  0.00    -0.084 Cl
ATOM     13  C   UNL A   1      31.213  25.823  25.465  1.00  0.00     0.019 A 
ATOM     14  O   UNL A   1      33.485  26.372  24.837  1.00  0.00    -0.475 OA
ATOM     15  C   UNL A   1      30.749  27.151  25.105  1.00  0.00     0.025 C 
ATOM     16  C   UNL A   1      33.002  27.563  24.154  1.00  0.00     0.314 C 
BRANCH   7  17
ATOM     17  C   UNL A   1      32.786  21.939  26.617  1.00  0.00     0.037 C 
BRANCH  17  18
ATOM     18  C   UNL A   1      33.311  21.006  25.517  1.00  0.00     0.008 C 
BRANCH  18  19
ATOM     19  C   UNL A   1      32.293  20.614  24.429  1.00  0.00    -0.017 C 
ATOM     20  C   UNL A   1      32.438  21.476  23.177  1.00  0.00     0.007 C 
ATOM     21  C   UNL A   1      32.464  19.134  24.075  1.00  0.00     0.007 C 
ENDBRANCH  18  19
ENDBRANCH  17  18
ENDBRANCH   7  17
BRANCH  16  22
ATOM     22  C   UNL A   1      33.255  27.410  22.645  1.00  0.00     0.429 C 
ATOM     23  F   UNL A   1      34.133  26.423  22.356  1.00  0.00    -0.167 F 
ATOM     24  F   UNL A   1      32.126  27.154  21.944  1.00  0.00    -0.167 F 
ATOM     25  F   UNL A   1      33.769  28.563  22.142  1.00  0.00    -0.167 F 
ENDBRANCH  16  22
ENDBRANCH   3   6
ENDBRANCH   1   2
BRANCH   1  26
ATOM     26  C   UNL A   1      31.395  32.261  26.506  1.00  0.00     0.042 C 
BRANCH  26  27
ATOM     27  C   UNL A   1      32.564  32.832  27.302  1.00  0.00     0.118 C 
BRANCH  27  28
ATOM     28  N   UNL A   1      32.360  34.237  27.640  1.00  0.00    -0.352 N 
ATOM     29  C   UNL A   1      32.951  35.006  28.613  1.00  0.00     0.251 C 
ATOM     30  H   UNL A   1      31.697  34.705  27.084  1.00  0.00     0.163 HD
ATOM     31  O   UNL A   1      32.472  36.101  28.900  1.00  0.00    -0.269 OA
BRANCH  29  32
ATOM     32  C   UNL A   1      34.143  34.512  29.334  1.00  0.00     0.039 A 
ATOM     33  C   UNL A   1      35.413  34.628  28.770  1.00  0.00     0.014 A 
ATOM     34  C   UNL A   1      33.993  33.927  30.596  1.00  0.00     0.014 A 
ATOM     35  C   UNL A   1      36.493  33.987  29.363  1.00  0.00     0.010 A 
ATOM     36  C   UNL A   1      35.104  33.381  31.246  1.00  0.00     0.010 A 
ATOM     37  C   UNL A   1      36.355  33.357  30.610  1.00  0.00    -0.014 A 
BRANCH  37  38
ATOM     38  C   UNL A   1      37.531  32.679  31.216  1.00  0.00     0.031 A 
ATOM     39  C   UNL A   1      37.992  33.031  32.605  1.00  0.00     0.074 A 
ATOM     40  C   UNL A   1      38.144  31.690  30.534  1.00  0.00     0.049 A 
ATOM     41  N   UNL A   1      38.990  32.534  33.295  1.00  0.00    -0.248 NA
ATOM     42  C   UNL A   1      37.243  34.079  33.315  1.00  0.00     0.031 C 
ATOM     43  C   UNL A   1      37.778  31.248  29.188  1.00  0.00     0.029 A 
ATOM     44  N   UNL A   1      39.177  30.858  30.887  1.00  0.00    -0.354 N 
ATOM     45  C   UNL A   1      38.998  33.219  34.503  1.00  0.00     0.074 A 
ATOM     46  C   UNL A   1      37.929  34.192  34.444  1.00  0.00     0.031 C 
ATOM     47  C   UNL A   1      38.525  30.185  28.855  1.00  0.00     0.029 A 
ATOM     48  C   UNL A   1      39.476  29.920  29.929  1.00  0.00     0.049 A 
ATOM     49  H   UNL A   1      39.658  30.928  31.744  1.00  0.00     0.167 HD
ATOM     50  C   UNL A   1      39.811  33.040  35.571  1.00  0.00     0.037 A 
ATOM     51  C   UNL A   1      40.420  28.961  29.909  1.00  0.00     0.037 A 
ATOM     52  C   UNL A   1      40.853  32.048  35.639  1.00  0.00     0.049 A 
ATOM     53  C   UNL A   1      41.343  28.821  31.084  1.00  0.00     0.074 A 
ATOM     54  C   UNL A   1      41.715  31.775  36.686  1.00  0.00     0.029 A 
ATOM     55  N   UNL A   1      41.169  31.162  34.619  1.00  0.00    -0.354 N 
ATOM     56  N   UNL A   1      41.340  29.476  32.219  1.00  0.00    -0.248 NA
ATOM     57  C   UNL A   1      42.412  27.819  30.972  1.00  0.00     0.031 C 
ATOM     58  C   UNL A   1      42.584  30.757  36.283  1.00  0.00     0.029 A 
ATOM     59  C   UNL A   1      42.232  30.360  35.003  1.00  0.00     0.049 A 
ATOM     60  H   UNL A   1      40.708  31.112  33.751  1.00  0.00     0.167 HD
ATOM     61  C   UNL A   1      42.395  28.963  32.960  1.00  0.00     0.074 A 
ATOM     62  C   UNL A   1      43.003  27.924  32.155  1.00  0.00     0.031 C 
ATOM     63  C   UNL A   1      42.826  29.329  34.191  1.00  0.00     0.037 A 
BRANCH  50  64
ATOM     64  C   UNL A   1      39.618  33.935  36.762  1.00  0.00     0.064 A 
ATOM     65  C   UNL A   1      38.838  33.541  37.859  1.00  0.00     0.173 A 
ATOM     66  C   UNL A   1      40.283  35.168  36.840  1.00  0.00     0.173 A 
ATOM     67  F   UNL A   1      38.174  32.376  37.832  1.00  0.00    -0.203 F 
ATOM     68  C   UNL A   1      38.717  34.357  38.982  1.00  0.00     0.198 A 
ATOM     69  C   UNL A   1      40.183  35.968  37.975  1.00  0.00     0.198 A 
ATOM     70  F   UNL A   1      41.048  35.590  35.822  1.00  0.00    -0.203 F 
ATOM     71  F   UNL A   1      37.939  33.975  40.005  1.00  0.00    -0.200 F 
ATOM     72  C   UNL A   1      39.397  35.564  39.043  1.00  0.00     0.200 A 
ATOM     73  F   UNL A   1      40.853  37.128  38.039  1.00  0.00    -0.200 F 
ATOM     74  F   UNL A   1      39.293  36.338  40.132  1.00  0.00    -0.200 F 
ENDBRANCH  50  64
BRANCH  51  75
ATOM     75  C   UNL A   1      40.534  28.067  28.727  1.00  0.00     0.064 A 
ATOM     76  C   UNL A   1      39.855  26.842  28.684  1.00  0.00     0.173 A 
ATOM     77  C   UNL A   1      41.296  28.432  27.606  1.00  0.00     0.173 A 
ATOM     78  F   UNL A   1      39.131  26.439  29.738  1.00  0.00    -0.203 F 
ATOM     79  C   UNL A   1      39.936  26.014  27.565  1.00  0.00     0.198 A 
ATOM     80  C   UNL A   1      41.351  27.618  26.476  1.00  0.00     0.198 A 
ATOM     81  F   UNL A   1      41.964  29.595  27.597  1.00  0.00    -0.203 F 
ATOM     82  F   UNL A   1      39.302  24.834  27.560  1.00  0.00    -0.200 F 
ATOM     83  C   UNL A   1      40.675  26.408  26.459  1.00  0.00     0.200 A 
ATOM     84  F   UNL A   1      42.051  28.011  25.404  1.00  0.00    -0.200 F 
ATOM     85  F   UNL A   1      40.738  25.619  25.377  1.00  0.00    -0.200 F 
ENDBRANCH  51  75
BRANCH  63  86
ATOM     86  C   UNL A   1      44.010  28.599  34.754  1.00  0.00     0.064 A 
ATOM     87  C   UNL A   1      45.310  29.106  34.621  1.00  0.00     0.173 A 
ATOM     88  C   UNL A   1      43.834  27.422  35.498  1.00  0.00     0.173 A 
ATOM     89  F   UNL A   1      45.529  30.221  33.907  1.00  0.00    -0.203 F 
ATOM     90  C   UNL A   1      46.394  28.454  35.202  1.00  0.00     0.198 A 
ATOM     91  C   UNL A   1      44.917  26.790  36.101  1.00  0.00     0.198 A 
ATOM     92  F   UNL A   1      42.608  26.901  35.660  1.00  0.00    -0.203 F 
ATOM     93  F   UNL A   1      47.632  28.939  35.033  1.00  0.00    -0.200 F 
ATOM     94  C   UNL A   1      46.195  27.304  35.950  1.00  0.00     0.200 A 
ATOM     95  F   UNL A   1      44.721  25.687  36.837  1.00  0.00    -0.200 F 
ATOM     96  F   UNL A   1      47.239  26.688  36.524  1.00  0.00    -0.200 F 
ENDBRANCH  63  86
ENDBRANCH  37  38
ENDBRANCH  29  32
ENDBRANCH  27  28
ENDBRANCH  26  27
ENDBRANCH   1  26
TORSDOF 14
ENDMDL
MODEL 3
REMARK VINA RESULT:     -13.2      0.395      1.612
REMARK SMILES CC(C)CCc1cc2c(cc1Cl)C=C(C(=O)NCCCNC(=O)c1ccc(-c3c4nc(c(-c5c(F)c(F)c(F)c(F)c5F)c5ccc([nH]5)c(-c5c(F)c(F)c(F)c(F)c5F)c5nc(c(-c6c(F)c(F)c(F)c(F)c6F)c6ccc3[nH]6)C=C5)C=C4)cc1)[C@H](C(F)(F)F)O2
REMARK SMILES IDX 18 1 17 2 15 3 16 4 14 6 6 7 7 8 11 9 8 10 10 11 12 12 9 13
REMARK SMILES IDX 92 14 13 15 87 16 5 17 4 18 2 19 1 20 3 21 88 22 89 23 90 24
REMARK SMILES IDX 91 25 19 26 20 27 21 28 22 29 23 31 24 32 25 33 86 34 26 35
REMARK SMILES IDX 85 36 27 37 28 38 29 39 79 40 30 41 84 42 78 43 80 44 31 45
REMARK SMILES IDX 83 46 77 47 76 48 32 50 64 51 44 52 63 53 45 54 48 55 62 56
REMARK SMILES IDX 81 57 46 58 47 59 61 61 82 62 49 63 33 64 34 65 42 66 35 67
REMARK SMILES IDX 36 68 40 69 43 70 37 71 38 72 41 73 39 74 65 75 66 76 74 77
REMARK SMILES IDX 67 78 68 79 72 80 75 81 69 82 70 83 73 84 71 85 50 86 51 87
REMARK SMILES IDX 59 88 52 89 53 90 57 91 60 92 54 93 55 94 58 95 56 96
REMARK H PARENT 17 5 21 30 80 49 48 60
REMARK Flexibility Score: inf
ROOT
ATOM      1  C   UNL A   1      33.493  28.809  25.146  1.00  0.00     0.118 C 
ENDROOT
BRANCH   1   2
ATOM      2  N   UNL A   1      33.839  28.704  23.739  1.00  0.00    -0.352 N 
ATOM      3  C   UNL A   1      33.759  27.764  22.771  1.00  0.00     0.251 C 
ATOM      4  O   UNL A   1      34.165  28.118  21.660  1.00  0.00    -0.270 OA
ATOM      5  H   UNL A   1      34.236  29.538  23.399  1.00  0.00     0.163 HD
BRANCH   3   6
ATOM      6  C   UNL A   1      33.217  26.388  22.957  1.00  0.00     0.067 C 
ATOM      7  C   UNL A   1      32.821  21.483  24.175  1.00  0.00    -0.026 A 
ATOM      8  C   UNL A   1      31.993  22.423  23.528  1.00  0.00     0.052 A 
ATOM      9  C   UNL A   1      34.105  21.907  24.558  1.00  0.00     0.045 A 
ATOM     10  C   UNL A   1      32.408  23.738  23.319  1.00  0.00     0.128 A 
ATOM     11  C   UNL A   1      34.505  23.239  24.374  1.00  0.00     0.032 A 
ATOM     12  Cl  UNL A   1      35.299  20.848  25.215  1.00  0.00    -0.084 Cl
ATOM     13  C   UNL A   1      33.659  24.156  23.751  1.00  0.00     0.019 A 
ATOM     14  O   UNL A   1      31.549  24.543  22.632  1.00  0.00    -0.475 OA
ATOM     15  C   UNL A   1      34.091  25.519  23.494  1.00  0.00     0.025 C 
ATOM     16  C   UNL A   1      31.799  25.976  22.667  1.00  0.00     0.314 C 
BRANCH   7  17
ATOM     17  C   UNL A   1      32.268  20.080  24.326  1.00  0.00     0.037 C 
BRANCH  17  18
ATOM     18  C   UNL A   1      32.570  19.031  23.247  1.00  0.00     0.008 C 
BRANCH  18  19
ATOM     19  C   UNL A   1      32.778  17.591  23.753  1.00  0.00    -0.017 C 
ATOM     20  C   UNL A   1      34.089  16.994  23.247  1.00  0.00     0.007 C 
ATOM     21  C   UNL A   1      32.745  17.575  25.284  1.00  0.00     0.007 C 
ENDBRANCH  18  19
ENDBRANCH  17  18
ENDBRANCH   7  17
BRANCH  16  22
ATOM     22  C   UNL A   1      30.756  26.644  23.578  1.00  0.00     0.429 C 
ATOM     23  F   UNL A   1      29.548  26.040  23.524  1.00  0.00    -0.167 F 
ATOM     24  F   UNL A   1      31.129  26.667  24.878  1.00  0.00    -0.167 F 
ATOM     25  F   UNL A   1      30.574  27.938  23.204  1.00  0.00    -0.167 F 
ENDBRANCH  16  22
ENDBRANCH   3   6
ENDBRANCH   1   2
BRANCH   1  26
ATOM     26  C   UNL A   1      32.305  29.741  25.351  1.00  0.00     0.042 C 
BRANCH  26  27
ATOM     27  C   UNL A   1      32.195  30.242  26.787  1.00  0.00     0.118 C 
BRANCH  27  28
ATOM     28  N   UNL A   1      32.169  31.699  26.857  1.00  0.00    -0.352 N 
ATOM     29  C   UNL A   1      33.023  32.568  27.492  1.00  0.00     0.251 C 
ATOM     30  H   UNL A   1      31.424  32.124  26.376  1.00  0.00     0.163 HD
ATOM     31  O   UNL A   1      32.698  33.744  27.640  1.00  0.00    -0.269 OA
BRANCH  29  32
ATOM     32  C   UNL A   1      34.319  32.091  28.020  1.00  0.00     0.039 A 
ATOM     33  C   UNL A   1      34.539  30.731  28.239  1.00  0.00     0.014 A 
ATOM     34  C   UNL A   1      35.332  33.013  28.297  1.00  0.00     0.014 A 
ATOM     35  C   UNL A   1      35.678  30.317  28.916  1.00  0.00     0.010 A 
ATOM     36  C   UNL A   1      36.529  32.579  28.876  1.00  0.00     0.010 A 
ATOM     37  C   UNL A   1      36.691  31.233  29.242  1.00  0.00    -0.014 A 
BRANCH  37  38
ATOM     38  C   UNL A   1      37.897  30.757  29.968  1.00  0.00     0.031 A 
ATOM     39  C   UNL A   1      38.125  31.129  31.409  1.00  0.00     0.074 A 
ATOM     40  C   UNL A   1      38.756  29.926  29.344  1.00  0.00     0.049 A 
ATOM     41  N   UNL A   1      39.114  30.795  32.202  1.00  0.00    -0.248 NA
ATOM     42  C   UNL A   1      37.119  31.993  32.046  1.00  0.00     0.031 C 
ATOM     43  C   UNL A   1      38.632  29.480  27.955  1.00  0.00     0.029 A 
ATOM     44  N   UNL A   1      39.879  29.283  29.799  1.00  0.00    -0.354 N 
ATOM     45  C   UNL A   1      38.858  31.419  33.416  1.00  0.00     0.074 A 
ATOM     46  C   UNL A   1      37.641  32.182  33.250  1.00  0.00     0.031 C 
ATOM     47  C   UNL A   1      39.597  28.587  27.691  1.00  0.00     0.029 A 
ATOM     48  C   UNL A   1      40.454  28.455  28.865  1.00  0.00     0.049 A 
ATOM     49  H   UNL A   1      40.240  29.403  30.708  1.00  0.00     0.167 HD
ATOM     50  C   UNL A   1      39.566  31.347  34.568  1.00  0.00     0.037 A 
ATOM     51  C   UNL A   1      41.556  27.687  28.937  1.00  0.00     0.037 A 
ATOM     52  C   UNL A   1      40.760  30.560  34.738  1.00  0.00     0.049 A 
ATOM     53  C   UNL A   1      42.351  27.669  30.210  1.00  0.00     0.074 A 
ATOM     54  C   UNL A   1      41.535  30.406  35.875  1.00  0.00     0.029 A 
ATOM     55  N   UNL A   1      41.348  29.790  33.745  1.00  0.00    -0.354 N 
ATOM     56  N   UNL A   1      42.098  28.264  31.350  1.00  0.00    -0.248 NA
ATOM     57  C   UNL A   1      43.594  26.884  30.205  1.00  0.00     0.031 C 
ATOM     58  C   UNL A   1      42.618  29.582  35.557  1.00  0.00     0.029 A 
ATOM     59  C   UNL A   1      42.491  29.180  34.237  1.00  0.00     0.049 A 
ATOM     60  H   UNL A   1      41.005  29.692  32.829  1.00  0.00     0.167 HD
ATOM     61  C   UNL A   1      43.140  27.923  32.199  1.00  0.00     0.074 A 
ATOM     62  C   UNL A   1      44.018  27.046  31.451  1.00  0.00     0.031 C 
ATOM     63  C   UNL A   1      43.355  28.310  33.480  1.00  0.00     0.037 A 
BRANCH  50  64
ATOM     64  C   UNL A   1      39.078  32.141  35.746  1.00  0.00     0.064 A 
ATOM     65  C   UNL A   1      38.264  31.568  36.733  1.00  0.00     0.173 A 
ATOM     66  C   UNL A   1      39.490  33.470  35.928  1.00  0.00     0.173 A 
ATOM     67  F   UNL A   1      37.832  30.304  36.603  1.00  0.00    -0.203 F 
ATOM     68  C   UNL A   1      37.867  32.300  37.851  1.00  0.00     0.198 A 
ATOM     69  C   UNL A   1      39.116  34.190  37.060  1.00  0.00     0.198 A 
ATOM     70  F   UNL A   1      40.275  34.065  35.017  1.00  0.00    -0.203 F 
ATOM     71  F   UNL A   1      37.061  31.741  38.765  1.00  0.00    -0.200 F 
ATOM     72  C   UNL A   1      38.302  33.606  38.018  1.00  0.00     0.200 A 
ATOM     73  F   UNL A   1      39.550  35.448  37.227  1.00  0.00    -0.200 F 
ATOM     74  F   UNL A   1      37.934  34.302  39.102  1.00  0.00    -0.200 F 
ENDBRANCH  50  64
BRANCH  51  75
ATOM     75  C   UNL A   1      41.966  26.878  27.759  1.00  0.00     0.064 A 
ATOM     76  C   UNL A   1      42.897  27.372  26.836  1.00  0.00     0.173 A 
ATOM     77  C   UNL A   1      41.461  25.585  27.550  1.00  0.00     0.173 A 
ATOM     78  F   UNL A   1      43.393  28.609  26.981  1.00  0.00    -0.203 F 
ATOM     79  C   UNL A   1      43.306  26.604  25.747  1.00  0.00     0.198 A 
ATOM     80  C   UNL A   1      41.894  24.807  26.479  1.00  0.00     0.198 A 
ATOM     81  F   UNL A   1      40.569  25.066  28.406  1.00  0.00    -0.203 F 
ATOM     82  F   UNL A   1      44.175  27.111  24.862  1.00  0.00    -0.200 F 
ATOM     83  C   UNL A   1      42.812  25.319  25.575  1.00  0.00     0.200 A 
ATOM     84  F   UNL A   1      41.428  23.561  26.328  1.00  0.00    -0.200 F 
ATOM     85  F   UNL A   1      43.219  24.576  24.537  1.00  0.00    -0.200 F 
ENDBRANCH  51  75
BRANCH  63  86
ATOM     86  C   UNL A   1      44.583  27.786  34.164  1.00  0.00     0.064 A 
ATOM     87  C   UNL A   1      44.583  26.541  34.808  1.00  0.00     0.173 A 
ATOM     88  C   UNL A   1      45.789  28.500  34.110  1.00  0.00     0.173 A 
ATOM     89  F   UNL A   1      43.450  25.828  34.898  1.00  0.00    -0.203 F 
ATOM     90  C   UNL A   1      45.744  26.035  35.385  1.00  0.00     0.198 A 
ATOM     91  C   UNL A   1      46.955  27.977  34.662  1.00  0.00     0.198 A 
ATOM     92  F   UNL A   1      45.842  29.692  33.497  1.00  0.00    -0.203 F 
ATOM     93  F   UNL A   1      45.713  24.858  36.026  1.00  0.00    -0.200 F 
ATOM     94  C   UNL A   1      46.931  26.748  35.302  1.00  0.00     0.200 A 
ATOM     95  F   UNL A   1      48.104  28.661  34.567  1.00  0.00    -0.200 F 
ATOM     96  F   UNL A   1      48.052  26.250  35.842  1.00  0.00    -0.200 F 
ENDBRANCH  63  86
ENDBRANCH  37  38
ENDBRANCH  29  32
ENDBRANCH  27  28
ENDBRANCH  26  27
ENDBRANCH   1  26
TORSDOF 14
ENDMDL
