MODEL 1
REMARK VINA RESULT:     -13.0      0.000      0.000
REMARK SMILES Cc1coc2c(C)c3oc(=O)c(CC(=O)NCC(=O)N[C@H](C(=O)NCCCNC(=O)c4ccc(-c5c6nc(c(-c7c(F)c(F)c(F)c(F)c7F)c7ccc([nH]7)c(-c7c(F)c(F)c(F)c(F)c7F)c7nc(c(-c8c(F)c(F)c(F)c(F)c8F)c8ccc5[nH]8)C=C7)C=C6)cc4)C(C)C)c(C)c3cc12
REMARK SMILES IDX 22 1 23 2 24 3 21 5 20 6 18 7 19 8 17 10 16 11 14 12 15 13
REMARK SMILES IDX 13 15 12 16 1 17 2 18 3 19 101 20 4 21 5 22 100 23 6 24
REMARK SMILES IDX 99 25 7 26 8 27 97 28 9 29 98 30 10 31 11 32 94 33 95 34
REMARK SMILES IDX 96 35 25 36 26 37 27 38 28 39 29 40 30 42 31 43 32 44 93 45
REMARK SMILES IDX 33 46 92 47 34 48 35 49 36 50 86 51 37 52 91 53 85 54 87 55
REMARK SMILES IDX 38 56 90 57 84 58 83 59 39 61 71 62 51 63 70 64 52 65 55 66
REMARK SMILES IDX 69 67 88 68 53 69 54 70 68 72 89 73 56 74 40 75 41 76 49 77
REMARK SMILES IDX 42 78 43 79 47 80 50 81 44 82 45 83 48 84 46 85 72 86 73 87
REMARK SMILES IDX 81 88 74 89 75 90 79 91 82 92 76 93 77 94 80 95 78 96 57 97
REMARK SMILES IDX 58 98 66 99 59 100 60 101 64 102 67 103 61 104 62 105 65 106
REMARK SMILES IDX 63 107
REMARK H PARENT 24 4 20 9 16 14 28 41 87 60 55 71
REMARK Flexibility Score: inf
ROOT
ATOM      1  C   UNL A   1      34.263  30.652  27.601  1.00  0.00     0.242 C 
ATOM      2  O   UNL A   1      35.165  29.950  28.064  1.00  0.00    -0.273 OA
ATOM      3  N   UNL A   1      34.155  31.930  28.060  1.00  0.00    -0.354 N 
ATOM      4  H   UNL A   1      34.742  32.178  28.810  1.00  0.00     0.163 HD
ENDROOT
BRANCH   1   5
ATOM      5  C   UNL A   1      33.475  30.216  26.347  1.00  0.00     0.173 C 
BRANCH   5   6
ATOM      6  N   UNL A   1      33.769  28.921  25.670  1.00  0.00    -0.343 N 
ATOM      7  C   UNL A   1      33.774  28.463  24.370  1.00  0.00     0.240 C 
ATOM      8  O   UNL A   1      34.260  27.322  24.273  1.00  0.00    -0.273 OA
ATOM      9  H   UNL A   1      34.023  28.217  26.311  1.00  0.00     0.164 HD
BRANCH   7  10
ATOM     10  C   UNL A   1      33.386  29.239  22.962  1.00  0.00     0.216 C 
BRANCH  10  11
ATOM     11  N   UNL A   1      32.001  29.535  22.424  1.00  0.00    -0.347 N 
ATOM     12  C   UNL A   1      30.741  29.029  22.246  1.00  0.00     0.225 C 
ATOM     13  O   UNL A   1      30.037  29.801  21.564  1.00  0.00    -0.275 OA
ATOM     14  H   UNL A   1      32.011  30.449  22.057  1.00  0.00     0.164 HD
BRANCH  12  15
ATOM     15  C   UNL A   1      29.996  27.732  22.806  1.00  0.00     0.143 C 
BRANCH  15  16
ATOM     16  C   UNL A   1      30.601  26.344  23.174  1.00  0.00     0.051 A 
ATOM     17  C   UNL A   1      36.764  22.796  23.162  1.00  0.00     0.048 C 
ATOM     18  C   UNL A   1      35.673  22.794  24.167  1.00  0.00    -0.005 A 
ATOM     19  C   UNL A   1      35.756  22.236  25.428  1.00  0.00     0.199 A 
ATOM     20  C   UNL A   1      34.354  23.359  24.074  1.00  0.00     0.024 A 
ATOM     21  O   UNL A   1      34.615  22.443  26.124  1.00  0.00    -0.464 OA
ATOM     22  C   UNL A   1      33.762  23.124  25.309  1.00  0.00     0.140 A 
ATOM     23  C   UNL A   1      33.603  24.088  23.108  1.00  0.00     0.024 A 
ATOM     24  C   UNL A   1      32.485  23.549  25.675  1.00  0.00     0.036 A 
ATOM     25  C   UNL A   1      32.289  24.547  23.399  1.00  0.00     0.022 A 
ATOM     26  C   UNL A   1      31.959  23.375  27.065  1.00  0.00     0.052 C 
ATOM     27  C   UNL A   1      31.768  24.218  24.653  1.00  0.00     0.145 A 
ATOM     28  C   UNL A   1      31.541  25.562  22.564  1.00  0.00    -0.029 A 
ATOM     29  O   UNL A   1      30.483  24.675  25.000  1.00  0.00    -0.422 OA
ATOM     30  C   UNL A   1      32.054  25.765  21.156  1.00  0.00     0.046 C 
ATOM     31  C   UNL A   1      29.867  25.709  24.323  1.00  0.00     0.340 A 
ATOM     32  O   UNL A   1      28.762  26.106  24.677  1.00  0.00    -0.246 OA
ENDBRANCH  15  16
ENDBRANCH  12  15
ENDBRANCH  10  11
ENDBRANCH   7  10
ENDBRANCH   5   6
BRANCH   5  33
ATOM     33  C   UNL A   1      32.007  30.222  26.632  1.00  0.00     0.015 C 
ATOM     34  C   UNL A   1      31.049  30.815  25.619  1.00  0.00     0.010 C 
ATOM     35  C   UNL A   1      31.749  28.896  27.332  1.00  0.00     0.010 C 
ENDBRANCH   5  33
ENDBRANCH   1   5
BRANCH   3  36
ATOM     36  C   UNL A   1      33.274  32.961  27.562  1.00  0.00     0.117 C 
BRANCH  36  37
ATOM     37  C   UNL A   1      33.342  34.195  28.451  1.00  0.00     0.042 C 
BRANCH  37  38
ATOM     38  C   UNL A   1      34.115  33.897  29.716  1.00  0.00     0.118 C 
BRANCH  38  39
ATOM     39  N   UNL A   1      33.612  34.694  30.830  1.00  0.00    -0.352 N 
ATOM     40  C   UNL A   1      34.047  34.703  32.147  1.00  0.00     0.251 C 
ATOM     41  H   UNL A   1      32.869  35.304  30.621  1.00  0.00     0.163 HD
ATOM     42  O   UNL A   1      33.462  35.262  33.021  1.00  0.00    -0.269 OA
BRANCH  40  43
ATOM     43  C   UNL A   1      35.287  33.946  32.400  1.00  0.00     0.039 A 
ATOM     44  C   UNL A   1      35.217  32.560  32.520  1.00  0.00     0.014 A 
ATOM     45  C   UNL A   1      36.496  34.619  32.244  1.00  0.00     0.014 A 
ATOM     46  C   UNL A   1      36.390  31.822  32.402  1.00  0.00     0.010 A 
ATOM     47  C   UNL A   1      37.631  33.874  32.009  1.00  0.00     0.010 A 
ATOM     48  C   UNL A   1      37.597  32.477  32.115  1.00  0.00    -0.014 A 
BRANCH  48  49
ATOM     49  C   UNL A   1      38.811  31.690  31.883  1.00  0.00     0.031 A 
ATOM     50  C   UNL A   1      39.668  31.318  33.058  1.00  0.00     0.074 A 
ATOM     51  C   UNL A   1      39.095  31.141  30.684  1.00  0.00     0.049 A 
ATOM     52  N   UNL A   1      40.928  31.564  33.242  1.00  0.00    -0.248 NA
ATOM     53  C   UNL A   1      39.047  30.575  34.166  1.00  0.00     0.031 C 
ATOM     54  C   UNL A   1      38.286  31.113  29.460  1.00  0.00     0.029 A 
ATOM     55  N   UNL A   1      40.175  30.384  30.353  1.00  0.00    -0.354 N 
ATOM     56  C   UNL A   1      41.299  30.928  34.428  1.00  0.00     0.074 A 
ATOM     57  C   UNL A   1      40.085  30.381  34.985  1.00  0.00     0.031 C 
ATOM     58  C   UNL A   1      38.786  30.189  28.614  1.00  0.00     0.029 A 
ATOM     59  C   UNL A   1      40.045  29.717  29.152  1.00  0.00     0.049 A 
ATOM     60  H   UNL A   1      40.978  30.319  30.920  1.00  0.00     0.167 HD
ATOM     61  C   UNL A   1      42.599  30.797  34.825  1.00  0.00     0.037 A 
ATOM     62  C   UNL A   1      40.904  28.814  28.634  1.00  0.00     0.037 A 
ATOM     63  C   UNL A   1      43.470  31.689  34.112  1.00  0.00     0.049 A 
ATOM     64  C   UNL A   1      42.231  29.063  29.246  1.00  0.00     0.074 A 
ATOM     65  C   UNL A   1      43.583  33.063  34.024  1.00  0.00     0.029 A 
ATOM     66  N   UNL A   1      44.224  31.201  33.075  1.00  0.00    -0.354 N 
ATOM     67  N   UNL A   1      42.930  30.150  29.052  1.00  0.00    -0.248 NA
ATOM     68  C   UNL A   1      42.605  28.281  30.413  1.00  0.00     0.031 C 
ATOM     69  C   UNL A   1      43.936  33.314  32.666  1.00  0.00     0.029 A 
ATOM     70  C   UNL A   1      44.049  32.075  32.032  1.00  0.00     0.049 A 
ATOM     71  H   UNL A   1      44.778  30.388  33.078  1.00  0.00     0.167 HD
ATOM     72  C   UNL A   1      43.544  30.400  30.270  1.00  0.00     0.074 A 
ATOM     73  C   UNL A   1      43.395  29.163  31.030  1.00  0.00     0.031 C 
ATOM     74  C   UNL A   1      43.880  31.668  30.655  1.00  0.00     0.037 A 
BRANCH  61  75
ATOM     75  C   UNL A   1      43.140  29.725  35.736  1.00  0.00     0.064 A 
ATOM     76  C   UNL A   1      43.859  30.070  36.900  1.00  0.00     0.173 A 
ATOM     77  C   UNL A   1      43.191  28.365  35.370  1.00  0.00     0.173 A 
ATOM     78  F   UNL A   1      43.913  31.343  37.320  1.00  0.00    -0.203 F 
ATOM     79  C   UNL A   1      44.597  29.126  37.623  1.00  0.00     0.198 A 
ATOM     80  C   UNL A   1      43.889  27.416  36.120  1.00  0.00     0.198 A 
ATOM     81  F   UNL A   1      42.651  27.932  34.222  1.00  0.00    -0.203 F 
ATOM     82  F   UNL A   1      45.338  29.517  38.669  1.00  0.00    -0.200 F 
ATOM     83  C   UNL A   1      44.609  27.800  37.234  1.00  0.00     0.200 A 
ATOM     84  F   UNL A   1      43.909  26.139  35.715  1.00  0.00    -0.200 F 
ATOM     85  F   UNL A   1      45.346  26.901  37.902  1.00  0.00    -0.200 F 
ENDBRANCH  61  75
BRANCH  62  86
ATOM     86  C   UNL A   1      40.534  27.595  27.889  1.00  0.00     0.064 A 
ATOM     87  C   UNL A   1      41.156  27.264  26.679  1.00  0.00     0.173 A 
ATOM     88  C   UNL A   1      39.714  26.605  28.472  1.00  0.00     0.173 A 
ATOM     89  F   UNL A   1      41.985  28.134  26.089  1.00  0.00    -0.203 F 
ATOM     90  C   UNL A   1      40.975  26.007  26.091  1.00  0.00     0.198 A 
ATOM     91  C   UNL A   1      39.527  25.359  27.879  1.00  0.00     0.198 A 
ATOM     92  F   UNL A   1      39.145  26.798  29.672  1.00  0.00    -0.203 F 
ATOM     93  F   UNL A   1      41.626  25.703  24.959  1.00  0.00    -0.200 F 
ATOM     94  C   UNL A   1      40.167  25.056  26.693  1.00  0.00     0.200 A 
ATOM     95  F   UNL A   1      38.768  24.438  28.490  1.00  0.00    -0.200 F 
ATOM     96  F   UNL A   1      40.035  23.836  26.153  1.00  0.00    -0.200 F 
ENDBRANCH  62  86
BRANCH  74  97
ATOM     97  C   UNL A   1      43.778  32.777  29.641  1.00  0.00     0.064 A 
ATOM     98  C   UNL A   1      42.639  33.587  29.491  1.00  0.00     0.173 A 
ATOM     99  C   UNL A   1      44.928  33.160  28.938  1.00  0.00     0.173 A 
ATOM    100  F   UNL A   1      41.535  33.360  30.210  1.00  0.00    -0.203 F 
ATOM    101  C   UNL A   1      42.638  34.699  28.650  1.00  0.00     0.198 A 
ATOM    102  C   UNL A   1      44.937  34.293  28.125  1.00  0.00     0.198 A 
ATOM    103  F   UNL A   1      46.070  32.469  29.088  1.00  0.00    -0.203 F 
ATOM    104  F   UNL A   1      41.532  35.449  28.531  1.00  0.00    -0.200 F 
ATOM    105  C   UNL A   1      43.791  35.056  27.975  1.00  0.00     0.200 A 
ATOM    106  F   UNL A   1      46.071  34.667  27.515  1.00  0.00    -0.200 F 
ATOM    107  F   UNL A   1      43.807  36.155  27.207  1.00  0.00    -0.200 F 
ENDBRANCH  74  97
ENDBRANCH  48  49
ENDBRANCH  40  43
ENDBRANCH  38  39
ENDBRANCH  37  38
ENDBRANCH  36  37
ENDBRANCH   3  36
TORSDOF 16
ENDMDL
MODEL 2
REMARK VINA RESULT:     -13.0      2.032      2.891
REMARK SMILES Cc1coc2c(C)c3oc(=O)c(CC(=O)NCC(=O)N[C@H](C(=O)NCCCNC(=O)c4ccc(-c5c6nc(c(-c7c(F)c(F)c(F)c(F)c7F)c7ccc([nH]7)c(-c7c(F)c(F)c(F)c(F)c7F)c7nc(c(-c8c(F)c(F)c(F)c(F)c8F)c8ccc5[nH]8)C=C7)C=C6)cc4)C(C)C)c(C)c3cc12
REMARK SMILES IDX 22 1 23 2 24 3 21 5 20 6 18 7 19 8 17 10 16 11 14 12 15 13
REMARK SMILES IDX 13 15 12 16 1 17 2 18 3 19 101 20 4 21 5 22 100 23 6 24
REMARK SMILES IDX 99 25 7 26 8 27 97 28 9 29 98 30 10 31 11 32 94 33 95 34
REMARK SMILES IDX 96 35 25 36 26 37 27 38 28 39 29 40 30 42 31 43 32 44 93 45
REMARK SMILES IDX 33 46 92 47 34 48 35 49 36 50 86 51 37 52 91 53 85 54 87 55
REMARK SMILES IDX 38 56 90 57 84 58 83 59 39 61 71 62 51 63 70 64 52 65 55 66
REMARK SMILES IDX 69 67 88 68 53 69 54 70 68 72 89 73 56 74 40 75 41 76 49 77
REMARK SMILES IDX 42 78 43 79 47 80 50 81 44 82 45 83 48 84 46 85 72 86 73 87
REMARK SMILES IDX 81 88 74 89 75 90 79 91 82 92 76 93 77 94 80 95 78 96 57 97
REMARK SMILES IDX 58 98 66 99 59 100 60 101 64 102 67 103 61 104 62 105 65 106
REMARK SMILES IDX 63 107
REMARK H PARENT 24 4 20 9 16 14 28 41 87 60 55 71
REMARK Flexibility Score: inf
ROOT
ATOM      1  C   UNL A   1      34.777  29.535  27.110  1.00  0.00     0.242 C 
ATOM      2  O   UNL A   1      35.880  28.998  27.237  1.00  0.00    -0.273 OA
ATOM      3  N   UNL A   1      34.652  30.830  27.514  1.00  0.00    -0.354 N 
ATOM      4  H   UNL A   1      35.427  31.222  27.979  1.00  0.00     0.163 HD
ENDROOT
BRANCH   1   5
ATOM      5  C   UNL A   1      33.664  28.883  26.262  1.00  0.00     0.173 C 
BRANCH   5   6
ATOM      6  N   UNL A   1      33.997  28.045  25.076  1.00  0.00    -0.343 N 
ATOM      7  C   UNL A   1      33.873  28.172  23.709  1.00  0.00     0.240 C 
ATOM      8  O   UNL A   1      34.458  27.262  23.095  1.00  0.00    -0.273 OA
ATOM      9  H   UNL A   1      34.408  27.187  25.332  1.00  0.00     0.164 HD
BRANCH   7  10
ATOM     10  C   UNL A   1      33.219  29.392  22.804  1.00  0.00     0.216 C 
BRANCH  10  11
ATOM     11  N   UNL A   1      31.790  29.512  22.314  1.00  0.00    -0.347 N 
ATOM     12  C   UNL A   1      30.559  28.911  22.304  1.00  0.00     0.225 C 
ATOM     13  O   UNL A   1      29.770  29.515  21.550  1.00  0.00    -0.275 OA
ATOM     14  H   UNL A   1      31.719  30.349  21.799  1.00  0.00     0.164 HD
BRANCH  12  15
ATOM     15  C   UNL A   1      29.934  27.689  23.119  1.00  0.00     0.143 C 
BRANCH  15  16
ATOM     16  C   UNL A   1      30.542  26.276  23.375  1.00  0.00     0.051 A 
ATOM     17  C   UNL A   1      36.700  22.736  23.023  1.00  0.00     0.048 C 
ATOM     18  C   UNL A   1      35.620  22.660  24.037  1.00  0.00    -0.005 A 
ATOM     19  C   UNL A   1      35.717  22.008  25.252  1.00  0.00     0.199 A 
ATOM     20  C   UNL A   1      34.301  23.230  24.002  1.00  0.00     0.024 A 
ATOM     21  O   UNL A   1      34.585  22.162  25.974  1.00  0.00    -0.464 OA
ATOM     22  C   UNL A   1      33.724  22.903  25.223  1.00  0.00     0.140 A 
ATOM     23  C   UNL A   1      33.539  24.031  23.103  1.00  0.00     0.024 A 
ATOM     24  C   UNL A   1      32.451  23.300  25.635  1.00  0.00     0.036 A 
ATOM     25  C   UNL A   1      32.230  24.467  23.443  1.00  0.00     0.022 A 
ATOM     26  C   UNL A   1      31.941  23.022  27.014  1.00  0.00     0.052 C 
ATOM     27  C   UNL A   1      31.724  24.044  24.675  1.00  0.00     0.145 A 
ATOM     28  C   UNL A   1      31.474  25.542  22.696  1.00  0.00    -0.029 A 
ATOM     29  O   UNL A   1      30.443  24.475  25.071  1.00  0.00    -0.422 OA
ATOM     30  C   UNL A   1      31.970  25.851  21.302  1.00  0.00     0.046 C 
ATOM     31  C   UNL A   1      29.821  25.557  24.481  1.00  0.00     0.340 A 
ATOM     32  O   UNL A   1      28.720  25.927  24.877  1.00  0.00    -0.246 OA
ENDBRANCH  15  16
ENDBRANCH  12  15
ENDBRANCH  10  11
ENDBRANCH   7  10
ENDBRANCH   5   6
BRANCH   5  33
ATOM     33  C   UNL A   1      32.772  28.055  27.130  1.00  0.00     0.015 C 
ATOM     34  C   UNL A   1      31.451  28.623  27.608  1.00  0.00     0.010 C 
ATOM     35  C   UNL A   1      32.910  26.642  26.581  1.00  0.00     0.010 C 
ENDBRANCH   5  33
ENDBRANCH   1   5
BRANCH   3  36
ATOM     36  C   UNL A   1      33.507  31.691  27.331  1.00  0.00     0.117 C 
BRANCH  36  37
ATOM     37  C   UNL A   1      33.753  33.050  27.972  1.00  0.00     0.042 C 
BRANCH  37  38
ATOM     38  C   UNL A   1      35.081  33.063  28.696  1.00  0.00     0.118 C 
BRANCH  38  39
ATOM     39  N   UNL A   1      34.884  33.047  30.142  1.00  0.00    -0.352 N 
ATOM     40  C   UNL A   1      35.541  32.280  31.091  1.00  0.00     0.251 C 
ATOM     41  H   UNL A   1      34.196  33.659  30.488  1.00  0.00     0.163 HD
ATOM     42  O   UNL A   1      35.192  32.213  32.229  1.00  0.00    -0.269 OA
BRANCH  40  43
ATOM     43  C   UNL A   1      36.704  31.526  30.589  1.00  0.00     0.039 A 
ATOM     44  C   UNL A   1      37.940  32.166  30.512  1.00  0.00     0.014 A 
ATOM     45  C   UNL A   1      36.574  30.144  30.468  1.00  0.00     0.014 A 
ATOM     46  C   UNL A   1      39.085  31.388  30.386  1.00  0.00     0.010 A 
ATOM     47  C   UNL A   1      37.720  29.379  30.466  1.00  0.00     0.010 A 
ATOM     48  C   UNL A   1      38.980  29.988  30.394  1.00  0.00    -0.014 A 
BRANCH  48  49
ATOM     49  C   UNL A   1      40.195  29.170  30.372  1.00  0.00     0.031 A 
ATOM     50  C   UNL A   1      40.895  28.881  31.669  1.00  0.00     0.074 A 
ATOM     51  C   UNL A   1      40.610  28.526  29.263  1.00  0.00     0.049 A 
ATOM     52  N   UNL A   1      42.129  29.125  31.986  1.00  0.00    -0.248 NA
ATOM     53  C   UNL A   1      40.129  28.235  32.746  1.00  0.00     0.031 C 
ATOM     54  C   UNL A   1      39.954  28.411  27.955  1.00  0.00     0.029 A 
ATOM     55  N   UNL A   1      41.705  27.732  29.125  1.00  0.00    -0.354 N 
ATOM     56  C   UNL A   1      42.340  28.579  33.254  1.00  0.00     0.074 A 
ATOM     57  C   UNL A   1      41.056  28.093  33.698  1.00  0.00     0.031 C 
ATOM     58  C   UNL A   1      40.532  27.418  27.249  1.00  0.00     0.029 A 
ATOM     59  C   UNL A   1      41.707  26.973  27.971  1.00  0.00     0.049 A 
ATOM     60  H   UNL A   1      42.432  27.701  29.789  1.00  0.00     0.167 HD
ATOM     61  C   UNL A   1      43.580  28.464  33.815  1.00  0.00     0.037 A 
ATOM     62  C   UNL A   1      42.602  26.022  27.633  1.00  0.00     0.037 A 
ATOM     63  C   UNL A   1      44.549  29.286  33.148  1.00  0.00     0.049 A 
ATOM     64  C   UNL A   1      43.850  26.302  28.382  1.00  0.00     0.074 A 
ATOM     65  C   UNL A   1      44.703  30.647  32.970  1.00  0.00     0.029 A 
ATOM     66  N   UNL A   1      45.412  28.708  32.252  1.00  0.00    -0.354 N 
ATOM     67  N   UNL A   1      44.591  27.361  28.193  1.00  0.00    -0.248 NA
ATOM     68  C   UNL A   1      44.063  25.609  29.642  1.00  0.00     0.031 C 
ATOM     69  C   UNL A   1      45.223  30.786  31.650  1.00  0.00     0.029 A 
ATOM     70  C   UNL A   1      45.384  29.500  31.131  1.00  0.00     0.049 A 
ATOM     71  H   UNL A   1      45.944  27.891  32.384  1.00  0.00     0.167 HD
ATOM     72  C   UNL A   1      45.059  27.699  29.454  1.00  0.00     0.074 A 
ATOM     73  C   UNL A   1      44.792  26.527  30.282  1.00  0.00     0.031 C 
ATOM     74  C   UNL A   1      45.373  28.989  29.779  1.00  0.00     0.037 A 
BRANCH  61  75
ATOM     75  C   UNL A   1      43.983  27.459  34.865  1.00  0.00     0.064 A 
ATOM     76  C   UNL A   1      43.943  26.077  34.585  1.00  0.00     0.173 A 
ATOM     77  C   UNL A   1      44.167  27.801  36.219  1.00  0.00     0.173 A 
ATOM     78  F   UNL A   1      43.733  25.636  33.336  1.00  0.00    -0.203 F 
ATOM     79  C   UNL A   1      44.050  25.113  35.594  1.00  0.00     0.198 A 
ATOM     80  C   UNL A   1      44.321  26.838  37.218  1.00  0.00     0.198 A 
ATOM     81  F   UNL A   1      44.103  29.076  36.631  1.00  0.00    -0.203 F 
ATOM     82  F   UNL A   1      43.915  23.814  35.293  1.00  0.00    -0.200 F 
ATOM     83  C   UNL A   1      44.242  25.494  36.909  1.00  0.00     0.200 A 
ATOM     84  F   UNL A   1      44.484  27.225  38.490  1.00  0.00    -0.200 F 
ATOM     85  F   UNL A   1      44.306  24.575  37.882  1.00  0.00    -0.200 F 
ENDBRANCH  61  75
BRANCH  62  86
ATOM     86  C   UNL A   1      42.297  24.754  26.943  1.00  0.00     0.064 A 
ATOM     87  C   UNL A   1      42.996  24.363  25.795  1.00  0.00     0.173 A 
ATOM     88  C   UNL A   1      41.461  23.783  27.537  1.00  0.00     0.173 A 
ATOM     89  F   UNL A   1      43.844  25.213  25.202  1.00  0.00    -0.203 F 
ATOM     90  C   UNL A   1      42.873  23.070  25.275  1.00  0.00     0.198 A 
ATOM     91  C   UNL A   1      41.331  22.500  27.011  1.00  0.00     0.198 A 
ATOM     92  F   UNL A   1      40.819  24.037  28.687  1.00  0.00    -0.203 F 
ATOM     93  F   UNL A   1      43.595  22.712  24.204  1.00  0.00    -0.200 F 
ATOM     94  C   UNL A   1      42.047  22.140  25.885  1.00  0.00     0.200 A 
ATOM     95  F   UNL A   1      40.553  21.602  27.631  1.00  0.00    -0.200 F 
ATOM     96  F   UNL A   1      41.968  20.888  25.414  1.00  0.00    -0.200 F 
ENDBRANCH  62  86
BRANCH  74  97
ATOM     97  C   UNL A   1      45.420  30.016  28.678  1.00  0.00     0.064 A 
ATOM     98  C   UNL A   1      44.329  30.836  28.339  1.00  0.00     0.173 A 
ATOM     99  C   UNL A   1      46.652  30.317  28.084  1.00  0.00     0.173 A 
ATOM    100  F   UNL A   1      43.146  30.691  28.942  1.00  0.00    -0.203 F 
ATOM    101  C   UNL A   1      44.456  31.877  27.421  1.00  0.00     0.198 A 
ATOM    102  C   UNL A   1      46.786  31.381  27.193  1.00  0.00     0.198 A 
ATOM    103  F   UNL A   1      47.748  29.615  28.415  1.00  0.00    -0.203 F 
ATOM    104  F   UNL A   1      43.395  32.640  27.120  1.00  0.00    -0.200 F 
ATOM    105  C   UNL A   1      45.688  32.155  26.856  1.00  0.00     0.200 A 
ATOM    106  F   UNL A   1      47.992  31.682  26.689  1.00  0.00    -0.200 F 
ATOM    107  F   UNL A   1      45.823  33.189  26.013  1.00  0.00    -0.200 F 
ENDBRANCH  74  97
ENDBRANCH  48  49
ENDBRANCH  40  43
ENDBRANCH  38  39
ENDBRANCH  37  38
ENDBRANCH  36  37
ENDBRANCH   3  36
TORSDOF 16
ENDMDL
MODEL 3
REMARK VINA RESULT:     -12.3      5.511      9.628
REMARK SMILES Cc1coc2c(C)c3oc(=O)c(CC(=O)NCC(=O)N[C@H](C(=O)NCCCNC(=O)c4ccc(-c5c6nc(c(-c7c(F)c(F)c(F)c(F)c7F)c7ccc([nH]7)c(-c7c(F)c(F)c(F)c(F)c7F)c7nc(c(-c8c(F)c(F)c(F)c(F)c8F)c8ccc5[nH]8)C=C7)C=C6)cc4)C(C)C)c(C)c3cc12
REMARK SMILES IDX 22 1 23 2 24 3 21 5 20 6 18 7 19 8 17 10 16 11 14 12 15 13
REMARK SMILES IDX 13 15 12 16 1 17 2 18 3 19 101 20 4 21 5 22 100 23 6 24
REMARK SMILES IDX 99 25 7 26 8 27 97 28 9 29 98 30 10 31 11 32 94 33 95 34
REMARK SMILES IDX 96 35 25 36 26 37 27 38 28 39 29 40 30 42 31 43 32 44 93 45
REMARK SMILES IDX 33 46 92 47 34 48 35 49 36 50 86 51 37 52 91 53 85 54 87 55
REMARK SMILES IDX 38 56 90 57 84 58 83 59 39 61 71 62 51 63 70 64 52 65 55 66
REMARK SMILES IDX 69 67 88 68 53 69 54 70 68 72 89 73 56 74 40 75 41 76 49 77
REMARK SMILES IDX 42 78 43 79 47 80 50 81 44 82 45 83 48 84 46 85 72 86 73 87
REMARK SMILES IDX 81 88 74 89 75 90 79 91 82 92 76 93 77 94 80 95 78 96 57 97
REMARK SMILES IDX 58 98 66 99 59 100 60 101 64 102 67 103 61 104 62 105 65 106
REMARK SMILES IDX 63 107
REMARK H PARENT 24 4 20 9 16 14 28 41 87 60 55 71
REMARK Flexibility Score: inf
ROOT
ATOM      1  C   UNL A   1      45.794  30.589  27.007  1.00  0.00     0.242 C 
ATOM      2  O   UNL A   1      46.803  29.879  27.021  1.00  0.00    -0.273 OA
ATOM      3  N   UNL A   1      45.643  31.455  25.966  1.00  0.00    -0.354 N 
ATOM      4  H   UNL A   1      46.403  31.532  25.345  1.00  0.00     0.163 HD
ENDROOT
BRANCH   1   5
ATOM      5  C   UNL A   1      44.607  30.310  27.954  1.00  0.00     0.173 C 
BRANCH   5   6
ATOM      6  N   UNL A   1      44.063  28.932  28.112  1.00  0.00    -0.343 N 
ATOM      7  C   UNL A   1      44.581  27.695  28.430  1.00  0.00     0.240 C 
ATOM      8  O   UNL A   1      43.692  26.843  28.610  1.00  0.00    -0.273 OA
ATOM      9  H   UNL A   1      43.092  28.896  27.949  1.00  0.00     0.164 HD
BRANCH   7  10
ATOM     10  C   UNL A   1      46.138  27.236  28.744  1.00  0.00     0.216 C 
BRANCH  10  11
ATOM     11  N   UNL A   1      47.139  26.644  27.773  1.00  0.00    -0.347 N 
ATOM     12  C   UNL A   1      47.289  26.060  26.543  1.00  0.00     0.225 C 
ATOM     13  O   UNL A   1      48.458  25.655  26.377  1.00  0.00    -0.275 OA
ATOM     14  H   UNL A   1      48.030  26.700  28.189  1.00  0.00     0.164 HD
BRANCH  12  15
ATOM     15  C   UNL A   1      46.317  25.892  25.287  1.00  0.00     0.143 C 
BRANCH  15  16
ATOM     16  C   UNL A   1      45.081  24.956  25.131  1.00  0.00     0.051 A 
ATOM     17  C   UNL A   1      42.982  18.278  26.384  1.00  0.00     0.048 C 
ATOM     18  C   UNL A   1      42.233  19.549  26.534  1.00  0.00    -0.005 A 
ATOM     19  C   UNL A   1      41.010  19.681  27.164  1.00  0.00     0.199 A 
ATOM     20  C   UNL A   1      42.594  20.872  26.099  1.00  0.00     0.024 A 
ATOM     21  O   UNL A   1      40.612  20.973  27.181  1.00  0.00    -0.464 OA
ATOM     22  C   UNL A   1      41.569  21.700  26.539  1.00  0.00     0.140 A 
ATOM     23  C   UNL A   1      43.694  21.479  25.427  1.00  0.00     0.024 A 
ATOM     24  C   UNL A   1      41.535  23.084  26.372  1.00  0.00     0.036 A 
ATOM     25  C   UNL A   1      43.730  22.883  25.207  1.00  0.00     0.022 A 
ATOM     26  C   UNL A   1      40.464  23.931  26.983  1.00  0.00     0.052 C 
ATOM     27  C   UNL A   1      42.628  23.620  25.647  1.00  0.00     0.145 A 
ATOM     28  C   UNL A   1      44.965  23.641  24.776  1.00  0.00    -0.029 A 
ATOM     29  O   UNL A   1      42.630  25.017  25.479  1.00  0.00    -0.422 OA
ATOM     30  C   UNL A   1      46.068  22.812  24.160  1.00  0.00     0.046 C 
ATOM     31  C   UNL A   1      43.792  25.722  25.234  1.00  0.00     0.340 A 
ATOM     32  O   UNL A   1      43.761  26.945  25.130  1.00  0.00    -0.246 OA
ENDBRANCH  15  16
ENDBRANCH  12  15
ENDBRANCH  10  11
ENDBRANCH   7  10
ENDBRANCH   5   6
BRANCH   5  33
ATOM     33  C   UNL A   1      44.918  30.806  29.330  1.00  0.00     0.015 C 
ATOM     34  C   UNL A   1      46.093  31.738  29.544  1.00  0.00     0.010 C 
ATOM     35  C   UNL A   1      43.556  31.036  29.969  1.00  0.00     0.010 C 
ENDBRANCH   5  33
ENDBRANCH   1   5
BRANCH   3  36
ATOM     36  C   UNL A   1      44.488  32.271  25.675  1.00  0.00     0.117 C 
BRANCH  36  37
ATOM     37  C   UNL A   1      44.404  33.444  26.641  1.00  0.00     0.042 C 
BRANCH  37  38
ATOM     38  C   UNL A   1      43.994  34.704  25.912  1.00  0.00     0.118 C 
BRANCH  38  39
ATOM     39  N   UNL A   1      44.938  35.786  26.175  1.00  0.00    -0.352 N 
ATOM     40  C   UNL A   1      44.979  36.646  27.262  1.00  0.00     0.251 C 
ATOM     41  H   UNL A   1      45.635  35.922  25.495  1.00  0.00     0.163 HD
ATOM     42  O   UNL A   1      45.684  37.606  27.305  1.00  0.00    -0.269 OA
BRANCH  40  43
ATOM     43  C   UNL A   1      44.067  36.301  28.367  1.00  0.00     0.039 A 
ATOM     44  C   UNL A   1      42.709  36.584  28.233  1.00  0.00     0.014 A 
ATOM     45  C   UNL A   1      44.557  35.473  29.374  1.00  0.00     0.014 A 
ATOM     46  C   UNL A   1      41.810  35.957  29.089  1.00  0.00     0.010 A 
ATOM     47  C   UNL A   1      43.652  34.765  30.135  1.00  0.00     0.010 A 
ATOM     48  C   UNL A   1      42.278  35.020  30.023  1.00  0.00    -0.014 A 
BRANCH  48  49
ATOM     49  C   UNL A   1      41.321  34.279  30.847  1.00  0.00     0.031 A 
ATOM     50  C   UNL A   1      41.709  33.908  32.250  1.00  0.00     0.074 A 
ATOM     51  C   UNL A   1      40.047  34.069  30.459  1.00  0.00     0.049 A 
ATOM     52  N   UNL A   1      41.736  32.728  32.789  1.00  0.00    -0.248 NA
ATOM     53  C   UNL A   1      42.113  34.983  33.169  1.00  0.00     0.031 C 
ATOM     54  C   UNL A   1      39.342  34.572  29.274  1.00  0.00     0.029 A 
ATOM     55  N   UNL A   1      39.069  33.413  31.139  1.00  0.00    -0.354 N 
ATOM     56  C   UNL A   1      42.056  32.903  34.137  1.00  0.00     0.074 A 
ATOM     57  C   UNL A   1      42.333  34.310  34.302  1.00  0.00     0.031 C 
ATOM     58  C   UNL A   1      38.013  34.408  29.439  1.00  0.00     0.029 A 
ATOM     59  C   UNL A   1      37.800  33.618  30.635  1.00  0.00     0.049 A 
ATOM     60  H   UNL A   1      39.250  32.842  31.921  1.00  0.00     0.167 HD
ATOM     61  C   UNL A   1      41.967  31.898  35.057  1.00  0.00     0.037 A 
ATOM     62  C   UNL A   1      36.639  33.189  31.173  1.00  0.00     0.037 A 
ATOM     63  C   UNL A   1      41.889  30.607  34.435  1.00  0.00     0.049 A 
ATOM     64  C   UNL A   1      36.955  32.026  32.036  1.00  0.00     0.074 A 
ATOM     65  C   UNL A   1      42.738  29.866  33.636  1.00  0.00     0.029 A 
ATOM     66  N   UNL A   1      40.668  29.989  34.330  1.00  0.00    -0.354 N 
ATOM     67  N   UNL A   1      37.409  30.887  31.585  1.00  0.00    -0.248 NA
ATOM     68  C   UNL A   1      37.161  32.262  33.455  1.00  0.00     0.031 C 
ATOM     69  C   UNL A   1      41.880  29.205  32.708  1.00  0.00     0.029 A 
ATOM     70  C   UNL A   1      40.569  29.559  33.031  1.00  0.00     0.049 A 
ATOM     71  H   UNL A   1      39.999  29.876  35.042  1.00  0.00     0.167 HD
ATOM     72  C   UNL A   1      38.302  30.451  32.553  1.00  0.00     0.074 A 
ATOM     73  C   UNL A   1      38.025  31.279  33.722  1.00  0.00     0.031 C 
ATOM     74  C   UNL A   1      39.363  29.649  32.239  1.00  0.00     0.037 A 
BRANCH  61  75
ATOM     75  C   UNL A   1      41.761  32.076  36.540  1.00  0.00     0.064 A 
ATOM     76  C   UNL A   1      40.498  32.449  37.047  1.00  0.00     0.173 A 
ATOM     77  C   UNL A   1      42.828  32.136  37.458  1.00  0.00     0.173 A 
ATOM     78  F   UNL A   1      39.418  32.468  36.252  1.00  0.00    -0.203 F 
ATOM     79  C   UNL A   1      40.327  32.878  38.368  1.00  0.00     0.198 A 
ATOM     80  C   UNL A   1      42.646  32.518  38.789  1.00  0.00     0.198 A 
ATOM     81  F   UNL A   1      44.093  31.922  37.071  1.00  0.00    -0.203 F 
ATOM     82  F   UNL A   1      39.127  33.310  38.780  1.00  0.00    -0.200 F 
ATOM     83  C   UNL A   1      41.401  32.910  39.238  1.00  0.00     0.200 A 
ATOM     84  F   UNL A   1      43.702  32.565  39.613  1.00  0.00    -0.200 F 
ATOM     85  F   UNL A   1      41.247  33.357  40.492  1.00  0.00    -0.200 F 
ENDBRANCH  61  75
BRANCH  62  86
ATOM     86  C   UNL A   1      35.367  33.936  31.195  1.00  0.00     0.064 A 
ATOM     87  C   UNL A   1      35.096  34.884  32.188  1.00  0.00     0.173 A 
ATOM     88  C   UNL A   1      34.479  33.897  30.098  1.00  0.00     0.173 A 
ATOM     89  F   UNL A   1      35.919  35.013  33.237  1.00  0.00    -0.203 F 
ATOM     90  C   UNL A   1      34.003  35.751  32.086  1.00  0.00     0.198 A 
ATOM     91  C   UNL A   1      33.385  34.753  30.003  1.00  0.00     0.198 A 
ATOM     92  F   UNL A   1      34.705  33.082  29.056  1.00  0.00    -0.203 F 
ATOM     93  F   UNL A   1      33.801  36.682  33.029  1.00  0.00    -0.200 F 
ATOM     94  C   UNL A   1      33.154  35.689  30.992  1.00  0.00     0.200 A 
ATOM     95  F   UNL A   1      32.592  34.702  28.924  1.00  0.00    -0.200 F 
ATOM     96  F   UNL A   1      32.136  36.553  30.872  1.00  0.00    -0.200 F 
ENDBRANCH  62  86
BRANCH  74  97
ATOM     97  C   UNL A   1      39.428  29.054  30.857  1.00  0.00     0.064 A 
ATOM     98  C   UNL A   1      40.010  29.710  29.758  1.00  0.00     0.173 A 
ATOM     99  C   UNL A   1      39.073  27.710  30.680  1.00  0.00     0.173 A 
ATOM    100  F   UNL A   1      40.480  30.956  29.871  1.00  0.00    -0.203 F 
ATOM    101  C   UNL A   1      40.189  29.068  28.534  1.00  0.00     0.198 A 
ATOM    102  C   UNL A   1      39.286  27.057  29.467  1.00  0.00     0.198 A 
ATOM    103  F   UNL A   1      38.575  27.005  31.709  1.00  0.00    -0.203 F 
ATOM    104  F   UNL A   1      40.746  29.725  27.506  1.00  0.00    -0.200 F 
ATOM    105  C   UNL A   1      39.835  27.738  28.392  1.00  0.00     0.200 A 
ATOM    106  F   UNL A   1      38.992  25.754  29.349  1.00  0.00    -0.200 F 
ATOM    107  F   UNL A   1      40.055  27.104  27.232  1.00  0.00    -0.200 F 
ENDBRANCH  74  97
ENDBRANCH  48  49
ENDBRANCH  40  43
ENDBRANCH  38  39
ENDBRANCH  37  38
ENDBRANCH  36  37
ENDBRANCH   3  36
TORSDOF 16
ENDMDL
