MODEL 1
REMARK VINA RESULT:     -13.7      0.000      0.000
REMARK SMILES Cc1ccc(S(=O)(=O)Nc2ccccn2)cc1C(=O)NCCCNC(=O)c1ccc(-c2c3nc(c(-c4c(F)c(F)c(F)c(F)c4F)c4ccc([nH]4)c(-c4c(F)c(F)c(F)c(F)c4F)c4nc(c(-c5c(F)c(F)c(F)c(F)c5F)c5ccc2[nH]5)C=C4)C=C3)cc1
REMARK SMILES IDX 21 1 20 2 18 3 19 4 17 6 1 7 2 8 3 9 4 10 16 11 5 12 6 13
REMARK SMILES IDX 7 14 8 15 9 16 10 18 11 19 15 20 12 21 14 22 13 23 22 24
REMARK SMILES IDX 23 25 24 26 25 27 26 29 27 30 28 31 89 32 29 33 88 34 30 35
REMARK SMILES IDX 31 36 32 37 82 38 33 39 87 40 81 41 83 42 34 43 86 44 80 45
REMARK SMILES IDX 79 46 35 48 67 49 47 50 66 51 48 52 51 53 65 54 84 55 49 56
REMARK SMILES IDX 50 57 64 59 85 60 52 61 36 62 37 63 45 64 38 65 39 66 43 67
REMARK SMILES IDX 46 68 40 69 41 70 44 71 42 72 68 73 69 74 77 75 70 76 71 77
REMARK SMILES IDX 75 78 78 79 72 80 73 81 76 82 74 83 53 84 54 85 62 86 55 87
REMARK SMILES IDX 56 88 60 89 63 90 57 91 58 92 61 93 59 94
REMARK H PARENT 20 5 9 17 24 28 83 47 51 58
REMARK Flexibility Score: inf
ROOT
ATOM      1  C   UNL A   1      37.599  21.318  25.494  1.00  0.00     0.118 C 
ENDROOT
BRANCH   1   2
ATOM      2  N   UNL A   1      37.383  21.959  24.210  1.00  0.00    -0.352 N 
ATOM      3  C   UNL A   1      36.387  22.661  23.590  1.00  0.00     0.251 C 
ATOM      4  O   UNL A   1      36.708  23.034  22.453  1.00  0.00    -0.269 OA
ATOM      5  H   UNL A   1      38.170  21.864  23.626  1.00  0.00     0.163 HD
BRANCH   3   6
ATOM      6  C   UNL A   1      35.008  23.044  24.087  1.00  0.00     0.044 A 
ATOM      7  C   UNL A   1      33.909  20.751  24.581  1.00  0.00     0.045 C 
ATOM      8  C   UNL A   1      33.944  22.240  24.549  1.00  0.00    -0.038 A 
ATOM      9  C   UNL A   1      32.712  22.837  24.907  1.00  0.00     0.005 A 
ATOM     10  C   UNL A   1      32.440  24.162  24.613  1.00  0.00     0.022 A 
ATOM     11  C   UNL A   1      34.714  24.420  23.870  1.00  0.00     0.036 A 
ATOM     12  C   UNL A   1      33.423  24.936  24.012  1.00  0.00     0.088 A 
BRANCH  12  13
ATOM     13  S   UNL A   1      32.838  26.432  23.236  1.00  0.00     0.263 S 
ATOM     14  O   UNL A   1      33.111  26.263  21.817  1.00  0.00    -0.201 OA
ATOM     15  O   UNL A   1      31.487  26.624  23.706  1.00  0.00    -0.201 OA
BRANCH  13  16
ATOM     16  N   UNL A   1      33.692  27.731  23.780  1.00  0.00    -0.263 N 
ATOM     17  H   UNL A   1      34.410  28.072  23.199  1.00  0.00     0.182 HD
BRANCH  16  18
ATOM     18  C   UNL A   1      33.488  28.390  24.994  1.00  0.00     0.139 A 
ATOM     19  C   UNL A   1      33.950  27.990  26.237  1.00  0.00     0.048 A 
ATOM     20  N   UNL A   1      32.701  29.462  24.788  1.00  0.00    -0.239 NA
ATOM     21  C   UNL A   1      33.483  28.683  27.351  1.00  0.00     0.005 A 
ATOM     22  C   UNL A   1      32.283  30.126  25.885  1.00  0.00     0.113 A 
ATOM     23  C   UNL A   1      32.624  29.765  27.176  1.00  0.00     0.020 A 
ENDBRANCH  16  18
ENDBRANCH  13  16
ENDBRANCH  12  13
ENDBRANCH   3   6
ENDBRANCH   1   2
BRANCH   1  24
ATOM     24  C   UNL A   1      39.042  21.513  25.963  1.00  0.00     0.042 C 
BRANCH  24  25
ATOM     25  C   UNL A   1      39.386  22.894  26.484  1.00  0.00     0.118 C 
BRANCH  25  26
ATOM     26  N   UNL A   1      40.813  23.211  26.420  1.00  0.00    -0.352 N 
ATOM     27  C   UNL A   1      41.408  24.462  26.473  1.00  0.00     0.251 C 
ATOM     28  H   UNL A   1      41.424  22.444  26.331  1.00  0.00     0.163 HD
ATOM     29  O   UNL A   1      42.622  24.598  26.435  1.00  0.00    -0.269 OA
BRANCH  27  30
ATOM     30  C   UNL A   1      40.522  25.620  26.713  1.00  0.00     0.039 A 
ATOM     31  C   UNL A   1      40.938  26.844  26.187  1.00  0.00     0.014 A 
ATOM     32  C   UNL A   1      39.596  25.557  27.751  1.00  0.00     0.014 A 
ATOM     33  C   UNL A   1      40.654  28.007  26.894  1.00  0.00     0.010 A 
ATOM     34  C   UNL A   1      39.400  26.695  28.508  1.00  0.00     0.010 A 
ATOM     35  C   UNL A   1      39.996  27.902  28.120  1.00  0.00    -0.014 A 
BRANCH  35  36
ATOM     36  C   UNL A   1      39.947  29.000  29.078  1.00  0.00     0.031 A 
ATOM     37  C   UNL A   1      38.890  30.021  28.951  1.00  0.00     0.074 A 
ATOM     38  C   UNL A   1      40.851  29.108  30.079  1.00  0.00     0.049 A 
ATOM     39  N   UNL A   1      39.012  31.241  29.351  1.00  0.00    -0.248 NA
ATOM     40  C   UNL A   1      37.614  29.747  28.306  1.00  0.00     0.031 C 
ATOM     41  C   UNL A   1      40.806  30.040  31.204  1.00  0.00     0.029 A 
ATOM     42  N   UNL A   1      42.123  28.519  30.169  1.00  0.00    -0.354 N 
ATOM     43  C   UNL A   1      37.779  31.839  29.258  1.00  0.00     0.074 A 
ATOM     44  C   UNL A   1      36.957  30.885  28.548  1.00  0.00     0.031 C 
ATOM     45  C   UNL A   1      42.050  30.216  31.671  1.00  0.00     0.029 A 
ATOM     46  C   UNL A   1      42.950  29.488  30.800  1.00  0.00     0.049 A 
ATOM     47  H   UNL A   1      42.387  27.623  29.859  1.00  0.00     0.167 HD
ATOM     48  C   UNL A   1      37.564  33.026  29.894  1.00  0.00     0.037 A 
ATOM     49  C   UNL A   1      44.044  30.003  30.168  1.00  0.00     0.037 A 
ATOM     50  C   UNL A   1      38.779  33.521  30.544  1.00  0.00     0.049 A 
ATOM     51  C   UNL A   1      43.967  31.490  29.898  1.00  0.00     0.074 A 
ATOM     52  C   UNL A   1      39.262  33.496  31.842  1.00  0.00     0.029 A 
ATOM     53  N   UNL A   1      39.851  33.899  29.753  1.00  0.00    -0.354 N 
ATOM     54  N   UNL A   1      42.980  32.260  30.262  1.00  0.00    -0.248 NA
ATOM     55  C   UNL A   1      44.953  32.196  29.078  1.00  0.00     0.031 C 
ATOM     56  C   UNL A   1      40.634  33.880  31.819  1.00  0.00     0.029 A 
ATOM     57  C   UNL A   1      40.985  34.140  30.507  1.00  0.00     0.049 A 
ATOM     58  H   UNL A   1      39.811  33.985  28.773  1.00  0.00     0.167 HD
ATOM     59  C   UNL A   1      43.139  33.497  29.695  1.00  0.00     0.074 A 
ATOM     60  C   UNL A   1      44.387  33.406  28.958  1.00  0.00     0.031 C 
ATOM     61  C   UNL A   1      42.218  34.496  29.826  1.00  0.00     0.037 A 
BRANCH  48  62
ATOM     62  C   UNL A   1      36.189  33.608  30.137  1.00  0.00     0.064 A 
ATOM     63  C   UNL A   1      35.413  34.100  29.067  1.00  0.00     0.173 A 
ATOM     64  C   UNL A   1      35.599  33.761  31.406  1.00  0.00     0.173 A 
ATOM     65  F   UNL A   1      35.778  33.911  27.792  1.00  0.00    -0.203 F 
ATOM     66  C   UNL A   1      34.226  34.811  29.263  1.00  0.00     0.198 A 
ATOM     67  C   UNL A   1      34.448  34.528  31.611  1.00  0.00     0.198 A 
ATOM     68  F   UNL A   1      36.078  33.120  32.479  1.00  0.00    -0.203 F 
ATOM     69  F   UNL A   1      33.538  35.261  28.205  1.00  0.00    -0.200 F 
ATOM     70  C   UNL A   1      33.769  35.067  30.539  1.00  0.00     0.200 A 
ATOM     71  F   UNL A   1      34.002  34.739  32.859  1.00  0.00    -0.200 F 
ATOM     72  F   UNL A   1      32.664  35.799  30.732  1.00  0.00    -0.200 F 
ENDBRANCH  48  62
BRANCH  49  73
ATOM     73  C   UNL A   1      44.699  28.997  29.293  1.00  0.00     0.064 A 
ATOM     74  C   UNL A   1      45.445  27.982  29.925  1.00  0.00     0.173 A 
ATOM     75  C   UNL A   1      44.230  28.754  27.999  1.00  0.00     0.173 A 
ATOM     76  F   UNL A   1      45.939  28.181  31.158  1.00  0.00    -0.203 F 
ATOM     77  C   UNL A   1      45.530  26.710  29.372  1.00  0.00     0.198 A 
ATOM     78  C   UNL A   1      44.357  27.488  27.430  1.00  0.00     0.198 A 
ATOM     79  F   UNL A   1      43.525  29.687  27.343  1.00  0.00    -0.203 F 
ATOM     80  F   UNL A   1      46.077  25.710  30.077  1.00  0.00    -0.200 F 
ATOM     81  C   UNL A   1      44.947  26.455  28.142  1.00  0.00     0.200 A 
ATOM     82  F   UNL A   1      43.810  27.245  26.231  1.00  0.00    -0.200 F 
ATOM     83  F   UNL A   1      44.906  25.200  27.671  1.00  0.00    -0.200 F 
ENDBRANCH  49  73
BRANCH  61  84
ATOM     84  C   UNL A   1      42.415  35.886  29.276  1.00  0.00     0.064 A 
ATOM     85  C   UNL A   1      41.872  36.295  28.046  1.00  0.00     0.173 A 
ATOM     86  C   UNL A   1      43.240  36.833  29.923  1.00  0.00     0.173 A 
ATOM     87  F   UNL A   1      41.176  35.440  27.282  1.00  0.00    -0.203 F 
ATOM     88  C   UNL A   1      42.053  37.588  27.551  1.00  0.00     0.198 A 
ATOM     89  C   UNL A   1      43.466  38.105  29.398  1.00  0.00     0.198 A 
ATOM     90  F   UNL A   1      43.837  36.564  31.091  1.00  0.00    -0.203 F 
ATOM     91  F   UNL A   1      41.449  37.953  26.411  1.00  0.00    -0.200 F 
ATOM     92  C   UNL A   1      42.852  38.492  28.225  1.00  0.00     0.200 A 
ATOM     93  F   UNL A   1      44.277  38.954  30.045  1.00  0.00    -0.200 F 
ATOM     94  F   UNL A   1      43.033  39.729  27.745  1.00  0.00    -0.200 F 
ENDBRANCH  61  84
ENDBRANCH  35  36
ENDBRANCH  27  30
ENDBRANCH  25  26
ENDBRANCH  24  25
ENDBRANCH   1  24
TORSDOF 13
ENDMDL
MODEL 2
REMARK VINA RESULT:     -13.6      3.892      9.969
REMARK SMILES Cc1ccc(S(=O)(=O)Nc2ccccn2)cc1C(=O)NCCCNC(=O)c1ccc(-c2c3nc(c(-c4c(F)c(F)c(F)c(F)c4F)c4ccc([nH]4)c(-c4c(F)c(F)c(F)c(F)c4F)c4nc(c(-c5c(F)c(F)c(F)c(F)c5F)c5ccc2[nH]5)C=C4)C=C3)cc1
REMARK SMILES IDX 21 1 20 2 18 3 19 4 17 6 1 7 2 8 3 9 4 10 16 11 5 12 6 13
REMARK SMILES IDX 7 14 8 15 9 16 10 18 11 19 15 20 12 21 14 22 13 23 22 24
REMARK SMILES IDX 23 25 24 26 25 27 26 29 27 30 28 31 89 32 29 33 88 34 30 35
REMARK SMILES IDX 31 36 32 37 82 38 33 39 87 40 81 41 83 42 34 43 86 44 80 45
REMARK SMILES IDX 79 46 35 48 67 49 47 50 66 51 48 52 51 53 65 54 84 55 49 56
REMARK SMILES IDX 50 57 64 59 85 60 52 61 36 62 37 63 45 64 38 65 39 66 43 67
REMARK SMILES IDX 46 68 40 69 41 70 44 71 42 72 68 73 69 74 77 75 70 76 71 77
REMARK SMILES IDX 75 78 78 79 72 80 73 81 76 82 74 83 53 84 54 85 62 86 55 87
REMARK SMILES IDX 56 88 60 89 63 90 57 91 58 92 61 93 59 94
REMARK H PARENT 20 5 9 17 24 28 83 47 51 58
REMARK Flexibility Score: inf
ROOT
ATOM      1  C   UNL A   1      31.549  31.148  26.276  1.00  0.00     0.118 C 
ENDROOT
BRANCH   1   2
ATOM      2  N   UNL A   1      31.038  30.414  25.133  1.00  0.00    -0.352 N 
ATOM      3  C   UNL A   1      31.166  29.161  24.602  1.00  0.00     0.251 C 
ATOM      4  O   UNL A   1      30.478  29.005  23.584  1.00  0.00    -0.269 OA
ATOM      5  H   UNL A   1      30.432  30.971  24.592  1.00  0.00     0.163 HD
BRANCH   3   6
ATOM      6  C   UNL A   1      31.987  27.978  25.077  1.00  0.00     0.044 A 
ATOM      7  C   UNL A   1      34.209  28.251  23.774  1.00  0.00     0.045 C 
ATOM      8  C   UNL A   1      33.306  27.592  24.759  1.00  0.00    -0.038 A 
ATOM      9  C   UNL A   1      33.839  26.394  25.292  1.00  0.00     0.005 A 
ATOM     10  C   UNL A   1      33.035  25.474  25.942  1.00  0.00     0.022 A 
ATOM     11  C   UNL A   1      31.212  27.040  25.816  1.00  0.00     0.036 A 
ATOM     12  C   UNL A   1      31.691  25.765  26.130  1.00  0.00     0.088 A 
BRANCH  12  13
ATOM     13  S   UNL A   1      30.659  24.359  26.510  1.00  0.00     0.263 S 
ATOM     14  O   UNL A   1      31.405  23.587  27.492  1.00  0.00    -0.201 OA
ATOM     15  O   UNL A   1      29.358  24.895  26.832  1.00  0.00    -0.201 OA
BRANCH  13  16
ATOM     16  N   UNL A   1      30.443  23.428  25.169  1.00  0.00    -0.263 N 
ATOM     17  H   UNL A   1      29.639  22.861  25.140  1.00  0.00     0.182 HD
BRANCH  16  18
ATOM     18  C   UNL A   1      31.302  23.373  24.069  1.00  0.00     0.139 A 
ATOM     19  C   UNL A   1      32.225  22.377  23.794  1.00  0.00     0.048 A 
ATOM     20  N   UNL A   1      31.147  24.487  23.331  1.00  0.00    -0.239 NA
ATOM     21  C   UNL A   1      33.117  22.598  22.747  1.00  0.00     0.005 A 
ATOM     22  C   UNL A   1      32.012  24.662  22.310  1.00  0.00     0.113 A 
ATOM     23  C   UNL A   1      33.018  23.767  21.996  1.00  0.00     0.020 A 
ENDBRANCH  16  18
ENDBRANCH  13  16
ENDBRANCH  12  13
ENDBRANCH   3   6
ENDBRANCH   1   2
BRANCH   1  24
ATOM     24  C   UNL A   1      33.050  30.907  26.449  1.00  0.00     0.042 C 
BRANCH  24  25
ATOM     25  C   UNL A   1      33.491  30.444  27.824  1.00  0.00     0.118 C 
BRANCH  25  26
ATOM     26  N   UNL A   1      34.271  31.440  28.560  1.00  0.00    -0.352 N 
ATOM     27  C   UNL A   1      35.525  31.283  29.129  1.00  0.00     0.251 C 
ATOM     28  H   UNL A   1      33.857  32.327  28.661  1.00  0.00     0.163 HD
ATOM     29  O   UNL A   1      36.090  32.203  29.703  1.00  0.00    -0.269 OA
BRANCH  27  30
ATOM     30  C   UNL A   1      36.214  29.995  28.901  1.00  0.00     0.039 A 
ATOM     31  C   UNL A   1      36.692  29.333  30.033  1.00  0.00     0.014 A 
ATOM     32  C   UNL A   1      36.718  29.717  27.633  1.00  0.00     0.014 A 
ATOM     33  C   UNL A   1      37.875  28.611  29.934  1.00  0.00     0.010 A 
ATOM     34  C   UNL A   1      37.944  29.087  27.553  1.00  0.00     0.010 A 
ATOM     35  C   UNL A   1      38.558  28.605  28.718  1.00  0.00    -0.014 A 
BRANCH  35  36
ATOM     36  C   UNL A   1      39.944  28.166  28.599  1.00  0.00     0.031 A 
ATOM     37  C   UNL A   1      40.229  26.748  28.315  1.00  0.00     0.074 A 
ATOM     38  C   UNL A   1      40.975  29.030  28.749  1.00  0.00     0.049 A 
ATOM     39  N   UNL A   1      41.307  26.141  28.680  1.00  0.00    -0.248 NA
ATOM     40  C   UNL A   1      39.280  25.883  27.631  1.00  0.00     0.031 C 
ATOM     41  C   UNL A   1      42.385  28.766  28.474  1.00  0.00     0.029 A 
ATOM     42  N   UNL A   1      40.975  30.282  29.386  1.00  0.00    -0.354 N 
ATOM     43  C   UNL A   1      41.319  24.907  28.077  1.00  0.00     0.074 A 
ATOM     44  C   UNL A   1      40.008  24.773  27.482  1.00  0.00     0.031 C 
ATOM     45  C   UNL A   1      43.133  29.614  29.194  1.00  0.00     0.029 A 
ATOM     46  C   UNL A   1      42.237  30.382  30.033  1.00  0.00     0.049 A 
ATOM     47  H   UNL A   1      40.253  30.950  29.385  1.00  0.00     0.167 HD
ATOM     48  C   UNL A   1      42.478  24.188  28.052  1.00  0.00     0.037 A 
ATOM     49  C   UNL A   1      42.327  30.516  31.389  1.00  0.00     0.037 A 
ATOM     50  C   UNL A   1      43.552  24.866  28.779  1.00  0.00     0.049 A 
ATOM     51  C   UNL A   1      43.016  29.364  32.087  1.00  0.00     0.074 A 
ATOM     52  C   UNL A   1      44.629  25.652  28.404  1.00  0.00     0.029 A 
ATOM     53  N   UNL A   1      43.433  25.024  30.150  1.00  0.00    -0.354 N 
ATOM     54  N   UNL A   1      43.535  28.333  31.480  1.00  0.00    -0.248 NA
ATOM     55  C   UNL A   1      43.057  29.234  33.544  1.00  0.00     0.031 C 
ATOM     56  C   UNL A   1      45.164  26.270  29.571  1.00  0.00     0.029 A 
ATOM     57  C   UNL A   1      44.413  25.857  30.657  1.00  0.00     0.049 A 
ATOM     58  H   UNL A   1      42.736  24.594  30.696  1.00  0.00     0.167 HD
ATOM     59  C   UNL A   1      43.902  27.398  32.412  1.00  0.00     0.074 A 
ATOM     60  C   UNL A   1      43.577  28.005  33.690  1.00  0.00     0.031 C 
ATOM     61  C   UNL A   1      44.401  26.172  32.075  1.00  0.00     0.037 A 
BRANCH  48  62
ATOM     62  C   UNL A   1      42.700  22.992  27.153  1.00  0.00     0.064 A 
ATOM     63  C   UNL A   1      42.078  21.756  27.428  1.00  0.00     0.173 A 
ATOM     64  C   UNL A   1      43.558  22.979  26.037  1.00  0.00     0.173 A 
ATOM     65  F   UNL A   1      41.138  21.640  28.374  1.00  0.00    -0.203 F 
ATOM     66  C   UNL A   1      42.399  20.583  26.739  1.00  0.00     0.198 A 
ATOM     67  C   UNL A   1      43.932  21.797  25.390  1.00  0.00     0.198 A 
ATOM     68  F   UNL A   1      44.012  24.116  25.495  1.00  0.00    -0.203 F 
ATOM     69  F   UNL A   1      41.779  19.437  27.052  1.00  0.00    -0.200 F 
ATOM     70  C   UNL A   1      43.362  20.594  25.751  1.00  0.00     0.200 A 
ATOM     71  F   UNL A   1      44.847  21.835  24.410  1.00  0.00    -0.200 F 
ATOM     72  F   UNL A   1      43.715  19.461  25.131  1.00  0.00    -0.200 F 
ENDBRANCH  48  62
BRANCH  49  73
ATOM     73  C   UNL A   1      41.200  31.312  31.939  1.00  0.00     0.064 A 
ATOM     74  C   UNL A   1      40.159  30.602  32.570  1.00  0.00     0.173 A 
ATOM     75  C   UNL A   1      41.363  32.661  32.266  1.00  0.00     0.173 A 
ATOM     76  F   UNL A   1      39.947  29.311  32.267  1.00  0.00    -0.203 F 
ATOM     77  C   UNL A   1      39.457  31.160  33.632  1.00  0.00     0.198 A 
ATOM     78  C   UNL A   1      40.624  33.229  33.303  1.00  0.00     0.198 A 
ATOM     79  F   UNL A   1      42.329  33.391  31.689  1.00  0.00    -0.203 F 
ATOM     80  F   UNL A   1      38.607  30.404  34.341  1.00  0.00    -0.200 F 
ATOM     81  C   UNL A   1      39.722  32.460  34.024  1.00  0.00     0.200 A 
ATOM     82  F   UNL A   1      40.867  34.494  33.671  1.00  0.00    -0.200 F 
ATOM     83  F   UNL A   1      39.149  32.953  35.132  1.00  0.00    -0.200 F 
ENDBRANCH  49  73
BRANCH  61  84
ATOM     84  C   UNL A   1      44.882  25.164  33.087  1.00  0.00     0.064 A 
ATOM     85  C   UNL A   1      44.014  24.528  33.991  1.00  0.00     0.173 A 
ATOM     86  C   UNL A   1      46.254  24.870  33.251  1.00  0.00     0.173 A 
ATOM     87  F   UNL A   1      42.706  24.823  34.014  1.00  0.00    -0.203 F 
ATOM     88  C   UNL A   1      44.470  23.588  34.918  1.00  0.00     0.198 A 
ATOM     89  C   UNL A   1      46.713  23.975  34.216  1.00  0.00     0.198 A 
ATOM     90  F   UNL A   1      47.191  25.425  32.470  1.00  0.00    -0.203 F 
ATOM     91  F   UNL A   1      43.591  22.952  35.704  1.00  0.00    -0.200 F 
ATOM     92  C   UNL A   1      45.819  23.313  35.033  1.00  0.00     0.200 A 
ATOM     93  F   UNL A   1      48.030  23.751  34.340  1.00  0.00    -0.200 F 
ATOM     94  F   UNL A   1      46.257  22.420  35.928  1.00  0.00    -0.200 F 
ENDBRANCH  61  84
ENDBRANCH  35  36
ENDBRANCH  27  30
ENDBRANCH  25  26
ENDBRANCH  24  25
ENDBRANCH   1  24
TORSDOF 13
ENDMDL
MODEL 3
REMARK VINA RESULT:     -13.5      1.401      2.029
REMARK SMILES Cc1ccc(S(=O)(=O)Nc2ccccn2)cc1C(=O)NCCCNC(=O)c1ccc(-c2c3nc(c(-c4c(F)c(F)c(F)c(F)c4F)c4ccc([nH]4)c(-c4c(F)c(F)c(F)c(F)c4F)c4nc(c(-c5c(F)c(F)c(F)c(F)c5F)c5ccc2[nH]5)C=C4)C=C3)cc1
REMARK SMILES IDX 21 1 20 2 18 3 19 4 17 6 1 7 2 8 3 9 4 10 16 11 5 12 6 13
REMARK SMILES IDX 7 14 8 15 9 16 10 18 11 19 15 20 12 21 14 22 13 23 22 24
REMARK SMILES IDX 23 25 24 26 25 27 26 29 27 30 28 31 89 32 29 33 88 34 30 35
REMARK SMILES IDX 31 36 32 37 82 38 33 39 87 40 81 41 83 42 34 43 86 44 80 45
REMARK SMILES IDX 79 46 35 48 67 49 47 50 66 51 48 52 51 53 65 54 84 55 49 56
REMARK SMILES IDX 50 57 64 59 85 60 52 61 36 62 37 63 45 64 38 65 39 66 43 67
REMARK SMILES IDX 46 68 40 69 41 70 44 71 42 72 68 73 69 74 77 75 70 76 71 77
REMARK SMILES IDX 75 78 78 79 72 80 73 81 76 82 74 83 53 84 54 85 62 86 55 87
REMARK SMILES IDX 56 88 60 89 63 90 57 91 58 92 61 93 59 94
REMARK H PARENT 20 5 9 17 24 28 83 47 51 58
REMARK Flexibility Score: inf
ROOT
ATOM      1  C   UNL A   1      37.185  22.528  25.232  1.00  0.00     0.118 C 
ENDROOT
BRANCH   1   2
ATOM      2  N   UNL A   1      36.197  22.136  26.221  1.00  0.00    -0.352 N 
ATOM      3  C   UNL A   1      34.883  21.758  26.238  1.00  0.00     0.251 C 
ATOM      4  O   UNL A   1      34.482  21.490  27.378  1.00  0.00    -0.269 OA
ATOM      5  H   UNL A   1      36.578  22.144  27.129  1.00  0.00     0.163 HD
BRANCH   3   6
ATOM      6  C   UNL A   1      33.896  21.610  25.097  1.00  0.00     0.044 A 
ATOM      7  C   UNL A   1      33.678  19.041  24.845  1.00  0.00     0.045 C 
ATOM      8  C   UNL A   1      33.341  20.454  24.509  1.00  0.00    -0.038 A 
ATOM      9  C   UNL A   1      32.474  20.574  23.398  1.00  0.00     0.005 A 
ATOM     10  C   UNL A   1      32.321  21.776  22.729  1.00  0.00     0.022 A 
ATOM     11  C   UNL A   1      33.653  22.842  24.426  1.00  0.00     0.036 A 
ATOM     12  C   UNL A   1      32.984  22.899  23.199  1.00  0.00     0.088 A 
BRANCH  12  13
ATOM     13  S   UNL A   1      33.130  24.238  22.027  1.00  0.00     0.263 S 
ATOM     14  O   UNL A   1      34.128  25.135  22.589  1.00  0.00    -0.201 OA
ATOM     15  O   UNL A   1      33.341  23.620  20.740  1.00  0.00    -0.201 OA
BRANCH  13  16
ATOM     16  N   UNL A   1      31.704  25.052  21.908  1.00  0.00    -0.263 N 
ATOM     17  H   UNL A   1      31.063  24.739  21.231  1.00  0.00     0.182 HD
BRANCH  16  18
ATOM     18  C   UNL A   1      31.326  26.149  22.685  1.00  0.00     0.139 A 
ATOM     19  C   UNL A   1      31.208  26.181  24.065  1.00  0.00     0.048 A 
ATOM     20  N   UNL A   1      31.019  27.180  21.876  1.00  0.00    -0.239 NA
ATOM     21  C   UNL A   1      30.637  27.316  24.636  1.00  0.00     0.005 A 
ATOM     22  C   UNL A   1      30.489  28.273  22.461  1.00  0.00     0.113 A 
ATOM     23  C   UNL A   1      30.259  28.379  23.821  1.00  0.00     0.020 A 
ENDBRANCH  16  18
ENDBRANCH  13  16
ENDBRANCH  12  13
ENDBRANCH   3   6
ENDBRANCH   1   2
BRANCH   1  24
ATOM     24  C   UNL A   1      38.547  21.910  25.551  1.00  0.00     0.042 C 
BRANCH  24  25
ATOM     25  C   UNL A   1      39.305  22.539  26.704  1.00  0.00     0.118 C 
BRANCH  25  26
ATOM     26  N   UNL A   1      40.699  22.853  26.392  1.00  0.00    -0.352 N 
ATOM     27  C   UNL A   1      41.273  24.105  26.240  1.00  0.00     0.251 C 
ATOM     28  H   UNL A   1      41.302  22.084  26.278  1.00  0.00     0.163 HD
ATOM     29  O   UNL A   1      42.465  24.242  26.002  1.00  0.00    -0.269 OA
BRANCH  27  30
ATOM     30  C   UNL A   1      40.415  25.278  26.509  1.00  0.00     0.039 A 
ATOM     31  C   UNL A   1      40.881  26.512  26.050  1.00  0.00     0.014 A 
ATOM     32  C   UNL A   1      39.460  25.196  27.518  1.00  0.00     0.014 A 
ATOM     33  C   UNL A   1      40.611  27.649  26.801  1.00  0.00     0.010 A 
ATOM     34  C   UNL A   1      39.276  26.305  28.321  1.00  0.00     0.010 A 
ATOM     35  C   UNL A   1      39.917  27.510  28.004  1.00  0.00    -0.014 A 
BRANCH  35  36
ATOM     36  C   UNL A   1      39.873  28.565  29.009  1.00  0.00     0.031 A 
ATOM     37  C   UNL A   1      38.866  29.635  28.887  1.00  0.00     0.074 A 
ATOM     38  C   UNL A   1      40.739  28.589  30.049  1.00  0.00     0.049 A 
ATOM     39  N   UNL A   1      39.021  30.829  29.349  1.00  0.00    -0.248 NA
ATOM     40  C   UNL A   1      37.608  29.445  28.181  1.00  0.00     0.031 C 
ATOM     41  C   UNL A   1      40.685  29.470  31.213  1.00  0.00     0.029 A 
ATOM     42  N   UNL A   1      41.981  27.943  30.162  1.00  0.00    -0.354 N 
ATOM     43  C   UNL A   1      37.819  31.484  29.234  1.00  0.00     0.074 A 
ATOM     44  C   UNL A   1      36.988  30.598  28.449  1.00  0.00     0.031 C 
ATOM     45  C   UNL A   1      41.915  29.572  31.737  1.00  0.00     0.029 A 
ATOM     46  C   UNL A   1      42.819  28.845  30.870  1.00  0.00     0.049 A 
ATOM     47  H   UNL A   1      42.220  27.050  29.822  1.00  0.00     0.167 HD
ATOM     48  C   UNL A   1      37.626  32.649  29.916  1.00  0.00     0.037 A 
ATOM     49  C   UNL A   1      43.960  29.341  30.306  1.00  0.00     0.037 A 
ATOM     50  C   UNL A   1      38.833  33.062  30.636  1.00  0.00     0.049 A 
ATOM     51  C   UNL A   1      43.955  30.840  30.103  1.00  0.00     0.074 A 
ATOM     52  C   UNL A   1      39.260  32.957  31.950  1.00  0.00     0.029 A 
ATOM     53  N   UNL A   1      39.951  33.428  29.906  1.00  0.00    -0.354 N 
ATOM     54  N   UNL A   1      42.986  31.635  30.462  1.00  0.00    -0.248 NA
ATOM     55  C   UNL A   1      45.003  31.539  29.357  1.00  0.00     0.031 C 
ATOM     56  C   UNL A   1      40.646  33.283  31.999  1.00  0.00     0.029 A 
ATOM     57  C   UNL A   1      41.061  33.587  30.716  1.00  0.00     0.049 A 
ATOM     58  H   UNL A   1      39.956  33.559  28.931  1.00  0.00     0.167 HD
ATOM     59  C   UNL A   1      43.220  32.889  29.961  1.00  0.00     0.074 A 
ATOM     60  C   UNL A   1      44.492  32.777  29.271  1.00  0.00     0.031 C 
ATOM     61  C   UNL A   1      42.335  33.919  30.101  1.00  0.00     0.037 A 
BRANCH  48  62
ATOM     62  C   UNL A   1      36.268  33.278  30.131  1.00  0.00     0.064 A 
ATOM     63  C   UNL A   1      35.573  33.881  29.062  1.00  0.00     0.173 A 
ATOM     64  C   UNL A   1      35.617  33.369  31.376  1.00  0.00     0.173 A 
ATOM     65  F   UNL A   1      35.998  33.765  27.797  1.00  0.00    -0.203 F 
ATOM     66  C   UNL A   1      34.410  34.633  29.249  1.00  0.00     0.198 A 
ATOM     67  C   UNL A   1      34.492  34.175  31.578  1.00  0.00     0.198 A 
ATOM     68  F   UNL A   1      36.009  32.632  32.423  1.00  0.00    -0.203 F 
ATOM     69  F   UNL A   1      33.800  35.189  28.193  1.00  0.00    -0.200 F 
ATOM     70  C   UNL A   1      33.896  34.820  30.516  1.00  0.00     0.200 A 
ATOM     71  F   UNL A   1      33.990  34.319  32.814  1.00  0.00    -0.200 F 
ATOM     72  F   UNL A   1      32.817  35.589  30.705  1.00  0.00    -0.200 F 
ENDBRANCH  48  62
BRANCH  49  73
ATOM     73  C   UNL A   1      44.608  28.348  29.412  1.00  0.00     0.064 A 
ATOM     74  C   UNL A   1      45.274  27.268  30.025  1.00  0.00     0.173 A 
ATOM     75  C   UNL A   1      44.191  28.191  28.087  1.00  0.00     0.173 A 
ATOM     76  F   UNL A   1      45.717  27.383  31.288  1.00  0.00    -0.203 F 
ATOM     77  C   UNL A   1      45.327  26.022  29.412  1.00  0.00     0.198 A 
ATOM     78  C   UNL A   1      44.287  26.950  27.461  1.00  0.00     0.198 A 
ATOM     79  F   UNL A   1      43.564  29.189  27.448  1.00  0.00    -0.203 F 
ATOM     80  F   UNL A   1      45.792  24.963  30.090  1.00  0.00    -0.200 F 
ATOM     81  C   UNL A   1      44.793  25.855  28.146  1.00  0.00     0.200 A 
ATOM     82  F   UNL A   1      43.787  26.793  26.227  1.00  0.00    -0.200 F 
ATOM     83  F   UNL A   1      44.717  24.629  27.610  1.00  0.00    -0.200 F 
ENDBRANCH  49  73
BRANCH  61  84
ATOM     84  C   UNL A   1      42.612  35.322  29.625  1.00  0.00     0.064 A 
ATOM     85  C   UNL A   1      43.404  36.225  30.355  1.00  0.00     0.173 A 
ATOM     86  C   UNL A   1      42.010  35.846  28.459  1.00  0.00     0.173 A 
ATOM     87  F   UNL A   1      43.925  35.881  31.542  1.00  0.00    -0.203 F 
ATOM     88  C   UNL A   1      43.661  37.520  29.899  1.00  0.00     0.198 A 
ATOM     89  C   UNL A   1      42.222  37.157  28.036  1.00  0.00     0.198 A 
ATOM     90  F   UNL A   1      41.213  35.099  27.683  1.00  0.00    -0.203 F 
ATOM     91  F   UNL A   1      44.487  38.316  30.593  1.00  0.00    -0.200 F 
ATOM     92  C   UNL A   1      43.069  37.987  28.742  1.00  0.00     0.200 A 
ATOM     93  F   UNL A   1      41.606  37.606  26.933  1.00  0.00    -0.200 F 
ATOM     94  F   UNL A   1      43.307  39.231  28.310  1.00  0.00    -0.200 F 
ENDBRANCH  61  84
ENDBRANCH  35  36
ENDBRANCH  27  30
ENDBRANCH  25  26
ENDBRANCH  24  25
ENDBRANCH   1  24
TORSDOF 13
ENDMDL
