MODEL 1
REMARK VINA RESULT:     -12.6      0.000      0.000
REMARK SMILES CCc1cc(OCC(=O)NCCCNC(=O)c2ccc(-c3c4nc(c(-c5c(F)c(F)c(F)c(F)c5F)c5ccc([nH]5)c(-c5c(F)c(F)c(F)c(F)c5F)c5nc(c(-c6c(F)c(F)c(F)c(F)c6F)c6ccc3[nH]6)C=C5)C=C4)cc2)nc(Nc2ccc(C)c(F)c2)n1
REMARK SMILES IDX 11 1 10 2 8 3 9 4 7 6 6 7 5 8 3 9 4 10 91 11 81 12 80 13
REMARK SMILES IDX 2 14 1 15 82 16 83 18 84 19 90 20 85 21 88 22 86 23 89 24
REMARK SMILES IDX 87 25 12 26 13 27 14 28 15 29 16 31 17 32 18 33 79 34 19 35
REMARK SMILES IDX 78 36 20 37 21 38 22 39 72 40 23 41 77 42 71 43 73 44 24 45
REMARK SMILES IDX 76 46 70 47 69 48 25 50 57 51 37 52 56 53 38 54 41 55 55 56
REMARK SMILES IDX 74 57 39 58 40 59 54 61 75 62 42 63 26 64 27 65 35 66 28 67
REMARK SMILES IDX 29 68 33 69 36 70 30 71 31 72 34 73 32 74 58 75 59 76 67 77
REMARK SMILES IDX 60 78 61 79 65 80 68 81 62 82 63 83 66 84 64 85 43 86 44 87
REMARK SMILES IDX 52 88 45 89 46 90 50 91 53 92 47 93 48 94 51 95 49 96
REMARK H PARENT 10 5 82 17 14 30 73 49 41 60
REMARK Flexibility Score: inf
ROOT
ATOM      1  C   UNL A   1      31.893  30.369  26.884  1.00  0.00     0.117 C 
ENDROOT
BRANCH   1   2
ATOM      2  N   UNL A   1      33.165  30.033  27.495  1.00  0.00    -0.353 N 
ATOM      3  C   UNL A   1      34.135  29.196  27.031  1.00  0.00     0.258 C 
ATOM      4  O   UNL A   1      35.160  29.048  27.700  1.00  0.00    -0.271 OA
ATOM      5  H   UNL A   1      33.352  30.466  28.359  1.00  0.00     0.163 HD
BRANCH   3   6
ATOM      6  C   UNL A   1      33.943  28.470  25.694  1.00  0.00     0.331 C 
BRANCH   6   7
ATOM      7  O   UNL A   1      33.952  27.054  25.742  1.00  0.00    -0.467 OA
BRANCH   7   8
ATOM      8  C   UNL A   1      33.530  26.366  24.639  1.00  0.00     0.218 A 
ATOM      9  C   UNL A   1      33.378  24.547  23.167  1.00  0.00     0.050 A 
ATOM     10  C   UNL A   1      33.985  25.121  24.259  1.00  0.00     0.092 A 
ATOM     11  N   UNL A   1      32.408  25.193  22.495  1.00  0.00    -0.218 NA
ATOM     12  C   UNL A   1      32.064  26.429  22.882  1.00  0.00     0.230 A 
ATOM     13  N   UNL A   1      32.596  27.040  23.946  1.00  0.00    -0.177 NA
BRANCH   9  14
ATOM     14  C   UNL A   1      33.726  23.184  22.626  1.00  0.00     0.053 C 
ATOM     15  C   UNL A   1      32.582  22.194  22.459  1.00  0.00     0.011 C 
ENDBRANCH   9  14
BRANCH  12  16
ATOM     16  N   UNL A   1      31.173  27.164  22.101  1.00  0.00    -0.324 N 
ATOM     17  H   UNL A   1      31.169  26.955  21.139  1.00  0.00     0.170 HD
BRANCH  16  18
ATOM     18  C   UNL A   1      30.283  28.160  22.516  1.00  0.00     0.044 A 
ATOM     19  C   UNL A   1      30.626  29.510  22.369  1.00  0.00     0.026 A 
ATOM     20  C   UNL A   1      28.995  27.848  22.962  1.00  0.00     0.065 A 
ATOM     21  C   UNL A   1      29.697  30.522  22.645  1.00  0.00     0.008 A 
ATOM     22  C   UNL A   1      28.082  28.855  23.258  1.00  0.00     0.128 A 
ATOM     23  C   UNL A   1      28.410  30.200  23.095  1.00  0.00    -0.015 A 
ATOM     24  F   UNL A   1      26.860  28.509  23.691  1.00  0.00    -0.207 F 
ATOM     25  C   UNL A   1      27.401  31.277  23.346  1.00  0.00     0.047 C 
ENDBRANCH  16  18
ENDBRANCH  12  16
ENDBRANCH   7   8
ENDBRANCH   6   7
ENDBRANCH   3   6
ENDBRANCH   1   2
BRANCH   1  26
ATOM     26  C   UNL A   1      31.640  31.872  26.847  1.00  0.00     0.042 C 
BRANCH  26  27
ATOM     27  C   UNL A   1      32.851  32.723  27.221  1.00  0.00     0.118 C 
BRANCH  27  28
ATOM     28  N   UNL A   1      32.497  34.082  27.616  1.00  0.00    -0.352 N 
ATOM     29  C   UNL A   1      33.023  34.883  28.600  1.00  0.00     0.251 C 
ATOM     30  H   UNL A   1      31.768  34.489  27.095  1.00  0.00     0.163 HD
ATOM     31  O   UNL A   1      32.481  35.948  28.878  1.00  0.00    -0.269 OA
BRANCH  29  32
ATOM     32  C   UNL A   1      34.227  34.459  29.342  1.00  0.00     0.039 A 
ATOM     33  C   UNL A   1      34.077  33.867  30.601  1.00  0.00     0.014 A 
ATOM     34  C   UNL A   1      35.502  34.647  28.805  1.00  0.00     0.014 A 
ATOM     35  C   UNL A   1      35.199  33.383  31.281  1.00  0.00     0.010 A 
ATOM     36  C   UNL A   1      36.609  34.104  29.449  1.00  0.00     0.010 A 
ATOM     37  C   UNL A   1      36.468  33.458  30.688  1.00  0.00    -0.014 A 
BRANCH  37  38
ATOM     38  C   UNL A   1      37.675  32.867  31.324  1.00  0.00     0.031 A 
ATOM     39  C   UNL A   1      38.361  31.699  30.676  1.00  0.00     0.074 A 
ATOM     40  C   UNL A   1      38.071  33.297  32.539  1.00  0.00     0.049 A 
ATOM     41  N   UNL A   1      39.286  30.908  31.157  1.00  0.00    -0.248 NA
ATOM     42  C   UNL A   1      37.926  31.355  29.313  1.00  0.00     0.031 C 
ATOM     43  C   UNL A   1      37.466  34.400  33.287  1.00  0.00     0.029 A 
ATOM     44  N   UNL A   1      39.055  32.830  33.377  1.00  0.00    -0.354 N 
ATOM     45  C   UNL A   1      39.513  29.952  30.175  1.00  0.00     0.074 A 
ATOM     46  C   UNL A   1      38.615  30.246  29.080  1.00  0.00     0.031 C 
ATOM     47  C   UNL A   1      38.083  34.518  34.474  1.00  0.00     0.029 A 
ATOM     48  C   UNL A   1      39.091  33.470  34.593  1.00  0.00     0.049 A 
ATOM     49  H   UNL A   1      39.674  32.106  33.130  1.00  0.00     0.167 HD
ATOM     50  C   UNL A   1      40.398  28.929  30.188  1.00  0.00     0.037 A 
ATOM     51  C   UNL A   1      39.829  33.216  35.692  1.00  0.00     0.037 A 
ATOM     52  C   UNL A   1      41.322  28.671  31.260  1.00  0.00     0.049 A 
ATOM     53  C   UNL A   1      40.810  32.074  35.673  1.00  0.00     0.074 A 
ATOM     54  C   UNL A   1      42.315  27.709  31.327  1.00  0.00     0.029 A 
ATOM     55  N   UNL A   1      41.365  29.377  32.452  1.00  0.00    -0.354 N 
ATOM     56  N   UNL A   1      41.064  31.218  34.714  1.00  0.00    -0.248 NA
ATOM     57  C   UNL A   1      41.609  31.862  36.889  1.00  0.00     0.031 C 
ATOM     58  C   UNL A   1      42.929  27.802  32.579  1.00  0.00     0.029 A 
ATOM     59  C   UNL A   1      42.355  28.858  33.270  1.00  0.00     0.049 A 
ATOM     60  H   UNL A   1      40.780  30.135  32.682  1.00  0.00     0.167 HD
ATOM     61  C   UNL A   1      42.072  30.393  35.194  1.00  0.00     0.074 A 
ATOM     62  C   UNL A   1      42.390  30.853  36.529  1.00  0.00     0.031 C 
ATOM     63  C   UNL A   1      42.681  29.349  34.582  1.00  0.00     0.037 A 
BRANCH  50  64
ATOM     64  C   UNL A   1      40.420  28.001  29.008  1.00  0.00     0.064 A 
ATOM     65  C   UNL A   1      39.647  26.832  28.975  1.00  0.00     0.173 A 
ATOM     66  C   UNL A   1      41.166  28.330  27.866  1.00  0.00     0.173 A 
ATOM     67  F   UNL A   1      38.924  26.470  30.045  1.00  0.00    -0.203 F 
ATOM     68  C   UNL A   1      39.633  26.017  27.847  1.00  0.00     0.198 A 
ATOM     69  C   UNL A   1      41.128  27.527  26.729  1.00  0.00     0.198 A 
ATOM     70  F   UNL A   1      41.915  29.443  27.843  1.00  0.00    -0.203 F 
ATOM     71  F   UNL A   1      38.913  24.886  27.849  1.00  0.00    -0.200 F 
ATOM     72  C   UNL A   1      40.365  26.369  26.722  1.00  0.00     0.200 A 
ATOM     73  F   UNL A   1      41.822  27.877  25.639  1.00  0.00    -0.200 F 
ATOM     74  F   UNL A   1      40.335  25.591  25.631  1.00  0.00    -0.200 F 
ENDBRANCH  50  64
BRANCH  51  75
ATOM     75  C   UNL A   1      39.663  34.049  36.913  1.00  0.00     0.064 A 
ATOM     76  C   UNL A   1      38.837  33.629  37.966  1.00  0.00     0.173 A 
ATOM     77  C   UNL A   1      40.300  35.292  37.042  1.00  0.00     0.173 A 
ATOM     78  F   UNL A   1      38.189  32.457  37.880  1.00  0.00    -0.203 F 
ATOM     79  C   UNL A   1      38.631  34.432  39.085  1.00  0.00     0.198 A 
ATOM     80  C   UNL A   1      40.118  36.081  38.176  1.00  0.00     0.198 A 
ATOM     81  F   UNL A   1      41.104  35.740  36.067  1.00  0.00    -0.203 F 
ATOM     82  F   UNL A   1      37.792  34.031  40.049  1.00  0.00    -0.200 F 
ATOM     83  C   UNL A   1      39.275  35.656  39.191  1.00  0.00     0.200 A 
ATOM     84  F   UNL A   1      40.753  37.256  38.282  1.00  0.00    -0.200 F 
ATOM     85  F   UNL A   1      39.074  36.430  40.266  1.00  0.00    -0.200 F 
ENDBRANCH  51  75
BRANCH  63  86
ATOM     86  C   UNL A   1      43.796  28.663  35.316  1.00  0.00     0.064 A 
ATOM     87  C   UNL A   1      45.133  29.052  35.156  1.00  0.00     0.173 A 
ATOM     88  C   UNL A   1      43.508  27.659  36.253  1.00  0.00     0.173 A 
ATOM     89  F   UNL A   1      45.460  29.998  34.262  1.00  0.00    -0.203 F 
ATOM     90  C   UNL A   1      46.144  28.452  35.902  1.00  0.00     0.198 A 
ATOM     91  C   UNL A   1      44.518  27.081  37.016  1.00  0.00     0.198 A 
ATOM     92  F   UNL A   1      42.243  27.257  36.447  1.00  0.00    -0.203 F 
ATOM     93  F   UNL A   1      47.419  28.816  35.712  1.00  0.00    -0.200 F 
ATOM     94  C   UNL A   1      45.835  27.476  36.838  1.00  0.00     0.200 A 
ATOM     95  F   UNL A   1      44.215  26.150  37.930  1.00  0.00    -0.200 F 
ATOM     96  F   UNL A   1      46.808  26.914  37.568  1.00  0.00    -0.200 F 
ENDBRANCH  63  86
ENDBRANCH  37  38
ENDBRANCH  29  32
ENDBRANCH  27  28
ENDBRANCH  26  27
ENDBRANCH   1  26
TORSDOF 15
ENDMDL
MODEL 2
REMARK VINA RESULT:     -12.5      6.388     11.671
REMARK SMILES CCc1cc(OCC(=O)NCCCNC(=O)c2ccc(-c3c4nc(c(-c5c(F)c(F)c(F)c(F)c5F)c5ccc([nH]5)c(-c5c(F)c(F)c(F)c(F)c5F)c5nc(c(-c6c(F)c(F)c(F)c(F)c6F)c6ccc3[nH]6)C=C5)C=C4)cc2)nc(Nc2ccc(C)c(F)c2)n1
REMARK SMILES IDX 11 1 10 2 8 3 9 4 7 6 6 7 5 8 3 9 4 10 91 11 81 12 80 13
REMARK SMILES IDX 2 14 1 15 82 16 83 18 84 19 90 20 85 21 88 22 86 23 89 24
REMARK SMILES IDX 87 25 12 26 13 27 14 28 15 29 16 31 17 32 18 33 79 34 19 35
REMARK SMILES IDX 78 36 20 37 21 38 22 39 72 40 23 41 77 42 71 43 73 44 24 45
REMARK SMILES IDX 76 46 70 47 69 48 25 50 57 51 37 52 56 53 38 54 41 55 55 56
REMARK SMILES IDX 74 57 39 58 40 59 54 61 75 62 42 63 26 64 27 65 35 66 28 67
REMARK SMILES IDX 29 68 33 69 36 70 30 71 31 72 34 73 32 74 58 75 59 76 67 77
REMARK SMILES IDX 60 78 61 79 65 80 68 81 62 82 63 83 66 84 64 85 43 86 44 87
REMARK SMILES IDX 52 88 45 89 46 90 50 91 53 92 47 93 48 94 51 95 49 96
REMARK H PARENT 10 5 82 17 14 30 73 49 41 60
REMARK Flexibility Score: inf
ROOT
ATOM      1  C   UNL A   1      36.683  20.625  25.334  1.00  0.00     0.117 C 
ENDROOT
BRANCH   1   2
ATOM      2  N   UNL A   1      37.005  21.896  25.953  1.00  0.00    -0.353 N 
ATOM      3  C   UNL A   1      36.945  23.144  25.408  1.00  0.00     0.258 C 
ATOM      4  O   UNL A   1      37.254  24.111  26.108  1.00  0.00    -0.271 OA
ATOM      5  H   UNL A   1      37.308  21.852  26.888  1.00  0.00     0.163 HD
BRANCH   3   6
ATOM      6  C   UNL A   1      36.486  23.324  23.957  1.00  0.00     0.331 C 
BRANCH   6   7
ATOM      7  O   UNL A   1      35.247  23.984  23.767  1.00  0.00    -0.467 OA
BRANCH   7   8
ATOM      8  C   UNL A   1      34.122  23.416  24.298  1.00  0.00     0.218 A 
ATOM      9  C   UNL A   1      32.225  23.276  25.668  1.00  0.00     0.050 A 
ATOM     10  C   UNL A   1      33.376  23.947  25.328  1.00  0.00     0.092 A 
ATOM     11  N   UNL A   1      31.872  22.143  25.037  1.00  0.00    -0.218 NA
ATOM     12  C   UNL A   1      32.682  21.649  24.090  1.00  0.00     0.230 A 
ATOM     13  N   UNL A   1      33.804  22.258  23.692  1.00  0.00    -0.177 NA
BRANCH   9  14
ATOM     14  C   UNL A   1      31.274  23.724  26.748  1.00  0.00     0.053 C 
ATOM     15  C   UNL A   1      29.970  22.952  26.885  1.00  0.00     0.011 C 
ENDBRANCH   9  14
BRANCH  12  16
ATOM     16  N   UNL A   1      32.403  20.399  23.540  1.00  0.00    -0.324 N 
ATOM     17  H   UNL A   1      31.870  20.401  22.712  1.00  0.00     0.170 HD
BRANCH  16  18
ATOM     18  C   UNL A   1      32.787  19.142  24.017  1.00  0.00     0.044 A 
ATOM     19  C   UNL A   1      32.417  18.738  25.306  1.00  0.00     0.026 A 
ATOM     20  C   UNL A   1      33.431  18.214  23.192  1.00  0.00     0.065 A 
ATOM     21  C   UNL A   1      32.668  17.434  25.751  1.00  0.00     0.008 A 
ATOM     22  C   UNL A   1      33.700  16.926  23.645  1.00  0.00     0.128 A 
ATOM     23  C   UNL A   1      33.316  16.512  24.920  1.00  0.00    -0.015 A 
ATOM     24  F   UNL A   1      34.327  16.073  22.821  1.00  0.00    -0.207 F 
ATOM     25  C   UNL A   1      33.544  15.105  25.376  1.00  0.00     0.047 C 
ENDBRANCH  16  18
ENDBRANCH  12  16
ENDBRANCH   7   8
ENDBRANCH   6   7
ENDBRANCH   3   6
ENDBRANCH   1   2
BRANCH   1  26
ATOM     26  C   UNL A   1      37.925  19.823  24.960  1.00  0.00     0.042 C 
BRANCH  26  27
ATOM     27  C   UNL A   1      39.176  20.196  25.752  1.00  0.00     0.118 C 
BRANCH  27  28
ATOM     28  N   UNL A   1      40.171  19.130  25.790  1.00  0.00    -0.352 N 
ATOM     29  C   UNL A   1      41.530  19.193  25.981  1.00  0.00     0.251 C 
ATOM     30  H   UNL A   1      39.812  18.223  25.658  1.00  0.00     0.163 HD
ATOM     31  O   UNL A   1      42.218  18.190  25.825  1.00  0.00    -0.269 OA
BRANCH  29  32
ATOM     32  C   UNL A   1      42.171  20.471  26.354  1.00  0.00     0.039 A 
ATOM     33  C   UNL A   1      42.815  21.222  25.366  1.00  0.00     0.014 A 
ATOM     34  C   UNL A   1      42.143  20.926  27.674  1.00  0.00     0.014 A 
ATOM     35  C   UNL A   1      43.355  22.473  25.684  1.00  0.00     0.010 A 
ATOM     36  C   UNL A   1      42.618  22.199  27.974  1.00  0.00     0.010 A 
ATOM     37  C   UNL A   1      43.220  22.989  26.981  1.00  0.00    -0.014 A 
BRANCH  37  38
ATOM     38  C   UNL A   1      43.685  24.354  27.341  1.00  0.00     0.031 A 
ATOM     39  C   UNL A   1      42.694  25.374  27.825  1.00  0.00     0.074 A 
ATOM     40  C   UNL A   1      44.965  24.708  27.113  1.00  0.00     0.049 A 
ATOM     41  N   UNL A   1      42.843  26.663  27.990  1.00  0.00    -0.248 NA
ATOM     42  C   UNL A   1      41.342  24.882  28.134  1.00  0.00     0.031 C 
ATOM     43  C   UNL A   1      46.015  23.819  26.614  1.00  0.00     0.029 A 
ATOM     44  N   UNL A   1      45.592  25.925  27.235  1.00  0.00    -0.354 N 
ATOM     45  C   UNL A   1      41.599  27.140  28.382  1.00  0.00     0.074 A 
ATOM     46  C   UNL A   1      40.699  26.009  28.409  1.00  0.00     0.031 C 
ATOM     47  C   UNL A   1      47.151  24.520  26.463  1.00  0.00     0.029 A 
ATOM     48  C   UNL A   1      46.898  25.916  26.805  1.00  0.00     0.049 A 
ATOM     49  H   UNL A   1      45.150  26.726  27.596  1.00  0.00     0.167 HD
ATOM     50  C   UNL A   1      41.247  28.409  28.698  1.00  0.00     0.037 A 
ATOM     51  C   UNL A   1      47.780  26.926  26.667  1.00  0.00     0.037 A 
ATOM     52  C   UNL A   1      42.159  29.521  28.714  1.00  0.00     0.049 A 
ATOM     53  C   UNL A   1      47.361  28.325  27.033  1.00  0.00     0.074 A 
ATOM     54  C   UNL A   1      41.915  30.828  29.103  1.00  0.00     0.029 A 
ATOM     55  N   UNL A   1      43.488  29.459  28.326  1.00  0.00    -0.354 N 
ATOM     56  N   UNL A   1      46.201  28.753  27.468  1.00  0.00    -0.248 NA
ATOM     57  C   UNL A   1      48.372  29.382  26.892  1.00  0.00     0.031 C 
ATOM     58  C   UNL A   1      43.084  31.567  28.906  1.00  0.00     0.029 A 
ATOM     59  C   UNL A   1      44.071  30.710  28.446  1.00  0.00     0.049 A 
ATOM     60  H   UNL A   1      43.948  28.648  28.012  1.00  0.00     0.167 HD
ATOM     61  C   UNL A   1      46.353  30.116  27.685  1.00  0.00     0.074 A 
ATOM     62  C   UNL A   1      47.719  30.445  27.341  1.00  0.00     0.031 C 
ATOM     63  C   UNL A   1      45.442  31.014  28.131  1.00  0.00     0.037 A 
BRANCH  50  64
ATOM     64  C   UNL A   1      39.814  28.674  29.054  1.00  0.00     0.064 A 
ATOM     65  C   UNL A   1      39.339  28.524  30.365  1.00  0.00     0.173 A 
ATOM     66  C   UNL A   1      38.923  29.158  28.083  1.00  0.00     0.173 A 
ATOM     67  F   UNL A   1      40.150  28.057  31.326  1.00  0.00    -0.203 F 
ATOM     68  C   UNL A   1      38.022  28.834  30.687  1.00  0.00     0.198 A 
ATOM     69  C   UNL A   1      37.614  29.493  28.415  1.00  0.00     0.198 A 
ATOM     70  F   UNL A   1      39.330  29.326  26.815  1.00  0.00    -0.203 F 
ATOM     71  F   UNL A   1      37.580  28.653  31.940  1.00  0.00    -0.200 F 
ATOM     72  C   UNL A   1      37.163  29.327  29.716  1.00  0.00     0.200 A 
ATOM     73  F   UNL A   1      36.790  29.984  27.479  1.00  0.00    -0.200 F 
ATOM     74  F   UNL A   1      35.900  29.642  30.034  1.00  0.00    -0.200 F 
ENDBRANCH  50  64
BRANCH  51  75
ATOM     75  C   UNL A   1      49.148  26.659  26.147  1.00  0.00     0.064 A 
ATOM     76  C   UNL A   1      49.458  26.868  24.796  1.00  0.00     0.173 A 
ATOM     77  C   UNL A   1      50.162  26.164  26.979  1.00  0.00     0.173 A 
ATOM     78  F   UNL A   1      48.515  27.320  23.955  1.00  0.00    -0.203 F 
ATOM     79  C   UNL A   1      50.720  26.563  24.291  1.00  0.00     0.198 A 
ATOM     80  C   UNL A   1      51.434  25.889  26.479  1.00  0.00     0.198 A 
ATOM     81  F   UNL A   1      49.921  25.950  28.280  1.00  0.00    -0.203 F 
ATOM     82  F   UNL A   1      50.971  26.718  22.984  1.00  0.00    -0.200 F 
ATOM     83  C   UNL A   1      51.709  26.077  25.133  1.00  0.00     0.200 A 
ATOM     84  F   UNL A   1      52.391  25.434  27.299  1.00  0.00    -0.200 F 
ATOM     85  F   UNL A   1      52.921  25.782  24.647  1.00  0.00    -0.200 F 
ENDBRANCH  51  75
BRANCH  63  86
ATOM     86  C   UNL A   1      45.898  32.428  28.335  1.00  0.00     0.064 A 
ATOM     87  C   UNL A   1      46.468  32.852  29.544  1.00  0.00     0.173 A 
ATOM     88  C   UNL A   1      45.837  33.347  27.277  1.00  0.00     0.173 A 
ATOM     89  F   UNL A   1      46.534  32.014  30.590  1.00  0.00    -0.203 F 
ATOM     90  C   UNL A   1      46.951  34.150  29.688  1.00  0.00     0.198 A 
ATOM     91  C   UNL A   1      46.346  34.634  27.415  1.00  0.00     0.198 A 
ATOM     92  F   UNL A   1      45.306  32.986  26.098  1.00  0.00    -0.203 F 
ATOM     93  F   UNL A   1      47.464  34.545  30.861  1.00  0.00    -0.200 F 
ATOM     94  C   UNL A   1      46.900  35.035  28.621  1.00  0.00     0.200 A 
ATOM     95  F   UNL A   1      46.310  35.483  26.379  1.00  0.00    -0.200 F 
ATOM     96  F   UNL A   1      47.385  36.277  28.756  1.00  0.00    -0.200 F 
ENDBRANCH  63  86
ENDBRANCH  37  38
ENDBRANCH  29  32
ENDBRANCH  27  28
ENDBRANCH  26  27
ENDBRANCH   1  26
TORSDOF 15
ENDMDL
MODEL 3
REMARK VINA RESULT:     -12.4      0.756      1.858
REMARK SMILES CCc1cc(OCC(=O)NCCCNC(=O)c2ccc(-c3c4nc(c(-c5c(F)c(F)c(F)c(F)c5F)c5ccc([nH]5)c(-c5c(F)c(F)c(F)c(F)c5F)c5nc(c(-c6c(F)c(F)c(F)c(F)c6F)c6ccc3[nH]6)C=C5)C=C4)cc2)nc(Nc2ccc(C)c(F)c2)n1
REMARK SMILES IDX 11 1 10 2 8 3 9 4 7 6 6 7 5 8 3 9 4 10 91 11 81 12 80 13
REMARK SMILES IDX 2 14 1 15 82 16 83 18 84 19 90 20 85 21 88 22 86 23 89 24
REMARK SMILES IDX 87 25 12 26 13 27 14 28 15 29 16 31 17 32 18 33 79 34 19 35
REMARK SMILES IDX 78 36 20 37 21 38 22 39 72 40 23 41 77 42 71 43 73 44 24 45
REMARK SMILES IDX 76 46 70 47 69 48 25 50 57 51 37 52 56 53 38 54 41 55 55 56
REMARK SMILES IDX 74 57 39 58 40 59 54 61 75 62 42 63 26 64 27 65 35 66 28 67
REMARK SMILES IDX 29 68 33 69 36 70 30 71 31 72 34 73 32 74 58 75 59 76 67 77
REMARK SMILES IDX 60 78 61 79 65 80 68 81 62 82 63 83 66 84 64 85 43 86 44 87
REMARK SMILES IDX 52 88 45 89 46 90 50 91 53 92 47 93 48 94 51 95 49 96
REMARK H PARENT 10 5 82 17 14 30 73 49 41 60
REMARK Flexibility Score: inf
ROOT
ATOM      1  C   UNL A   1      31.907  30.563  25.963  1.00  0.00     0.117 C 
ENDROOT
BRANCH   1   2
ATOM      2  N   UNL A   1      31.403  29.342  26.563  1.00  0.00    -0.353 N 
ATOM      3  C   UNL A   1      32.105  28.258  26.998  1.00  0.00     0.258 C 
ATOM      4  O   UNL A   1      31.488  27.312  27.493  1.00  0.00    -0.271 OA
ATOM      5  H   UNL A   1      30.426  29.290  26.670  1.00  0.00     0.163 HD
BRANCH   3   6
ATOM      6  C   UNL A   1      33.633  28.237  26.876  1.00  0.00     0.331 C 
BRANCH   6   7
ATOM      7  O   UNL A   1      34.157  28.168  25.562  1.00  0.00    -0.467 OA
BRANCH   7   8
ATOM      8  C   UNL A   1      33.648  27.228  24.710  1.00  0.00     0.218 A 
ATOM      9  C   UNL A   1      33.341  25.088  23.803  1.00  0.00     0.050 A 
ATOM     10  C   UNL A   1      34.029  25.904  24.670  1.00  0.00     0.092 A 
ATOM     11  N   UNL A   1      32.365  25.577  23.019  1.00  0.00    -0.218 NA
ATOM     12  C   UNL A   1      32.094  26.889  23.063  1.00  0.00     0.230 A 
ATOM     13  N   UNL A   1      32.707  27.738  23.895  1.00  0.00    -0.177 NA
BRANCH   9  14
ATOM     14  C   UNL A   1      33.602  23.611  23.646  1.00  0.00     0.053 C 
ATOM     15  C   UNL A   1      35.051  23.179  23.478  1.00  0.00     0.011 C 
ENDBRANCH   9  14
BRANCH  12  16
ATOM     16  N   UNL A   1      31.194  27.430  22.146  1.00  0.00    -0.324 N 
ATOM     17  H   UNL A   1      31.283  27.115  21.218  1.00  0.00     0.170 HD
BRANCH  16  18
ATOM     18  C   UNL A   1      30.181  28.365  22.382  1.00  0.00     0.044 A 
ATOM     19  C   UNL A   1      29.052  28.002  23.126  1.00  0.00     0.026 A 
ATOM     20  C   UNL A   1      30.320  29.703  22.000  1.00  0.00     0.065 A 
ATOM     21  C   UNL A   1      28.094  28.957  23.493  1.00  0.00     0.008 A 
ATOM     22  C   UNL A   1      29.356  30.645  22.346  1.00  0.00     0.128 A 
ATOM     23  C   UNL A   1      28.240  30.294  23.103  1.00  0.00    -0.015 A 
ATOM     24  F   UNL A   1      29.528  31.915  21.950  1.00  0.00    -0.207 F 
ATOM     25  C   UNL A   1      27.244  31.325  23.533  1.00  0.00     0.047 C 
ENDBRANCH  16  18
ENDBRANCH  12  16
ENDBRANCH   7   8
ENDBRANCH   6   7
ENDBRANCH   3   6
ENDBRANCH   1   2
BRANCH   1  26
ATOM     26  C   UNL A   1      31.540  31.805  26.767  1.00  0.00     0.042 C 
BRANCH  26  27
ATOM     27  C   UNL A   1      32.738  32.566  27.331  1.00  0.00     0.118 C 
BRANCH  27  28
ATOM     28  N   UNL A   1      32.443  33.964  27.626  1.00  0.00    -0.352 N 
ATOM     29  C   UNL A   1      33.011  34.815  28.543  1.00  0.00     0.251 C 
ATOM     30  H   UNL A   1      31.724  34.359  27.082  1.00  0.00     0.163 HD
ATOM     31  O   UNL A   1      32.515  35.919  28.745  1.00  0.00    -0.269 OA
BRANCH  29  32
ATOM     32  C   UNL A   1      34.207  34.398  29.304  1.00  0.00     0.039 A 
ATOM     33  C   UNL A   1      34.040  33.815  30.565  1.00  0.00     0.014 A 
ATOM     34  C   UNL A   1      35.488  34.587  28.783  1.00  0.00     0.014 A 
ATOM     35  C   UNL A   1      35.154  33.339  31.263  1.00  0.00     0.010 A 
ATOM     36  C   UNL A   1      36.587  34.051  29.446  1.00  0.00     0.010 A 
ATOM     37  C   UNL A   1      36.432  33.413  30.688  1.00  0.00    -0.014 A 
BRANCH  37  38
ATOM     38  C   UNL A   1      37.631  32.830  31.345  1.00  0.00     0.031 A 
ATOM     39  C   UNL A   1      38.330  31.660  30.713  1.00  0.00     0.074 A 
ATOM     40  C   UNL A   1      38.009  33.269  32.562  1.00  0.00     0.049 A 
ATOM     41  N   UNL A   1      39.249  30.875  31.212  1.00  0.00    -0.248 NA
ATOM     42  C   UNL A   1      37.914  31.305  29.347  1.00  0.00     0.031 C 
ATOM     43  C   UNL A   1      37.390  34.375  33.294  1.00  0.00     0.029 A 
ATOM     44  N   UNL A   1      38.982  32.810  33.416  1.00  0.00    -0.354 N 
ATOM     45  C   UNL A   1      39.493  29.913  30.240  1.00  0.00     0.074 A 
ATOM     46  C   UNL A   1      38.609  30.197  29.131  1.00  0.00     0.031 C 
ATOM     47  C   UNL A   1      37.990  34.502  34.489  1.00  0.00     0.029 A 
ATOM     48  C   UNL A   1      39.000  33.457  34.629  1.00  0.00     0.049 A 
ATOM     49  H   UNL A   1      39.607  32.086  33.183  1.00  0.00     0.167 HD
ATOM     50  C   UNL A   1      40.381  28.892  30.272  1.00  0.00     0.037 A 
ATOM     51  C   UNL A   1      39.722  33.213  35.740  1.00  0.00     0.037 A 
ATOM     52  C   UNL A   1      41.290  28.644  31.359  1.00  0.00     0.049 A 
ATOM     53  C   UNL A   1      40.707  32.074  35.742  1.00  0.00     0.074 A 
ATOM     54  C   UNL A   1      42.285  27.685  31.446  1.00  0.00     0.029 A 
ATOM     55  N   UNL A   1      41.314  29.358  32.546  1.00  0.00    -0.354 N 
ATOM     56  N   UNL A   1      40.977  31.213  34.792  1.00  0.00    -0.248 NA
ATOM     57  C   UNL A   1      41.490  31.872  36.970  1.00  0.00     0.031 C 
ATOM     58  C   UNL A   1      42.881  27.789  32.705  1.00  0.00     0.029 A 
ATOM     59  C   UNL A   1      42.295  28.847  33.381  1.00  0.00     0.049 A 
ATOM     60  H   UNL A   1      40.725  30.115  32.764  1.00  0.00     0.167 HD
ATOM     61  C   UNL A   1      41.981  30.394  35.291  1.00  0.00     0.074 A 
ATOM     62  C   UNL A   1      42.278  30.863  36.628  1.00  0.00     0.031 C 
ATOM     63  C   UNL A   1      42.601  29.347  34.695  1.00  0.00     0.037 A 
BRANCH  50  64
ATOM     64  C   UNL A   1      40.421  27.957  29.099  1.00  0.00     0.064 A 
ATOM     65  C   UNL A   1      39.647  26.789  29.059  1.00  0.00     0.173 A 
ATOM     66  C   UNL A   1      41.189  28.277  27.968  1.00  0.00     0.173 A 
ATOM     67  F   UNL A   1      38.904  26.436  30.118  1.00  0.00    -0.203 F 
ATOM     68  C   UNL A   1      39.652  25.967  27.937  1.00  0.00     0.198 A 
ATOM     69  C   UNL A   1      41.169  27.467  26.836  1.00  0.00     0.198 A 
ATOM     70  F   UNL A   1      41.941  29.388  27.952  1.00  0.00    -0.203 F 
ATOM     71  F   UNL A   1      38.929  24.838  27.932  1.00  0.00    -0.200 F 
ATOM     72  C   UNL A   1      40.404  26.310  26.823  1.00  0.00     0.200 A 
ATOM     73  F   UNL A   1      41.885  27.808  25.756  1.00  0.00    -0.200 F 
ATOM     74  F   UNL A   1      40.393  25.526  25.736  1.00  0.00    -0.200 F 
ENDBRANCH  50  64
BRANCH  51  75
ATOM     75  C   UNL A   1      39.537  34.054  36.953  1.00  0.00     0.064 A 
ATOM     76  C   UNL A   1      40.188  35.290  37.079  1.00  0.00     0.173 A 
ATOM     77  C   UNL A   1      38.732  33.630  38.019  1.00  0.00     0.173 A 
ATOM     78  F   UNL A   1      40.986  35.729  36.095  1.00  0.00    -0.203 F 
ATOM     79  C   UNL A   1      40.065  36.053  38.238  1.00  0.00     0.198 A 
ATOM     80  C   UNL A   1      38.585  34.409  39.165  1.00  0.00     0.198 A 
ATOM     81  F   UNL A   1      38.083  32.459  37.949  1.00  0.00    -0.203 F 
ATOM     82  F   UNL A   1      40.744  37.202  38.355  1.00  0.00    -0.200 F 
ATOM     83  C   UNL A   1      39.261  35.615  39.279  1.00  0.00     0.200 A 
ATOM     84  F   UNL A   1      37.795  33.989  40.164  1.00  0.00    -0.200 F 
ATOM     85  F   UNL A   1      39.145  36.348  40.394  1.00  0.00    -0.200 F 
ENDBRANCH  51  75
BRANCH  63  86
ATOM     86  C   UNL A   1      43.707  28.670  35.449  1.00  0.00     0.064 A 
ATOM     87  C   UNL A   1      43.457  27.608  36.331  1.00  0.00     0.173 A 
ATOM     88  C   UNL A   1      45.042  29.037  35.220  1.00  0.00     0.173 A 
ATOM     89  F   UNL A   1      42.197  27.231  36.593  1.00  0.00    -0.203 F 
ATOM     90  C   UNL A   1      44.505  26.946  36.963  1.00  0.00     0.198 A 
ATOM     91  C   UNL A   1      46.088  28.355  35.833  1.00  0.00     0.198 A 
ATOM     92  F   UNL A   1      45.332  30.042  34.379  1.00  0.00    -0.203 F 
ATOM     93  F   UNL A   1      44.245  25.955  37.826  1.00  0.00    -0.200 F 
ATOM     94  C   UNL A   1      45.819  27.312  36.706  1.00  0.00     0.200 A 
ATOM     95  F   UNL A   1      47.356  28.700  35.571  1.00  0.00    -0.200 F 
ATOM     96  F   UNL A   1      46.826  26.659  37.302  1.00  0.00    -0.200 F 
ENDBRANCH  63  86
ENDBRANCH  37  38
ENDBRANCH  29  32
ENDBRANCH  27  28
ENDBRANCH  26  27
ENDBRANCH   1  26
TORSDOF 15
ENDMDL
