MODEL 1
REMARK VINA RESULT:     -13.1      0.000      0.000
REMARK SMILES O=C(NCCCNC(=O)c1cccc([C@@H]2CCC[N@@H+](Cc3cccc(OCCO)c3)C2)c1)c1ccc(-c2c3nc(c(-c4c(F)c(F)c(F)c(F)c4F)c4ccc([nH]4)c(-c4c(F)c(F)c(F)c(F)c4F)c4nc(c(-c5c(F)c(F)c(F)c(F)c5F)c5ccc2[nH]5)C=C4)C=C3)cc1
REMARK SMILES IDX 10 1 11 2 12 3 13 4 14 5 32 6 8 7 7 8 9 10 6 11 5 12 4 13
REMARK SMILES IDX 3 14 1 15 2 16 33 18 34 19 95 20 35 21 94 22 36 23 37 24
REMARK SMILES IDX 38 25 88 26 39 27 93 28 87 29 89 30 40 31 92 32 86 33 85 34
REMARK SMILES IDX 41 36 73 37 53 38 72 39 54 40 57 41 71 42 90 43 55 44 56 45
REMARK SMILES IDX 70 47 91 48 58 49 42 50 43 51 51 52 44 53 45 54 49 55 52 56
REMARK SMILES IDX 46 57 47 58 50 59 48 60 74 61 75 62 83 63 76 64 77 65 81 66
REMARK SMILES IDX 84 67 78 68 79 69 82 70 80 71 59 72 60 73 68 74 61 75 62 76
REMARK SMILES IDX 66 77 69 78 63 79 64 80 67 81 65 82 15 83 16 84 31 85 17 86
REMARK SMILES IDX 19 87 18 88 20 90 21 91 22 92 30 93 23 94 25 95 24 96 26 97
REMARK SMILES IDX 27 98 28 99 29 100
REMARK H PARENT 7 9 3 17 89 35 57 46 19 89 29 101
REMARK Flexibility Score: inf
ROOT
ATOM      1  C   UNL A   1      31.243  27.613  24.181  1.00  0.00     0.040 A 
ATOM      2  C   UNL A   1      29.931  27.161  24.297  1.00  0.00     0.014 A 
ATOM      3  C   UNL A   1      29.680  25.936  24.922  1.00  0.00     0.001 A 
ATOM      4  C   UNL A   1      30.733  25.187  25.464  1.00  0.00     0.004 A 
ATOM      5  C   UNL A   1      32.050  25.657  25.390  1.00  0.00    -0.039 A 
ATOM      6  C   UNL A   1      32.275  26.860  24.732  1.00  0.00     0.018 A 
ENDROOT
BRANCH   1   7
ATOM      7  C   UNL A   1      31.545  28.961  23.656  1.00  0.00     0.251 C 
ATOM      8  N   UNL A   1      31.393  30.068  24.452  1.00  0.00    -0.352 N 
ATOM      9  H   UNL A   1      31.256  30.913  23.968  1.00  0.00     0.163 HD
ATOM     10  O   UNL A   1      31.866  29.104  22.479  1.00  0.00    -0.269 OA
BRANCH   8  11
ATOM     11  C   UNL A   1      31.403  30.188  25.909  1.00  0.00     0.118 C 
BRANCH  11  12
ATOM     12  C   UNL A   1      31.279  31.637  26.334  1.00  0.00     0.042 C 
BRANCH  12  13
ATOM     13  C   UNL A   1      32.570  32.178  26.917  1.00  0.00     0.118 C 
BRANCH  13  14
ATOM     14  N   UNL A   1      32.445  33.563  27.359  1.00  0.00    -0.352 N 
ATOM     15  O   UNL A   1      32.760  35.350  28.700  1.00  0.00    -0.269 OA
ATOM     16  C   UNL A   1      33.148  34.248  28.320  1.00  0.00     0.251 C 
ATOM     17  H   UNL A   1      31.750  34.086  26.897  1.00  0.00     0.163 HD
BRANCH  16  18
ATOM     18  C   UNL A   1      34.355  33.642  28.918  1.00  0.00     0.039 A 
ATOM     19  C   UNL A   1      34.241  32.542  29.768  1.00  0.00     0.014 A 
ATOM     20  C   UNL A   1      35.614  34.174  28.631  1.00  0.00     0.014 A 
ATOM     21  C   UNL A   1      35.341  32.115  30.492  1.00  0.00     0.010 A 
ATOM     22  C   UNL A   1      36.749  33.641  29.251  1.00  0.00     0.010 A 
ATOM     23  C   UNL A   1      36.615  32.628  30.213  1.00  0.00    -0.014 A 
BRANCH  23  24
ATOM     24  C   UNL A   1      37.788  32.013  30.880  1.00  0.00     0.031 A 
ATOM     25  C   UNL A   1      38.178  32.380  32.282  1.00  0.00     0.074 A 
ATOM     26  C   UNL A   1      38.481  31.075  30.204  1.00  0.00     0.049 A 
ATOM     27  N   UNL A   1      39.171  31.925  33.005  1.00  0.00    -0.248 NA
ATOM     28  C   UNL A   1      37.360  33.397  32.961  1.00  0.00     0.031 C 
ATOM     29  C   UNL A   1      38.196  30.648  28.830  1.00  0.00     0.029 A 
ATOM     30  N   UNL A   1      39.543  30.293  30.576  1.00  0.00    -0.354 N 
ATOM     31  C   UNL A   1      39.115  32.616  34.208  1.00  0.00     0.074 A 
ATOM     32  C   UNL A   1      38.002  33.537  34.114  1.00  0.00     0.031 C 
ATOM     33  C   UNL A   1      39.016  29.642  28.499  1.00  0.00     0.029 A 
ATOM     34  C   UNL A   1      39.941  29.412  29.600  1.00  0.00     0.049 A 
ATOM     35  H   UNL A   1      39.977  30.356  31.457  1.00  0.00     0.167 HD
ATOM     36  C   UNL A   1      39.920  32.485  35.290  1.00  0.00     0.037 A 
ATOM     37  C   UNL A   1      40.957  28.532  29.580  1.00  0.00     0.037 A 
ATOM     38  C   UNL A   1      41.010  31.545  35.378  1.00  0.00     0.049 A 
ATOM     39  C   UNL A   1      41.839  28.423  30.786  1.00  0.00     0.074 A 
ATOM     40  C   UNL A   1      41.860  31.307  36.445  1.00  0.00     0.029 A 
ATOM     41  N   UNL A   1      41.406  30.693  34.357  1.00  0.00    -0.354 N 
ATOM     42  N   UNL A   1      41.760  29.064  31.927  1.00  0.00    -0.248 NA
ATOM     43  C   UNL A   1      42.955  27.475  30.702  1.00  0.00     0.031 C 
ATOM     44  C   UNL A   1      42.799  30.348  36.053  1.00  0.00     0.029 A 
ATOM     45  C   UNL A   1      42.502  29.946  34.760  1.00  0.00     0.049 A 
ATOM     46  H   UNL A   1      40.971  30.626  33.476  1.00  0.00     0.167 HD
ATOM     47  C   UNL A   1      42.807  28.590  32.702  1.00  0.00     0.074 A 
ATOM     48  C   UNL A   1      43.491  27.588  31.909  1.00  0.00     0.031 C 
ATOM     49  C   UNL A   1      43.172  28.955  33.955  1.00  0.00     0.037 A 
BRANCH  36  50
ATOM     50  C   UNL A   1      39.673  33.392  36.462  1.00  0.00     0.064 A 
ATOM     51  C   UNL A   1      40.309  34.636  36.583  1.00  0.00     0.173 A 
ATOM     52  C   UNL A   1      38.745  33.032  37.452  1.00  0.00     0.173 A 
ATOM     53  F   UNL A   1      41.213  35.026  35.672  1.00  0.00    -0.203 F 
ATOM     54  C   UNL A   1      40.040  35.476  37.662  1.00  0.00     0.198 A 
ATOM     55  C   UNL A   1      38.457  33.886  38.514  1.00  0.00     0.198 A 
ATOM     56  F   UNL A   1      38.103  31.856  37.381  1.00  0.00    -0.203 F 
ATOM     57  F   UNL A   1      40.688  36.644  37.779  1.00  0.00    -0.200 F 
ATOM     58  C   UNL A   1      39.110  35.105  38.621  1.00  0.00     0.200 A 
ATOM     59  F   UNL A   1      37.548  33.530  39.431  1.00  0.00    -0.200 F 
ATOM     60  F   UNL A   1      38.845  35.919  39.652  1.00  0.00    -0.200 F 
ENDBRANCH  36  50
BRANCH  37  61
ATOM     61  C   UNL A   1      41.192  27.711  28.365  1.00  0.00     0.064 A 
ATOM     62  C   UNL A   1      40.602  26.449  28.221  1.00  0.00     0.173 A 
ATOM     63  C   UNL A   1      41.986  28.186  27.310  1.00  0.00     0.173 A 
ATOM     64  F   UNL A   1      39.846  25.946  29.208  1.00  0.00    -0.203 F 
ATOM     65  C   UNL A   1      40.809  25.687  27.073  1.00  0.00     0.198 A 
ATOM     66  C   UNL A   1      42.166  27.438  26.150  1.00  0.00     0.198 A 
ATOM     67  F   UNL A   1      42.565  29.393  27.396  1.00  0.00    -0.203 F 
ATOM     68  F   UNL A   1      40.265  24.466  26.975  1.00  0.00    -0.200 F 
ATOM     69  C   UNL A   1      41.582  26.185  26.035  1.00  0.00     0.200 A 
ATOM     70  F   UNL A   1      42.896  27.934  25.142  1.00  0.00    -0.200 F 
ATOM     71  F   UNL A   1      41.771  25.457  24.927  1.00  0.00    -0.200 F 
ENDBRANCH  37  61
BRANCH  49  72
ATOM     72  C   UNL A   1      44.352  28.246  34.551  1.00  0.00     0.064 A 
ATOM     73  C   UNL A   1      45.651  28.760  34.439  1.00  0.00     0.173 A 
ATOM     74  C   UNL A   1      44.175  27.049  35.261  1.00  0.00     0.173 A 
ATOM     75  F   UNL A   1      45.873  29.892  33.753  1.00  0.00    -0.203 F 
ATOM     76  C   UNL A   1      46.736  28.086  34.993  1.00  0.00     0.198 A 
ATOM     77  C   UNL A   1      45.258  26.395  35.841  1.00  0.00     0.198 A 
ATOM     78  F   UNL A   1      42.951  26.519  35.399  1.00  0.00    -0.203 F 
ATOM     79  F   UNL A   1      47.976  28.568  34.829  1.00  0.00    -0.200 F 
ATOM     80  C   UNL A   1      46.537  26.909  35.698  1.00  0.00     0.200 A 
ATOM     81  F   UNL A   1      45.063  25.264  36.532  1.00  0.00    -0.200 F 
ATOM     82  F   UNL A   1      47.583  26.265  36.235  1.00  0.00    -0.200 F 
ENDBRANCH  49  72
ENDBRANCH  23  24
ENDBRANCH  16  18
ENDBRANCH  13  14
ENDBRANCH  12  13
ENDBRANCH  11  12
ENDBRANCH   8  11
ENDBRANCH   1   7
BRANCH   5  83
ATOM     83  C   UNL A   1      33.200  24.972  26.104  1.00  0.00     0.074 C 
ATOM     84  C   UNL A   1      34.532  25.235  25.375  1.00  0.00     0.020 C 
ATOM     85  C   UNL A   1      32.979  23.462  26.375  1.00  0.00     0.270 C 
ATOM     86  C   UNL A   1      34.814  24.262  24.232  1.00  0.00     0.062 C 
ATOM     87  N   UNL A   1      33.353  22.507  25.313  1.00  0.00    -0.331 N 
ATOM     88  C   UNL A   1      34.640  22.813  24.670  1.00  0.00     0.262 C 
ATOM     89  H   UNL A   1      32.643  22.616  24.588  1.00  0.00     0.348 HD
BRANCH  87  90
ATOM     90  C   UNL A   1      33.306  21.091  25.791  1.00  0.00     0.299 C 
BRANCH  90  91
ATOM     91  C   UNL A   1      32.873  20.061  24.752  1.00  0.00     0.010 A 
ATOM     92  C   UNL A   1      32.309  20.471  23.536  1.00  0.00     0.010 A 
ATOM     93  C   UNL A   1      33.185  18.701  24.923  1.00  0.00     0.056 A 
ATOM     94  C   UNL A   1      32.146  19.560  22.492  1.00  0.00     0.004 A 
ATOM     95  C   UNL A   1      33.113  17.805  23.858  1.00  0.00     0.119 A 
ATOM     96  C   UNL A   1      32.573  18.240  22.647  1.00  0.00     0.046 A 
BRANCH  95  97
ATOM     97  O   UNL A   1      33.591  16.523  23.852  1.00  0.00    -0.491 OA
BRANCH  97  98
ATOM     98  C   UNL A   1      33.785  15.839  25.097  1.00  0.00     0.257 C 
BRANCH  98  99
ATOM     99  C   UNL A   1      32.610  14.923  25.451  1.00  0.00     0.197 C 
BRANCH  99 100
ATOM    100  O   UNL A   1      33.016  13.590  25.726  1.00  0.00    -0.393 OA
ATOM    101  H   UNL A   1      33.563  13.579  26.527  1.00  0.00     0.210 HD
ENDBRANCH  99 100
ENDBRANCH  98  99
ENDBRANCH  97  98
ENDBRANCH  95  97
ENDBRANCH  90  91
ENDBRANCH  87  90
ENDBRANCH   5  83
TORSDOF 17
ENDMDL
MODEL 2
REMARK VINA RESULT:     -12.6      1.217      7.386
REMARK SMILES O=C(NCCCNC(=O)c1cccc([C@@H]2CCC[N@@H+](Cc3cccc(OCCO)c3)C2)c1)c1ccc(-c2c3nc(c(-c4c(F)c(F)c(F)c(F)c4F)c4ccc([nH]4)c(-c4c(F)c(F)c(F)c(F)c4F)c4nc(c(-c5c(F)c(F)c(F)c(F)c5F)c5ccc2[nH]5)C=C4)C=C3)cc1
REMARK SMILES IDX 10 1 11 2 12 3 13 4 14 5 32 6 8 7 7 8 9 10 6 11 5 12 4 13
REMARK SMILES IDX 3 14 1 15 2 16 33 18 34 19 95 20 35 21 94 22 36 23 37 24
REMARK SMILES IDX 38 25 88 26 39 27 93 28 87 29 89 30 40 31 92 32 86 33 85 34
REMARK SMILES IDX 41 36 73 37 53 38 72 39 54 40 57 41 71 42 90 43 55 44 56 45
REMARK SMILES IDX 70 47 91 48 58 49 42 50 43 51 51 52 44 53 45 54 49 55 52 56
REMARK SMILES IDX 46 57 47 58 50 59 48 60 74 61 75 62 83 63 76 64 77 65 81 66
REMARK SMILES IDX 84 67 78 68 79 69 82 70 80 71 59 72 60 73 68 74 61 75 62 76
REMARK SMILES IDX 66 77 69 78 63 79 64 80 67 81 65 82 15 83 16 84 31 85 17 86
REMARK SMILES IDX 19 87 18 88 20 90 21 91 22 92 30 93 23 94 25 95 24 96 26 97
REMARK SMILES IDX 27 98 28 99 29 100
REMARK H PARENT 7 9 3 17 89 35 57 46 19 89 29 101
REMARK Flexibility Score: inf
ROOT
ATOM      1  C   UNL A   1      32.953  28.567  25.299  1.00  0.00     0.040 A 
ATOM      2  C   UNL A   1      33.500  29.045  24.111  1.00  0.00     0.014 A 
ATOM      3  C   UNL A   1      33.149  28.440  22.901  1.00  0.00     0.001 A 
ATOM      4  C   UNL A   1      32.222  27.389  22.876  1.00  0.00     0.004 A 
ATOM      5  C   UNL A   1      31.635  26.932  24.062  1.00  0.00    -0.039 A 
ATOM      6  C   UNL A   1      32.030  27.527  25.254  1.00  0.00     0.018 A 
ENDROOT
BRANCH   1   7
ATOM      7  C   UNL A   1      33.185  29.260  26.583  1.00  0.00     0.251 C 
ATOM      8  N   UNL A   1      32.598  30.475  26.834  1.00  0.00    -0.352 N 
ATOM      9  H   UNL A   1      33.057  31.028  27.505  1.00  0.00     0.163 HD
ATOM     10  O   UNL A   1      33.965  28.786  27.406  1.00  0.00    -0.269 OA
BRANCH   8  11
ATOM     11  C   UNL A   1      31.395  31.075  26.260  1.00  0.00     0.118 C 
BRANCH  11  12
ATOM     12  C   UNL A   1      31.363  32.569  26.508  1.00  0.00     0.042 C 
BRANCH  12  13
ATOM     13  C   UNL A   1      32.587  33.053  27.263  1.00  0.00     0.118 C 
BRANCH  13  14
ATOM     14  N   UNL A   1      32.445  34.426  27.734  1.00  0.00    -0.352 N 
ATOM     15  O   UNL A   1      32.655  36.163  29.159  1.00  0.00    -0.269 OA
ATOM     16  C   UNL A   1      33.057  35.065  28.785  1.00  0.00     0.251 C 
ATOM     17  H   UNL A   1      31.812  34.979  27.220  1.00  0.00     0.163 HD
BRANCH  16  18
ATOM     18  C   UNL A   1      34.183  34.413  29.484  1.00  0.00     0.039 A 
ATOM     19  C   UNL A   1      35.486  34.565  29.013  1.00  0.00     0.014 A 
ATOM     20  C   UNL A   1      33.939  33.640  30.622  1.00  0.00     0.014 A 
ATOM     21  C   UNL A   1      36.504  33.785  29.536  1.00  0.00     0.010 A 
ATOM     22  C   UNL A   1      34.998  32.970  31.244  1.00  0.00     0.010 A 
ATOM     23  C   UNL A   1      36.283  33.010  30.683  1.00  0.00    -0.014 A 
BRANCH  23  24
ATOM     24  C   UNL A   1      37.443  32.337  31.317  1.00  0.00     0.031 A 
ATOM     25  C   UNL A   1      38.221  31.272  30.601  1.00  0.00     0.074 A 
ATOM     26  C   UNL A   1      37.812  32.739  32.550  1.00  0.00     0.049 A 
ATOM     27  N   UNL A   1      39.263  30.596  31.017  1.00  0.00    -0.248 NA
ATOM     28  C   UNL A   1      37.769  30.904  29.251  1.00  0.00     0.031 C 
ATOM     29  C   UNL A   1      37.119  33.760  33.343  1.00  0.00     0.029 A 
ATOM     30  N   UNL A   1      38.863  32.365  33.345  1.00  0.00    -0.354 N 
ATOM     31  C   UNL A   1      39.574  29.708  29.997  1.00  0.00     0.074 A 
ATOM     32  C   UNL A   1      38.600  29.915  28.947  1.00  0.00     0.031 C 
ATOM     33  C   UNL A   1      37.798  33.976  34.477  1.00  0.00     0.029 A 
ATOM     34  C   UNL A   1      38.920  33.049  34.534  1.00  0.00     0.049 A 
ATOM     35  H   UNL A   1      39.515  31.673  33.087  1.00  0.00     0.167 HD
ATOM     36  C   UNL A   1      40.586  28.808  29.946  1.00  0.00     0.037 A 
ATOM     37  C   UNL A   1      39.765  32.929  35.572  1.00  0.00     0.037 A 
ATOM     38  C   UNL A   1      41.563  28.630  30.990  1.00  0.00     0.049 A 
ATOM     39  C   UNL A   1      40.864  31.913  35.491  1.00  0.00     0.074 A 
ATOM     40  C   UNL A   1      42.651  27.773  31.017  1.00  0.00     0.029 A 
ATOM     41  N   UNL A   1      41.569  29.317  32.196  1.00  0.00    -0.354 N 
ATOM     42  N   UNL A   1      41.162  31.096  34.509  1.00  0.00    -0.248 NA
ATOM     43  C   UNL A   1      41.738  31.794  36.663  1.00  0.00     0.031 C 
ATOM     44  C   UNL A   1      43.283  27.906  32.258  1.00  0.00     0.029 A 
ATOM     45  C   UNL A   1      42.625  28.886  32.983  1.00  0.00     0.049 A 
ATOM     46  H   UNL A   1      40.920  30.011  32.454  1.00  0.00     0.167 HD
ATOM     47  C   UNL A   1      42.265  30.375  34.938  1.00  0.00     0.074 A 
ATOM     48  C   UNL A   1      42.598  30.869  36.259  1.00  0.00     0.031 C 
ATOM     49  C   UNL A   1      42.938  29.388  34.298  1.00  0.00     0.037 A 
BRANCH  36  50
ATOM     50  C   UNL A   1      40.678  27.925  28.734  1.00  0.00     0.064 A 
ATOM     51  C   UNL A   1      39.958  26.725  28.634  1.00  0.00     0.173 A 
ATOM     52  C   UNL A   1      41.459  28.313  27.634  1.00  0.00     0.173 A 
ATOM     53  F   UNL A   1      39.205  26.300  29.659  1.00  0.00    -0.203 F 
ATOM     54  C   UNL A   1      40.034  25.938  27.486  1.00  0.00     0.198 A 
ATOM     55  C   UNL A   1      41.510  27.539  26.478  1.00  0.00     0.198 A 
ATOM     56  F   UNL A   1      42.162  29.455  27.674  1.00  0.00    -0.203 F 
ATOM     57  F   UNL A   1      39.369  24.775  27.428  1.00  0.00    -0.200 F 
ATOM     58  C   UNL A   1      40.802  26.349  26.407  1.00  0.00     0.200 A 
ATOM     59  F   UNL A   1      42.242  27.945  25.432  1.00  0.00    -0.200 F 
ATOM     60  F   UNL A   1      40.865  25.595  25.300  1.00  0.00    -0.200 F 
ENDBRANCH  36  50
BRANCH  37  61
ATOM     61  C   UNL A   1      39.581  33.784  36.771  1.00  0.00     0.064 A 
ATOM     62  C   UNL A   1      40.130  35.071  36.834  1.00  0.00     0.173 A 
ATOM     63  C   UNL A   1      38.825  33.342  37.868  1.00  0.00     0.173 A 
ATOM     64  F   UNL A   1      40.873  35.532  35.816  1.00  0.00    -0.203 F 
ATOM     65  C   UNL A   1      39.941  35.879  37.953  1.00  0.00     0.198 A 
ATOM     66  C   UNL A   1      38.609  34.163  38.972  1.00  0.00     0.198 A 
ATOM     67  F   UNL A   1      38.270  32.121  37.853  1.00  0.00    -0.203 F 
ATOM     68  F   UNL A   1      40.509  37.092  38.004  1.00  0.00    -0.200 F 
ATOM     69  C   UNL A   1      39.174  35.428  39.017  1.00  0.00     0.200 A 
ATOM     70  F   UNL A   1      37.849  33.730  39.987  1.00  0.00    -0.200 F 
ATOM     71  F   UNL A   1      38.982  36.210  40.087  1.00  0.00    -0.200 F 
ENDBRANCH  37  61
BRANCH  49  72
ATOM     72  C   UNL A   1      44.118  28.799  35.013  1.00  0.00     0.064 A 
ATOM     73  C   UNL A   1      45.412  29.311  34.841  1.00  0.00     0.173 A 
ATOM     74  C   UNL A   1      43.947  27.723  35.897  1.00  0.00     0.173 A 
ATOM     75  F   UNL A   1      45.629  30.327  33.990  1.00  0.00    -0.203 F 
ATOM     76  C   UNL A   1      46.497  28.748  35.506  1.00  0.00     0.198 A 
ATOM     77  C   UNL A   1      45.030  27.185  36.586  1.00  0.00     0.198 A 
ATOM     78  F   UNL A   1      42.729  27.201  36.099  1.00  0.00    -0.203 F 
ATOM     79  F   UNL A   1      47.732  29.219  35.287  1.00  0.00    -0.200 F 
ATOM     80  C   UNL A   1      46.304  27.691  36.383  1.00  0.00     0.200 A 
ATOM     81  F   UNL A   1      44.839  26.170  37.441  1.00  0.00    -0.200 F 
ATOM     82  F   UNL A   1      47.350  27.155  37.027  1.00  0.00    -0.200 F 
ENDBRANCH  49  72
ENDBRANCH  23  24
ENDBRANCH  16  18
ENDBRANCH  13  14
ENDBRANCH  12  13
ENDBRANCH  11  12
ENDBRANCH   8  11
ENDBRANCH   1   7
BRANCH   5  83
ATOM     83  C   UNL A   1      30.508  25.917  24.074  1.00  0.00     0.074 C 
ATOM     84  C   UNL A   1      30.060  25.612  25.516  1.00  0.00     0.020 C 
ATOM     85  C   UNL A   1      30.803  24.621  23.277  1.00  0.00     0.270 C 
ATOM     86  C   UNL A   1      30.887  24.530  26.206  1.00  0.00     0.062 C 
ATOM     87  N   UNL A   1      31.508  23.525  23.972  1.00  0.00    -0.331 N 
ATOM     88  C   UNL A   1      31.020  23.284  25.338  1.00  0.00     0.262 C 
ATOM     89  H   UNL A   1      32.473  23.843  24.069  1.00  0.00     0.348 HD
BRANCH  87  90
ATOM     90  C   UNL A   1      31.519  22.266  23.166  1.00  0.00     0.299 C 
BRANCH  90  91
ATOM     91  C   UNL A   1      32.569  21.236  23.573  1.00  0.00     0.010 A 
ATOM     92  C   UNL A   1      33.762  21.641  24.188  1.00  0.00     0.010 A 
ATOM     93  C   UNL A   1      32.287  19.861  23.492  1.00  0.00     0.056 A 
ATOM     94  C   UNL A   1      34.602  20.699  24.783  1.00  0.00     0.004 A 
ATOM     95  C   UNL A   1      33.071  18.924  24.162  1.00  0.00     0.119 A 
ATOM     96  C   UNL A   1      34.241  19.351  24.792  1.00  0.00     0.046 A 
BRANCH  95  97
ATOM     97  O   UNL A   1      32.772  17.599  24.331  1.00  0.00    -0.491 OA
BRANCH  97  98
ATOM     98  C   UNL A   1      33.250  16.913  25.495  1.00  0.00     0.257 C 
BRANCH  98  99
ATOM     99  C   UNL A   1      32.567  15.557  25.697  1.00  0.00     0.197 C 
BRANCH  99 100
ATOM    100  O   UNL A   1      33.424  14.462  25.407  1.00  0.00    -0.393 OA
ATOM    101  H   UNL A   1      33.261  14.156  24.501  1.00  0.00     0.210 HD
ENDBRANCH  99 100
ENDBRANCH  98  99
ENDBRANCH  97  98
ENDBRANCH  95  97
ENDBRANCH  90  91
ENDBRANCH  87  90
ENDBRANCH   5  83
TORSDOF 17
ENDMDL
MODEL 3
REMARK VINA RESULT:     -12.6      1.174      2.141
REMARK SMILES O=C(NCCCNC(=O)c1cccc([C@@H]2CCC[N@@H+](Cc3cccc(OCCO)c3)C2)c1)c1ccc(-c2c3nc(c(-c4c(F)c(F)c(F)c(F)c4F)c4ccc([nH]4)c(-c4c(F)c(F)c(F)c(F)c4F)c4nc(c(-c5c(F)c(F)c(F)c(F)c5F)c5ccc2[nH]5)C=C4)C=C3)cc1
REMARK SMILES IDX 10 1 11 2 12 3 13 4 14 5 32 6 8 7 7 8 9 10 6 11 5 12 4 13
REMARK SMILES IDX 3 14 1 15 2 16 33 18 34 19 95 20 35 21 94 22 36 23 37 24
REMARK SMILES IDX 38 25 88 26 39 27 93 28 87 29 89 30 40 31 92 32 86 33 85 34
REMARK SMILES IDX 41 36 73 37 53 38 72 39 54 40 57 41 71 42 90 43 55 44 56 45
REMARK SMILES IDX 70 47 91 48 58 49 42 50 43 51 51 52 44 53 45 54 49 55 52 56
REMARK SMILES IDX 46 57 47 58 50 59 48 60 74 61 75 62 83 63 76 64 77 65 81 66
REMARK SMILES IDX 84 67 78 68 79 69 82 70 80 71 59 72 60 73 68 74 61 75 62 76
REMARK SMILES IDX 66 77 69 78 63 79 64 80 67 81 65 82 15 83 16 84 31 85 17 86
REMARK SMILES IDX 19 87 18 88 20 90 21 91 22 92 30 93 23 94 25 95 24 96 26 97
REMARK SMILES IDX 27 98 28 99 29 100
REMARK H PARENT 7 9 3 17 89 35 57 46 19 89 29 101
REMARK Flexibility Score: inf
ROOT
ATOM      1  C   UNL A   1      33.304  28.571  25.230  1.00  0.00     0.040 A 
ATOM      2  C   UNL A   1      33.932  29.036  24.077  1.00  0.00     0.014 A 
ATOM      3  C   UNL A   1      33.578  28.496  22.837  1.00  0.00     0.001 A 
ATOM      4  C   UNL A   1      32.571  27.525  22.748  1.00  0.00     0.004 A 
ATOM      5  C   UNL A   1      31.906  27.084  23.898  1.00  0.00    -0.039 A 
ATOM      6  C   UNL A   1      32.303  27.611  25.121  1.00  0.00     0.018 A 
ENDROOT
BRANCH   1   7
ATOM      7  C   UNL A   1      33.543  29.206  26.542  1.00  0.00     0.251 C 
ATOM      8  N   UNL A   1      32.832  30.319  26.916  1.00  0.00    -0.352 N 
ATOM      9  H   UNL A   1      33.269  30.883  27.593  1.00  0.00     0.163 HD
ATOM     10  O   UNL A   1      34.433  28.784  27.277  1.00  0.00    -0.269 OA
BRANCH   8  11
ATOM     11  C   UNL A   1      31.526  30.796  26.465  1.00  0.00     0.118 C 
BRANCH  11  12
ATOM     12  C   UNL A   1      31.423  32.301  26.601  1.00  0.00     0.042 C 
BRANCH  12  13
ATOM     13  C   UNL A   1      32.700  32.920  27.137  1.00  0.00     0.118 C 
BRANCH  13  14
ATOM     14  N   UNL A   1      32.493  34.267  27.655  1.00  0.00    -0.352 N 
ATOM     15  O   UNL A   1      32.621  35.963  29.139  1.00  0.00    -0.269 OA
ATOM     16  C   UNL A   1      33.075  34.899  28.727  1.00  0.00     0.251 C 
ATOM     17  H   UNL A   1      31.833  34.806  27.160  1.00  0.00     0.163 HD
BRANCH  16  18
ATOM     18  C   UNL A   1      34.232  34.278  29.405  1.00  0.00     0.039 A 
ATOM     19  C   UNL A   1      35.531  34.589  29.005  1.00  0.00     0.014 A 
ATOM     20  C   UNL A   1      34.021  33.376  30.450  1.00  0.00     0.014 A 
ATOM     21  C   UNL A   1      36.596  33.850  29.489  1.00  0.00     0.010 A 
ATOM     22  C   UNL A   1      35.115  32.739  31.046  1.00  0.00     0.010 A 
ATOM     23  C   UNL A   1      36.410  32.947  30.545  1.00  0.00    -0.014 A 
BRANCH  23  24
ATOM     24  C   UNL A   1      37.604  32.315  31.156  1.00  0.00     0.031 A 
ATOM     25  C   UNL A   1      38.074  32.688  32.531  1.00  0.00     0.074 A 
ATOM     26  C   UNL A   1      38.242  31.357  30.454  1.00  0.00     0.049 A 
ATOM     27  N   UNL A   1      39.095  32.221  33.206  1.00  0.00    -0.248 NA
ATOM     28  C   UNL A   1      37.313  33.727  33.241  1.00  0.00     0.031 C 
ATOM     29  C   UNL A   1      37.877  30.923  29.101  1.00  0.00     0.029 A 
ATOM     30  N   UNL A   1      39.307  30.558  30.778  1.00  0.00    -0.354 N 
ATOM     31  C   UNL A   1      39.116  32.924  34.402  1.00  0.00     0.074 A 
ATOM     32  C   UNL A   1      38.017  33.865  34.357  1.00  0.00     0.031 C 
ATOM     33  C   UNL A   1      38.659  29.898  28.738  1.00  0.00     0.029 A 
ATOM     34  C   UNL A   1      39.637  29.661  29.792  1.00  0.00     0.049 A 
ATOM     35  H   UNL A   1      39.789  30.622  31.634  1.00  0.00     0.167 HD
ATOM     36  C   UNL A   1      39.974  32.787  35.442  1.00  0.00     0.037 A 
ATOM     37  C   UNL A   1      40.633  28.761  29.727  1.00  0.00     0.037 A 
ATOM     38  C   UNL A   1      41.049  31.828  35.482  1.00  0.00     0.049 A 
ATOM     39  C   UNL A   1      41.576  28.646  30.886  1.00  0.00     0.074 A 
ATOM     40  C   UNL A   1      41.950  31.583  36.506  1.00  0.00     0.029 A 
ATOM     41  N   UNL A   1      41.374  30.958  34.451  1.00  0.00    -0.354 N 
ATOM     42  N   UNL A   1      41.569  29.300  32.023  1.00  0.00    -0.248 NA
ATOM     43  C   UNL A   1      42.667  27.675  30.754  1.00  0.00     0.031 C 
ATOM     44  C   UNL A   1      42.848  30.602  36.074  1.00  0.00     0.029 A 
ATOM     45  C   UNL A   1      42.476  30.194  34.804  1.00  0.00     0.049 A 
ATOM     46  H   UNL A   1      40.893  30.891  33.595  1.00  0.00     0.167 HD
ATOM     47  C   UNL A   1      42.646  28.812  32.746  1.00  0.00     0.074 A 
ATOM     48  C   UNL A   1      43.269  27.790  31.930  1.00  0.00     0.031 C 
ATOM     49  C   UNL A   1      43.084  29.183  33.974  1.00  0.00     0.037 A 
BRANCH  36  50
ATOM     50  C   UNL A   1      39.807  33.710  36.615  1.00  0.00     0.064 A 
ATOM     51  C   UNL A   1      40.454  34.953  36.679  1.00  0.00     0.173 A 
ATOM     52  C   UNL A   1      38.943  33.367  37.667  1.00  0.00     0.173 A 
ATOM     53  F   UNL A   1      41.299  35.327  35.707  1.00  0.00    -0.203 F 
ATOM     54  C   UNL A   1      40.258  35.807  37.763  1.00  0.00     0.198 A 
ATOM     55  C   UNL A   1      38.727  34.236  38.734  1.00  0.00     0.198 A 
ATOM     56  F   UNL A   1      38.293  32.194  37.653  1.00  0.00    -0.203 F 
ATOM     57  F   UNL A   1      40.918  36.973  37.823  1.00  0.00    -0.200 F 
ATOM     58  C   UNL A   1      39.390  35.453  38.784  1.00  0.00     0.200 A 
ATOM     59  F   UNL A   1      37.878  33.896  39.712  1.00  0.00    -0.200 F 
ATOM     60  F   UNL A   1      39.195  36.281  39.820  1.00  0.00    -0.200 F 
ENDBRANCH  36  50
BRANCH  37  61
ATOM     61  C   UNL A   1      40.788  27.924  28.510  1.00  0.00     0.064 A 
ATOM     62  C   UNL A   1      41.594  28.341  27.443  1.00  0.00     0.173 A 
ATOM     63  C   UNL A   1      40.156  26.675  28.403  1.00  0.00     0.173 A 
ATOM     64  F   UNL A   1      42.206  29.534  27.493  1.00  0.00    -0.203 F 
ATOM     65  C   UNL A   1      41.752  27.546  26.310  1.00  0.00     0.198 A 
ATOM     66  C   UNL A   1      40.341  25.868  27.284  1.00  0.00     0.198 A 
ATOM     67  F   UNL A   1      39.381  26.226  29.402  1.00  0.00    -0.203 F 
ATOM     68  F   UNL A   1      42.498  27.985  25.287  1.00  0.00    -0.200 F 
ATOM     69  C   UNL A   1      41.134  26.307  26.235  1.00  0.00     0.200 A 
ATOM     70  F   UNL A   1      39.759  24.663  27.227  1.00  0.00    -0.200 F 
ATOM     71  F   UNL A   1      41.296  25.539  25.150  1.00  0.00    -0.200 F 
ENDBRANCH  37  61
BRANCH  49  72
ATOM     72  C   UNL A   1      44.280  28.456  34.515  1.00  0.00     0.064 A 
ATOM     73  C   UNL A   1      45.580  28.946  34.334  1.00  0.00     0.173 A 
ATOM     74  C   UNL A   1      44.119  27.267  35.242  1.00  0.00     0.173 A 
ATOM     75  F   UNL A   1      45.787  30.070  33.629  1.00  0.00    -0.203 F 
ATOM     76  C   UNL A   1      46.680  28.257  34.837  1.00  0.00     0.198 A 
ATOM     77  C   UNL A   1      45.218  26.598  35.771  1.00  0.00     0.198 A 
ATOM     78  F   UNL A   1      42.894  26.760  35.446  1.00  0.00    -0.203 F 
ATOM     79  F   UNL A   1      47.918  28.715  34.606  1.00  0.00    -0.200 F 
ATOM     80  C   UNL A   1      46.497  27.088  35.560  1.00  0.00     0.200 A 
ATOM     81  F   UNL A   1      45.038  25.475  36.480  1.00  0.00    -0.200 F 
ATOM     82  F   UNL A   1      47.557  26.428  36.048  1.00  0.00    -0.200 F 
ENDBRANCH  49  72
ENDBRANCH  23  24
ENDBRANCH  16  18
ENDBRANCH  13  14
ENDBRANCH  12  13
ENDBRANCH  11  12
ENDBRANCH   8  11
ENDBRANCH   1   7
BRANCH   5  83
ATOM     83  C   UNL A   1      30.702  26.163  23.839  1.00  0.00     0.074 C 
ATOM     84  C   UNL A   1      30.058  26.013  25.231  1.00  0.00     0.020 C 
ATOM     85  C   UNL A   1      30.977  24.788  23.180  1.00  0.00     0.270 C 
ATOM     86  C   UNL A   1      30.699  24.930  26.095  1.00  0.00     0.062 C 
ATOM     87  N   UNL A   1      31.494  23.701  24.036  1.00  0.00    -0.331 N 
ATOM     88  C   UNL A   1      30.826  23.611  25.342  1.00  0.00     0.262 C 
ATOM     89  H   UNL A   1      32.465  23.950  24.232  1.00  0.00     0.348 HD
BRANCH  87  90
ATOM     90  C   UNL A   1      31.492  22.383  23.330  1.00  0.00     0.299 C 
BRANCH  90  91
ATOM     91  C   UNL A   1      32.654  21.454  23.671  1.00  0.00     0.010 A 
ATOM     92  C   UNL A   1      33.861  21.975  24.161  1.00  0.00     0.010 A 
ATOM     93  C   UNL A   1      32.478  20.060  23.660  1.00  0.00     0.056 A 
ATOM     94  C   UNL A   1      34.824  21.125  24.705  1.00  0.00     0.004 A 
ATOM     95  C   UNL A   1      33.393  19.214  24.285  1.00  0.00     0.119 A 
ATOM     96  C   UNL A   1      34.575  19.754  24.791  1.00  0.00     0.046 A 
BRANCH  95  97
ATOM     97  O   UNL A   1      33.218  17.877  24.522  1.00  0.00    -0.491 OA
BRANCH  97  98
ATOM     98  C   UNL A   1      34.295  16.969  24.256  1.00  0.00     0.257 C 
BRANCH  98  99
ATOM     99  C   UNL A   1      34.373  15.836  25.284  1.00  0.00     0.197 C 
BRANCH  99 100
ATOM    100  O   UNL A   1      35.557  15.061  25.157  1.00  0.00    -0.393 OA
ATOM    101  H   UNL A   1      36.247  15.594  24.729  1.00  0.00     0.210 HD
ENDBRANCH  99 100
ENDBRANCH  98  99
ENDBRANCH  97  98
ENDBRANCH  95  97
ENDBRANCH  90  91
ENDBRANCH  87  90
ENDBRANCH   5  83
TORSDOF 17
ENDMDL
