MODEL 1
REMARK VINA RESULT:     -12.2      0.000      0.000
REMARK SMILES O=C(C[C@H]1CN(c2nc(C3CC3)ns2)CCO1)NCCCNC(=O)c1ccc(-c2c3nc(c(-c4c(F)c(F)c(F)c(F)c4F)c4ccc([nH]4)c(-c4c(F)c(F)c(F)c(F)c4F)c4nc(c(-c5c(F)c(F)c(F)c(F)c5F)c5ccc2[nH]5)C=C4)C=C3)cc1
REMARK SMILES IDX 19 1 18 2 1 3 2 4 3 6 4 7 5 8 17 9 6 10 16 11 15 12 7 13
REMARK SMILES IDX 8 14 14 15 9 16 13 17 10 18 11 19 12 20 20 21 21 22 22 23
REMARK SMILES IDX 23 24 24 26 25 27 26 28 87 29 27 30 86 31 28 32 29 33 30 34
REMARK SMILES IDX 80 35 31 36 85 37 79 38 81 39 32 40 84 41 78 42 77 43 33 45
REMARK SMILES IDX 65 46 45 47 64 48 46 49 49 50 63 51 82 52 47 53 48 54 62 56
REMARK SMILES IDX 83 57 50 58 34 59 35 60 43 61 36 62 37 63 41 64 44 65 38 66
REMARK SMILES IDX 39 67 42 68 40 69 66 70 67 71 75 72 68 73 69 74 73 75 76 76
REMARK SMILES IDX 70 77 71 78 74 79 72 80 51 81 52 82 60 83 53 84 54 85 58 86
REMARK SMILES IDX 61 87 55 88 56 89 59 90 57 91
REMARK H PARENT 18 5 22 25 81 44 49 55
REMARK Flexibility Score: inf
ROOT
ATOM      1  C   UNL A   1      31.403  30.666  26.530  1.00  0.00     0.117 C 
ENDROOT
BRANCH   1   2
ATOM      2  N   UNL A   1      31.982  30.050  25.358  1.00  0.00    -0.356 N 
ATOM      3  O   UNL A   1      33.923  29.385  26.370  1.00  0.00    -0.275 OA
ATOM      4  C   UNL A   1      33.178  29.374  25.394  1.00  0.00     0.222 C 
ATOM      5  H   UNL A   1      31.500  30.116  24.502  1.00  0.00     0.163 HD
BRANCH   4   6
ATOM      6  C   UNL A   1      33.549  28.665  24.110  1.00  0.00     0.133 C 
BRANCH   6   7
ATOM      7  C   UNL A   1      33.488  27.126  24.092  1.00  0.00     0.147 C 
ATOM      8  C   UNL A   1      32.092  26.566  24.441  1.00  0.00     0.151 C 
ATOM      9  O   UNL A   1      34.032  26.490  22.916  1.00  0.00    -0.374 OA
ATOM     10  N   UNL A   1      31.216  26.556  23.275  1.00  0.00    -0.342 N 
ATOM     11  C   UNL A   1      33.142  26.540  21.781  1.00  0.00     0.182 C 
ATOM     12  C   UNL A   1      31.767  25.925  22.082  1.00  0.00     0.147 C 
BRANCH  10  13
ATOM     13  C   UNL A   1      30.119  27.351  23.235  1.00  0.00     0.205 A 
ATOM     14  N   UNL A   1      30.131  28.636  22.960  1.00  0.00    -0.203 NA
ATOM     15  S   UNL A   1      28.514  26.820  23.628  1.00  0.00     0.004 S 
ATOM     16  C   UNL A   1      28.841  29.141  23.074  1.00  0.00     0.147 A 
ATOM     17  N   UNL A   1      27.855  28.344  23.485  1.00  0.00    -0.174 NA
BRANCH  16  18
ATOM     18  C   UNL A   1      28.533  30.598  22.732  1.00  0.00     0.059 C 
ATOM     19  C   UNL A   1      27.489  31.349  23.530  1.00  0.00     0.012 C 
ATOM     20  C   UNL A   1      28.933  31.666  23.730  1.00  0.00     0.012 C 
ENDBRANCH  16  18
ENDBRANCH  10  13
ENDBRANCH   6   7
ENDBRANCH   4   6
ENDBRANCH   1   2
BRANCH   1  21
ATOM     21  C   UNL A   1      31.427  32.185  26.471  1.00  0.00     0.042 C 
BRANCH  21  22
ATOM     22  C   UNL A   1      32.587  32.819  27.229  1.00  0.00     0.118 C 
BRANCH  22  23
ATOM     23  N   UNL A   1      32.342  34.206  27.607  1.00  0.00    -0.352 N 
ATOM     24  C   UNL A   1      32.958  34.988  28.551  1.00  0.00     0.251 C 
ATOM     25  H   UNL A   1      31.621  34.651  27.105  1.00  0.00     0.163 HD
ATOM     26  O   UNL A   1      32.509  36.104  28.807  1.00  0.00    -0.269 OA
BRANCH  24  27
ATOM     27  C   UNL A   1      34.140  34.490  29.289  1.00  0.00     0.039 A 
ATOM     28  C   UNL A   1      33.948  33.893  30.538  1.00  0.00     0.014 A 
ATOM     29  C   UNL A   1      35.428  34.614  28.765  1.00  0.00     0.014 A 
ATOM     30  C   UNL A   1      35.039  33.352  31.223  1.00  0.00     0.010 A 
ATOM     31  C   UNL A   1      36.500  34.000  29.409  1.00  0.00     0.010 A 
ATOM     32  C   UNL A   1      36.319  33.360  30.644  1.00  0.00    -0.014 A 
BRANCH  32  33
ATOM     33  C   UNL A   1      37.471  32.696  31.308  1.00  0.00     0.031 A 
ATOM     34  C   UNL A   1      38.173  31.545  30.643  1.00  0.00     0.074 A 
ATOM     35  C   UNL A   1      37.845  33.089  32.542  1.00  0.00     0.049 A 
ATOM     36  N   UNL A   1      39.151  30.798  31.093  1.00  0.00    -0.248 NA
ATOM     37  C   UNL A   1      37.698  31.164  29.303  1.00  0.00     0.031 C 
ATOM     38  C   UNL A   1      37.216  34.161  33.314  1.00  0.00     0.029 A 
ATOM     39  N   UNL A   1      38.838  32.624  33.369  1.00  0.00    -0.354 N 
ATOM     40  C   UNL A   1      39.396  29.857  30.101  1.00  0.00     0.074 A 
ATOM     41  C   UNL A   1      38.429  30.089  29.051  1.00  0.00     0.031 C 
ATOM     42  C   UNL A   1      37.852  34.289  34.489  1.00  0.00     0.029 A 
ATOM     43  C   UNL A   1      38.903  33.280  34.574  1.00  0.00     0.049 A 
ATOM     44  H   UNL A   1      39.446  31.890  33.121  1.00  0.00     0.167 HD
ATOM     45  C   UNL A   1      40.355  28.902  30.060  1.00  0.00     0.037 A 
ATOM     46  C   UNL A   1      39.709  33.082  35.635  1.00  0.00     0.037 A 
ATOM     47  C   UNL A   1      41.327  28.683  31.100  1.00  0.00     0.049 A 
ATOM     48  C   UNL A   1      40.753  31.999  35.571  1.00  0.00     0.074 A 
ATOM     49  C   UNL A   1      42.374  27.778  31.127  1.00  0.00     0.029 A 
ATOM     50  N   UNL A   1      41.366  29.373  32.304  1.00  0.00    -0.354 N 
ATOM     51  N   UNL A   1      41.023  31.162  34.599  1.00  0.00    -0.248 NA
ATOM     52  C   UNL A   1      41.610  31.836  36.755  1.00  0.00     0.031 C 
ATOM     53  C   UNL A   1      43.010  27.880  32.368  1.00  0.00     0.029 A 
ATOM     54  C   UNL A   1      42.402  28.894  33.091  1.00  0.00     0.049 A 
ATOM     55  H   UNL A   1      40.750  30.097  32.560  1.00  0.00     0.167 HD
ATOM     56  C   UNL A   1      42.097  30.399  35.037  1.00  0.00     0.074 A 
ATOM     57  C   UNL A   1      42.439  30.882  36.358  1.00  0.00     0.031 C 
ATOM     58  C   UNL A   1      42.740  29.389  34.401  1.00  0.00     0.037 A 
BRANCH  45  59
ATOM     59  C   UNL A   1      40.403  28.015  28.847  1.00  0.00     0.064 A 
ATOM     60  C   UNL A   1      41.158  28.354  27.714  1.00  0.00     0.173 A 
ATOM     61  C   UNL A   1      39.718  26.790  28.834  1.00  0.00     0.173 A 
ATOM     62  F   UNL A   1      41.826  29.517  27.671  1.00  0.00    -0.203 F 
ATOM     63  C   UNL A   1      41.200  27.517  26.602  1.00  0.00     0.198 A 
ATOM     64  C   UNL A   1      39.790  25.940  27.733  1.00  0.00     0.198 A 
ATOM     65  F   UNL A   1      38.986  26.411  29.892  1.00  0.00    -0.203 F 
ATOM     66  F   UNL A   1      41.884  27.889  25.511  1.00  0.00    -0.200 F 
ATOM     67  C   UNL A   1      40.522  26.308  26.615  1.00  0.00     0.200 A 
ATOM     68  F   UNL A   1      39.147  24.764  27.754  1.00  0.00    -0.200 F 
ATOM     69  F   UNL A   1      40.569  25.500  25.547  1.00  0.00    -0.200 F 
ENDBRANCH  45  59
BRANCH  46  70
ATOM     70  C   UNL A   1      39.576  33.939  36.843  1.00  0.00     0.064 A 
ATOM     71  C   UNL A   1      40.229  35.178  36.923  1.00  0.00     0.173 A 
ATOM     72  C   UNL A   1      38.807  33.536  37.944  1.00  0.00     0.173 A 
ATOM     73  F   UNL A   1      40.993  35.599  35.905  1.00  0.00    -0.203 F 
ATOM     74  C   UNL A   1      40.137  35.967  38.068  1.00  0.00     0.198 A 
ATOM     75  C   UNL A   1      38.690  34.342  39.075  1.00  0.00     0.198 A 
ATOM     76  F   UNL A   1      38.159  32.362  37.918  1.00  0.00    -0.203 F 
ATOM     77  F   UNL A   1      40.816  37.121  38.138  1.00  0.00    -0.200 F 
ATOM     78  C   UNL A   1      39.363  35.551  39.140  1.00  0.00     0.200 A 
ATOM     79  F   UNL A   1      37.928  33.942  40.103  1.00  0.00    -0.200 F 
ATOM     80  F   UNL A   1      39.275  36.311  40.240  1.00  0.00    -0.200 F 
ENDBRANCH  46  70
BRANCH  58  81
ATOM     81  C   UNL A   1      43.911  28.764  35.106  1.00  0.00     0.064 A 
ATOM     82  C   UNL A   1      43.755  27.687  35.991  1.00  0.00     0.173 A 
ATOM     83  C   UNL A   1      45.214  29.228  34.863  1.00  0.00     0.173 A 
ATOM     84  F   UNL A   1      42.530  27.214  36.269  1.00  0.00    -0.203 F 
ATOM     85  C   UNL A   1      44.854  27.117  36.628  1.00  0.00     0.198 A 
ATOM     86  C   UNL A   1      46.313  28.634  35.474  1.00  0.00     0.198 A 
ATOM     87  F   UNL A   1      45.421  30.250  34.020  1.00  0.00    -0.203 F 
ATOM     88  F   UNL A   1      44.675  26.125  37.511  1.00  0.00    -0.200 F 
ATOM     89  C   UNL A   1      46.133  27.585  36.363  1.00  0.00     0.200 A 
ATOM     90  F   UNL A   1      47.549  29.076  35.203  1.00  0.00    -0.200 F 
ATOM     91  F   UNL A   1      47.190  27.030  36.971  1.00  0.00    -0.200 F 
ENDBRANCH  58  81
ENDBRANCH  32  33
ENDBRANCH  24  27
ENDBRANCH  22  23
ENDBRANCH  21  22
ENDBRANCH   1  21
TORSDOF 13
ENDMDL
MODEL 2
REMARK VINA RESULT:     -12.1      0.214      1.625
REMARK SMILES O=C(C[C@H]1CN(c2nc(C3CC3)ns2)CCO1)NCCCNC(=O)c1ccc(-c2c3nc(c(-c4c(F)c(F)c(F)c(F)c4F)c4ccc([nH]4)c(-c4c(F)c(F)c(F)c(F)c4F)c4nc(c(-c5c(F)c(F)c(F)c(F)c5F)c5ccc2[nH]5)C=C4)C=C3)cc1
REMARK SMILES IDX 19 1 18 2 1 3 2 4 3 6 4 7 5 8 17 9 6 10 16 11 15 12 7 13
REMARK SMILES IDX 8 14 14 15 9 16 13 17 10 18 11 19 12 20 20 21 21 22 22 23
REMARK SMILES IDX 23 24 24 26 25 27 26 28 87 29 27 30 86 31 28 32 29 33 30 34
REMARK SMILES IDX 80 35 31 36 85 37 79 38 81 39 32 40 84 41 78 42 77 43 33 45
REMARK SMILES IDX 65 46 45 47 64 48 46 49 49 50 63 51 82 52 47 53 48 54 62 56
REMARK SMILES IDX 83 57 50 58 34 59 35 60 43 61 36 62 37 63 41 64 44 65 38 66
REMARK SMILES IDX 39 67 42 68 40 69 66 70 67 71 75 72 68 73 69 74 73 75 76 76
REMARK SMILES IDX 70 77 71 78 74 79 72 80 51 81 52 82 60 83 53 84 54 85 58 86
REMARK SMILES IDX 61 87 55 88 56 89 59 90 57 91
REMARK H PARENT 18 5 22 25 81 44 49 55
REMARK Flexibility Score: inf
ROOT
ATOM      1  C   UNL A   1      31.403  30.635  26.584  1.00  0.00     0.117 C 
ENDROOT
BRANCH   1   2
ATOM      2  N   UNL A   1      32.022  29.993  25.447  1.00  0.00    -0.356 N 
ATOM      3  O   UNL A   1      33.926  29.350  26.540  1.00  0.00    -0.275 OA
ATOM      4  C   UNL A   1      33.216  29.318  25.540  1.00  0.00     0.222 C 
ATOM      5  H   UNL A   1      31.571  30.040  24.573  1.00  0.00     0.163 HD
BRANCH   4   6
ATOM      6  C   UNL A   1      33.631  28.580  24.286  1.00  0.00     0.133 C 
BRANCH   6   7
ATOM      7  C   UNL A   1      33.468  27.048  24.262  1.00  0.00     0.147 C 
ATOM      8  C   UNL A   1      32.021  26.584  24.536  1.00  0.00     0.151 C 
ATOM      9  O   UNL A   1      34.028  26.375  23.114  1.00  0.00    -0.374 OA
ATOM     10  N   UNL A   1      31.208  26.631  23.326  1.00  0.00    -0.342 N 
ATOM     11  C   UNL A   1      33.205  26.483  21.935  1.00  0.00     0.182 C 
ATOM     12  C   UNL A   1      31.778  25.963  22.162  1.00  0.00     0.147 C 
BRANCH  10  13
ATOM     13  C   UNL A   1      30.171  27.498  23.229  1.00  0.00     0.205 A 
ATOM     14  N   UNL A   1      30.286  28.785  22.986  1.00  0.00    -0.203 NA
ATOM     15  S   UNL A   1      28.512  27.068  23.500  1.00  0.00     0.004 S 
ATOM     16  C   UNL A   1      29.027  29.372  23.024  1.00  0.00     0.147 A 
ATOM     17  N   UNL A   1      27.964  28.634  23.348  1.00  0.00    -0.174 NA
BRANCH  16  18
ATOM     18  C   UNL A   1      28.839  30.852  22.696  1.00  0.00     0.059 C 
ATOM     19  C   UNL A   1      27.653  31.601  23.266  1.00  0.00     0.012 C 
ATOM     20  C   UNL A   1      29.017  31.860  23.813  1.00  0.00     0.012 C 
ENDBRANCH  16  18
ENDBRANCH  10  13
ENDBRANCH   6   7
ENDBRANCH   4   6
ENDBRANCH   1   2
BRANCH   1  21
ATOM     21  C   UNL A   1      31.446  32.152  26.500  1.00  0.00     0.042 C 
BRANCH  21  22
ATOM     22  C   UNL A   1      32.600  32.785  27.267  1.00  0.00     0.118 C 
BRANCH  22  23
ATOM     23  N   UNL A   1      32.362  34.178  27.627  1.00  0.00    -0.352 N 
ATOM     24  C   UNL A   1      32.972  34.967  28.570  1.00  0.00     0.251 C 
ATOM     25  H   UNL A   1      31.650  34.623  27.111  1.00  0.00     0.163 HD
ATOM     26  O   UNL A   1      32.528  36.089  28.807  1.00  0.00    -0.269 OA
BRANCH  24  27
ATOM     27  C   UNL A   1      34.141  34.468  29.328  1.00  0.00     0.039 A 
ATOM     28  C   UNL A   1      33.929  33.884  30.580  1.00  0.00     0.014 A 
ATOM     29  C   UNL A   1      35.437  34.579  28.820  1.00  0.00     0.014 A 
ATOM     30  C   UNL A   1      35.007  33.342  31.284  1.00  0.00     0.010 A 
ATOM     31  C   UNL A   1      36.496  33.965  29.483  1.00  0.00     0.010 A 
ATOM     32  C   UNL A   1      36.294  33.337  30.721  1.00  0.00    -0.014 A 
BRANCH  32  33
ATOM     33  C   UNL A   1      37.433  32.672  31.407  1.00  0.00     0.031 A 
ATOM     34  C   UNL A   1      38.131  31.504  30.766  1.00  0.00     0.074 A 
ATOM     35  C   UNL A   1      37.800  33.080  32.638  1.00  0.00     0.049 A 
ATOM     36  N   UNL A   1      39.097  30.755  31.237  1.00  0.00    -0.248 NA
ATOM     37  C   UNL A   1      37.665  31.108  29.428  1.00  0.00     0.031 C 
ATOM     38  C   UNL A   1      37.174  34.170  33.388  1.00  0.00     0.029 A 
ATOM     39  N   UNL A   1      38.780  32.618  33.482  1.00  0.00    -0.354 N 
ATOM     40  C   UNL A   1      39.342  29.797  30.262  1.00  0.00     0.074 A 
ATOM     41  C   UNL A   1      38.388  30.022  29.199  1.00  0.00     0.031 C 
ATOM     42  C   UNL A   1      37.799  34.310  34.567  1.00  0.00     0.029 A 
ATOM     43  C   UNL A   1      38.840  33.291  34.678  1.00  0.00     0.049 A 
ATOM     44  H   UNL A   1      39.383  31.875  33.251  1.00  0.00     0.167 HD
ATOM     45  C   UNL A   1      40.293  28.832  30.245  1.00  0.00     0.037 A 
ATOM     46  C   UNL A   1      39.633  33.102  35.749  1.00  0.00     0.037 A 
ATOM     47  C   UNL A   1      41.252  28.620  31.298  1.00  0.00     0.049 A 
ATOM     48  C   UNL A   1      40.667  32.008  35.712  1.00  0.00     0.074 A 
ATOM     49  C   UNL A   1      42.290  27.705  31.348  1.00  0.00     0.029 A 
ATOM     50  N   UNL A   1      41.286  29.327  32.491  1.00  0.00    -0.354 N 
ATOM     51  N   UNL A   1      40.938  31.154  34.755  1.00  0.00    -0.248 NA
ATOM     52  C   UNL A   1      41.510  31.855  36.907  1.00  0.00     0.031 C 
ATOM     53  C   UNL A   1      42.915  27.820  32.594  1.00  0.00     0.029 A 
ATOM     54  C   UNL A   1      42.310  28.850  33.296  1.00  0.00     0.049 A 
ATOM     55  H   UNL A   1      40.674  30.061  32.730  1.00  0.00     0.167 HD
ATOM     56  C   UNL A   1      42.000  30.387  35.215  1.00  0.00     0.074 A 
ATOM     57  C   UNL A   1      42.335  30.887  36.532  1.00  0.00     0.031 C 
ATOM     58  C   UNL A   1      42.640  29.362  34.601  1.00  0.00     0.037 A 
BRANCH  45  59
ATOM     59  C   UNL A   1      40.344  27.926  29.046  1.00  0.00     0.064 A 
ATOM     60  C   UNL A   1      39.623  26.723  29.000  1.00  0.00     0.173 A 
ATOM     61  C   UNL A   1      41.090  28.285  27.913  1.00  0.00     0.173 A 
ATOM     62  F   UNL A   1      38.899  26.328  30.058  1.00  0.00    -0.203 F 
ATOM     63  C   UNL A   1      39.673  25.898  27.878  1.00  0.00     0.198 A 
ATOM     64  C   UNL A   1      41.111  27.474  26.781  1.00  0.00     0.198 A 
ATOM     65  F   UNL A   1      41.794  29.428  27.899  1.00  0.00    -0.203 F 
ATOM     66  F   UNL A   1      39.019  24.728  27.879  1.00  0.00    -0.200 F 
ATOM     67  C   UNL A   1      40.411  26.278  26.768  1.00  0.00     0.200 A 
ATOM     68  F   UNL A   1      41.812  27.852  25.702  1.00  0.00    -0.200 F 
ATOM     69  F   UNL A   1      40.453  25.488  25.686  1.00  0.00    -0.200 F 
ENDBRANCH  45  59
BRANCH  46  70
ATOM     70  C   UNL A   1      39.497  33.978  36.943  1.00  0.00     0.064 A 
ATOM     71  C   UNL A   1      40.130  35.229  36.996  1.00  0.00     0.173 A 
ATOM     72  C   UNL A   1      38.743  33.583  38.058  1.00  0.00     0.173 A 
ATOM     73  F   UNL A   1      40.879  35.643  35.963  1.00  0.00    -0.203 F 
ATOM     74  C   UNL A   1      40.036  36.037  38.127  1.00  0.00     0.198 A 
ATOM     75  C   UNL A   1      38.623  34.407  39.175  1.00  0.00     0.198 A 
ATOM     76  F   UNL A   1      38.114  32.399  38.058  1.00  0.00    -0.203 F 
ATOM     77  F   UNL A   1      40.697  37.202  38.170  1.00  0.00    -0.200 F 
ATOM     78  C   UNL A   1      39.278  35.628  39.213  1.00  0.00     0.200 A 
ATOM     79  F   UNL A   1      37.876  34.014  40.216  1.00  0.00    -0.200 F 
ATOM     80  F   UNL A   1      39.186  36.406  40.299  1.00  0.00    -0.200 F 
ENDBRANCH  46  70
BRANCH  58  81
ATOM     81  C   UNL A   1      43.797  28.737  35.327  1.00  0.00     0.064 A 
ATOM     82  C   UNL A   1      45.113  29.193  35.156  1.00  0.00     0.173 A 
ATOM     83  C   UNL A   1      43.582  27.688  36.235  1.00  0.00     0.173 A 
ATOM     84  F   UNL A   1      45.377  30.183  34.290  1.00  0.00    -0.203 F 
ATOM     85  C   UNL A   1      46.171  28.604  35.844  1.00  0.00     0.198 A 
ATOM     86  C   UNL A   1      44.636  27.126  36.948  1.00  0.00     0.198 A 
ATOM     87  F   UNL A   1      42.343  27.218  36.442  1.00  0.00    -0.203 F 
ATOM     88  F   UNL A   1      47.426  29.021  35.624  1.00  0.00    -0.200 F 
ATOM     89  C   UNL A   1      45.931  27.578  36.745  1.00  0.00     0.200 A 
ATOM     90  F   UNL A   1      44.400  26.145  37.831  1.00  0.00    -0.200 F 
ATOM     91  F   UNL A   1      46.950  27.018  37.413  1.00  0.00    -0.200 F 
ENDBRANCH  58  81
ENDBRANCH  32  33
ENDBRANCH  24  27
ENDBRANCH  22  23
ENDBRANCH  21  22
ENDBRANCH   1  21
TORSDOF 13
ENDMDL
MODEL 3
REMARK VINA RESULT:     -11.9      6.253     11.591
REMARK SMILES O=C(C[C@H]1CN(c2nc(C3CC3)ns2)CCO1)NCCCNC(=O)c1ccc(-c2c3nc(c(-c4c(F)c(F)c(F)c(F)c4F)c4ccc([nH]4)c(-c4c(F)c(F)c(F)c(F)c4F)c4nc(c(-c5c(F)c(F)c(F)c(F)c5F)c5ccc2[nH]5)C=C4)C=C3)cc1
REMARK SMILES IDX 19 1 18 2 1 3 2 4 3 6 4 7 5 8 17 9 6 10 16 11 15 12 7 13
REMARK SMILES IDX 8 14 14 15 9 16 13 17 10 18 11 19 12 20 20 21 21 22 22 23
REMARK SMILES IDX 23 24 24 26 25 27 26 28 87 29 27 30 86 31 28 32 29 33 30 34
REMARK SMILES IDX 80 35 31 36 85 37 79 38 81 39 32 40 84 41 78 42 77 43 33 45
REMARK SMILES IDX 65 46 45 47 64 48 46 49 49 50 63 51 82 52 47 53 48 54 62 56
REMARK SMILES IDX 83 57 50 58 34 59 35 60 43 61 36 62 37 63 41 64 44 65 38 66
REMARK SMILES IDX 39 67 42 68 40 69 66 70 67 71 75 72 68 73 69 74 73 75 76 76
REMARK SMILES IDX 70 77 71 78 74 79 72 80 51 81 52 82 60 83 53 84 54 85 58 86
REMARK SMILES IDX 61 87 55 88 56 89 59 90 57 91
REMARK H PARENT 18 5 22 25 81 44 49 55
REMARK Flexibility Score: inf
ROOT
ATOM      1  C   UNL A   1      37.082  20.988  24.447  1.00  0.00     0.117 C 
ENDROOT
BRANCH   1   2
ATOM      2  N   UNL A   1      35.963  21.353  25.285  1.00  0.00    -0.356 N 
ATOM      3  O   UNL A   1      36.904  23.260  26.127  1.00  0.00    -0.275 OA
ATOM      4  C   UNL A   1      35.930  22.523  26.004  1.00  0.00     0.222 C 
ATOM      5  H   UNL A   1      35.193  20.741  25.341  1.00  0.00     0.163 HD
BRANCH   4   6
ATOM      6  C   UNL A   1      34.617  22.809  26.699  1.00  0.00     0.133 C 
BRANCH   6   7
ATOM      7  C   UNL A   1      33.707  23.901  26.103  1.00  0.00     0.147 C 
ATOM      8  C   UNL A   1      33.279  23.611  24.648  1.00  0.00     0.151 C 
ATOM      9  O   UNL A   1      32.580  24.291  26.916  1.00  0.00    -0.374 OA
ATOM     10  N   UNL A   1      32.132  22.712  24.599  1.00  0.00    -0.342 N 
ATOM     11  C   UNL A   1      31.488  23.351  26.862  1.00  0.00     0.182 C 
ATOM     12  C   UNL A   1      30.997  23.097  25.429  1.00  0.00     0.147 C 
BRANCH  10  13
ATOM     13  C   UNL A   1      32.257  21.469  24.073  1.00  0.00     0.205 A 
ATOM     14  N   UNL A   1      32.794  20.440  24.692  1.00  0.00    -0.203 NA
ATOM     15  S   UNL A   1      31.807  21.046  22.452  1.00  0.00     0.004 S 
ATOM     16  C   UNL A   1      32.816  19.349  23.831  1.00  0.00     0.147 A 
ATOM     17  N   UNL A   1      32.396  19.492  22.574  1.00  0.00    -0.174 NA
BRANCH  16  18
ATOM     18  C   UNL A   1      33.312  17.983  24.304  1.00  0.00     0.059 C 
ATOM     19  C   UNL A   1      33.883  17.005  23.300  1.00  0.00     0.012 C 
ATOM     20  C   UNL A   1      34.800  17.704  24.247  1.00  0.00     0.012 C 
ENDBRANCH  16  18
ENDBRANCH  10  13
ENDBRANCH   6   7
ENDBRANCH   4   6
ENDBRANCH   1   2
BRANCH   1  21
ATOM     21  C   UNL A   1      37.879  19.819  25.004  1.00  0.00     0.042 C 
BRANCH  21  22
ATOM     22  C   UNL A   1      39.085  20.231  25.840  1.00  0.00     0.118 C 
BRANCH  22  23
ATOM     23  N   UNL A   1      40.110  19.197  25.926  1.00  0.00    -0.352 N 
ATOM     24  C   UNL A   1      41.463  19.306  26.128  1.00  0.00     0.251 C 
ATOM     25  H   UNL A   1      39.778  18.276  25.824  1.00  0.00     0.163 HD
ATOM     26  O   UNL A   1      42.176  18.308  26.035  1.00  0.00    -0.269 OA
BRANCH  24  27
ATOM     27  C   UNL A   1      42.078  20.618  26.423  1.00  0.00     0.039 A 
ATOM     28  C   UNL A   1      42.478  21.428  25.356  1.00  0.00     0.014 A 
ATOM     29  C   UNL A   1      42.270  21.051  27.737  1.00  0.00     0.014 A 
ATOM     30  C   UNL A   1      42.996  22.701  25.607  1.00  0.00     0.010 A 
ATOM     31  C   UNL A   1      42.708  22.350  27.983  1.00  0.00     0.010 A 
ATOM     32  C   UNL A   1      43.074  23.192  26.921  1.00  0.00    -0.014 A 
BRANCH  32  33
ATOM     33  C   UNL A   1      43.522  24.581  27.201  1.00  0.00     0.031 A 
ATOM     34  C   UNL A   1      42.555  25.600  27.736  1.00  0.00     0.074 A 
ATOM     35  C   UNL A   1      44.789  24.943  26.913  1.00  0.00     0.049 A 
ATOM     36  N   UNL A   1      42.743  26.874  27.979  1.00  0.00    -0.248 NA
ATOM     37  C   UNL A   1      41.188  25.134  28.013  1.00  0.00     0.031 C 
ATOM     38  C   UNL A   1      45.811  24.061  26.346  1.00  0.00     0.029 A 
ATOM     39  N   UNL A   1      45.429  26.150  27.044  1.00  0.00    -0.354 N 
ATOM     40  C   UNL A   1      41.519  27.359  28.421  1.00  0.00     0.074 A 
ATOM     41  C   UNL A   1      40.582  26.259  28.360  1.00  0.00     0.031 C 
ATOM     42  C   UNL A   1      46.955  24.748  26.203  1.00  0.00     0.029 A 
ATOM     43  C   UNL A   1      46.736  26.130  26.622  1.00  0.00     0.049 A 
ATOM     44  H   UNL A   1      44.992  26.954  27.407  1.00  0.00     0.167 HD
ATOM     45  C   UNL A   1      41.211  28.603  28.861  1.00  0.00     0.037 A 
ATOM     46  C   UNL A   1      47.653  27.115  26.567  1.00  0.00     0.037 A 
ATOM     47  C   UNL A   1      42.150  29.692  28.935  1.00  0.00     0.049 A 
ATOM     48  C   UNL A   1      47.278  28.493  27.041  1.00  0.00     0.074 A 
ATOM     49  C   UNL A   1      41.949  30.973  29.419  1.00  0.00     0.029 A 
ATOM     50  N   UNL A   1      43.469  29.631  28.506  1.00  0.00    -0.354 N 
ATOM     51  N   UNL A   1      46.138  28.923  27.525  1.00  0.00    -0.248 NA
ATOM     52  C   UNL A   1      48.322  29.526  26.966  1.00  0.00     0.031 C 
ATOM     53  C   UNL A   1      43.127  31.703  29.229  1.00  0.00     0.029 A 
ATOM     54  C   UNL A   1      44.084  30.860  28.688  1.00  0.00     0.049 A 
ATOM     55  H   UNL A   1      43.903  28.831  28.129  1.00  0.00     0.167 HD
ATOM     56  C   UNL A   1      46.335  30.260  27.842  1.00  0.00     0.074 A 
ATOM     57  C   UNL A   1      47.710  30.568  27.509  1.00  0.00     0.031 C 
ATOM     58  C   UNL A   1      45.456  31.152  28.362  1.00  0.00     0.037 A 
BRANCH  45  59
ATOM     59  C   UNL A   1      39.795  28.857  29.297  1.00  0.00     0.064 A 
ATOM     60  C   UNL A   1      39.387  28.665  30.626  1.00  0.00     0.173 A 
ATOM     61  C   UNL A   1      38.844  29.335  28.383  1.00  0.00     0.173 A 
ATOM     62  F   UNL A   1      40.254  28.202  31.539  1.00  0.00    -0.203 F 
ATOM     63  C   UNL A   1      38.074  28.914  31.016  1.00  0.00     0.198 A 
ATOM     64  C   UNL A   1      37.540  29.615  28.785  1.00  0.00     0.198 A 
ATOM     65  F   UNL A   1      39.180  29.543  27.101  1.00  0.00    -0.203 F 
ATOM     66  F   UNL A   1      37.695  28.672  32.279  1.00  0.00    -0.200 F 
ATOM     67  C   UNL A   1      37.153  29.395  30.098  1.00  0.00     0.200 A 
ATOM     68  F   UNL A   1      36.656  30.096  27.898  1.00  0.00    -0.200 F 
ATOM     69  F   UNL A   1      35.891  29.641  30.476  1.00  0.00    -0.200 F 
ENDBRANCH  45  59
BRANCH  46  70
ATOM     70  C   UNL A   1      49.022  26.832  26.059  1.00  0.00     0.064 A 
ATOM     71  C   UNL A   1      49.342  27.023  24.707  1.00  0.00     0.173 A 
ATOM     72  C   UNL A   1      50.033  26.356  26.907  1.00  0.00     0.173 A 
ATOM     73  F   UNL A   1      48.404  27.457  23.852  1.00  0.00    -0.203 F 
ATOM     74  C   UNL A   1      50.612  26.724  24.219  1.00  0.00     0.198 A 
ATOM     75  C   UNL A   1      51.312  26.089  26.422  1.00  0.00     0.198 A 
ATOM     76  F   UNL A   1      49.781  26.160  28.209  1.00  0.00    -0.203 F 
ATOM     77  F   UNL A   1      50.874  26.865  22.911  1.00  0.00    -0.200 F 
ATOM     78  C   UNL A   1      51.598  26.263  25.077  1.00  0.00     0.200 A 
ATOM     79  F   UNL A   1      52.265  25.658  27.260  1.00  0.00    -0.200 F 
ATOM     80  F   UNL A   1      52.819  25.978  24.607  1.00  0.00    -0.200 F 
ENDBRANCH  46  70
BRANCH  58  81
ATOM     81  C   UNL A   1      45.965  32.537  28.646  1.00  0.00     0.064 A 
ATOM     82  C   UNL A   1      45.808  33.587  27.728  1.00  0.00     0.173 A 
ATOM     83  C   UNL A   1      46.585  32.827  29.871  1.00  0.00     0.173 A 
ATOM     84  F   UNL A   1      45.235  33.361  26.536  1.00  0.00    -0.203 F 
ATOM     85  C   UNL A   1      46.280  34.866  28.013  1.00  0.00     0.198 A 
ATOM     86  C   UNL A   1      47.023  34.114  30.168  1.00  0.00     0.198 A 
ATOM     87  F   UNL A   1      46.754  31.863  30.788  1.00  0.00    -0.203 F 
ATOM     88  F   UNL A   1      46.168  35.839  27.099  1.00  0.00    -0.200 F 
ATOM     89  C   UNL A   1      46.879  35.130  29.236  1.00  0.00     0.200 A 
ATOM     90  F   UNL A   1      47.587  34.371  31.357  1.00  0.00    -0.200 F 
ATOM     91  F   UNL A   1      47.325  36.364  29.513  1.00  0.00    -0.200 F 
ENDBRANCH  58  81
ENDBRANCH  32  33
ENDBRANCH  24  27
ENDBRANCH  22  23
ENDBRANCH  21  22
ENDBRANCH   1  21
TORSDOF 13
ENDMDL
