MODEL 1
REMARK VINA RESULT:     -11.7      0.000      0.000
REMARK SMILES CCOCCC[N@@H+]1[C@@H](C(=O)NCCCNC(=O)c2ccc(-c3c4nc(c(-c5c(F)c(F)c(F)c(F)c5F)c5ccc([nH]5)c(-c5c(F)c(F)c(F)c(F)c5F)c5nc(c(-c6c(F)c(F)c(F)c(F)c6F)c6ccc3[nH]6)C=C5)C=C4)cc2)CC[C@H]2CCCC[C@H]21
REMARK SMILES IDX 9 1 10 2 11 3 8 5 7 6 88 7 81 9 83 10 87 11 82 12 84 13
REMARK SMILES IDX 86 14 85 15 6 16 5 17 4 18 3 19 2 20 1 21 12 22 13 23 14 24
REMARK SMILES IDX 15 25 16 26 17 28 18 29 19 30 80 31 20 32 79 33 21 34 22 35
REMARK SMILES IDX 23 36 73 37 24 38 78 39 72 40 74 41 25 42 77 43 71 44 70 45
REMARK SMILES IDX 26 47 58 48 38 49 57 50 39 51 42 52 56 53 75 54 40 55 41 56
REMARK SMILES IDX 55 58 76 59 43 60 27 61 28 62 36 63 29 64 30 65 34 66 37 67
REMARK SMILES IDX 31 68 32 69 35 70 33 71 59 72 60 73 68 74 61 75 62 76 66 77
REMARK SMILES IDX 69 78 63 79 64 80 67 81 65 82 44 83 45 84 53 85 46 86 47 87
REMARK SMILES IDX 51 88 54 89 48 90 49 91 52 92 50 93
REMARK H PARENT 11 4 7 8 15 27 74 46 42 57
REMARK Flexibility Score: inf
ROOT
ATOM      1  C   UNL A   1      31.672  28.367  27.015  1.00  0.00     0.278 C 
ATOM      2  O   UNL A   1      31.328  27.730  28.016  1.00  0.00    -0.268 OA
ATOM      3  N   UNL A   1      31.452  29.713  27.023  1.00  0.00    -0.351 N 
ATOM      4  H   UNL A   1      31.144  30.085  27.881  1.00  0.00     0.163 HD
ENDROOT
BRANCH   1   5
ATOM      5  C   UNL A   1      32.309  27.650  25.802  1.00  0.00     0.274 C 
ATOM      6  N   UNL A   1      31.382  26.664  25.207  1.00  0.00    -0.322 N 
ATOM      7  C   UNL A   1      31.991  25.650  24.317  1.00  0.00     0.187 C 
ATOM      8  H   UNL A   1      31.124  26.133  26.039  1.00  0.00     0.349 HD
ATOM      9  C   UNL A   1      33.696  27.138  26.208  1.00  0.00     0.076 C 
ATOM     10  C   UNL A   1      33.352  25.088  24.800  1.00  0.00     0.048 C 
ATOM     11  C   UNL A   1      31.072  24.436  24.039  1.00  0.00     0.065 C 
ATOM     12  C   UNL A   1      34.304  26.235  25.145  1.00  0.00     0.016 C 
ATOM     13  C   UNL A   1      33.259  24.069  25.954  1.00  0.00     0.010 C 
ATOM     14  C   UNL A   1      30.832  23.600  25.289  1.00  0.00     0.006 C 
ATOM     15  C   UNL A   1      32.140  23.038  25.828  1.00  0.00     0.001 C 
BRANCH   6  16
ATOM     16  C   UNL A   1      30.090  27.196  24.710  1.00  0.00     0.265 C 
BRANCH  16  17
ATOM     17  C   UNL A   1      29.803  27.627  23.255  1.00  0.00     0.090 C 
BRANCH  17  18
ATOM     18  C   UNL A   1      30.102  29.055  22.793  1.00  0.00     0.166 C 
BRANCH  18  19
ATOM     19  O   UNL A   1      29.255  29.554  21.763  1.00  0.00    -0.382 OA
BRANCH  19  20
ATOM     20  C   UNL A   1      27.912  29.866  22.106  1.00  0.00     0.156 C 
ATOM     21  C   UNL A   1      27.752  30.775  23.315  1.00  0.00     0.035 C 
ENDBRANCH  19  20
ENDBRANCH  18  19
ENDBRANCH  17  18
ENDBRANCH  16  17
ENDBRANCH   6  16
ENDBRANCH   1   5
BRANCH   3  22
ATOM     22  C   UNL A   1      31.604  30.676  25.952  1.00  0.00     0.118 C 
BRANCH  22  23
ATOM     23  C   UNL A   1      31.409  32.102  26.452  1.00  0.00     0.042 C 
BRANCH  23  24
ATOM     24  C   UNL A   1      32.665  32.690  27.070  1.00  0.00     0.118 C 
BRANCH  24  25
ATOM     25  N   UNL A   1      32.466  34.062  27.514  1.00  0.00    -0.352 N 
ATOM     26  C   UNL A   1      33.063  34.733  28.546  1.00  0.00     0.251 C 
ATOM     27  H   UNL A   1      31.807  34.581  26.997  1.00  0.00     0.163 HD
ATOM     28  O   UNL A   1      32.612  35.820  28.915  1.00  0.00    -0.269 OA
BRANCH  26  29
ATOM     29  C   UNL A   1      34.237  34.154  29.227  1.00  0.00     0.039 A 
ATOM     30  C   UNL A   1      34.036  33.295  30.310  1.00  0.00     0.014 A 
ATOM     31  C   UNL A   1      35.534  34.474  28.815  1.00  0.00     0.014 A 
ATOM     32  C   UNL A   1      35.136  32.728  30.954  1.00  0.00     0.010 A 
ATOM     33  C   UNL A   1      36.623  33.835  29.395  1.00  0.00     0.010 A 
ATOM     34  C   UNL A   1      36.437  32.976  30.488  1.00  0.00    -0.014 A 
BRANCH  34  35
ATOM     35  C   UNL A   1      37.621  32.387  31.160  1.00  0.00     0.031 A 
ATOM     36  C   UNL A   1      38.414  31.313  30.467  1.00  0.00     0.074 A 
ATOM     37  C   UNL A   1      37.952  32.784  32.403  1.00  0.00     0.049 A 
ATOM     38  N   UNL A   1      39.443  30.630  30.902  1.00  0.00    -0.248 NA
ATOM     39  C   UNL A   1      37.973  30.933  29.115  1.00  0.00     0.031 C 
ATOM     40  C   UNL A   1      37.232  33.785  33.192  1.00  0.00     0.029 A 
ATOM     41  N   UNL A   1      38.978  32.389  33.222  1.00  0.00    -0.354 N 
ATOM     42  C   UNL A   1      39.758  29.736  29.887  1.00  0.00     0.074 A 
ATOM     43  C   UNL A   1      38.775  29.916  28.843  1.00  0.00     0.031 C 
ATOM     44  C   UNL A   1      37.857  33.947  34.370  1.00  0.00     0.029 A 
ATOM     45  C   UNL A   1      38.997  33.038  34.432  1.00  0.00     0.049 A 
ATOM     46  H   UNL A   1      39.639  31.706  32.968  1.00  0.00     0.167 HD
ATOM     47  C   UNL A   1      40.793  28.866  29.819  1.00  0.00     0.037 A 
ATOM     48  C   UNL A   1      39.841  32.911  35.473  1.00  0.00     0.037 A 
ATOM     49  C   UNL A   1      41.785  28.713  30.849  1.00  0.00     0.049 A 
ATOM     50  C   UNL A   1      40.984  31.935  35.372  1.00  0.00     0.074 A 
ATOM     51  C   UNL A   1      42.898  27.890  30.863  1.00  0.00     0.029 A 
ATOM     52  N   UNL A   1      41.784  29.406  32.051  1.00  0.00    -0.354 N 
ATOM     53  N   UNL A   1      41.306  31.137  34.383  1.00  0.00    -0.248 NA
ATOM     54  C   UNL A   1      41.885  31.853  36.528  1.00  0.00     0.031 C 
ATOM     55  C   UNL A   1      43.549  28.057  32.090  1.00  0.00     0.029 A 
ATOM     56  C   UNL A   1      42.871  29.021  32.819  1.00  0.00     0.049 A 
ATOM     57  H   UNL A   1      41.111  30.072  32.319  1.00  0.00     0.167 HD
ATOM     58  C   UNL A   1      42.466  30.486  34.782  1.00  0.00     0.074 A 
ATOM     59  C   UNL A   1      42.797  30.992  36.097  1.00  0.00     0.031 C 
ATOM     60  C   UNL A   1      43.192  29.552  34.119  1.00  0.00     0.037 A 
BRANCH  47  61
ATOM     61  C   UNL A   1      40.908  28.022  28.582  1.00  0.00     0.064 A 
ATOM     62  C   UNL A   1      40.259  26.782  28.475  1.00  0.00     0.173 A 
ATOM     63  C   UNL A   1      41.653  28.468  27.480  1.00  0.00     0.173 A 
ATOM     64  F   UNL A   1      39.545  26.303  29.506  1.00  0.00    -0.203 F 
ATOM     65  C   UNL A   1      40.377  26.006  27.326  1.00  0.00     0.198 A 
ATOM     66  C   UNL A   1      41.742  27.703  26.319  1.00  0.00     0.198 A 
ATOM     67  F   UNL A   1      42.290  29.647  27.524  1.00  0.00    -0.203 F 
ATOM     68  F   UNL A   1      39.792  24.801  27.270  1.00  0.00    -0.200 F 
ATOM     69  C   UNL A   1      41.112  26.469  26.246  1.00  0.00     0.200 A 
ATOM     70  F   UNL A   1      42.442  28.158  25.271  1.00  0.00    -0.200 F 
ATOM     71  F   UNL A   1      41.220  25.724  25.138  1.00  0.00    -0.200 F 
ENDBRANCH  47  61
BRANCH  48  72
ATOM     72  C   UNL A   1      39.664  33.752  36.685  1.00  0.00     0.064 A 
ATOM     73  C   UNL A   1      38.885  33.305  37.763  1.00  0.00     0.173 A 
ATOM     74  C   UNL A   1      40.255  35.019  36.791  1.00  0.00     0.173 A 
ATOM     75  F   UNL A   1      38.285  32.108  37.701  1.00  0.00    -0.203 F 
ATOM     76  C   UNL A   1      38.681  34.104  38.885  1.00  0.00     0.198 A 
ATOM     77  C   UNL A   1      40.075  35.805  37.926  1.00  0.00     0.198 A 
ATOM     78  F   UNL A   1      41.015  35.491  35.792  1.00  0.00    -0.203 F 
ATOM     79  F   UNL A   1      37.890  33.672  39.876  1.00  0.00    -0.200 F 
ATOM     80  C   UNL A   1      39.280  35.352  38.968  1.00  0.00     0.200 A 
ATOM     81  F   UNL A   1      40.667  37.005  38.010  1.00  0.00    -0.200 F 
ATOM     82  F   UNL A   1      39.085  36.120  40.049  1.00  0.00    -0.200 F 
ENDBRANCH  48  72
BRANCH  60  83
ATOM     83  C   UNL A   1      44.445  29.058  34.782  1.00  0.00     0.064 A 
ATOM     84  C   UNL A   1      44.445  27.928  35.612  1.00  0.00     0.173 A 
ATOM     85  C   UNL A   1      45.667  29.709  34.556  1.00  0.00     0.173 A 
ATOM     86  F   UNL A   1      43.298  27.281  35.872  1.00  0.00    -0.203 F 
ATOM     87  C   UNL A   1      45.618  27.485  36.216  1.00  0.00     0.198 A 
ATOM     88  C   UNL A   1      46.844  29.243  35.135  1.00  0.00     0.198 A 
ATOM     89  F   UNL A   1      45.723  30.789  33.763  1.00  0.00    -0.203 F 
ATOM     90  F   UNL A   1      45.586  26.434  37.047  1.00  0.00    -0.200 F 
ATOM     91  C   UNL A   1      46.817  28.138  35.970  1.00  0.00     0.200 A 
ATOM     92  F   UNL A   1      48.004  29.866  34.885  1.00  0.00    -0.200 F 
ATOM     93  F   UNL A   1      47.947  27.705  36.548  1.00  0.00    -0.200 F 
ENDBRANCH  60  83
ENDBRANCH  34  35
ENDBRANCH  26  29
ENDBRANCH  24  25
ENDBRANCH  23  24
ENDBRANCH  22  23
ENDBRANCH   3  22
TORSDOF 15
ENDMDL
MODEL 2
REMARK VINA RESULT:     -11.7      1.952      7.759
REMARK SMILES CCOCCC[N@@H+]1[C@@H](C(=O)NCCCNC(=O)c2ccc(-c3c4nc(c(-c5c(F)c(F)c(F)c(F)c5F)c5ccc([nH]5)c(-c5c(F)c(F)c(F)c(F)c5F)c5nc(c(-c6c(F)c(F)c(F)c(F)c6F)c6ccc3[nH]6)C=C5)C=C4)cc2)CC[C@H]2CCCC[C@H]21
REMARK SMILES IDX 9 1 10 2 11 3 8 5 7 6 88 7 81 9 83 10 87 11 82 12 84 13
REMARK SMILES IDX 86 14 85 15 6 16 5 17 4 18 3 19 2 20 1 21 12 22 13 23 14 24
REMARK SMILES IDX 15 25 16 26 17 28 18 29 19 30 80 31 20 32 79 33 21 34 22 35
REMARK SMILES IDX 23 36 73 37 24 38 78 39 72 40 74 41 25 42 77 43 71 44 70 45
REMARK SMILES IDX 26 47 58 48 38 49 57 50 39 51 42 52 56 53 75 54 40 55 41 56
REMARK SMILES IDX 55 58 76 59 43 60 27 61 28 62 36 63 29 64 30 65 34 66 37 67
REMARK SMILES IDX 31 68 32 69 35 70 33 71 59 72 60 73 68 74 61 75 62 76 66 77
REMARK SMILES IDX 69 78 63 79 64 80 67 81 65 82 44 83 45 84 53 85 46 86 47 87
REMARK SMILES IDX 51 88 54 89 48 90 49 91 52 92 50 93
REMARK H PARENT 11 4 7 8 15 27 74 46 42 57
REMARK Flexibility Score: inf
ROOT
ATOM      1  C   UNL A   1      31.716  25.091  26.510  1.00  0.00     0.278 C 
ATOM      2  O   UNL A   1      31.379  24.171  27.265  1.00  0.00    -0.268 OA
ATOM      3  N   UNL A   1      31.223  26.333  26.778  1.00  0.00    -0.351 N 
ATOM      4  H   UNL A   1      30.731  26.418  27.627  1.00  0.00     0.163 HD
ENDROOT
BRANCH   1   5
ATOM      5  C   UNL A   1      32.647  24.822  25.306  1.00  0.00     0.274 C 
ATOM      6  N   UNL A   1      32.098  23.773  24.420  1.00  0.00    -0.322 N 
ATOM      7  C   UNL A   1      33.053  23.152  23.474  1.00  0.00     0.187 C 
ATOM      8  H   UNL A   1      31.917  23.037  25.101  1.00  0.00     0.349 HD
ATOM      9  C   UNL A   1      34.074  24.611  25.825  1.00  0.00     0.076 C 
ATOM     10  C   UNL A   1      34.461  22.871  24.057  1.00  0.00     0.048 C 
ATOM     11  C   UNL A   1      32.543  21.825  22.860  1.00  0.00     0.065 C 
ATOM     12  C   UNL A   1      35.013  24.128  24.730  1.00  0.00     0.016 C 
ATOM     13  C   UNL A   1      34.541  21.649  24.996  1.00  0.00     0.010 C 
ATOM     14  C   UNL A   1      32.423  20.721  23.901  1.00  0.00     0.006 C 
ATOM     15  C   UNL A   1      33.774  20.415  24.530  1.00  0.00     0.001 C 
BRANCH   6  16
ATOM     16  C   UNL A   1      30.765  24.047  23.829  1.00  0.00     0.265 C 
BRANCH  16  17
ATOM     17  C   UNL A   1      30.281  25.420  23.316  1.00  0.00     0.090 C 
BRANCH  17  18
ATOM     18  C   UNL A   1      31.248  26.371  22.605  1.00  0.00     0.166 C 
BRANCH  18  19
ATOM     19  O   UNL A   1      30.650  27.514  22.004  1.00  0.00    -0.382 OA
BRANCH  19  20
ATOM     20  C   UNL A   1      31.006  28.791  22.515  1.00  0.00     0.156 C 
ATOM     21  C   UNL A   1      29.901  29.511  23.272  1.00  0.00     0.035 C 
ENDBRANCH  19  20
ENDBRANCH  18  19
ENDBRANCH  17  18
ENDBRANCH  16  17
ENDBRANCH   6  16
ENDBRANCH   1   5
BRANCH   3  22
ATOM     22  C   UNL A   1      31.316  27.548  25.994  1.00  0.00     0.118 C 
BRANCH  22  23
ATOM     23  C   UNL A   1      31.808  28.718  26.835  1.00  0.00     0.042 C 
BRANCH  23  24
ATOM     24  C   UNL A   1      32.864  29.553  26.132  1.00  0.00     0.118 C 
BRANCH  24  25
ATOM     25  N   UNL A   1      32.686  30.977  26.372  1.00  0.00    -0.352 N 
ATOM     26  C   UNL A   1      33.340  31.793  27.254  1.00  0.00     0.251 C 
ATOM     27  H   UNL A   1      31.998  31.415  25.821  1.00  0.00     0.163 HD
ATOM     28  O   UNL A   1      32.908  32.927  27.479  1.00  0.00    -0.269 OA
BRANCH  26  29
ATOM     29  C   UNL A   1      34.553  31.318  27.947  1.00  0.00     0.039 A 
ATOM     30  C   UNL A   1      35.643  32.183  28.075  1.00  0.00     0.014 A 
ATOM     31  C   UNL A   1      34.627  30.016  28.450  1.00  0.00     0.014 A 
ATOM     32  C   UNL A   1      36.791  31.754  28.741  1.00  0.00     0.010 A 
ATOM     33  C   UNL A   1      35.733  29.623  29.195  1.00  0.00     0.010 A 
ATOM     34  C   UNL A   1      36.836  30.479  29.326  1.00  0.00    -0.014 A 
BRANCH  34  35
ATOM     35  C   UNL A   1      38.048  30.000  30.034  1.00  0.00     0.031 A 
ATOM     36  C   UNL A   1      38.327  30.471  31.436  1.00  0.00     0.074 A 
ATOM     37  C   UNL A   1      38.914  29.183  29.405  1.00  0.00     0.049 A 
ATOM     38  N   UNL A   1      39.354  30.218  32.207  1.00  0.00    -0.248 NA
ATOM     39  C   UNL A   1      37.332  31.371  32.041  1.00  0.00     0.031 C 
ATOM     40  C   UNL A   1      38.773  28.696  28.032  1.00  0.00     0.029 A 
ATOM     41  N   UNL A   1      40.088  28.623  29.838  1.00  0.00    -0.354 N 
ATOM     42  C   UNL A   1      39.135  30.938  33.374  1.00  0.00     0.074 A 
ATOM     43  C   UNL A   1      37.913  31.687  33.188  1.00  0.00     0.031 C 
ATOM     44  C   UNL A   1      39.805  27.886  27.746  1.00  0.00     0.029 A 
ATOM     45  C   UNL A   1      40.696  27.826  28.900  1.00  0.00     0.049 A 
ATOM     46  H   UNL A   1      40.461  28.778  30.736  1.00  0.00     0.167 HD
ATOM     47  C   UNL A   1      39.870  30.948  34.511  1.00  0.00     0.037 A 
ATOM     48  C   UNL A   1      41.844  27.126  28.967  1.00  0.00     0.037 A 
ATOM     49  C   UNL A   1      41.069  30.177  34.701  1.00  0.00     0.049 A 
ATOM     50  C   UNL A   1      42.643  27.155  30.244  1.00  0.00     0.074 A 
ATOM     51  C   UNL A   1      41.868  30.083  35.828  1.00  0.00     0.029 A 
ATOM     52  N   UNL A   1      41.641  29.362  33.735  1.00  0.00    -0.354 N 
ATOM     53  N   UNL A   1      42.395  27.793  31.362  1.00  0.00    -0.248 NA
ATOM     54  C   UNL A   1      43.876  26.357  30.268  1.00  0.00     0.031 C 
ATOM     55  C   UNL A   1      42.944  29.240  35.531  1.00  0.00     0.029 A 
ATOM     56  C   UNL A   1      42.789  28.769  34.237  1.00  0.00     0.049 A 
ATOM     57  H   UNL A   1      41.285  29.225  32.828  1.00  0.00     0.167 HD
ATOM     58  C   UNL A   1      43.418  27.444  32.234  1.00  0.00     0.074 A 
ATOM     59  C   UNL A   1      44.282  26.530  31.518  1.00  0.00     0.031 C 
ATOM     60  C   UNL A   1      43.624  27.846  33.512  1.00  0.00     0.037 A 
BRANCH  47  61
ATOM     61  C   UNL A   1      39.387  31.813  35.640  1.00  0.00     0.064 A 
ATOM     62  C   UNL A   1      38.433  31.352  36.561  1.00  0.00     0.173 A 
ATOM     63  C   UNL A   1      39.901  33.105  35.822  1.00  0.00     0.173 A 
ATOM     64  F   UNL A   1      37.898  30.129  36.425  1.00  0.00    -0.203 F 
ATOM     65  C   UNL A   1      37.988  32.164  37.601  1.00  0.00     0.198 A 
ATOM     66  C   UNL A   1      39.477  33.902  36.882  1.00  0.00     0.198 A 
ATOM     67  F   UNL A   1      40.818  33.594  34.974  1.00  0.00    -0.203 F 
ATOM     68  F   UNL A   1      37.036  31.722  38.435  1.00  0.00    -0.200 F 
ATOM     69  C   UNL A   1      38.515  33.435  37.765  1.00  0.00     0.200 A 
ATOM     70  F   UNL A   1      39.998  35.126  37.048  1.00  0.00    -0.200 F 
ATOM     71  F   UNL A   1      38.092  34.213  38.770  1.00  0.00    -0.200 F 
ENDBRANCH  47  61
BRANCH  48  72
ATOM     72  C   UNL A   1      42.289  26.308  27.809  1.00  0.00     0.064 A 
ATOM     73  C   UNL A   1      41.773  25.022  27.597  1.00  0.00     0.173 A 
ATOM     74  C   UNL A   1      43.244  26.784  26.900  1.00  0.00     0.173 A 
ATOM     75  F   UNL A   1      40.871  24.515  28.450  1.00  0.00    -0.203 F 
ATOM     76  C   UNL A   1      42.214  24.233  26.538  1.00  0.00     0.198 A 
ATOM     77  C   UNL A   1      43.664  26.007  25.823  1.00  0.00     0.198 A 
ATOM     78  F   UNL A   1      43.765  28.010  27.052  1.00  0.00    -0.203 F 
ATOM     79  F   UNL A   1      41.741  22.988  26.390  1.00  0.00    -0.200 F 
ATOM     80  C   UNL A   1      43.156  24.728  25.649  1.00  0.00     0.200 A 
ATOM     81  F   UNL A   1      44.563  26.493  24.957  1.00  0.00    -0.200 F 
ATOM     82  F   UNL A   1      43.580  23.969  24.628  1.00  0.00    -0.200 F 
ENDBRANCH  48  72
BRANCH  60  83
ATOM     83  C   UNL A   1      44.800  27.256  34.236  1.00  0.00     0.064 A 
ATOM     84  C   UNL A   1      46.057  27.878  34.233  1.00  0.00     0.173 A 
ATOM     85  C   UNL A   1      44.654  26.069  34.970  1.00  0.00     0.173 A 
ATOM     86  F   UNL A   1      46.250  29.006  33.533  1.00  0.00    -0.203 F 
ATOM     87  C   UNL A   1      47.133  27.316  34.913  1.00  0.00     0.198 A 
ATOM     88  C   UNL A   1      45.725  25.528  35.676  1.00  0.00     0.198 A 
ATOM     89  F   UNL A   1      43.470  25.440  35.012  1.00  0.00    -0.203 F 
ATOM     90  F   UNL A   1      48.339  27.899  34.854  1.00  0.00    -0.200 F 
ATOM     91  C   UNL A   1      46.964  26.147  35.640  1.00  0.00     0.200 A 
ATOM     92  F   UNL A   1      45.556  24.406  36.389  1.00  0.00    -0.200 F 
ATOM     93  F   UNL A   1      48.001  25.610  36.299  1.00  0.00    -0.200 F 
ENDBRANCH  60  83
ENDBRANCH  34  35
ENDBRANCH  26  29
ENDBRANCH  24  25
ENDBRANCH  23  24
ENDBRANCH  22  23
ENDBRANCH   3  22
TORSDOF 15
ENDMDL
MODEL 3
REMARK VINA RESULT:     -11.6      0.721      7.486
REMARK SMILES CCOCCC[N@@H+]1[C@@H](C(=O)NCCCNC(=O)c2ccc(-c3c4nc(c(-c5c(F)c(F)c(F)c(F)c5F)c5ccc([nH]5)c(-c5c(F)c(F)c(F)c(F)c5F)c5nc(c(-c6c(F)c(F)c(F)c(F)c6F)c6ccc3[nH]6)C=C5)C=C4)cc2)CC[C@H]2CCCC[C@H]21
REMARK SMILES IDX 9 1 10 2 11 3 8 5 7 6 88 7 81 9 83 10 87 11 82 12 84 13
REMARK SMILES IDX 86 14 85 15 6 16 5 17 4 18 3 19 2 20 1 21 12 22 13 23 14 24
REMARK SMILES IDX 15 25 16 26 17 28 18 29 19 30 80 31 20 32 79 33 21 34 22 35
REMARK SMILES IDX 23 36 73 37 24 38 78 39 72 40 74 41 25 42 77 43 71 44 70 45
REMARK SMILES IDX 26 47 58 48 38 49 57 50 39 51 42 52 56 53 75 54 40 55 41 56
REMARK SMILES IDX 55 58 76 59 43 60 27 61 28 62 36 63 29 64 30 65 34 66 37 67
REMARK SMILES IDX 31 68 32 69 35 70 33 71 59 72 60 73 68 74 61 75 62 76 66 77
REMARK SMILES IDX 69 78 63 79 64 80 67 81 65 82 44 83 45 84 53 85 46 86 47 87
REMARK SMILES IDX 51 88 54 89 48 90 49 91 52 92 50 93
REMARK H PARENT 11 4 7 8 15 27 74 46 42 57
REMARK Flexibility Score: inf
ROOT
ATOM      1  C   UNL A   1      31.662  28.264  26.759  1.00  0.00     0.278 C 
ATOM      2  O   UNL A   1      31.280  27.476  27.631  1.00  0.00    -0.268 OA
ATOM      3  N   UNL A   1      31.402  29.588  26.955  1.00  0.00    -0.351 N 
ATOM      4  H   UNL A   1      31.035  29.820  27.838  1.00  0.00     0.163 HD
ENDROOT
BRANCH   1   5
ATOM      5  C   UNL A   1      32.390  27.752  25.495  1.00  0.00     0.274 C 
ATOM      6  N   UNL A   1      31.468  27.024  24.596  1.00  0.00    -0.322 N 
ATOM      7  C   UNL A   1      32.099  26.159  23.575  1.00  0.00     0.187 C 
ATOM      8  H   UNL A   1      31.057  26.363  25.254  1.00  0.00     0.349 HD
ATOM      9  C   UNL A   1      33.662  27.011  25.926  1.00  0.00     0.076 C 
ATOM     10  C   UNL A   1      33.330  25.357  24.067  1.00  0.00     0.048 C 
ATOM     11  C   UNL A   1      31.123  25.143  22.933  1.00  0.00     0.065 C 
ATOM     12  C   UNL A   1      34.323  26.290  24.762  1.00  0.00     0.016 C 
ATOM     13  C   UNL A   1      32.997  24.134  24.947  1.00  0.00     0.010 C 
ATOM     14  C   UNL A   1      30.649  24.096  23.931  1.00  0.00     0.006 C 
ATOM     15  C   UNL A   1      31.819  23.288  24.472  1.00  0.00     0.001 C 
BRANCH   6  16
ATOM     16  C   UNL A   1      30.303  27.793  24.092  1.00  0.00     0.265 C 
BRANCH  16  17
ATOM     17  C   UNL A   1      30.327  28.761  22.889  1.00  0.00     0.090 C 
BRANCH  17  18
ATOM     18  C   UNL A   1      29.025  29.332  22.323  1.00  0.00     0.166 C 
BRANCH  18  19
ATOM     19  O   UNL A   1      29.129  30.624  21.734  1.00  0.00    -0.382 OA
BRANCH  19  20
ATOM     20  C   UNL A   1      28.821  31.748  22.549  1.00  0.00     0.156 C 
ATOM     21  C   UNL A   1      27.653  31.550  23.501  1.00  0.00     0.035 C 
ENDBRANCH  19  20
ENDBRANCH  18  19
ENDBRANCH  17  18
ENDBRANCH  16  17
ENDBRANCH   6  16
ENDBRANCH   1   5
BRANCH   3  22
ATOM     22  C   UNL A   1      31.587  30.705  26.050  1.00  0.00     0.118 C 
BRANCH  22  23
ATOM     23  C   UNL A   1      31.412  32.038  26.767  1.00  0.00     0.042 C 
BRANCH  23  24
ATOM     24  C   UNL A   1      32.721  32.778  26.972  1.00  0.00     0.118 C 
BRANCH  24  25
ATOM     25  N   UNL A   1      32.522  34.082  27.587  1.00  0.00    -0.352 N 
ATOM     26  C   UNL A   1      33.111  34.611  28.703  1.00  0.00     0.251 C 
ATOM     27  H   UNL A   1      31.871  34.667  27.136  1.00  0.00     0.163 HD
ATOM     28  O   UNL A   1      32.661  35.643  29.205  1.00  0.00    -0.269 OA
BRANCH  26  29
ATOM     29  C   UNL A   1      34.276  33.943  29.315  1.00  0.00     0.039 A 
ATOM     30  C   UNL A   1      34.062  32.962  30.286  1.00  0.00     0.014 A 
ATOM     31  C   UNL A   1      35.578  34.298  28.951  1.00  0.00     0.014 A 
ATOM     32  C   UNL A   1      35.153  32.310  30.862  1.00  0.00     0.010 A 
ATOM     33  C   UNL A   1      36.659  33.583  29.455  1.00  0.00     0.010 A 
ATOM     34  C   UNL A   1      36.458  32.601  30.435  1.00  0.00    -0.014 A 
BRANCH  34  35
ATOM     35  C   UNL A   1      37.633  31.924  31.037  1.00  0.00     0.031 A 
ATOM     36  C   UNL A   1      38.086  32.306  32.420  1.00  0.00     0.074 A 
ATOM     37  C   UNL A   1      38.315  31.006  30.326  1.00  0.00     0.049 A 
ATOM     38  N   UNL A   1      39.118  31.879  33.102  1.00  0.00    -0.248 NA
ATOM     39  C   UNL A   1      37.288  33.326  33.119  1.00  0.00     0.031 C 
ATOM     40  C   UNL A   1      37.998  30.587  28.960  1.00  0.00     0.029 A 
ATOM     41  N   UNL A   1      39.419  30.263  30.655  1.00  0.00    -0.354 N 
ATOM     42  C   UNL A   1      39.100  32.588  34.296  1.00  0.00     0.074 A 
ATOM     43  C   UNL A   1      37.995  33.518  34.221  1.00  0.00     0.031 C 
ATOM     44  C   UNL A   1      38.870  29.639  28.579  1.00  0.00     0.029 A 
ATOM     45  C   UNL A   1      39.827  29.412  29.657  1.00  0.00     0.049 A 
ATOM     46  H   UNL A   1      39.878  30.333  31.523  1.00  0.00     0.167 HD
ATOM     47  C   UNL A   1      39.911  32.454  35.371  1.00  0.00     0.037 A 
ATOM     48  C   UNL A   1      40.856  28.546  29.621  1.00  0.00     0.037 A 
ATOM     49  C   UNL A   1      40.990  31.506  35.452  1.00  0.00     0.049 A 
ATOM     50  C   UNL A   1      41.744  28.416  30.830  1.00  0.00     0.074 A 
ATOM     51  C   UNL A   1      41.847  31.259  36.510  1.00  0.00     0.029 A 
ATOM     52  N   UNL A   1      41.357  30.643  34.429  1.00  0.00    -0.354 N 
ATOM     53  N   UNL A   1      41.681  29.050  31.976  1.00  0.00    -0.248 NA
ATOM     54  C   UNL A   1      42.839  27.441  30.743  1.00  0.00     0.031 C 
ATOM     55  C   UNL A   1      42.758  30.273  36.114  1.00  0.00     0.029 A 
ATOM     56  C   UNL A   1      42.435  29.870  34.828  1.00  0.00     0.049 A 
ATOM     57  H   UNL A   1      40.916  30.588  33.551  1.00  0.00     0.167 HD
ATOM     58  C   UNL A   1      42.703  28.526  32.758  1.00  0.00     0.074 A 
ATOM     59  C   UNL A   1      43.361  27.514  31.960  1.00  0.00     0.031 C 
ATOM     60  C   UNL A   1      43.063  28.854  34.023  1.00  0.00     0.037 A 
BRANCH  47  61
ATOM     61  C   UNL A   1      39.652  33.347  36.551  1.00  0.00     0.064 A 
ATOM     62  C   UNL A   1      38.772  32.970  37.578  1.00  0.00     0.173 A 
ATOM     63  C   UNL A   1      40.309  34.580  36.672  1.00  0.00     0.173 A 
ATOM     64  F   UNL A   1      38.106  31.807  37.505  1.00  0.00    -0.203 F 
ATOM     65  C   UNL A   1      38.535  33.808  38.663  1.00  0.00     0.198 A 
ATOM     66  C   UNL A   1      40.093  35.402  37.776  1.00  0.00     0.198 A 
ATOM     67  F   UNL A   1      41.164  34.988  35.722  1.00  0.00    -0.203 F 
ATOM     68  F   UNL A   1      37.649  33.451  39.604  1.00  0.00    -0.200 F 
ATOM     69  C   UNL A   1      39.201  35.020  38.766  1.00  0.00     0.200 A 
ATOM     70  F   UNL A   1      40.748  36.566  37.880  1.00  0.00    -0.200 F 
ATOM     71  F   UNL A   1      38.977  35.823  39.815  1.00  0.00    -0.200 F 
ENDBRANCH  47  61
BRANCH  48  72
ATOM     72  C   UNL A   1      41.083  27.705  28.417  1.00  0.00     0.064 A 
ATOM     73  C   UNL A   1      41.948  28.130  27.397  1.00  0.00     0.173 A 
ATOM     74  C   UNL A   1      40.437  26.472  28.251  1.00  0.00     0.173 A 
ATOM     75  F   UNL A   1      42.575  29.311  27.501  1.00  0.00    -0.203 F 
ATOM     76  C   UNL A   1      42.135  27.368  26.246  1.00  0.00     0.198 A 
ATOM     77  C   UNL A   1      40.648  25.696  27.113  1.00  0.00     0.198 A 
ATOM     78  F   UNL A   1      39.606  26.016  29.199  1.00  0.00    -0.203 F 
ATOM     79  F   UNL A   1      42.926  27.823  25.266  1.00  0.00    -0.200 F 
ATOM     80  C   UNL A   1      41.488  26.149  26.107  1.00  0.00     0.200 A 
ATOM     81  F   UNL A   1      40.033  24.512  26.988  1.00  0.00    -0.200 F 
ATOM     82  F   UNL A   1      41.670  25.415  25.001  1.00  0.00    -0.200 F 
ENDBRANCH  48  72
BRANCH  60  83
ATOM     83  C   UNL A   1      44.186  28.073  34.641  1.00  0.00     0.064 A 
ATOM     84  C   UNL A   1      45.517  28.510  34.569  1.00  0.00     0.173 A 
ATOM     85  C   UNL A   1      43.920  26.887  35.342  1.00  0.00     0.173 A 
ATOM     86  F   UNL A   1      45.824  29.630  33.897  1.00  0.00    -0.203 F 
ATOM     87  C   UNL A   1      46.544  27.772  35.152  1.00  0.00     0.198 A 
ATOM     88  C   UNL A   1      44.945  26.169  35.951  1.00  0.00     0.198 A 
ATOM     89  F   UNL A   1      42.663  26.430  35.447  1.00  0.00    -0.203 F 
ATOM     90  F   UNL A   1      47.814  28.181  35.026  1.00  0.00    -0.200 F 
ATOM     91  C   UNL A   1      46.256  26.608  35.848  1.00  0.00     0.200 A 
ATOM     92  F   UNL A   1      44.664  25.052  36.636  1.00  0.00    -0.200 F 
ATOM     93  F   UNL A   1      47.246  25.902  36.413  1.00  0.00    -0.200 F 
ENDBRANCH  60  83
ENDBRANCH  34  35
ENDBRANCH  26  29
ENDBRANCH  24  25
ENDBRANCH  23  24
ENDBRANCH  22  23
ENDBRANCH   3  22
TORSDOF 15
ENDMDL
