MODEL 1
REMARK VINA RESULT:     -14.0      0.000      0.000
REMARK SMILES COc1ccc(-n2ccnc2C[N@@H+]2Cc3[nH]cnc3C[C@H]2C(=O)NCCCNC(=O)c2ccc(-c3c4nc(c(-c5c(F)c(F)c(F)c(F)c5F)c5ccc([nH]5)c(-c5c(F)c(F)c(F)c(F)c5F)c5nc(c(-c6c(F)c(F)c(F)c(F)c6F)c6ccc3[nH]6)C=C5)C=C4)cc2)cc1
REMARK SMILES IDX 25 1 24 2 22 3 23 4 21 6 13 7 14 8 15 10 20 11 16 12 19 13
REMARK SMILES IDX 17 14 18 16 12 17 11 18 7 19 8 20 9 21 10 22 6 23 3 24 4 25
REMARK SMILES IDX 95 26 5 27 94 28 2 29 1 30 26 31 27 32 28 33 29 34 30 36
REMARK SMILES IDX 31 37 32 38 93 39 33 40 92 41 34 42 35 43 36 44 86 45 37 46
REMARK SMILES IDX 91 47 85 48 87 49 38 50 90 51 84 52 83 53 39 55 71 56 51 57
REMARK SMILES IDX 70 58 52 59 55 60 69 61 88 62 53 63 54 64 68 66 89 67 56 68
REMARK SMILES IDX 40 69 41 70 49 71 42 72 43 73 47 74 50 75 44 76 45 77 48 78
REMARK SMILES IDX 46 79 72 80 73 81 81 82 74 83 75 84 79 85 82 86 76 87 77 88
REMARK SMILES IDX 80 89 78 90 57 91 58 92 66 93 59 94 60 95 64 96 67 97 61 98
REMARK SMILES IDX 62 99 65 100 63 101
REMARK H PARENT 24 5 13 9 16 15 28 35 87 54 55 65
REMARK Flexibility Score: inf
ROOT
ATOM      1  C   UNL A   1      37.332  21.359  24.652  1.00  0.00     0.118 C 
ENDROOT
BRANCH   1   2
ATOM      2  N   UNL A   1      36.039  20.793  25.040  1.00  0.00    -0.351 N 
ATOM      3  C   UNL A   1      34.827  21.281  25.426  1.00  0.00     0.278 C 
ATOM      4  O   UNL A   1      33.950  20.411  25.561  1.00  0.00    -0.268 OA
ATOM      5  H   UNL A   1      36.048  19.809  25.017  1.00  0.00     0.163 HD
BRANCH   3   6
ATOM      6  C   UNL A   1      34.457  22.767  25.721  1.00  0.00     0.280 C 
ATOM      7  N   UNL A   1      33.971  23.453  24.465  1.00  0.00    -0.313 N 
ATOM      8  C   UNL A   1      32.582  23.110  24.168  1.00  0.00     0.320 C 
ATOM      9  H   UNL A   1      34.545  23.097  23.701  1.00  0.00     0.349 HD
ATOM     10  C   UNL A   1      31.748  23.195  25.381  1.00  0.00     0.093 A 
ATOM     11  C   UNL A   1      33.623  22.958  27.018  1.00  0.00     0.134 C 
ATOM     12  N   UNL A   1      30.391  23.261  25.467  1.00  0.00    -0.344 N 
ATOM     13  C   UNL A   1      32.193  23.126  26.677  1.00  0.00     0.074 A 
ATOM     14  C   UNL A   1      30.077  23.204  26.800  1.00  0.00     0.197 A 
ATOM     15  H   UNL A   1      29.757  23.336  24.717  1.00  0.00     0.167 HD
ATOM     16  N   UNL A   1      31.151  23.123  27.556  1.00  0.00    -0.241 NA
BRANCH   7  17
ATOM     17  C   UNL A   1      34.184  24.920  24.487  1.00  0.00     0.340 C 
BRANCH  17  18
ATOM     18  C   UNL A   1      33.723  25.584  23.196  1.00  0.00     0.168 A 
ATOM     19  N   UNL A   1      32.979  26.771  23.132  1.00  0.00    -0.299 N 
ATOM     20  C   UNL A   1      32.297  26.719  21.932  1.00  0.00     0.113 A 
ATOM     21  C   UNL A   1      32.774  25.618  21.266  1.00  0.00     0.132 A 
ATOM     22  N   UNL A   1      33.677  24.946  22.035  1.00  0.00    -0.236 NA
BRANCH  19  23
ATOM     23  C   UNL A   1      32.789  27.758  24.141  1.00  0.00     0.047 A 
ATOM     24  C   UNL A   1      32.499  29.809  26.024  1.00  0.00     0.119 A 
ATOM     25  C   UNL A   1      31.517  29.603  25.059  1.00  0.00     0.048 A 
ATOM     26  C   UNL A   1      33.599  28.956  26.094  1.00  0.00     0.048 A 
ATOM     27  C   UNL A   1      31.661  28.582  24.115  1.00  0.00     0.030 A 
ATOM     28  C   UNL A   1      33.741  27.920  25.161  1.00  0.00     0.030 A 
BRANCH  24  29
ATOM     29  O   UNL A   1      32.276  30.791  26.949  1.00  0.00    -0.497 OA
ATOM     30  C   UNL A   1      31.340  31.769  26.499  1.00  0.00     0.278 C 
ENDBRANCH  24  29
ENDBRANCH  19  23
ENDBRANCH  17  18
ENDBRANCH   7  17
ENDBRANCH   3   6
ENDBRANCH   1   2
BRANCH   1  31
ATOM     31  C   UNL A   1      38.472  20.991  25.614  1.00  0.00     0.042 C 
BRANCH  31  32
ATOM     32  C   UNL A   1      39.258  22.143  26.179  1.00  0.00     0.118 C 
BRANCH  32  33
ATOM     33  N   UNL A   1      40.694  22.081  25.928  1.00  0.00    -0.352 N 
ATOM     34  C   UNL A   1      41.593  23.142  26.020  1.00  0.00     0.251 C 
ATOM     35  H   UNL A   1      41.064  21.206  25.669  1.00  0.00     0.163 HD
ATOM     36  O   UNL A   1      42.656  23.139  25.446  1.00  0.00    -0.269 OA
BRANCH  34  37
ATOM     37  C   UNL A   1      41.168  24.285  26.853  1.00  0.00     0.039 A 
ATOM     38  C   UNL A   1      41.540  24.406  28.192  1.00  0.00     0.014 A 
ATOM     39  C   UNL A   1      40.572  25.335  26.170  1.00  0.00     0.014 A 
ATOM     40  C   UNL A   1      41.411  25.651  28.805  1.00  0.00     0.010 A 
ATOM     41  C   UNL A   1      40.709  26.592  26.689  1.00  0.00     0.010 A 
ATOM     42  C   UNL A   1      41.032  26.759  28.029  1.00  0.00    -0.014 A 
BRANCH  42  43
ATOM     43  C   UNL A   1      41.028  28.119  28.559  1.00  0.00     0.031 A 
ATOM     44  C   UNL A   1      42.132  29.002  28.095  1.00  0.00     0.074 A 
ATOM     45  C   UNL A   1      39.981  28.614  29.259  1.00  0.00     0.049 A 
ATOM     46  N   UNL A   1      43.109  29.476  28.794  1.00  0.00    -0.248 NA
ATOM     47  C   UNL A   1      42.230  29.306  26.658  1.00  0.00     0.031 C 
ATOM     48  C   UNL A   1      38.680  27.986  29.540  1.00  0.00     0.029 A 
ATOM     49  N   UNL A   1      39.825  29.855  29.794  1.00  0.00    -0.354 N 
ATOM     50  C   UNL A   1      43.837  30.301  27.939  1.00  0.00     0.074 A 
ATOM     51  C   UNL A   1      43.364  30.011  26.612  1.00  0.00     0.031 C 
ATOM     52  C   UNL A   1      37.800  28.917  29.960  1.00  0.00     0.029 A 
ATOM     53  C   UNL A   1      38.526  30.147  30.189  1.00  0.00     0.049 A 
ATOM     54  H   UNL A   1      40.568  30.492  29.891  1.00  0.00     0.167 HD
ATOM     55  C   UNL A   1      44.589  31.327  28.432  1.00  0.00     0.037 A 
ATOM     56  C   UNL A   1      38.068  31.317  30.688  1.00  0.00     0.037 A 
ATOM     57  C   UNL A   1      44.810  31.160  29.850  1.00  0.00     0.049 A 
ATOM     58  C   UNL A   1      39.244  32.061  31.195  1.00  0.00     0.074 A 
ATOM     59  C   UNL A   1      45.414  30.201  30.638  1.00  0.00     0.029 A 
ATOM     60  N   UNL A   1      44.034  31.904  30.704  1.00  0.00    -0.354 N 
ATOM     61  N   UNL A   1      39.957  31.677  32.219  1.00  0.00    -0.248 NA
ATOM     62  C   UNL A   1      39.898  32.990  30.291  1.00  0.00     0.031 C 
ATOM     63  C   UNL A   1      44.602  30.120  31.809  1.00  0.00     0.029 A 
ATOM     64  C   UNL A   1      43.592  31.077  31.701  1.00  0.00     0.049 A 
ATOM     65  H   UNL A   1      43.831  32.864  30.615  1.00  0.00     0.167 HD
ATOM     66  C   UNL A   1      41.267  31.961  31.860  1.00  0.00     0.074 A 
ATOM     67  C   UNL A   1      41.157  32.868  30.720  1.00  0.00     0.031 C 
ATOM     68  C   UNL A   1      42.301  31.209  32.338  1.00  0.00     0.037 A 
BRANCH  55  69
ATOM     69  C   UNL A   1      44.784  32.670  27.754  1.00  0.00     0.064 A 
ATOM     70  C   UNL A   1      46.000  32.920  27.079  1.00  0.00     0.173 A 
ATOM     71  C   UNL A   1      43.991  33.813  27.999  1.00  0.00     0.173 A 
ATOM     72  F   UNL A   1      46.837  31.915  26.781  1.00  0.00    -0.203 F 
ATOM     73  C   UNL A   1      46.436  34.215  26.786  1.00  0.00     0.198 A 
ATOM     74  C   UNL A   1      44.407  35.100  27.658  1.00  0.00     0.198 A 
ATOM     75  F   UNL A   1      42.837  33.755  28.670  1.00  0.00    -0.203 F 
ATOM     76  F   UNL A   1      47.660  34.406  26.279  1.00  0.00    -0.200 F 
ATOM     77  C   UNL A   1      45.644  35.306  27.089  1.00  0.00     0.200 A 
ATOM     78  F   UNL A   1      43.627  36.145  27.969  1.00  0.00    -0.200 F 
ATOM     79  F   UNL A   1      46.089  36.552  26.880  1.00  0.00    -0.200 F 
ENDBRANCH  55  69
BRANCH  56  80
ATOM     80  C   UNL A   1      36.732  31.924  30.512  1.00  0.00     0.064 A 
ATOM     81  C   UNL A   1      35.891  32.159  31.608  1.00  0.00     0.173 A 
ATOM     82  C   UNL A   1      36.369  32.534  29.294  1.00  0.00     0.173 A 
ATOM     83  F   UNL A   1      36.190  31.644  32.809  1.00  0.00    -0.203 F 
ATOM     84  C   UNL A   1      34.766  32.984  31.501  1.00  0.00     0.198 A 
ATOM     85  C   UNL A   1      35.245  33.352  29.187  1.00  0.00     0.198 A 
ATOM     86  F   UNL A   1      37.152  32.423  28.210  1.00  0.00    -0.203 F 
ATOM     87  F   UNL A   1      34.020  33.237  32.585  1.00  0.00    -0.200 F 
ATOM     88  C   UNL A   1      34.452  33.590  30.295  1.00  0.00     0.200 A 
ATOM     89  F   UNL A   1      34.972  33.960  28.024  1.00  0.00    -0.200 F 
ATOM     90  F   UNL A   1      33.412  34.431  30.210  1.00  0.00    -0.200 F 
ENDBRANCH  56  80
BRANCH  68  91
ATOM     91  C   UNL A   1      42.013  30.271  33.480  1.00  0.00     0.064 A 
ATOM     92  C   UNL A   1      41.641  28.925  33.323  1.00  0.00     0.173 A 
ATOM     93  C   UNL A   1      42.257  30.720  34.784  1.00  0.00     0.173 A 
ATOM     94  F   UNL A   1      41.482  28.389  32.108  1.00  0.00    -0.203 F 
ATOM     95  C   UNL A   1      41.481  28.082  34.422  1.00  0.00     0.198 A 
ATOM     96  C   UNL A   1      42.133  29.868  35.878  1.00  0.00     0.198 A 
ATOM     97  F   UNL A   1      42.668  31.980  34.994  1.00  0.00    -0.203 F 
ATOM     98  F   UNL A   1      41.115  26.804  34.244  1.00  0.00    -0.200 F 
ATOM     99  C   UNL A   1      41.735  28.552  35.698  1.00  0.00     0.200 A 
ATOM    100  F   UNL A   1      42.427  30.315  37.106  1.00  0.00    -0.200 F 
ATOM    101  F   UNL A   1      41.623  27.733  36.753  1.00  0.00    -0.200 F 
ENDBRANCH  68  91
ENDBRANCH  42  43
ENDBRANCH  34  37
ENDBRANCH  32  33
ENDBRANCH  31  32
ENDBRANCH   1  31
TORSDOF 14
ENDMDL
MODEL 2
REMARK VINA RESULT:     -14.0      2.993      8.956
REMARK SMILES COc1ccc(-n2ccnc2C[N@@H+]2Cc3[nH]cnc3C[C@H]2C(=O)NCCCNC(=O)c2ccc(-c3c4nc(c(-c5c(F)c(F)c(F)c(F)c5F)c5ccc([nH]5)c(-c5c(F)c(F)c(F)c(F)c5F)c5nc(c(-c6c(F)c(F)c(F)c(F)c6F)c6ccc3[nH]6)C=C5)C=C4)cc2)cc1
REMARK SMILES IDX 25 1 24 2 22 3 23 4 21 6 13 7 14 8 15 10 20 11 16 12 19 13
REMARK SMILES IDX 17 14 18 16 12 17 11 18 7 19 8 20 9 21 10 22 6 23 3 24 4 25
REMARK SMILES IDX 95 26 5 27 94 28 2 29 1 30 26 31 27 32 28 33 29 34 30 36
REMARK SMILES IDX 31 37 32 38 93 39 33 40 92 41 34 42 35 43 36 44 86 45 37 46
REMARK SMILES IDX 91 47 85 48 87 49 38 50 90 51 84 52 83 53 39 55 71 56 51 57
REMARK SMILES IDX 70 58 52 59 55 60 69 61 88 62 53 63 54 64 68 66 89 67 56 68
REMARK SMILES IDX 40 69 41 70 49 71 42 72 43 73 47 74 50 75 44 76 45 77 48 78
REMARK SMILES IDX 46 79 72 80 73 81 81 82 74 83 75 84 79 85 82 86 76 87 77 88
REMARK SMILES IDX 80 89 78 90 57 91 58 92 66 93 59 94 60 95 64 96 67 97 61 98
REMARK SMILES IDX 62 99 65 100 63 101
REMARK H PARENT 24 5 13 9 16 15 28 35 87 54 55 65
REMARK Flexibility Score: inf
ROOT
ATOM      1  C   UNL A   1      31.746  30.864  26.555  1.00  0.00     0.118 C 
ENDROOT
BRANCH   1   2
ATOM      2  N   UNL A   1      31.337  30.414  25.223  1.00  0.00    -0.351 N 
ATOM      3  C   UNL A   1      31.551  29.314  24.447  1.00  0.00     0.278 C 
ATOM      4  O   UNL A   1      30.898  29.306  23.390  1.00  0.00    -0.268 OA
ATOM      5  H   UNL A   1      30.762  31.074  24.774  1.00  0.00     0.163 HD
BRANCH   3   6
ATOM      6  C   UNL A   1      32.514  28.124  24.740  1.00  0.00     0.280 C 
ATOM      7  N   UNL A   1      31.745  26.938  25.276  1.00  0.00    -0.313 N 
ATOM      8  C   UNL A   1      31.075  26.203  24.205  1.00  0.00     0.320 C 
ATOM      9  H   UNL A   1      31.023  27.316  25.889  1.00  0.00     0.349 HD
ATOM     10  C   UNL A   1      31.984  25.991  23.065  1.00  0.00     0.093 A 
ATOM     11  C   UNL A   1      33.549  27.863  23.611  1.00  0.00     0.134 C 
ATOM     12  N   UNL A   1      31.854  25.107  22.037  1.00  0.00    -0.344 N 
ATOM     13  C   UNL A   1      33.104  26.727  22.772  1.00  0.00     0.074 A 
ATOM     14  C   UNL A   1      32.877  25.364  21.163  1.00  0.00     0.197 A 
ATOM     15  H   UNL A   1      31.158  24.417  21.940  1.00  0.00     0.167 HD
ATOM     16  N   UNL A   1      33.652  26.340  21.585  1.00  0.00    -0.241 NA
BRANCH   7  17
ATOM     17  C   UNL A   1      32.573  26.046  26.123  1.00  0.00     0.340 C 
BRANCH  17  18
ATOM     18  C   UNL A   1      31.843  24.758  26.481  1.00  0.00     0.168 A 
ATOM     19  N   UNL A   1      32.265  23.474  26.110  1.00  0.00    -0.299 N 
ATOM     20  C   UNL A   1      31.123  22.696  26.094  1.00  0.00     0.113 A 
ATOM     21  C   UNL A   1      30.119  23.478  26.604  1.00  0.00     0.132 A 
ATOM     22  N   UNL A   1      30.577  24.733  26.875  1.00  0.00    -0.236 NA
BRANCH  19  23
ATOM     23  C   UNL A   1      33.549  23.055  25.657  1.00  0.00     0.047 A 
ATOM     24  C   UNL A   1      36.010  22.073  24.756  1.00  0.00     0.119 A 
ATOM     25  C   UNL A   1      35.072  22.549  23.844  1.00  0.00     0.048 A 
ATOM     26  C   UNL A   1      35.752  22.141  26.124  1.00  0.00     0.048 A 
ATOM     27  C   UNL A   1      33.841  23.037  24.291  1.00  0.00     0.030 A 
ATOM     28  C   UNL A   1      34.526  22.644  26.579  1.00  0.00     0.030 A 
BRANCH  24  29
ATOM     29  O   UNL A   1      37.215  21.656  24.260  1.00  0.00    -0.497 OA
ATOM     30  C   UNL A   1      37.639  20.413  24.817  1.00  0.00     0.278 C 
ENDBRANCH  24  29
ENDBRANCH  19  23
ENDBRANCH  17  18
ENDBRANCH   7  17
ENDBRANCH   3   6
ENDBRANCH   1   2
BRANCH   1  31
ATOM     31  C   UNL A   1      32.922  30.062  27.134  1.00  0.00     0.042 C 
BRANCH  31  32
ATOM     32  C   UNL A   1      34.205  30.824  27.336  1.00  0.00     0.118 C 
BRANCH  32  33
ATOM     33  N   UNL A   1      34.218  31.697  28.505  1.00  0.00    -0.352 N 
ATOM     34  C   UNL A   1      35.163  31.690  29.528  1.00  0.00     0.251 C 
ATOM     35  H   UNL A   1      33.487  32.353  28.578  1.00  0.00     0.163 HD
ATOM     36  O   UNL A   1      34.930  32.137  30.626  1.00  0.00    -0.269 OA
BRANCH  34  37
ATOM     37  C   UNL A   1      36.473  31.091  29.200  1.00  0.00     0.039 A 
ATOM     38  C   UNL A   1      37.653  31.836  29.212  1.00  0.00     0.014 A 
ATOM     39  C   UNL A   1      36.491  29.708  29.102  1.00  0.00     0.014 A 
ATOM     40  C   UNL A   1      38.867  31.151  29.245  1.00  0.00     0.010 A 
ATOM     41  C   UNL A   1      37.655  29.062  29.410  1.00  0.00     0.010 A 
ATOM     42  C   UNL A   1      38.859  29.754  29.389  1.00  0.00    -0.014 A 
BRANCH  42  43
ATOM     43  C   UNL A   1      40.083  28.984  29.589  1.00  0.00     0.031 A 
ATOM     44  C   UNL A   1      40.512  28.800  31.003  1.00  0.00     0.074 A 
ATOM     45  C   UNL A   1      40.678  28.304  28.582  1.00  0.00     0.049 A 
ATOM     46  N   UNL A   1      41.556  29.295  31.581  1.00  0.00    -0.248 NA
ATOM     47  C   UNL A   1      39.619  28.071  31.918  1.00  0.00     0.031 C 
ATOM     48  C   UNL A   1      40.217  28.119  27.197  1.00  0.00     0.029 A 
ATOM     49  N   UNL A   1      41.798  27.533  28.620  1.00  0.00    -0.354 N 
ATOM     50  C   UNL A   1      41.565  28.784  32.877  1.00  0.00     0.074 A 
ATOM     51  C   UNL A   1      40.267  28.197  33.079  1.00  0.00     0.031 C 
ATOM     52  C   UNL A   1      40.898  27.111  26.615  1.00  0.00     0.029 A 
ATOM     53  C   UNL A   1      41.980  26.735  27.499  1.00  0.00     0.049 A 
ATOM     54  H   UNL A   1      42.426  27.541  29.377  1.00  0.00     0.167 HD
ATOM     55  C   UNL A   1      42.732  28.672  33.575  1.00  0.00     0.037 A 
ATOM     56  C   UNL A   1      42.961  25.828  27.292  1.00  0.00     0.037 A 
ATOM     57  C   UNL A   1      43.766  29.477  32.968  1.00  0.00     0.049 A 
ATOM     58  C   UNL A   1      44.066  26.168  28.218  1.00  0.00     0.074 A 
ATOM     59  C   UNL A   1      43.930  30.823  32.707  1.00  0.00     0.029 A 
ATOM     60  N   UNL A   1      44.690  28.834  32.182  1.00  0.00    -0.354 N 
ATOM     61  N   UNL A   1      44.781  27.256  28.124  1.00  0.00    -0.248 NA
ATOM     62  C   UNL A   1      44.083  25.519  29.518  1.00  0.00     0.031 C 
ATOM     63  C   UNL A   1      44.591  30.877  31.443  1.00  0.00     0.029 A 
ATOM     64  C   UNL A   1      44.854  29.568  31.038  1.00  0.00     0.049 A 
ATOM     65  H   UNL A   1      45.153  27.994  32.402  1.00  0.00     0.167 HD
ATOM     66  C   UNL A   1      44.977  27.662  29.436  1.00  0.00     0.074 A 
ATOM     67  C   UNL A   1      44.626  26.498  30.247  1.00  0.00     0.031 C 
ATOM     68  C   UNL A   1      45.126  28.984  29.743  1.00  0.00     0.037 A 
BRANCH  55  69
ATOM     69  C   UNL A   1      43.066  27.552  34.542  1.00  0.00     0.064 A 
ATOM     70  C   UNL A   1      43.376  26.276  34.021  1.00  0.00     0.173 A 
ATOM     71  C   UNL A   1      42.791  27.582  35.927  1.00  0.00     0.173 A 
ATOM     72  F   UNL A   1      43.663  26.117  32.721  1.00  0.00    -0.203 F 
ATOM     73  C   UNL A   1      43.296  25.116  34.798  1.00  0.00     0.198 A 
ATOM     74  C   UNL A   1      42.765  26.428  36.710  1.00  0.00     0.198 A 
ATOM     75  F   UNL A   1      42.433  28.700  36.563  1.00  0.00    -0.203 F 
ATOM     76  F   UNL A   1      43.456  23.918  34.223  1.00  0.00    -0.200 F 
ATOM     77  C   UNL A   1      42.977  25.192  36.140  1.00  0.00     0.200 A 
ATOM     78  F   UNL A   1      42.443  26.524  38.008  1.00  0.00    -0.200 F 
ATOM     79  F   UNL A   1      42.826  24.080  36.870  1.00  0.00    -0.200 F 
ENDBRANCH  55  69
BRANCH  56  80
ATOM     80  C   UNL A   1      42.887  24.556  26.543  1.00  0.00     0.064 A 
ATOM     81  C   UNL A   1      43.606  24.371  25.354  1.00  0.00     0.173 A 
ATOM     82  C   UNL A   1      42.321  23.405  27.126  1.00  0.00     0.173 A 
ATOM     83  F   UNL A   1      44.205  25.413  24.760  1.00  0.00    -0.203 F 
ATOM     84  C   UNL A   1      43.778  23.100  24.796  1.00  0.00     0.198 A 
ATOM     85  C   UNL A   1      42.488  22.139  26.565  1.00  0.00     0.198 A 
ATOM     86  F   UNL A   1      41.676  23.476  28.300  1.00  0.00    -0.203 F 
ATOM     87  F   UNL A   1      44.524  22.952  23.693  1.00  0.00    -0.200 F 
ATOM     88  C   UNL A   1      43.229  21.984  25.409  1.00  0.00     0.200 A 
ATOM     89  F   UNL A   1      41.983  21.064  27.187  1.00  0.00    -0.200 F 
ATOM     90  F   UNL A   1      43.449  20.761  24.909  1.00  0.00    -0.200 F 
ENDBRANCH  56  80
BRANCH  68  91
ATOM     91  C   UNL A   1      45.369  29.942  28.608  1.00  0.00     0.064 A 
ATOM     92  C   UNL A   1      44.351  30.616  27.910  1.00  0.00     0.173 A 
ATOM     93  C   UNL A   1      46.691  30.294  28.309  1.00  0.00     0.173 A 
ATOM     94  F   UNL A   1      43.062  30.411  28.201  1.00  0.00    -0.203 F 
ATOM     95  C   UNL A   1      44.646  31.564  26.931  1.00  0.00     0.198 A 
ATOM     96  C   UNL A   1      46.984  31.267  27.357  1.00  0.00     0.198 A 
ATOM     97  F   UNL A   1      47.705  29.725  28.980  1.00  0.00    -0.203 F 
ATOM     98  F   UNL A   1      43.655  32.183  26.273  1.00  0.00    -0.200 F 
ATOM     99  C   UNL A   1      45.962  31.894  26.661  1.00  0.00     0.200 A 
ATOM    100  F   UNL A   1      48.258  31.617  27.135  1.00  0.00    -0.200 F 
ATOM    101  F   UNL A   1      46.248  32.835  25.751  1.00  0.00    -0.200 F 
ENDBRANCH  68  91
ENDBRANCH  42  43
ENDBRANCH  34  37
ENDBRANCH  32  33
ENDBRANCH  31  32
ENDBRANCH   1  31
TORSDOF 14
ENDMDL
MODEL 3
REMARK VINA RESULT:     -13.3      3.323      8.928
REMARK SMILES COc1ccc(-n2ccnc2C[N@@H+]2Cc3[nH]cnc3C[C@H]2C(=O)NCCCNC(=O)c2ccc(-c3c4nc(c(-c5c(F)c(F)c(F)c(F)c5F)c5ccc([nH]5)c(-c5c(F)c(F)c(F)c(F)c5F)c5nc(c(-c6c(F)c(F)c(F)c(F)c6F)c6ccc3[nH]6)C=C5)C=C4)cc2)cc1
REMARK SMILES IDX 25 1 24 2 22 3 23 4 21 6 13 7 14 8 15 10 20 11 16 12 19 13
REMARK SMILES IDX 17 14 18 16 12 17 11 18 7 19 8 20 9 21 10 22 6 23 3 24 4 25
REMARK SMILES IDX 95 26 5 27 94 28 2 29 1 30 26 31 27 32 28 33 29 34 30 36
REMARK SMILES IDX 31 37 32 38 93 39 33 40 92 41 34 42 35 43 36 44 86 45 37 46
REMARK SMILES IDX 91 47 85 48 87 49 38 50 90 51 84 52 83 53 39 55 71 56 51 57
REMARK SMILES IDX 70 58 52 59 55 60 69 61 88 62 53 63 54 64 68 66 89 67 56 68
REMARK SMILES IDX 40 69 41 70 49 71 42 72 43 73 47 74 50 75 44 76 45 77 48 78
REMARK SMILES IDX 46 79 72 80 73 81 81 82 74 83 75 84 79 85 82 86 76 87 77 88
REMARK SMILES IDX 80 89 78 90 57 91 58 92 66 93 59 94 60 95 64 96 67 97 61 98
REMARK SMILES IDX 62 99 65 100 63 101
REMARK H PARENT 24 5 13 9 16 15 28 35 87 54 55 65
REMARK Flexibility Score: inf
ROOT
ATOM      1  C   UNL A   1      32.627  29.570  26.060  1.00  0.00     0.118 C 
ENDROOT
BRANCH   1   2
ATOM      2  N   UNL A   1      31.852  28.418  26.523  1.00  0.00    -0.351 N 
ATOM      3  C   UNL A   1      31.228  27.354  25.943  1.00  0.00     0.278 C 
ATOM      4  O   UNL A   1      30.766  26.535  26.754  1.00  0.00    -0.268 OA
ATOM      5  H   UNL A   1      31.756  28.410  27.502  1.00  0.00     0.163 HD
BRANCH   3   6
ATOM      6  C   UNL A   1      31.031  27.091  24.419  1.00  0.00     0.280 C 
ATOM      7  N   UNL A   1      30.192  25.853  24.197  1.00  0.00    -0.313 N 
ATOM      8  C   UNL A   1      28.769  26.126  24.390  1.00  0.00     0.320 C 
ATOM      9  H   UNL A   1      30.476  25.182  24.911  1.00  0.00     0.349 HD
ATOM     10  C   UNL A   1      28.376  27.371  23.705  1.00  0.00     0.093 A 
ATOM     11  C   UNL A   1      30.668  28.364  23.605  1.00  0.00     0.134 C 
ATOM     12  N   UNL A   1      27.122  27.795  23.384  1.00  0.00    -0.344 N 
ATOM     13  C   UNL A   1      29.212  28.396  23.344  1.00  0.00     0.074 A 
ATOM     14  C   UNL A   1      27.253  29.058  22.870  1.00  0.00     0.197 A 
ATOM     15  H   UNL A   1      26.284  27.291  23.498  1.00  0.00     0.167 HD
ATOM     16  N   UNL A   1      28.509  29.448  22.832  1.00  0.00    -0.241 NA
BRANCH   7  17
ATOM     17  C   UNL A   1      30.457  25.199  22.894  1.00  0.00     0.340 C 
BRANCH  17  18
ATOM     18  C   UNL A   1      31.942  25.189  22.552  1.00  0.00     0.168 A 
ATOM     19  N   UNL A   1      32.859  24.236  23.017  1.00  0.00    -0.299 N 
ATOM     20  C   UNL A   1      34.091  24.862  22.992  1.00  0.00     0.113 A 
ATOM     21  C   UNL A   1      33.895  26.070  22.373  1.00  0.00     0.132 A 
ATOM     22  N   UNL A   1      32.578  26.248  22.072  1.00  0.00    -0.236 NA
BRANCH  19  23
ATOM     23  C   UNL A   1      32.603  22.953  23.580  1.00  0.00     0.047 A 
ATOM     24  C   UNL A   1      32.267  20.407  24.692  1.00  0.00     0.119 A 
ATOM     25  C   UNL A   1      32.363  21.522  25.519  1.00  0.00     0.048 A 
ATOM     26  C   UNL A   1      32.275  20.561  23.307  1.00  0.00     0.048 A 
ATOM     27  C   UNL A   1      32.534  22.795  24.967  1.00  0.00     0.030 A 
ATOM     28  C   UNL A   1      32.430  21.836  22.747  1.00  0.00     0.030 A 
BRANCH  24  29
ATOM     29  O   UNL A   1      32.049  19.197  25.291  1.00  0.00    -0.497 OA
ATOM     30  C   UNL A   1      32.558  18.105  24.527  1.00  0.00     0.278 C 
ENDBRANCH  24  29
ENDBRANCH  19  23
ENDBRANCH  17  18
ENDBRANCH   7  17
ENDBRANCH   3   6
ENDBRANCH   1   2
BRANCH   1  31
ATOM     31  C   UNL A   1      32.760  30.679  27.115  1.00  0.00     0.042 C 
BRANCH  31  32
ATOM     32  C   UNL A   1      34.158  30.975  27.591  1.00  0.00     0.118 C 
BRANCH  32  33
ATOM     33  N   UNL A   1      34.231  31.806  28.788  1.00  0.00    -0.352 N 
ATOM     34  C   UNL A   1      35.181  31.708  29.802  1.00  0.00     0.251 C 
ATOM     35  H   UNL A   1      33.542  32.502  28.890  1.00  0.00     0.163 HD
ATOM     36  O   UNL A   1      34.983  32.130  30.916  1.00  0.00    -0.269 OA
BRANCH  34  37
ATOM     37  C   UNL A   1      36.451  31.043  29.442  1.00  0.00     0.039 A 
ATOM     38  C   UNL A   1      37.629  31.760  29.232  1.00  0.00     0.014 A 
ATOM     39  C   UNL A   1      36.453  29.661  29.548  1.00  0.00     0.014 A 
ATOM     40  C   UNL A   1      38.838  31.065  29.249  1.00  0.00     0.010 A 
ATOM     41  C   UNL A   1      37.639  29.046  29.835  1.00  0.00     0.010 A 
ATOM     42  C   UNL A   1      38.838  29.704  29.597  1.00  0.00    -0.014 A 
BRANCH  42  43
ATOM     43  C   UNL A   1      40.073  28.949  29.791  1.00  0.00     0.031 A 
ATOM     44  C   UNL A   1      40.540  28.816  31.198  1.00  0.00     0.074 A 
ATOM     45  C   UNL A   1      40.645  28.239  28.792  1.00  0.00     0.049 A 
ATOM     46  N   UNL A   1      41.595  29.338  31.731  1.00  0.00    -0.248 NA
ATOM     47  C   UNL A   1      39.676  28.114  32.161  1.00  0.00     0.031 C 
ATOM     48  C   UNL A   1      40.149  28.004  27.426  1.00  0.00     0.029 A 
ATOM     49  N   UNL A   1      41.772  27.477  28.826  1.00  0.00    -0.354 N 
ATOM     50  C   UNL A   1      41.642  28.871  33.043  1.00  0.00     0.074 A 
ATOM     51  C   UNL A   1      40.354  28.283  33.300  1.00  0.00     0.031 C 
ATOM     52  C   UNL A   1      40.822  26.981  26.861  1.00  0.00     0.029 A 
ATOM     53  C   UNL A   1      41.930  26.642  27.728  1.00  0.00     0.049 A 
ATOM     54  H   UNL A   1      42.419  27.515  29.566  1.00  0.00     0.167 HD
ATOM     55  C   UNL A   1      42.827  28.790  33.713  1.00  0.00     0.037 A 
ATOM     56  C   UNL A   1      42.912  25.735  27.526  1.00  0.00     0.037 A 
ATOM     57  C   UNL A   1      43.839  29.581  33.051  1.00  0.00     0.049 A 
ATOM     58  C   UNL A   1      44.038  26.114  28.411  1.00  0.00     0.074 A 
ATOM     59  C   UNL A   1      43.986  30.918  32.741  1.00  0.00     0.029 A 
ATOM     60  N   UNL A   1      44.747  28.917  32.263  1.00  0.00    -0.354 N 
ATOM     61  N   UNL A   1      44.742  27.203  28.261  1.00  0.00    -0.248 NA
ATOM     62  C   UNL A   1      44.094  25.510  29.731  1.00  0.00     0.031 C 
ATOM     63  C   UNL A   1      44.614  30.934  31.459  1.00  0.00     0.029 A 
ATOM     64  C   UNL A   1      44.876  29.613  31.091  1.00  0.00     0.049 A 
ATOM     65  H   UNL A   1      45.222  28.088  32.500  1.00  0.00     0.167 HD
ATOM     66  C   UNL A   1      44.970  27.654  29.552  1.00  0.00     0.074 A 
ATOM     67  C   UNL A   1      44.649  26.517  30.411  1.00  0.00     0.031 C 
ATOM     68  C   UNL A   1      45.117  28.987  29.810  1.00  0.00     0.037 A 
BRANCH  55  69
ATOM     69  C   UNL A   1      43.195  27.706  34.708  1.00  0.00     0.064 A 
ATOM     70  C   UNL A   1      43.505  28.080  36.035  1.00  0.00     0.173 A 
ATOM     71  C   UNL A   1      43.563  26.389  34.357  1.00  0.00     0.173 A 
ATOM     72  F   UNL A   1      43.199  29.303  36.492  1.00  0.00    -0.203 F 
ATOM     73  C   UNL A   1      44.230  27.247  36.892  1.00  0.00     0.198 A 
ATOM     74  C   UNL A   1      44.240  25.542  35.234  1.00  0.00     0.198 A 
ATOM     75  F   UNL A   1      43.386  25.898  33.127  1.00  0.00    -0.203 F 
ATOM     76  F   UNL A   1      44.625  27.704  38.087  1.00  0.00    -0.200 F 
ATOM     77  C   UNL A   1      44.609  25.982  36.486  1.00  0.00     0.200 A 
ATOM     78  F   UNL A   1      44.607  24.322  34.815  1.00  0.00    -0.200 F 
ATOM     79  F   UNL A   1      45.367  25.210  37.275  1.00  0.00    -0.200 F 
ENDBRANCH  55  69
BRANCH  56  80
ATOM     80  C   UNL A   1      42.827  24.438  26.823  1.00  0.00     0.064 A 
ATOM     81  C   UNL A   1      43.396  24.261  25.554  1.00  0.00     0.173 A 
ATOM     82  C   UNL A   1      42.422  23.272  27.502  1.00  0.00     0.173 A 
ATOM     83  F   UNL A   1      43.840  25.321  24.862  1.00  0.00    -0.203 F 
ATOM     84  C   UNL A   1      43.579  22.987  25.007  1.00  0.00     0.198 A 
ATOM     85  C   UNL A   1      42.600  22.001  26.954  1.00  0.00     0.198 A 
ATOM     86  F   UNL A   1      41.933  23.338  28.749  1.00  0.00    -0.203 F 
ATOM     87  F   UNL A   1      44.183  22.853  23.819  1.00  0.00    -0.200 F 
ATOM     88  C   UNL A   1      43.192  21.858  25.713  1.00  0.00     0.200 A 
ATOM     89  F   UNL A   1      42.255  20.917  27.661  1.00  0.00    -0.200 F 
ATOM     90  F   UNL A   1      43.427  20.636  25.217  1.00  0.00    -0.200 F 
ENDBRANCH  56  80
BRANCH  68  91
ATOM     91  C   UNL A   1      45.323  29.907  28.637  1.00  0.00     0.064 A 
ATOM     92  C   UNL A   1      44.282  30.537  27.934  1.00  0.00     0.173 A 
ATOM     93  C   UNL A   1      46.633  30.270  28.302  1.00  0.00     0.173 A 
ATOM     94  F   UNL A   1      43.001  30.321  28.256  1.00  0.00    -0.203 F 
ATOM     95  C   UNL A   1      44.543  31.454  26.916  1.00  0.00     0.198 A 
ATOM     96  C   UNL A   1      46.892  31.213  27.311  1.00  0.00     0.198 A 
ATOM     97  F   UNL A   1      47.669  29.743  28.974  1.00  0.00    -0.203 F 
ATOM     98  F   UNL A   1      43.529  32.032  26.255  1.00  0.00    -0.200 F 
ATOM     99  C   UNL A   1      45.848  31.797  26.611  1.00  0.00     0.200 A 
ATOM    100  F   UNL A   1      48.156  31.577  27.052  1.00  0.00    -0.200 F 
ATOM    101  F   UNL A   1      46.101  32.709  25.662  1.00  0.00    -0.200 F 
ENDBRANCH  68  91
ENDBRANCH  42  43
ENDBRANCH  34  37
ENDBRANCH  32  33
ENDBRANCH  31  32
ENDBRANCH   1  31
TORSDOF 14
ENDMDL
