MODEL 1
REMARK VINA RESULT:     -13.0      0.000      0.000
REMARK SMILES CCc1[nH]nc(-n2cccc2)c1C(=O)NCCCNC(=O)c1ccc(-c2c3nc(c(-c4c(F)c(F)c(F)c(F)c4F)c4ccc([nH]4)c(-c4c(F)c(F)c(F)c(F)c4F)c4nc(c(-c5c(F)c(F)c(F)c(F)c5F)c5ccc2[nH]5)C=C4)C=C3)cc1
REMARK SMILES IDX 17 1 16 2 15 3 13 4 14 5 12 7 3 8 4 9 5 10 6 12 2 13 1 14
REMARK SMILES IDX 7 15 8 16 11 17 9 18 10 19 18 20 19 21 20 22 21 24 22 25
REMARK SMILES IDX 23 26 84 27 24 28 83 29 25 30 26 31 27 32 77 33 28 34 82 35
REMARK SMILES IDX 76 36 78 37 29 38 81 39 75 40 74 41 30 43 62 44 42 45 61 46
REMARK SMILES IDX 43 47 46 48 60 49 79 50 44 51 45 52 59 54 80 55 47 56 31 57
REMARK SMILES IDX 32 58 40 59 33 60 34 61 38 62 41 63 35 64 36 65 39 66 37 67
REMARK SMILES IDX 63 68 64 69 72 70 65 71 66 72 70 73 73 74 67 75 68 76 71 77
REMARK SMILES IDX 69 78 48 79 49 80 57 81 50 82 51 83 55 84 58 85 52 86 53 87
REMARK SMILES IDX 56 88 54 89
REMARK H PARENT 15 6 4 11 19 23 78 42 46 53
REMARK Flexibility Score: inf
ROOT
ATOM      1  C   UNL A   1      33.328  28.991  27.067  1.00  0.00     0.042 C 
ENDROOT
BRANCH   1   2
ATOM      2  C   UNL A   1      32.648  29.862  26.023  1.00  0.00     0.118 C 
BRANCH   2   3
ATOM      3  N   UNL A   1      33.048  29.649  24.664  1.00  0.00    -0.352 N 
ATOM      4  C   UNL A   1      32.572  28.811  23.685  1.00  0.00     0.256 C 
ATOM      5  O   UNL A   1      33.057  29.043  22.574  1.00  0.00    -0.269 OA
ATOM      6  H   UNL A   1      33.807  30.207  24.377  1.00  0.00     0.163 HD
BRANCH   4   7
ATOM      7  C   UNL A   1      31.596  27.722  23.871  1.00  0.00     0.105 A 
ATOM      8  C   UNL A   1      31.611  26.486  24.546  1.00  0.00     0.050 A 
ATOM      9  N   UNL A   1      30.347  25.964  24.421  1.00  0.00    -0.280 N 
ATOM     10  N   UNL A   1      29.459  26.797  23.900  1.00  0.00    -0.156 NA
ATOM     11  H   UNL A   1      30.121  25.047  24.696  1.00  0.00     0.190 HD
ATOM     12  C   UNL A   1      30.204  27.834  23.505  1.00  0.00     0.171 A 
BRANCH   8  13
ATOM     13  C   UNL A   1      32.556  25.684  25.386  1.00  0.00     0.053 C 
ATOM     14  C   UNL A   1      34.013  25.852  24.951  1.00  0.00     0.011 C 
ENDBRANCH   8  13
BRANCH  12  15
ATOM     15  N   UNL A   1      29.499  28.883  22.831  1.00  0.00    -0.307 N 
ATOM     16  C   UNL A   1      29.988  29.785  21.908  1.00  0.00     0.093 A 
ATOM     17  C   UNL A   1      28.141  29.126  22.959  1.00  0.00     0.093 A 
ATOM     18  C   UNL A   1      28.963  30.615  21.502  1.00  0.00     0.020 A 
ATOM     19  C   UNL A   1      27.799  30.217  22.194  1.00  0.00     0.020 A 
ENDBRANCH  12  15
ENDBRANCH   4   7
ENDBRANCH   2   3
ENDBRANCH   1   2
BRANCH   1  20
ATOM     20  C   UNL A   1      34.843  29.085  27.039  1.00  0.00     0.118 C 
BRANCH  20  21
ATOM     21  N   UNL A   1      35.313  30.410  27.407  1.00  0.00    -0.352 N 
ATOM     22  C   UNL A   1      36.478  30.778  28.036  1.00  0.00     0.251 C 
ATOM     23  H   UNL A   1      34.709  31.152  27.172  1.00  0.00     0.163 HD
ATOM     24  O   UNL A   1      36.579  31.901  28.502  1.00  0.00    -0.269 OA
BRANCH  22  25
ATOM     25  C   UNL A   1      37.589  29.812  28.189  1.00  0.00     0.039 A 
ATOM     26  C   UNL A   1      38.526  29.731  27.153  1.00  0.00     0.014 A 
ATOM     27  C   UNL A   1      37.697  28.972  29.304  1.00  0.00     0.014 A 
ATOM     28  C   UNL A   1      39.612  28.873  27.274  1.00  0.00     0.010 A 
ATOM     29  C   UNL A   1      38.799  28.136  29.446  1.00  0.00     0.010 A 
ATOM     30  C   UNL A   1      39.769  28.111  28.443  1.00  0.00    -0.014 A 
BRANCH  30  31
ATOM     31  C   UNL A   1      41.092  27.494  28.690  1.00  0.00     0.031 A 
ATOM     32  C   UNL A   1      41.122  26.041  28.165  1.00  0.00     0.074 A 
ATOM     33  C   UNL A   1      42.023  28.244  29.357  1.00  0.00     0.049 A 
ATOM     34  N   UNL A   1      41.829  25.029  28.559  1.00  0.00    -0.248 NA
ATOM     35  C   UNL A   1      40.185  25.634  27.077  1.00  0.00     0.031 C 
ATOM     36  C   UNL A   1      41.859  29.675  29.690  1.00  0.00     0.029 A 
ATOM     37  N   UNL A   1      43.274  27.984  29.893  1.00  0.00    -0.354 N 
ATOM     38  C   UNL A   1      41.584  23.954  27.670  1.00  0.00     0.074 A 
ATOM     39  C   UNL A   1      40.475  24.348  26.860  1.00  0.00     0.031 C 
ATOM     40  C   UNL A   1      42.897  30.125  30.429  1.00  0.00     0.029 A 
ATOM     41  C   UNL A   1      43.844  29.049  30.652  1.00  0.00     0.049 A 
ATOM     42  H   UNL A   1      43.738  27.126  29.759  1.00  0.00     0.167 HD
ATOM     43  C   UNL A   1      42.422  22.877  27.575  1.00  0.00     0.037 A 
ATOM     44  C   UNL A   1      44.972  29.056  31.435  1.00  0.00     0.037 A 
ATOM     45  C   UNL A   1      43.449  23.005  28.550  1.00  0.00     0.049 A 
ATOM     46  C   UNL A   1      45.634  27.782  31.152  1.00  0.00     0.074 A 
ATOM     47  C   UNL A   1      43.426  22.899  29.914  1.00  0.00     0.029 A 
ATOM     48  N   UNL A   1      44.590  23.656  28.154  1.00  0.00    -0.354 N 
ATOM     49  N   UNL A   1      46.315  27.545  30.072  1.00  0.00    -0.248 NA
ATOM     50  C   UNL A   1      45.488  26.671  32.100  1.00  0.00     0.031 C 
ATOM     51  C   UNL A   1      44.309  23.914  30.321  1.00  0.00     0.029 A 
ATOM     52  C   UNL A   1      45.024  24.398  29.218  1.00  0.00     0.049 A 
ATOM     53  H   UNL A   1      45.018  23.600  27.269  1.00  0.00     0.167 HD
ATOM     54  C   UNL A   1      46.348  26.174  30.067  1.00  0.00     0.074 A 
ATOM     55  C   UNL A   1      46.180  25.748  31.439  1.00  0.00     0.031 C 
ATOM     56  C   UNL A   1      45.888  25.524  28.967  1.00  0.00     0.037 A 
BRANCH  43  57
ATOM     57  C   UNL A   1      42.620  21.801  26.539  1.00  0.00     0.064 A 
ATOM     58  C   UNL A   1      42.158  20.493  26.848  1.00  0.00     0.173 A 
ATOM     59  C   UNL A   1      43.542  21.892  25.492  1.00  0.00     0.173 A 
ATOM     60  F   UNL A   1      41.216  20.295  27.786  1.00  0.00    -0.203 F 
ATOM     61  C   UNL A   1      42.722  19.353  26.281  1.00  0.00     0.198 A 
ATOM     62  C   UNL A   1      44.064  20.745  24.883  1.00  0.00     0.198 A 
ATOM     63  F   UNL A   1      44.036  23.072  25.100  1.00  0.00    -0.203 F 
ATOM     64  F   UNL A   1      42.374  18.139  26.733  1.00  0.00    -0.200 F 
ATOM     65  C   UNL A   1      43.694  19.480  25.313  1.00  0.00     0.200 A 
ATOM     66  F   UNL A   1      44.994  20.870  23.926  1.00  0.00    -0.200 F 
ATOM     67  F   UNL A   1      44.299  18.392  24.817  1.00  0.00    -0.200 F 
ENDBRANCH  43  57
BRANCH  44  68
ATOM     68  C   UNL A   1      45.683  29.931  32.454  1.00  0.00     0.064 A 
ATOM     69  C   UNL A   1      46.913  30.573  32.284  1.00  0.00     0.173 A 
ATOM     70  C   UNL A   1      45.063  30.207  33.713  1.00  0.00     0.173 A 
ATOM     71  F   UNL A   1      47.679  30.321  31.217  1.00  0.00    -0.203 F 
ATOM     72  C   UNL A   1      47.416  31.488  33.234  1.00  0.00     0.198 A 
ATOM     73  C   UNL A   1      45.532  31.148  34.628  1.00  0.00     0.198 A 
ATOM     74  F   UNL A   1      43.960  29.566  34.122  1.00  0.00    -0.203 F 
ATOM     75  F   UNL A   1      48.602  32.079  33.024  1.00  0.00    -0.200 F 
ATOM     76  C   UNL A   1      46.708  31.805  34.381  1.00  0.00     0.200 A 
ATOM     77  F   UNL A   1      44.820  31.409  35.735  1.00  0.00    -0.200 F 
ATOM     78  F   UNL A   1      47.158  32.724  35.247  1.00  0.00    -0.200 F 
ENDBRANCH  44  68
BRANCH  56  79
ATOM     79  C   UNL A   1      46.001  26.337  27.687  1.00  0.00     0.064 A 
ATOM     80  C   UNL A   1      44.839  26.630  26.949  1.00  0.00     0.173 A 
ATOM     81  C   UNL A   1      47.218  26.700  27.083  1.00  0.00     0.173 A 
ATOM     82  F   UNL A   1      43.632  26.348  27.466  1.00  0.00    -0.203 F 
ATOM     83  C   UNL A   1      44.895  27.199  25.675  1.00  0.00     0.198 A 
ATOM     84  C   UNL A   1      47.277  27.277  25.811  1.00  0.00     0.198 A 
ATOM     85  F   UNL A   1      48.376  26.505  27.713  1.00  0.00    -0.203 F 
ATOM     86  F   UNL A   1      43.762  27.440  25.001  1.00  0.00    -0.200 F 
ATOM     87  C   UNL A   1      46.115  27.515  25.101  1.00  0.00     0.200 A 
ATOM     88  F   UNL A   1      48.464  27.602  25.275  1.00  0.00    -0.200 F 
ATOM     89  F   UNL A   1      46.168  28.065  23.880  1.00  0.00    -0.200 F 
ENDBRANCH  56  79
ENDBRANCH  30  31
ENDBRANCH  22  25
ENDBRANCH  20  21
ENDBRANCH   1  20
TORSDOF 12
ENDMDL
MODEL 2
REMARK VINA RESULT:     -13.0      5.386     10.257
REMARK SMILES CCc1[nH]nc(-n2cccc2)c1C(=O)NCCCNC(=O)c1ccc(-c2c3nc(c(-c4c(F)c(F)c(F)c(F)c4F)c4ccc([nH]4)c(-c4c(F)c(F)c(F)c(F)c4F)c4nc(c(-c5c(F)c(F)c(F)c(F)c5F)c5ccc2[nH]5)C=C4)C=C3)cc1
REMARK SMILES IDX 17 1 16 2 15 3 13 4 14 5 12 7 3 8 4 9 5 10 6 12 2 13 1 14
REMARK SMILES IDX 7 15 8 16 11 17 9 18 10 19 18 20 19 21 20 22 21 24 22 25
REMARK SMILES IDX 23 26 84 27 24 28 83 29 25 30 26 31 27 32 77 33 28 34 82 35
REMARK SMILES IDX 76 36 78 37 29 38 81 39 75 40 74 41 30 43 62 44 42 45 61 46
REMARK SMILES IDX 43 47 46 48 60 49 79 50 44 51 45 52 59 54 80 55 47 56 31 57
REMARK SMILES IDX 32 58 40 59 33 60 34 61 38 62 41 63 35 64 36 65 39 66 37 67
REMARK SMILES IDX 63 68 64 69 72 70 65 71 66 72 70 73 73 74 67 75 68 76 71 77
REMARK SMILES IDX 69 78 48 79 49 80 57 81 50 82 51 83 55 84 58 85 52 86 53 87
REMARK SMILES IDX 56 88 54 89
REMARK H PARENT 15 6 4 11 19 23 78 42 46 53
REMARK Flexibility Score: inf
ROOT
ATOM      1  C   UNL A   1      37.158  23.189  25.118  1.00  0.00     0.042 C 
ENDROOT
BRANCH   1   2
ATOM      2  C   UNL A   1      36.757  21.772  25.496  1.00  0.00     0.118 C 
BRANCH   2   3
ATOM      3  N   UNL A   1      35.755  21.649  26.512  1.00  0.00    -0.352 N 
ATOM      4  C   UNL A   1      34.396  21.458  26.447  1.00  0.00     0.256 C 
ATOM      5  O   UNL A   1      33.889  21.215  27.546  1.00  0.00    -0.269 OA
ATOM      6  H   UNL A   1      36.106  21.713  27.431  1.00  0.00     0.163 HD
BRANCH   4   7
ATOM      7  C   UNL A   1      33.565  21.533  25.232  1.00  0.00     0.105 A 
ATOM      8  C   UNL A   1      33.138  22.577  24.390  1.00  0.00     0.050 A 
ATOM      9  N   UNL A   1      32.451  21.984  23.359  1.00  0.00    -0.280 N 
ATOM     10  N   UNL A   1      32.535  20.662  23.333  1.00  0.00    -0.156 NA
ATOM     11  H   UNL A   1      31.938  22.498  22.695  1.00  0.00     0.190 HD
ATOM     12  C   UNL A   1      33.146  20.370  24.486  1.00  0.00     0.171 A 
BRANCH   8  13
ATOM     13  C   UNL A   1      33.300  24.062  24.281  1.00  0.00     0.053 C 
ATOM     14  C   UNL A   1      33.596  24.719  25.630  1.00  0.00     0.011 C 
ENDBRANCH   8  13
BRANCH  12  15
ATOM     15  N   UNL A   1      33.316  18.975  24.761  1.00  0.00    -0.307 N 
ATOM     16  C   UNL A   1      34.243  18.105  24.223  1.00  0.00     0.093 A 
ATOM     17  C   UNL A   1      32.585  18.263  25.699  1.00  0.00     0.093 A 
ATOM     18  C   UNL A   1      34.063  16.854  24.778  1.00  0.00     0.020 A 
ATOM     19  C   UNL A   1      32.989  16.948  25.689  1.00  0.00     0.020 A 
ENDBRANCH  12  15
ENDBRANCH   4   7
ENDBRANCH   2   3
ENDBRANCH   1   2
BRANCH   1  20
ATOM     20  C   UNL A   1      37.664  24.008  26.291  1.00  0.00     0.118 C 
BRANCH  20  21
ATOM     21  N   UNL A   1      38.896  23.467  26.842  1.00  0.00    -0.352 N 
ATOM     22  C   UNL A   1      39.934  24.120  27.461  1.00  0.00     0.251 C 
ATOM     23  H   UNL A   1      39.001  22.491  26.760  1.00  0.00     0.163 HD
ATOM     24  O   UNL A   1      40.999  23.543  27.615  1.00  0.00    -0.269 OA
BRANCH  22  25
ATOM     25  C   UNL A   1      39.786  25.525  27.900  1.00  0.00     0.039 A 
ATOM     26  C   UNL A   1      39.234  25.755  29.165  1.00  0.00     0.014 A 
ATOM     27  C   UNL A   1      40.141  26.604  27.080  1.00  0.00     0.014 A 
ATOM     28  C   UNL A   1      39.119  27.056  29.639  1.00  0.00     0.010 A 
ATOM     29  C   UNL A   1      40.060  27.906  27.562  1.00  0.00     0.010 A 
ATOM     30  C   UNL A   1      39.576  28.126  28.853  1.00  0.00    -0.014 A 
BRANCH  30  31
ATOM     31  C   UNL A   1      39.768  29.435  29.515  1.00  0.00     0.031 A 
ATOM     32  C   UNL A   1      38.517  30.324  29.338  1.00  0.00     0.074 A 
ATOM     33  C   UNL A   1      40.979  29.670  30.110  1.00  0.00     0.049 A 
ATOM     34  N   UNL A   1      38.411  31.615  29.317  1.00  0.00    -0.248 NA
ATOM     35  C   UNL A   1      37.191  29.686  29.087  1.00  0.00     0.031 C 
ATOM     36  C   UNL A   1      42.035  28.650  30.284  1.00  0.00     0.029 A 
ATOM     37  N   UNL A   1      41.581  30.780  30.679  1.00  0.00    -0.354 N 
ATOM     38  C   UNL A   1      37.033  31.939  29.258  1.00  0.00     0.074 A 
ATOM     39  C   UNL A   1      36.346  30.715  28.994  1.00  0.00     0.031 C 
ATOM     40  C   UNL A   1      43.152  29.191  30.818  1.00  0.00     0.029 A 
ATOM     41  C   UNL A   1      42.946  30.607  31.053  1.00  0.00     0.049 A 
ATOM     42  H   UNL A   1      41.100  31.628  30.816  1.00  0.00     0.167 HD
ATOM     43  C   UNL A   1      36.558  33.179  29.585  1.00  0.00     0.037 A 
ATOM     44  C   UNL A   1      43.859  31.541  31.482  1.00  0.00     0.037 A 
ATOM     45  C   UNL A   1      37.657  34.033  29.872  1.00  0.00     0.049 A 
ATOM     46  C   UNL A   1      43.074  32.754  31.712  1.00  0.00     0.074 A 
ATOM     47  C   UNL A   1      38.614  34.586  29.065  1.00  0.00     0.029 A 
ATOM     48  N   UNL A   1      38.069  34.082  31.181  1.00  0.00    -0.354 N 
ATOM     49  N   UNL A   1      42.313  32.938  32.748  1.00  0.00    -0.248 NA
ATOM     50  C   UNL A   1      43.086  33.819  30.702  1.00  0.00     0.031 C 
ATOM     51  C   UNL A   1      39.773  34.505  29.856  1.00  0.00     0.029 A 
ATOM     52  C   UNL A   1      39.434  34.175  31.174  1.00  0.00     0.049 A 
ATOM     53  H   UNL A   1      37.490  34.055  31.976  1.00  0.00     0.167 HD
ATOM     54  C   UNL A   1      41.502  33.956  32.313  1.00  0.00     0.074 A 
ATOM     55  C   UNL A   1      42.234  34.659  31.283  1.00  0.00     0.031 C 
ATOM     56  C   UNL A   1      40.158  33.767  32.351  1.00  0.00     0.037 A 
BRANCH  43  57
ATOM     57  C   UNL A   1      35.194  33.708  29.945  1.00  0.00     0.064 A 
ATOM     58  C   UNL A   1      34.535  34.538  28.998  1.00  0.00     0.173 A 
ATOM     59  C   UNL A   1      34.705  33.769  31.254  1.00  0.00     0.173 A 
ATOM     60  F   UNL A   1      34.873  34.506  27.698  1.00  0.00    -0.203 F 
ATOM     61  C   UNL A   1      33.593  35.492  29.374  1.00  0.00     0.198 A 
ATOM     62  C   UNL A   1      33.714  34.688  31.618  1.00  0.00     0.198 A 
ATOM     63  F   UNL A   1      35.234  33.021  32.230  1.00  0.00    -0.203 F 
ATOM     64  F   UNL A   1      33.131  36.368  28.470  1.00  0.00    -0.200 F 
ATOM     65  C   UNL A   1      33.199  35.583  30.691  1.00  0.00     0.200 A 
ATOM     66  F   UNL A   1      33.317  34.761  32.896  1.00  0.00    -0.200 F 
ATOM     67  F   UNL A   1      32.353  36.546  31.078  1.00  0.00    -0.200 F 
ENDBRANCH  43  57
BRANCH  44  68
ATOM     68  C   UNL A   1      45.346  31.681  31.756  1.00  0.00     0.064 A 
ATOM     69  C   UNL A   1      45.975  31.584  33.001  1.00  0.00     0.173 A 
ATOM     70  C   UNL A   1      46.255  31.885  30.670  1.00  0.00     0.173 A 
ATOM     71  F   UNL A   1      45.260  31.519  34.129  1.00  0.00    -0.203 F 
ATOM     72  C   UNL A   1      47.381  31.577  33.130  1.00  0.00     0.198 A 
ATOM     73  C   UNL A   1      47.643  31.828  30.789  1.00  0.00     0.198 A 
ATOM     74  F   UNL A   1      45.835  32.155  29.428  1.00  0.00    -0.203 F 
ATOM     75  F   UNL A   1      47.936  31.480  34.347  1.00  0.00    -0.200 F 
ATOM     76  C   UNL A   1      48.210  31.657  32.024  1.00  0.00     0.200 A 
ATOM     77  F   UNL A   1      48.407  31.927  29.691  1.00  0.00    -0.200 F 
ATOM     78  F   UNL A   1      49.543  31.584  32.145  1.00  0.00    -0.200 F 
ENDBRANCH  44  68
BRANCH  56  79
ATOM     79  C   UNL A   1      39.710  32.782  33.419  1.00  0.00     0.064 A 
ATOM     80  C   UNL A   1      38.999  31.629  33.041  1.00  0.00     0.173 A 
ATOM     81  C   UNL A   1      39.819  33.009  34.802  1.00  0.00     0.173 A 
ATOM     82  F   UNL A   1      38.876  31.317  31.741  1.00  0.00    -0.203 F 
ATOM     83  C   UNL A   1      38.394  30.790  33.980  1.00  0.00     0.198 A 
ATOM     84  C   UNL A   1      39.221  32.167  35.746  1.00  0.00     0.198 A 
ATOM     85  F   UNL A   1      40.506  34.050  35.271  1.00  0.00    -0.203 F 
ATOM     86  F   UNL A   1      37.707  29.714  33.571  1.00  0.00    -0.200 F 
ATOM     87  C   UNL A   1      38.498  31.064  35.334  1.00  0.00     0.200 A 
ATOM     88  F   UNL A   1      39.348  32.429  37.056  1.00  0.00    -0.200 F 
ATOM     89  F   UNL A   1      37.920  30.257  36.235  1.00  0.00    -0.200 F 
ENDBRANCH  56  79
ENDBRANCH  30  31
ENDBRANCH  22  25
ENDBRANCH  20  21
ENDBRANCH   1  20
TORSDOF 12
ENDMDL
MODEL 3
REMARK VINA RESULT:     -13.0      5.140      9.958
REMARK SMILES CCc1[nH]nc(-n2cccc2)c1C(=O)NCCCNC(=O)c1ccc(-c2c3nc(c(-c4c(F)c(F)c(F)c(F)c4F)c4ccc([nH]4)c(-c4c(F)c(F)c(F)c(F)c4F)c4nc(c(-c5c(F)c(F)c(F)c(F)c5F)c5ccc2[nH]5)C=C4)C=C3)cc1
REMARK SMILES IDX 17 1 16 2 15 3 13 4 14 5 12 7 3 8 4 9 5 10 6 12 2 13 1 14
REMARK SMILES IDX 7 15 8 16 11 17 9 18 10 19 18 20 19 21 20 22 21 24 22 25
REMARK SMILES IDX 23 26 84 27 24 28 83 29 25 30 26 31 27 32 77 33 28 34 82 35
REMARK SMILES IDX 76 36 78 37 29 38 81 39 75 40 74 41 30 43 62 44 42 45 61 46
REMARK SMILES IDX 43 47 46 48 60 49 79 50 44 51 45 52 59 54 80 55 47 56 31 57
REMARK SMILES IDX 32 58 40 59 33 60 34 61 38 62 41 63 35 64 36 65 39 66 37 67
REMARK SMILES IDX 63 68 64 69 72 70 65 71 66 72 70 73 73 74 67 75 68 76 71 77
REMARK SMILES IDX 69 78 48 79 49 80 57 81 50 82 51 83 55 84 58 85 52 86 53 87
REMARK SMILES IDX 56 88 54 89
REMARK H PARENT 15 6 4 11 19 23 78 42 46 53
REMARK Flexibility Score: inf
ROOT
ATOM      1  C   UNL A   1      37.140  23.203  25.090  1.00  0.00     0.042 C 
ENDROOT
BRANCH   1   2
ATOM      2  C   UNL A   1      36.665  21.819  25.500  1.00  0.00     0.118 C 
BRANCH   2   3
ATOM      3  N   UNL A   1      35.628  21.774  26.489  1.00  0.00    -0.352 N 
ATOM      4  C   UNL A   1      34.263  21.662  26.386  1.00  0.00     0.256 C 
ATOM      5  O   UNL A   1      33.712  21.470  27.474  1.00  0.00    -0.269 OA
ATOM      6  H   UNL A   1      35.956  21.835  27.416  1.00  0.00     0.163 HD
BRANCH   4   7
ATOM      7  C   UNL A   1      33.473  21.763  25.146  1.00  0.00     0.105 A 
ATOM      8  C   UNL A   1      32.924  20.832  24.245  1.00  0.00     0.050 A 
ATOM      9  N   UNL A   1      32.210  21.560  23.325  1.00  0.00    -0.280 N 
ATOM     10  N   UNL A   1      32.079  22.844  23.625  1.00  0.00    -0.156 NA
ATOM     11  H   UNL A   1      31.828  21.162  22.511  1.00  0.00     0.190 HD
ATOM     12  C   UNL A   1      32.885  22.997  24.681  1.00  0.00     0.171 A 
BRANCH   8  13
ATOM     13  C   UNL A   1      32.844  19.345  24.085  1.00  0.00     0.053 C 
ATOM     14  C   UNL A   1      32.751  18.617  25.428  1.00  0.00     0.011 C 
ENDBRANCH   8  13
BRANCH  12  15
ATOM     15  N   UNL A   1      32.993  24.332  25.189  1.00  0.00    -0.307 N 
ATOM     16  C   UNL A   1      32.066  25.044  25.922  1.00  0.00     0.093 A 
ATOM     17  C   UNL A   1      34.122  25.128  25.075  1.00  0.00     0.093 A 
ATOM     18  C   UNL A   1      32.584  26.288  26.218  1.00  0.00     0.020 A 
ATOM     19  C   UNL A   1      33.876  26.352  25.652  1.00  0.00     0.020 A 
ENDBRANCH  12  15
ENDBRANCH   4   7
ENDBRANCH   2   3
ENDBRANCH   1   2
BRANCH   1  20
ATOM     20  C   UNL A   1      37.633  24.043  26.253  1.00  0.00     0.118 C 
BRANCH  20  21
ATOM     21  N   UNL A   1      38.832  23.484  26.858  1.00  0.00    -0.352 N 
ATOM     22  C   UNL A   1      39.848  24.122  27.529  1.00  0.00     0.251 C 
ATOM     23  H   UNL A   1      38.929  22.508  26.776  1.00  0.00     0.163 HD
ATOM     24  O   UNL A   1      40.896  23.532  27.730  1.00  0.00    -0.269 OA
BRANCH  22  25
ATOM     25  C   UNL A   1      39.695  25.527  27.968  1.00  0.00     0.039 A 
ATOM     26  C   UNL A   1      39.122  25.756  29.224  1.00  0.00     0.014 A 
ATOM     27  C   UNL A   1      40.067  26.606  27.156  1.00  0.00     0.014 A 
ATOM     28  C   UNL A   1      39.003  27.057  29.699  1.00  0.00     0.010 A 
ATOM     29  C   UNL A   1      39.981  27.907  27.639  1.00  0.00     0.010 A 
ATOM     30  C   UNL A   1      39.475  28.126  28.922  1.00  0.00    -0.014 A 
BRANCH  30  31
ATOM     31  C   UNL A   1      39.660  29.434  29.590  1.00  0.00     0.031 A 
ATOM     32  C   UNL A   1      38.440  30.349  29.342  1.00  0.00     0.074 A 
ATOM     33  C   UNL A   1      40.842  29.645  30.249  1.00  0.00     0.049 A 
ATOM     34  N   UNL A   1      38.364  31.643  29.311  1.00  0.00    -0.248 NA
ATOM     35  C   UNL A   1      37.117  29.739  29.021  1.00  0.00     0.031 C 
ATOM     36  C   UNL A   1      41.864  28.603  30.484  1.00  0.00     0.029 A 
ATOM     37  N   UNL A   1      41.435  30.745  30.847  1.00  0.00    -0.354 N 
ATOM     38  C   UNL A   1      36.999  31.996  29.176  1.00  0.00     0.074 A 
ATOM     39  C   UNL A   1      36.300  30.786  28.878  1.00  0.00     0.031 C 
ATOM     40  C   UNL A   1      42.961  29.122  31.077  1.00  0.00     0.029 A 
ATOM     41  C   UNL A   1      42.774  30.544  31.296  1.00  0.00     0.049 A 
ATOM     42  H   UNL A   1      40.967  31.603  30.956  1.00  0.00     0.167 HD
ATOM     43  C   UNL A   1      36.533  33.247  29.473  1.00  0.00     0.037 A 
ATOM     44  C   UNL A   1      43.682  31.459  31.772  1.00  0.00     0.037 A 
ATOM     45  C   UNL A   1      37.634  34.079  29.817  1.00  0.00     0.049 A 
ATOM     46  C   UNL A   1      42.912  32.690  31.955  1.00  0.00     0.074 A 
ATOM     47  C   UNL A   1      38.646  34.607  29.062  1.00  0.00     0.029 A 
ATOM     48  N   UNL A   1      37.974  34.124  31.146  1.00  0.00    -0.354 N 
ATOM     49  N   UNL A   1      42.100  32.895  32.947  1.00  0.00    -0.248 NA
ATOM     50  C   UNL A   1      43.003  33.750  30.943  1.00  0.00     0.031 C 
ATOM     51  C   UNL A   1      39.758  34.504  29.915  1.00  0.00     0.029 A 
ATOM     52  C   UNL A   1      39.339  34.187  31.213  1.00  0.00     0.049 A 
ATOM     53  H   UNL A   1      37.352  34.113  31.909  1.00  0.00     0.167 HD
ATOM     54  C   UNL A   1      41.337  33.928  32.465  1.00  0.00     0.074 A 
ATOM     55  C   UNL A   1      42.139  34.611  31.475  1.00  0.00     0.031 C 
ATOM     56  C   UNL A   1      39.989  33.769  32.430  1.00  0.00     0.037 A 
BRANCH  43  57
ATOM     57  C   UNL A   1      35.164  33.807  29.756  1.00  0.00     0.064 A 
ATOM     58  C   UNL A   1      34.601  34.695  28.799  1.00  0.00     0.173 A 
ATOM     59  C   UNL A   1      34.582  33.833  31.028  1.00  0.00     0.173 A 
ATOM     60  F   UNL A   1      35.032  34.703  27.526  1.00  0.00    -0.203 F 
ATOM     61  C   UNL A   1      33.664  35.665  29.145  1.00  0.00     0.198 A 
ATOM     62  C   UNL A   1      33.597  34.770  31.357  1.00  0.00     0.198 A 
ATOM     63  F   UNL A   1      35.016  33.030  32.007  1.00  0.00    -0.203 F 
ATOM     64  F   UNL A   1      33.296  36.591  28.248  1.00  0.00    -0.200 F 
ATOM     65  C   UNL A   1      33.179  35.717  30.434  1.00  0.00     0.200 A 
ATOM     66  F   UNL A   1      33.110  34.806  32.605  1.00  0.00    -0.200 F 
ATOM     67  F   UNL A   1      32.336  36.693  30.799  1.00  0.00    -0.200 F 
ENDBRANCH  43  57
BRANCH  44  68
ATOM     68  C   UNL A   1      45.155  31.568  32.127  1.00  0.00     0.064 A 
ATOM     69  C   UNL A   1      45.695  31.682  33.411  1.00  0.00     0.173 A 
ATOM     70  C   UNL A   1      46.144  31.506  31.094  1.00  0.00     0.173 A 
ATOM     71  F   UNL A   1      44.906  31.877  34.473  1.00  0.00    -0.203 F 
ATOM     72  C   UNL A   1      47.085  31.623  33.646  1.00  0.00     0.198 A 
ATOM     73  C   UNL A   1      47.513  31.397  31.327  1.00  0.00     0.198 A 
ATOM     74  F   UNL A   1      45.824  31.551  29.795  1.00  0.00    -0.203 F 
ATOM     75  F   UNL A   1      47.553  31.735  34.898  1.00  0.00    -0.200 F 
ATOM     76  C   UNL A   1      47.988  31.439  32.611  1.00  0.00     0.200 A 
ATOM     77  F   UNL A   1      48.352  31.238  30.292  1.00  0.00    -0.200 F 
ATOM     78  F   UNL A   1      49.302  31.318  32.846  1.00  0.00    -0.200 F 
ENDBRANCH  44  68
BRANCH  56  79
ATOM     79  C   UNL A   1      39.462  32.798  33.474  1.00  0.00     0.064 A 
ATOM     80  C   UNL A   1      39.695  33.055  34.838  1.00  0.00     0.173 A 
ATOM     81  C   UNL A   1      38.879  31.553  33.177  1.00  0.00     0.173 A 
ATOM     82  F   UNL A   1      40.217  34.233  35.214  1.00  0.00    -0.203 F 
ATOM     83  C   UNL A   1      39.411  32.113  35.829  1.00  0.00     0.198 A 
ATOM     84  C   UNL A   1      38.587  30.610  34.168  1.00  0.00     0.198 A 
ATOM     85  F   UNL A   1      38.579  31.223  31.921  1.00  0.00    -0.203 F 
ATOM     86  F   UNL A   1      39.670  32.395  37.113  1.00  0.00    -0.200 F 
ATOM     87  C   UNL A   1      38.864  30.886  35.493  1.00  0.00     0.200 A 
ATOM     88  F   UNL A   1      38.035  29.433  33.833  1.00  0.00    -0.200 F 
ATOM     89  F   UNL A   1      38.589  29.982  36.445  1.00  0.00    -0.200 F 
ENDBRANCH  56  79
ENDBRANCH  30  31
ENDBRANCH  22  25
ENDBRANCH  20  21
ENDBRANCH   1  20
TORSDOF 12
ENDMDL
