MODEL 1
REMARK VINA RESULT:     -13.5      0.000      0.000
REMARK SMILES C[C@H]1C(=O)OC[C@@H]2C(C(=O)NCCCNC(=O)c3ccc(-c4c5nc(c(-c6c(F)c(F)c(F)c(F)c6F)c6ccc([nH]6)c(-c6c(F)c(F)c(F)c(F)c6F)c6nc(c(-c7c(F)c(F)c(F)c(F)c7F)c7ccc4[nH]7)C=C6)C=C5)cc3)=C[C@@H]3CC(C)(C)C[C@]321
REMARK SMILES IDX 14 1 13 2 12 3 11 4 9 5 10 6 8 8 1 9 2 10 3 11 88 12 5 13
REMARK SMILES IDX 4 14 7 15 82 16 87 17 6 18 81 19 83 20 84 21 85 22 86 23
REMARK SMILES IDX 15 24 16 25 17 27 18 28 19 29 80 30 20 31 79 32 21 33 22 34
REMARK SMILES IDX 23 35 73 36 24 37 78 38 72 39 74 40 25 41 77 42 71 43 70 44
REMARK SMILES IDX 26 46 58 47 38 48 57 49 39 50 42 51 56 52 75 53 40 54 41 55
REMARK SMILES IDX 55 57 76 58 43 59 27 60 28 61 36 62 29 63 30 64 34 65 37 66
REMARK SMILES IDX 31 67 32 68 35 69 33 70 59 71 60 72 68 73 61 74 62 75 66 76
REMARK SMILES IDX 69 77 63 78 64 79 67 80 65 81 44 82 45 83 53 84 46 85 47 86
REMARK SMILES IDX 51 87 54 88 48 89 49 90 52 91 50 92
REMARK H PARENT 11 7 15 26 74 45 42 56
REMARK Flexibility Score: inf
ROOT
ATOM      1  C   UNL A   1      32.828  29.328  25.187  1.00  0.00     0.118 C 
ENDROOT
BRANCH   1   2
ATOM      2  C   UNL A   1      31.722  28.266  25.173  1.00  0.00     0.042 C 
BRANCH   2   3
ATOM      3  C   UNL A   1      31.932  27.065  26.101  1.00  0.00     0.118 C 
BRANCH   3   4
ATOM      4  N   UNL A   1      30.684  26.439  26.498  1.00  0.00    -0.352 N 
ATOM      5  C   UNL A   1      30.310  25.134  26.534  1.00  0.00     0.247 C 
ATOM      6  O   UNL A   1      29.139  24.839  26.759  1.00  0.00    -0.270 OA
ATOM      7  H   UNL A   1      29.987  27.069  26.794  1.00  0.00     0.163 HD
BRANCH   5   8
ATOM      8  C   UNL A   1      31.277  24.064  26.244  1.00  0.00     0.020 C 
ATOM      9  C   UNL A   1      35.205  23.698  24.867  1.00  0.00     0.020 C 
ATOM     10  C   UNL A   1      33.707  23.909  24.679  1.00  0.00     0.103 C 
ATOM     11  C   UNL A   1      33.440  24.445  23.285  1.00  0.00     0.309 C 
ATOM     12  C   UNL A   1      32.701  22.734  24.978  1.00  0.00     0.000 C 
ATOM     13  O   UNL A   1      32.185  24.922  23.116  1.00  0.00    -0.465 OA
ATOM     14  O   UNL A   1      34.295  24.577  22.423  1.00  0.00    -0.252 OA
ATOM     15  C   UNL A   1      31.290  23.354  24.882  1.00  0.00     0.070 C 
ATOM     16  C   UNL A   1      32.602  22.218  26.428  1.00  0.00     0.020 C 
ATOM     17  C   UNL A   1      33.034  21.443  24.213  1.00  0.00     0.015 C 
ATOM     18  C   UNL A   1      31.062  24.195  23.633  1.00  0.00     0.242 C 
ATOM     19  C   UNL A   1      32.092  23.435  27.125  1.00  0.00    -0.013 C 
ATOM     20  C   UNL A   1      33.799  21.305  26.592  1.00  0.00     0.014 C 
ATOM     21  C   UNL A   1      33.748  20.498  25.250  1.00  0.00    -0.034 C 
ATOM     22  C   UNL A   1      32.915  19.208  25.420  1.00  0.00     0.011 C 
ATOM     23  C   UNL A   1      35.144  20.063  24.787  1.00  0.00     0.011 C 
ENDBRANCH   5   8
ENDBRANCH   3   4
ENDBRANCH   2   3
ENDBRANCH   1   2
BRANCH   1  24
ATOM     24  N   UNL A   1      32.423  30.584  25.803  1.00  0.00    -0.352 N 
ATOM     25  C   UNL A   1      32.963  31.310  26.837  1.00  0.00     0.251 C 
ATOM     26  H   UNL A   1      31.616  30.986  25.407  1.00  0.00     0.163 HD
ATOM     27  O   UNL A   1      32.359  32.305  27.233  1.00  0.00    -0.269 OA
BRANCH  25  28
ATOM     28  C   UNL A   1      34.229  30.925  27.513  1.00  0.00     0.039 A 
ATOM     29  C   UNL A   1      35.183  31.926  27.739  1.00  0.00     0.014 A 
ATOM     30  C   UNL A   1      34.532  29.607  27.862  1.00  0.00     0.014 A 
ATOM     31  C   UNL A   1      36.394  31.626  28.371  1.00  0.00     0.010 A 
ATOM     32  C   UNL A   1      35.721  29.314  28.543  1.00  0.00     0.010 A 
ATOM     33  C   UNL A   1      36.661  30.322  28.814  1.00  0.00    -0.014 A 
BRANCH  33  34
ATOM     34  C   UNL A   1      37.892  30.017  29.596  1.00  0.00     0.031 A 
ATOM     35  C   UNL A   1      38.939  29.077  29.064  1.00  0.00     0.074 A 
ATOM     36  C   UNL A   1      38.046  30.551  30.823  1.00  0.00     0.049 A 
ATOM     37  N   UNL A   1      40.042  28.656  29.636  1.00  0.00    -0.248 NA
ATOM     38  C   UNL A   1      38.711  28.522  27.722  1.00  0.00     0.031 C 
ATOM     39  C   UNL A   1      37.094  31.449  31.478  1.00  0.00     0.029 A 
ATOM     40  N   UNL A   1      39.055  30.406  31.746  1.00  0.00    -0.354 N 
ATOM     41  C   UNL A   1      40.630  27.780  28.733  1.00  0.00     0.074 A 
ATOM     42  C   UNL A   1      39.745  27.702  27.589  1.00  0.00     0.031 C 
ATOM     43  C   UNL A   1      37.567  31.786  32.687  1.00  0.00     0.029 A 
ATOM     44  C   UNL A   1      38.838  31.103  32.911  1.00  0.00     0.049 A 
ATOM     45  H   UNL A   1      39.856  29.857  31.588  1.00  0.00     0.167 HD
ATOM     46  C   UNL A   1      41.806  27.114  28.841  1.00  0.00     0.037 A 
ATOM     47  C   UNL A   1      39.573  31.177  34.037  1.00  0.00     0.037 A 
ATOM     48  C   UNL A   1      42.702  27.205  29.964  1.00  0.00     0.049 A 
ATOM     49  C   UNL A   1      40.870  30.425  34.132  1.00  0.00     0.074 A 
ATOM     50  C   UNL A   1      43.944  26.614  30.129  1.00  0.00     0.029 A 
ATOM     51  N   UNL A   1      42.454  27.933  31.118  1.00  0.00    -0.354 N 
ATOM     52  N   UNL A   1      41.444  29.649  33.245  1.00  0.00    -0.248 NA
ATOM     53  C   UNL A   1      41.627  30.562  35.386  1.00  0.00     0.031 C 
ATOM     54  C   UNL A   1      44.430  26.950  31.397  1.00  0.00     0.029 A 
ATOM     55  C   UNL A   1      43.510  27.787  32.006  1.00  0.00     0.049 A 
ATOM     56  H   UNL A   1      41.647  28.473  31.284  1.00  0.00     0.167 HD
ATOM     57  C   UNL A   1      42.635  29.229  33.819  1.00  0.00     0.074 A 
ATOM     58  C   UNL A   1      42.710  29.844  35.128  1.00  0.00     0.031 C 
ATOM     59  C   UNL A   1      43.582  28.407  33.304  1.00  0.00     0.037 A 
BRANCH  46  60
ATOM     60  C   UNL A   1      42.201  26.216  27.704  1.00  0.00     0.064 A 
ATOM     61  C   UNL A   1      43.115  26.630  26.725  1.00  0.00     0.173 A 
ATOM     62  C   UNL A   1      41.700  24.907  27.623  1.00  0.00     0.173 A 
ATOM     63  F   UNL A   1      43.618  27.874  26.754  1.00  0.00    -0.203 F 
ATOM     64  C   UNL A   1      43.494  25.777  25.692  1.00  0.00     0.198 A 
ATOM     65  C   UNL A   1      42.102  24.048  26.604  1.00  0.00     0.198 A 
ATOM     66  F   UNL A   1      40.830  24.458  28.540  1.00  0.00    -0.203 F 
ATOM     67  F   UNL A   1      44.339  26.208  24.745  1.00  0.00    -0.200 F 
ATOM     68  C   UNL A   1      42.993  24.485  25.636  1.00  0.00     0.200 A 
ATOM     69  F   UNL A   1      41.627  22.796  26.559  1.00  0.00    -0.200 F 
ATOM     70  F   UNL A   1      43.366  23.663  24.646  1.00  0.00    -0.200 F 
ENDBRANCH  46  60
BRANCH  47  71
ATOM     71  C   UNL A   1      39.105  32.020  35.167  1.00  0.00     0.064 A 
ATOM     72  C   UNL A   1      39.363  33.397  35.189  1.00  0.00     0.173 A 
ATOM     73  C   UNL A   1      38.395  31.468  36.243  1.00  0.00     0.173 A 
ATOM     74  F   UNL A   1      40.060  33.964  34.193  1.00  0.00    -0.203 F 
ATOM     75  C   UNL A   1      38.940  34.189  36.254  1.00  0.00     0.198 A 
ATOM     76  C   UNL A   1      37.951  32.267  37.294  1.00  0.00     0.198 A 
ATOM     77  F   UNL A   1      38.123  30.155  36.265  1.00  0.00    -0.203 F 
ATOM     78  F   UNL A   1      39.234  35.497  36.271  1.00  0.00    -0.200 F 
ATOM     79  C   UNL A   1      38.230  33.625  37.303  1.00  0.00     0.200 A 
ATOM     80  F   UNL A   1      37.256  31.719  38.301  1.00  0.00    -0.200 F 
ATOM     81  F   UNL A   1      37.819  34.389  38.324  1.00  0.00    -0.200 F 
ENDBRANCH  47  71
BRANCH  59  82
ATOM     82  C   UNL A   1      44.799  28.147  34.143  1.00  0.00     0.064 A 
ATOM     83  C   UNL A   1      44.886  27.030  34.986  1.00  0.00     0.173 A 
ATOM     84  C   UNL A   1      45.904  29.009  34.076  1.00  0.00     0.173 A 
ATOM     85  F   UNL A   1      43.850  26.186  35.097  1.00  0.00    -0.203 F 
ATOM     86  C   UNL A   1      46.028  26.796  35.748  1.00  0.00     0.198 A 
ATOM     87  C   UNL A   1      47.054  28.758  34.821  1.00  0.00     0.198 A 
ATOM     88  F   UNL A   1      45.872  30.089  33.282  1.00  0.00    -0.203 F 
ATOM     89  F   UNL A   1      46.074  25.745  36.579  1.00  0.00    -0.200 F 
ATOM     90  C   UNL A   1      47.113  27.656  35.659  1.00  0.00     0.200 A 
ATOM     91  F   UNL A   1      48.105  29.585  34.727  1.00  0.00    -0.200 F 
ATOM     92  F   UNL A   1      48.213  27.427  36.390  1.00  0.00    -0.200 F 
ENDBRANCH  59  82
ENDBRANCH  33  34
ENDBRANCH  25  28
ENDBRANCH   1  24
TORSDOF 10
ENDMDL
MODEL 2
REMARK VINA RESULT:     -13.5      0.976      2.416
REMARK SMILES C[C@H]1C(=O)OC[C@@H]2C(C(=O)NCCCNC(=O)c3ccc(-c4c5nc(c(-c6c(F)c(F)c(F)c(F)c6F)c6ccc([nH]6)c(-c6c(F)c(F)c(F)c(F)c6F)c6nc(c(-c7c(F)c(F)c(F)c(F)c7F)c7ccc4[nH]7)C=C6)C=C5)cc3)=C[C@@H]3CC(C)(C)C[C@]321
REMARK SMILES IDX 14 1 13 2 12 3 11 4 9 5 10 6 8 8 1 9 2 10 3 11 88 12 5 13
REMARK SMILES IDX 4 14 7 15 82 16 87 17 6 18 81 19 83 20 84 21 85 22 86 23
REMARK SMILES IDX 15 24 16 25 17 27 18 28 19 29 80 30 20 31 79 32 21 33 22 34
REMARK SMILES IDX 23 35 73 36 24 37 78 38 72 39 74 40 25 41 77 42 71 43 70 44
REMARK SMILES IDX 26 46 58 47 38 48 57 49 39 50 42 51 56 52 75 53 40 54 41 55
REMARK SMILES IDX 55 57 76 58 43 59 27 60 28 61 36 62 29 63 30 64 34 65 37 66
REMARK SMILES IDX 31 67 32 68 35 69 33 70 59 71 60 72 68 73 61 74 62 75 66 76
REMARK SMILES IDX 69 77 63 78 64 79 67 80 65 81 44 82 45 83 53 84 46 85 47 86
REMARK SMILES IDX 51 87 54 88 48 89 49 90 52 91 50 92
REMARK H PARENT 11 7 15 26 74 45 42 56
REMARK Flexibility Score: inf
ROOT
ATOM      1  C   UNL A   1      32.667  29.293  25.416  1.00  0.00     0.118 C 
ENDROOT
BRANCH   1   2
ATOM      2  C   UNL A   1      33.641  29.326  24.232  1.00  0.00     0.042 C 
BRANCH   2   3
ATOM      3  C   UNL A   1      33.239  28.497  23.008  1.00  0.00     0.118 C 
BRANCH   3   4
ATOM      4  N   UNL A   1      31.899  27.947  23.118  1.00  0.00    -0.352 N 
ATOM      5  C   UNL A   1      31.469  26.695  23.418  1.00  0.00     0.247 C 
ATOM      6  O   UNL A   1      30.279  26.413  23.300  1.00  0.00    -0.270 OA
ATOM      7  H   UNL A   1      31.178  28.595  22.946  1.00  0.00     0.163 HD
BRANCH   5   8
ATOM      8  C   UNL A   1      32.418  25.647  23.824  1.00  0.00     0.020 C 
ATOM      9  C   UNL A   1      32.304  21.737  25.291  1.00  0.00     0.020 C 
ATOM     10  C   UNL A   1      32.210  23.251  25.434  1.00  0.00     0.103 C 
ATOM     11  C   UNL A   1      31.572  23.597  26.767  1.00  0.00     0.309 C 
ATOM     12  C   UNL A   1      33.492  24.144  25.233  1.00  0.00     0.000 C 
ATOM     13  O   UNL A   1      31.194  24.892  26.869  1.00  0.00    -0.465 OA
ATOM     14  O   UNL A   1      31.285  22.778  27.626  1.00  0.00    -0.252 OA
ATOM     15  C   UNL A   1      32.993  25.605  25.247  1.00  0.00     0.070 C 
ATOM     16  C   UNL A   1      34.148  24.163  23.837  1.00  0.00     0.020 C 
ATOM     17  C   UNL A   1      34.671  23.719  26.122  1.00  0.00     0.015 C 
ATOM     18  C   UNL A   1      32.062  25.935  26.406  1.00  0.00     0.242 C 
ATOM     19  C   UNL A   1      33.051  24.760  23.020  1.00  0.00    -0.013 C 
ATOM     20  C   UNL A   1      34.963  22.888  23.780  1.00  0.00     0.014 C 
ATOM     21  C   UNL A   1      35.643  22.901  25.192  1.00  0.00    -0.034 C 
ATOM     22  C   UNL A   1      37.011  23.615  25.132  1.00  0.00     0.011 C 
ATOM     23  C   UNL A   1      35.906  21.484  25.716  1.00  0.00     0.011 C 
ENDBRANCH   5   8
ENDBRANCH   3   4
ENDBRANCH   2   3
ENDBRANCH   1   2
BRANCH   1  24
ATOM     24  N   UNL A   1      32.353  30.611  25.950  1.00  0.00    -0.352 N 
ATOM     25  C   UNL A   1      32.965  31.377  26.913  1.00  0.00     0.251 C 
ATOM     26  H   UNL A   1      31.558  31.030  25.547  1.00  0.00     0.163 HD
ATOM     27  O   UNL A   1      32.430  32.431  27.251  1.00  0.00    -0.269 OA
BRANCH  25  28
ATOM     28  C   UNL A   1      34.227  30.967  27.581  1.00  0.00     0.039 A 
ATOM     29  C   UNL A   1      35.204  31.948  27.794  1.00  0.00     0.014 A 
ATOM     30  C   UNL A   1      34.502  29.644  27.936  1.00  0.00     0.014 A 
ATOM     31  C   UNL A   1      36.414  31.624  28.418  1.00  0.00     0.010 A 
ATOM     32  C   UNL A   1      35.691  29.329  28.609  1.00  0.00     0.010 A 
ATOM     33  C   UNL A   1      36.654  30.317  28.867  1.00  0.00    -0.014 A 
BRANCH  33  34
ATOM     34  C   UNL A   1      37.885  29.989  29.641  1.00  0.00     0.031 A 
ATOM     35  C   UNL A   1      38.915  29.037  29.098  1.00  0.00     0.074 A 
ATOM     36  C   UNL A   1      38.052  30.512  30.871  1.00  0.00     0.049 A 
ATOM     37  N   UNL A   1      40.014  28.597  29.662  1.00  0.00    -0.248 NA
ATOM     38  C   UNL A   1      38.673  28.494  27.754  1.00  0.00     0.031 C 
ATOM     39  C   UNL A   1      37.116  31.420  31.536  1.00  0.00     0.029 A 
ATOM     40  N   UNL A   1      39.063  30.347  31.789  1.00  0.00    -0.354 N 
ATOM     41  C   UNL A   1      40.585  27.717  28.752  1.00  0.00     0.074 A 
ATOM     42  C   UNL A   1      39.694  27.660  27.611  1.00  0.00     0.031 C 
ATOM     43  C   UNL A   1      37.600  31.743  32.745  1.00  0.00     0.029 A 
ATOM     44  C   UNL A   1      38.862  31.040  32.958  1.00  0.00     0.049 A 
ATOM     45  H   UNL A   1      39.855  29.788  31.623  1.00  0.00     0.167 HD
ATOM     46  C   UNL A   1      41.752  27.033  28.849  1.00  0.00     0.037 A 
ATOM     47  C   UNL A   1      39.603  31.096  34.081  1.00  0.00     0.037 A 
ATOM     48  C   UNL A   1      42.655  27.105  29.969  1.00  0.00     0.049 A 
ATOM     49  C   UNL A   1      40.890  30.324  34.165  1.00  0.00     0.074 A 
ATOM     50  C   UNL A   1      43.888  26.494  30.124  1.00  0.00     0.029 A 
ATOM     51  N   UNL A   1      42.423  27.828  31.129  1.00  0.00    -0.354 N 
ATOM     52  N   UNL A   1      41.448  29.546  33.271  1.00  0.00    -0.248 NA
ATOM     53  C   UNL A   1      41.653  30.442  35.417  1.00  0.00     0.031 C 
ATOM     54  C   UNL A   1      44.385  26.815  31.392  1.00  0.00     0.029 A 
ATOM     55  C   UNL A   1      43.480  27.661  32.011  1.00  0.00     0.049 A 
ATOM     56  H   UNL A   1      41.624  28.379  31.301  1.00  0.00     0.167 HD
ATOM     57  C   UNL A   1      42.635  29.104  33.837  1.00  0.00     0.074 A 
ATOM     58  C   UNL A   1      42.725  29.709  35.149  1.00  0.00     0.031 C 
ATOM     59  C   UNL A   1      43.567  28.272  33.313  1.00  0.00     0.037 A 
BRANCH  46  60
ATOM     60  C   UNL A   1      42.128  26.137  27.705  1.00  0.00     0.064 A 
ATOM     61  C   UNL A   1      43.061  26.535  26.737  1.00  0.00     0.173 A 
ATOM     62  C   UNL A   1      41.589  24.845  27.606  1.00  0.00     0.173 A 
ATOM     63  F   UNL A   1      43.600  27.762  26.784  1.00  0.00    -0.203 F 
ATOM     64  C   UNL A   1      43.423  25.683  25.697  1.00  0.00     0.198 A 
ATOM     65  C   UNL A   1      41.973  23.986  26.579  1.00  0.00     0.198 A 
ATOM     66  F   UNL A   1      40.700  24.411  28.511  1.00  0.00    -0.203 F 
ATOM     67  F   UNL A   1      44.287  26.099  24.761  1.00  0.00    -0.200 F 
ATOM     68  C   UNL A   1      42.884  24.407  25.623  1.00  0.00     0.200 A 
ATOM     69  F   UNL A   1      41.461  22.749  26.517  1.00  0.00    -0.200 F 
ATOM     70  F   UNL A   1      43.239  23.585  24.626  1.00  0.00    -0.200 F 
ENDBRANCH  46  60
BRANCH  47  71
ATOM     71  C   UNL A   1      39.153  31.939  35.219  1.00  0.00     0.064 A 
ATOM     72  C   UNL A   1      38.430  31.382  36.281  1.00  0.00     0.173 A 
ATOM     73  C   UNL A   1      39.434  33.312  35.265  1.00  0.00     0.173 A 
ATOM     74  F   UNL A   1      38.117  30.077  36.267  1.00  0.00    -0.203 F 
ATOM     75  C   UNL A   1      37.991  32.170  37.343  1.00  0.00     0.198 A 
ATOM     76  C   UNL A   1      39.016  34.094  36.339  1.00  0.00     0.198 A 
ATOM     77  F   UNL A   1      40.123  33.890  34.271  1.00  0.00    -0.203 F 
ATOM     78  F   UNL A   1      37.266  31.621  38.327  1.00  0.00    -0.200 F 
ATOM     79  C   UNL A   1      38.289  33.524  37.374  1.00  0.00     0.200 A 
ATOM     80  F   UNL A   1      39.315  35.400  36.371  1.00  0.00    -0.200 F 
ATOM     81  F   UNL A   1      37.871  34.280  38.397  1.00  0.00    -0.200 F 
ENDBRANCH  47  71
BRANCH  59  82
ATOM     82  C   UNL A   1      44.784  27.988  34.143  1.00  0.00     0.064 A 
ATOM     83  C   UNL A   1      45.917  28.813  34.092  1.00  0.00     0.173 A 
ATOM     84  C   UNL A   1      44.804  26.897  35.024  1.00  0.00     0.173 A 
ATOM     85  F   UNL A   1      45.954  29.859  33.254  1.00  0.00    -0.203 F 
ATOM     86  C   UNL A   1      47.035  28.543  34.879  1.00  0.00     0.198 A 
ATOM     87  C   UNL A   1      45.913  26.645  35.828  1.00  0.00     0.198 A 
ATOM     88  F   UNL A   1      43.744  26.080  35.113  1.00  0.00    -0.203 F 
ATOM     89  F   UNL A   1      48.123  29.320  34.784  1.00  0.00    -0.200 F 
ATOM     90  C   UNL A   1      47.029  27.464  35.751  1.00  0.00     0.200 A 
ATOM     91  F   UNL A   1      45.902  25.607  36.676  1.00  0.00    -0.200 F 
ATOM     92  F   UNL A   1      48.103  27.208  36.511  1.00  0.00    -0.200 F 
ENDBRANCH  59  82
ENDBRANCH  33  34
ENDBRANCH  25  28
ENDBRANCH   1  24
TORSDOF 10
ENDMDL
MODEL 3
REMARK VINA RESULT:     -13.5      0.138      1.607
REMARK SMILES C[C@H]1C(=O)OC[C@@H]2C(C(=O)NCCCNC(=O)c3ccc(-c4c5nc(c(-c6c(F)c(F)c(F)c(F)c6F)c6ccc([nH]6)c(-c6c(F)c(F)c(F)c(F)c6F)c6nc(c(-c7c(F)c(F)c(F)c(F)c7F)c7ccc4[nH]7)C=C6)C=C5)cc3)=C[C@@H]3CC(C)(C)C[C@]321
REMARK SMILES IDX 14 1 13 2 12 3 11 4 9 5 10 6 8 8 1 9 2 10 3 11 88 12 5 13
REMARK SMILES IDX 4 14 7 15 82 16 87 17 6 18 81 19 83 20 84 21 85 22 86 23
REMARK SMILES IDX 15 24 16 25 17 27 18 28 19 29 80 30 20 31 79 32 21 33 22 34
REMARK SMILES IDX 23 35 73 36 24 37 78 38 72 39 74 40 25 41 77 42 71 43 70 44
REMARK SMILES IDX 26 46 58 47 38 48 57 49 39 50 42 51 56 52 75 53 40 54 41 55
REMARK SMILES IDX 55 57 76 58 43 59 27 60 28 61 36 62 29 63 30 64 34 65 37 66
REMARK SMILES IDX 31 67 32 68 35 69 33 70 59 71 60 72 68 73 61 74 62 75 66 76
REMARK SMILES IDX 69 77 63 78 64 79 67 80 65 81 44 82 45 83 53 84 46 85 47 86
REMARK SMILES IDX 51 87 54 88 48 89 49 90 52 91 50 92
REMARK H PARENT 11 7 15 26 74 45 42 56
REMARK Flexibility Score: inf
ROOT
ATOM      1  C   UNL A   1      32.966  29.317  25.226  1.00  0.00     0.118 C 
ENDROOT
BRANCH   1   2
ATOM      2  C   UNL A   1      31.848  28.269  25.190  1.00  0.00     0.042 C 
BRANCH   2   3
ATOM      3  C   UNL A   1      32.021  27.070  26.128  1.00  0.00     0.118 C 
BRANCH   3   4
ATOM      4  N   UNL A   1      30.756  26.462  26.500  1.00  0.00    -0.352 N 
ATOM      5  C   UNL A   1      30.360  25.164  26.519  1.00  0.00     0.247 C 
ATOM      6  O   UNL A   1      29.180  24.887  26.723  1.00  0.00    -0.270 OA
ATOM      7  H   UNL A   1      30.066  27.102  26.790  1.00  0.00     0.163 HD
BRANCH   5   8
ATOM      8  C   UNL A   1      31.312  24.079  26.236  1.00  0.00     0.020 C 
ATOM      9  C   UNL A   1      35.240  23.655  24.878  1.00  0.00     0.020 C 
ATOM     10  C   UNL A   1      33.746  23.887  24.682  1.00  0.00     0.103 C 
ATOM     11  C   UNL A   1      33.494  24.423  23.286  1.00  0.00     0.309 C 
ATOM     12  C   UNL A   1      32.723  22.727  24.979  1.00  0.00     0.000 C 
ATOM     13  O   UNL A   1      32.246  24.918  23.110  1.00  0.00    -0.465 OA
ATOM     14  O   UNL A   1      34.354  24.541  22.427  1.00  0.00    -0.252 OA
ATOM     15  C   UNL A   1      31.321  23.366  24.875  1.00  0.00     0.070 C 
ATOM     16  C   UNL A   1      32.610  22.216  26.430  1.00  0.00     0.020 C 
ATOM     17  C   UNL A   1      33.040  21.430  24.218  1.00  0.00     0.015 C 
ATOM     18  C   UNL A   1      31.111  24.208  23.624  1.00  0.00     0.242 C 
ATOM     19  C   UNL A   1      32.114  23.441  27.121  1.00  0.00    -0.013 C 
ATOM     20  C   UNL A   1      33.793  21.286  26.601  1.00  0.00     0.014 C 
ATOM     21  C   UNL A   1      33.737  20.476  25.260  1.00  0.00    -0.034 C 
ATOM     22  C   UNL A   1      32.884  19.199  25.429  1.00  0.00     0.011 C 
ATOM     23  C   UNL A   1      35.128  20.021  24.805  1.00  0.00     0.011 C 
ENDBRANCH   5   8
ENDBRANCH   3   4
ENDBRANCH   2   3
ENDBRANCH   1   2
BRANCH   1  24
ATOM     24  N   UNL A   1      32.564  30.579  25.830  1.00  0.00    -0.352 N 
ATOM     25  C   UNL A   1      33.099  31.309  26.865  1.00  0.00     0.251 C 
ATOM     26  H   UNL A   1      31.764  30.984  25.424  1.00  0.00     0.163 HD
ATOM     27  O   UNL A   1      32.497  32.310  27.248  1.00  0.00    -0.269 OA
BRANCH  25  28
ATOM     28  C   UNL A   1      34.355  30.920  27.555  1.00  0.00     0.039 A 
ATOM     29  C   UNL A   1      35.344  31.899  27.718  1.00  0.00     0.014 A 
ATOM     30  C   UNL A   1      34.616  29.614  27.978  1.00  0.00     0.014 A 
ATOM     31  C   UNL A   1      36.549  31.594  28.361  1.00  0.00     0.010 A 
ATOM     32  C   UNL A   1      35.799  29.320  28.668  1.00  0.00     0.010 A 
ATOM     33  C   UNL A   1      36.774  30.309  28.877  1.00  0.00    -0.014 A 
BRANCH  33  34
ATOM     34  C   UNL A   1      38.000  30.007  29.669  1.00  0.00     0.031 A 
ATOM     35  C   UNL A   1      39.055  29.073  29.144  1.00  0.00     0.074 A 
ATOM     36  C   UNL A   1      38.141  30.539  30.899  1.00  0.00     0.049 A 
ATOM     37  N   UNL A   1      40.155  28.656  29.724  1.00  0.00    -0.248 NA
ATOM     38  C   UNL A   1      38.842  28.521  27.798  1.00  0.00     0.031 C 
ATOM     39  C   UNL A   1      37.179  31.431  31.547  1.00  0.00     0.029 A 
ATOM     40  N   UNL A   1      39.141  30.396  31.830  1.00  0.00    -0.354 N 
ATOM     41  C   UNL A   1      40.754  27.784  28.825  1.00  0.00     0.074 A 
ATOM     42  C   UNL A   1      39.880  27.705  27.672  1.00  0.00     0.031 C 
ATOM     43  C   UNL A   1      37.640  31.767  32.762  1.00  0.00     0.029 A 
ATOM     44  C   UNL A   1      38.911  31.089  32.994  1.00  0.00     0.049 A 
ATOM     45  H   UNL A   1      39.946  29.851  31.678  1.00  0.00     0.167 HD
ATOM     46  C   UNL A   1      41.932  27.122  28.941  1.00  0.00     0.037 A 
ATOM     47  C   UNL A   1      39.637  31.163  34.127  1.00  0.00     0.037 A 
ATOM     48  C   UNL A   1      42.818  27.215  30.072  1.00  0.00     0.049 A 
ATOM     49  C   UNL A   1      40.936  30.416  34.232  1.00  0.00     0.074 A 
ATOM     50  C   UNL A   1      44.061  26.628  30.247  1.00  0.00     0.029 A 
ATOM     51  N   UNL A   1      42.557  27.939  31.226  1.00  0.00    -0.354 N 
ATOM     52  N   UNL A   1      41.521  29.645  33.348  1.00  0.00    -0.248 NA
ATOM     53  C   UNL A   1      41.680  30.553  35.493  1.00  0.00     0.031 C 
ATOM     54  C   UNL A   1      44.534  26.964  31.520  1.00  0.00     0.029 A 
ATOM     55  C   UNL A   1      43.605  27.794  32.123  1.00  0.00     0.049 A 
ATOM     56  H   UNL A   1      41.746  28.475  31.386  1.00  0.00     0.167 HD
ATOM     57  C   UNL A   1      42.709  29.228  33.932  1.00  0.00     0.074 A 
ATOM     58  C   UNL A   1      42.769  29.840  35.243  1.00  0.00     0.031 C 
ATOM     59  C   UNL A   1      43.663  28.412  33.424  1.00  0.00     0.037 A 
BRANCH  46  60
ATOM     60  C   UNL A   1      42.341  26.229  27.805  1.00  0.00     0.064 A 
ATOM     61  C   UNL A   1      41.828  24.931  27.671  1.00  0.00     0.173 A 
ATOM     62  C   UNL A   1      43.214  26.697  26.811  1.00  0.00     0.173 A 
ATOM     63  F   UNL A   1      40.995  24.436  28.598  1.00  0.00    -0.203 F 
ATOM     64  C   UNL A   1      42.193  24.124  26.597  1.00  0.00     0.198 A 
ATOM     65  C   UNL A   1      43.556  25.896  25.724  1.00  0.00     0.198 A 
ATOM     66  F   UNL A   1      43.725  27.935  26.886  1.00  0.00    -0.203 F 
ATOM     67  F   UNL A   1      41.721  22.873  26.510  1.00  0.00    -0.200 F 
ATOM     68  C   UNL A   1      43.051  24.609  25.621  1.00  0.00     0.200 A 
ATOM     69  F   UNL A   1      44.375  26.371  24.775  1.00  0.00    -0.200 F 
ATOM     70  F   UNL A   1      43.395  23.834  24.584  1.00  0.00    -0.200 F 
ENDBRANCH  46  60
BRANCH  47  71
ATOM     71  C   UNL A   1      39.155  32.001  35.255  1.00  0.00     0.064 A 
ATOM     72  C   UNL A   1      39.436  33.373  35.300  1.00  0.00     0.173 A 
ATOM     73  C   UNL A   1      38.408  31.450  36.307  1.00  0.00     0.173 A 
ATOM     74  F   UNL A   1      40.168  33.939  34.329  1.00  0.00    -0.203 F 
ATOM     75  C   UNL A   1      39.000  34.161  36.364  1.00  0.00     0.198 A 
ATOM     76  C   UNL A   1      37.952  32.244  37.356  1.00  0.00     0.198 A 
ATOM     77  F   UNL A   1      38.114  30.142  36.307  1.00  0.00    -0.203 F 
ATOM     78  F   UNL A   1      39.316  35.462  36.404  1.00  0.00    -0.200 F 
ATOM     79  C   UNL A   1      38.254  33.597  37.387  1.00  0.00     0.200 A 
ATOM     80  F   UNL A   1      37.222  31.697  38.338  1.00  0.00    -0.200 F 
ATOM     81  F   UNL A   1      37.832  34.356  38.407  1.00  0.00    -0.200 F 
ENDBRANCH  47  71
BRANCH  59  82
ATOM     82  C   UNL A   1      44.874  28.155  34.272  1.00  0.00     0.064 A 
ATOM     83  C   UNL A   1      45.992  29.000  34.232  1.00  0.00     0.173 A 
ATOM     84  C   UNL A   1      44.902  27.067  35.158  1.00  0.00     0.173 A 
ATOM     85  F   UNL A   1      46.021  30.043  33.389  1.00  0.00    -0.203 F 
ATOM     86  C   UNL A   1      47.104  28.754  35.035  1.00  0.00     0.198 A 
ATOM     87  C   UNL A   1      46.005  26.839  35.978  1.00  0.00     0.198 A 
ATOM     88  F   UNL A   1      43.856  26.231  35.236  1.00  0.00    -0.203 F 
ATOM     89  F   UNL A   1      48.178  29.550  34.951  1.00  0.00    -0.200 F 
ATOM     90  C   UNL A   1      47.106  27.679  35.911  1.00  0.00     0.200 A 
ATOM     91  F   UNL A   1      46.002  25.805  36.830  1.00  0.00    -0.200 F 
ATOM     92  F   UNL A   1      48.174  27.446  36.687  1.00  0.00    -0.200 F 
ENDBRANCH  59  82
ENDBRANCH  33  34
ENDBRANCH  25  28
ENDBRANCH   1  24
TORSDOF 10
ENDMDL
