MODEL 1
REMARK VINA RESULT:     -13.6      0.000      0.000
REMARK SMILES Cc1c(C(=O)NCCCNC(=O)c2ccc(-c3c4nc(c(-c5c(F)c(F)c(F)c(F)c5F)c5ccc([nH]5)c(-c5c(F)c(F)c(F)c(F)c5F)c5nc(c(-c6c(F)c(F)c(F)c(F)c6F)c6ccc3[nH]6)C=C5)C=C4)cc2)sc2ncnc(NCc3cn4c(n3)SCC4)c12
REMARK SMILES IDX 7 1 6 2 4 3 5 4 3 6 1 7 2 8 92 9 76 10 77 11 81 12 78 13
REMARK SMILES IDX 80 14 79 15 82 16 83 18 84 19 85 20 88 21 86 22 87 23 91 24
REMARK SMILES IDX 89 25 90 26 8 27 9 28 10 29 11 30 12 32 13 33 14 34 75 35
REMARK SMILES IDX 15 36 74 37 16 38 17 39 18 40 68 41 19 42 73 43 67 44 69 45
REMARK SMILES IDX 20 46 72 47 66 48 65 49 21 51 53 52 33 53 52 54 34 55 37 56
REMARK SMILES IDX 51 57 70 58 35 59 36 60 50 62 71 63 38 64 22 65 23 66 31 67
REMARK SMILES IDX 24 68 25 69 29 70 32 71 26 72 27 73 30 74 28 75 54 76 55 77
REMARK SMILES IDX 63 78 56 79 57 80 61 81 64 82 58 83 59 84 62 85 60 86 39 87
REMARK SMILES IDX 40 88 48 89 41 90 42 91 46 92 49 93 43 94 44 95 47 96 45 97
REMARK H PARENT 6 5 82 17 10 31 69 50 37 61
REMARK Flexibility Score: inf
ROOT
ATOM      1  C   UNL A   1      37.407  23.083  25.409  1.00  0.00     0.118 C 
ENDROOT
BRANCH   1   2
ATOM      2  N   UNL A   1      36.215  22.868  26.213  1.00  0.00    -0.351 N 
ATOM      3  C   UNL A   1      34.917  23.310  26.092  1.00  0.00     0.261 C 
ATOM      4  O   UNL A   1      34.188  22.997  27.037  1.00  0.00    -0.268 OA
ATOM      5  H   UNL A   1      36.365  22.294  26.999  1.00  0.00     0.163 HD
BRANCH   3   6
ATOM      6  C   UNL A   1      34.428  24.033  24.916  1.00  0.00     0.098 A 
ATOM      7  C   UNL A   1      34.041  26.289  26.020  1.00  0.00     0.047 C 
ATOM      8  C   UNL A   1      34.005  25.369  24.843  1.00  0.00    -0.014 A 
ATOM      9  C   UNL A   1      33.474  25.718  23.513  1.00  0.00     0.057 A 
ATOM     10  S   UNL A   1      34.441  23.330  23.369  1.00  0.00    -0.110 S 
ATOM     11  C   UNL A   1      33.604  24.615  22.677  1.00  0.00     0.129 A 
ATOM     12  C   UNL A   1      32.856  26.838  22.894  1.00  0.00     0.138 A 
ATOM     13  N   UNL A   1      33.174  24.468  21.415  1.00  0.00    -0.225 NA
ATOM     14  N   UNL A   1      32.382  26.692  21.626  1.00  0.00    -0.219 NA
ATOM     15  C   UNL A   1      32.556  25.548  20.967  1.00  0.00     0.225 A 
BRANCH  12  16
ATOM     16  N   UNL A   1      32.573  28.096  23.349  1.00  0.00    -0.364 N 
ATOM     17  H   UNL A   1      33.136  28.804  22.961  1.00  0.00     0.162 HD
BRANCH  16  18
ATOM     18  C   UNL A   1      31.598  28.565  24.294  1.00  0.00     0.172 C 
BRANCH  18  19
ATOM     19  C   UNL A   1      30.346  29.219  23.797  1.00  0.00     0.079 A 
ATOM     20  C   UNL A   1      29.503  28.759  22.791  1.00  0.00     0.113 A 
ATOM     21  N   UNL A   1      30.028  30.524  24.152  1.00  0.00    -0.226 NA
ATOM     22  N   UNL A   1      28.749  29.841  22.479  1.00  0.00    -0.325 N 
ATOM     23  C   UNL A   1      29.075  30.854  23.327  1.00  0.00     0.168 A 
ATOM     24  C   UNL A   1      28.074  30.218  21.252  1.00  0.00     0.135 C 
ATOM     25  S   UNL A   1      28.563  32.393  22.736  1.00  0.00    -0.086 SA
ATOM     26  C   UNL A   1      28.433  31.690  21.041  1.00  0.00     0.100 C 
ENDBRANCH  18  19
ENDBRANCH  16  18
ENDBRANCH  12  16
ENDBRANCH   3   6
ENDBRANCH   1   2
BRANCH   1  27
ATOM     27  C   UNL A   1      38.387  21.912  25.545  1.00  0.00     0.042 C 
BRANCH  27  28
ATOM     28  C   UNL A   1      39.424  22.163  26.626  1.00  0.00     0.118 C 
BRANCH  28  29
ATOM     29  N   UNL A   1      40.786  22.131  26.101  1.00  0.00    -0.352 N 
ATOM     30  C   UNL A   1      41.702  23.161  26.021  1.00  0.00     0.251 C 
ATOM     31  H   UNL A   1      41.092  21.260  25.758  1.00  0.00     0.163 HD
ATOM     32  O   UNL A   1      42.679  23.084  25.301  1.00  0.00    -0.269 OA
BRANCH  30  33
ATOM     33  C   UNL A   1      41.452  24.373  26.817  1.00  0.00     0.039 A 
ATOM     34  C   UNL A   1      42.168  24.609  27.992  1.00  0.00     0.014 A 
ATOM     35  C   UNL A   1      40.536  25.304  26.337  1.00  0.00     0.014 A 
ATOM     36  C   UNL A   1      42.016  25.834  28.632  1.00  0.00     0.010 A 
ATOM     37  C   UNL A   1      40.509  26.566  26.875  1.00  0.00     0.010 A 
ATOM     38  C   UNL A   1      41.203  26.823  28.053  1.00  0.00    -0.014 A 
BRANCH  38  39
ATOM     39  C   UNL A   1      41.132  28.154  28.643  1.00  0.00     0.031 A 
ATOM     40  C   UNL A   1      42.212  29.100  28.243  1.00  0.00     0.074 A 
ATOM     41  C   UNL A   1      40.081  28.582  29.373  1.00  0.00     0.049 A 
ATOM     42  N   UNL A   1      43.113  29.632  29.004  1.00  0.00    -0.248 NA
ATOM     43  C   UNL A   1      42.368  29.428  26.818  1.00  0.00     0.031 C 
ATOM     44  C   UNL A   1      38.803  27.909  29.640  1.00  0.00     0.029 A 
ATOM     45  N   UNL A   1      39.909  29.793  29.968  1.00  0.00    -0.354 N 
ATOM     46  C   UNL A   1      43.863  30.480  28.193  1.00  0.00     0.074 A 
ATOM     47  C   UNL A   1      43.441  30.222  26.840  1.00  0.00     0.031 C 
ATOM     48  C   UNL A   1      37.916  28.799  30.133  1.00  0.00     0.029 A 
ATOM     49  C   UNL A   1      38.613  30.042  30.392  1.00  0.00     0.049 A 
ATOM     50  H   UNL A   1      40.643  30.438  30.087  1.00  0.00     0.167 HD
ATOM     51  C   UNL A   1      44.637  31.466  28.725  1.00  0.00     0.037 A 
ATOM     52  C   UNL A   1      38.142  31.201  30.908  1.00  0.00     0.037 A 
ATOM     53  C   UNL A   1      44.880  31.246  30.127  1.00  0.00     0.049 A 
ATOM     54  C   UNL A   1      39.310  31.948  31.435  1.00  0.00     0.074 A 
ATOM     55  C   UNL A   1      45.497  30.248  30.856  1.00  0.00     0.029 A 
ATOM     56  N   UNL A   1      44.130  31.953  31.034  1.00  0.00    -0.354 N 
ATOM     57  N   UNL A   1      40.022  31.554  32.455  1.00  0.00    -0.248 NA
ATOM     58  C   UNL A   1      39.960  32.902  30.550  1.00  0.00     0.031 C 
ATOM     59  C   UNL A   1      44.695  30.100  32.027  1.00  0.00     0.029 A 
ATOM     60  C   UNL A   1      43.678  31.055  31.967  1.00  0.00     0.049 A 
ATOM     61  H   UNL A   1      43.951  32.922  31.019  1.00  0.00     0.167 HD
ATOM     62  C   UNL A   1      41.330  31.860  32.109  1.00  0.00     0.074 A 
ATOM     63  C   UNL A   1      41.219  32.773  30.974  1.00  0.00     0.031 C 
ATOM     64  C   UNL A   1      42.379  31.131  32.592  1.00  0.00     0.037 A 
BRANCH  51  65
ATOM     65  C   UNL A   1      44.906  32.796  28.068  1.00  0.00     0.064 A 
ATOM     66  C   UNL A   1      46.220  33.127  27.679  1.00  0.00     0.173 A 
ATOM     67  C   UNL A   1      43.987  33.866  28.083  1.00  0.00     0.173 A 
ATOM     68  F   UNL A   1      47.181  32.191  27.652  1.00  0.00    -0.203 F 
ATOM     69  C   UNL A   1      46.598  34.444  27.398  1.00  0.00     0.198 A 
ATOM     70  C   UNL A   1      44.356  35.169  27.751  1.00  0.00     0.198 A 
ATOM     71  F   UNL A   1      42.735  33.719  28.529  1.00  0.00    -0.203 F 
ATOM     72  F   UNL A   1      47.884  34.729  27.155  1.00  0.00    -0.200 F 
ATOM     73  C   UNL A   1      45.667  35.464  27.439  1.00  0.00     0.200 A 
ATOM     74  F   UNL A   1      43.443  36.149  27.819  1.00  0.00    -0.200 F 
ATOM     75  F   UNL A   1      46.037  36.734  27.232  1.00  0.00    -0.200 F 
ENDBRANCH  51  65
BRANCH  52  76
ATOM     76  C   UNL A   1      36.819  31.819  30.675  1.00  0.00     0.064 A 
ATOM     77  C   UNL A   1      35.934  32.054  31.739  1.00  0.00     0.173 A 
ATOM     78  C   UNL A   1      36.513  32.450  29.452  1.00  0.00     0.173 A 
ATOM     79  F   UNL A   1      36.178  31.522  32.946  1.00  0.00    -0.203 F 
ATOM     80  C   UNL A   1      34.828  32.897  31.597  1.00  0.00     0.198 A 
ATOM     81  C   UNL A   1      35.404  33.286  29.311  1.00  0.00     0.198 A 
ATOM     82  F   UNL A   1      37.334  32.345  28.398  1.00  0.00    -0.203 F 
ATOM     83  F   UNL A   1      34.043  33.151  32.654  1.00  0.00    -0.200 F 
ATOM     84  C   UNL A   1      34.571  33.522  30.388  1.00  0.00     0.200 A 
ATOM     85  F   UNL A   1      35.188  33.912  28.146  1.00  0.00    -0.200 F 
ATOM     86  F   UNL A   1      33.550  34.381  30.272  1.00  0.00    -0.200 F 
ENDBRANCH  52  76
BRANCH  64  87
ATOM     87  C   UNL A   1      42.107  30.149  33.699  1.00  0.00     0.064 A 
ATOM     88  C   UNL A   1      41.717  28.815  33.488  1.00  0.00     0.173 A 
ATOM     89  C   UNL A   1      42.416  30.526  35.012  1.00  0.00     0.173 A 
ATOM     90  F   UNL A   1      41.496  28.347  32.254  1.00  0.00    -0.203 F 
ATOM     91  C   UNL A   1      41.608  27.914  34.545  1.00  0.00     0.198 A 
ATOM     92  C   UNL A   1      42.342  29.615  36.064  1.00  0.00     0.198 A 
ATOM     93  F   UNL A   1      42.848  31.771  35.270  1.00  0.00    -0.203 F 
ATOM     94  F   UNL A   1      41.230  26.648  34.316  1.00  0.00    -0.200 F 
ATOM     95  C   UNL A   1      41.931  28.312  35.832  1.00  0.00     0.200 A 
ATOM     96  F   UNL A   1      42.702  29.992  37.298  1.00  0.00    -0.200 F 
ATOM     97  F   UNL A   1      41.873  27.435  36.843  1.00  0.00    -0.200 F 
ENDBRANCH  64  87
ENDBRANCH  38  39
ENDBRANCH  30  33
ENDBRANCH  28  29
ENDBRANCH  27  28
ENDBRANCH   1  27
TORSDOF 13
ENDMDL
MODEL 2
REMARK VINA RESULT:     -13.5      3.794      9.395
REMARK SMILES Cc1c(C(=O)NCCCNC(=O)c2ccc(-c3c4nc(c(-c5c(F)c(F)c(F)c(F)c5F)c5ccc([nH]5)c(-c5c(F)c(F)c(F)c(F)c5F)c5nc(c(-c6c(F)c(F)c(F)c(F)c6F)c6ccc3[nH]6)C=C5)C=C4)cc2)sc2ncnc(NCc3cn4c(n3)SCC4)c12
REMARK SMILES IDX 7 1 6 2 4 3 5 4 3 6 1 7 2 8 92 9 76 10 77 11 81 12 78 13
REMARK SMILES IDX 80 14 79 15 82 16 83 18 84 19 85 20 88 21 86 22 87 23 91 24
REMARK SMILES IDX 89 25 90 26 8 27 9 28 10 29 11 30 12 32 13 33 14 34 75 35
REMARK SMILES IDX 15 36 74 37 16 38 17 39 18 40 68 41 19 42 73 43 67 44 69 45
REMARK SMILES IDX 20 46 72 47 66 48 65 49 21 51 53 52 33 53 52 54 34 55 37 56
REMARK SMILES IDX 51 57 70 58 35 59 36 60 50 62 71 63 38 64 22 65 23 66 31 67
REMARK SMILES IDX 24 68 25 69 29 70 32 71 26 72 27 73 30 74 28 75 54 76 55 77
REMARK SMILES IDX 63 78 56 79 57 80 61 81 64 82 58 83 59 84 62 85 60 86 39 87
REMARK SMILES IDX 40 88 48 89 41 90 42 91 46 92 49 93 43 94 44 95 47 96 45 97
REMARK H PARENT 6 5 82 17 10 31 69 50 37 61
REMARK Flexibility Score: inf
ROOT
ATOM      1  C   UNL A   1      34.423  29.101  26.887  1.00  0.00     0.118 C 
ENDROOT
BRANCH   1   2
ATOM      2  N   UNL A   1      34.111  28.981  25.472  1.00  0.00    -0.351 N 
ATOM      3  C   UNL A   1      33.490  28.000  24.735  1.00  0.00     0.261 C 
ATOM      4  O   UNL A   1      33.493  28.206  23.517  1.00  0.00    -0.268 OA
ATOM      5  H   UNL A   1      34.403  29.754  24.936  1.00  0.00     0.163 HD
BRANCH   3   6
ATOM      6  C   UNL A   1      32.828  26.843  25.343  1.00  0.00     0.098 A 
ATOM      7  C   UNL A   1      34.824  25.271  25.388  1.00  0.00     0.047 C 
ATOM      8  C   UNL A   1      33.386  25.591  25.638  1.00  0.00    -0.014 A 
ATOM      9  C   UNL A   1      32.384  24.636  26.147  1.00  0.00     0.057 A 
ATOM     10  S   UNL A   1      31.234  26.935  25.925  1.00  0.00    -0.110 S 
ATOM     11  C   UNL A   1      31.160  25.285  26.249  1.00  0.00     0.129 A 
ATOM     12  C   UNL A   1      32.340  23.264  26.518  1.00  0.00     0.138 A 
ATOM     13  N   UNL A   1      29.967  24.772  26.586  1.00  0.00    -0.225 NA
ATOM     14  N   UNL A   1      31.131  22.721  26.827  1.00  0.00    -0.219 NA
ATOM     15  C   UNL A   1      30.034  23.477  26.844  1.00  0.00     0.225 A 
BRANCH  12  16
ATOM     16  N   UNL A   1      33.308  22.301  26.583  1.00  0.00    -0.364 N 
ATOM     17  H   UNL A   1      33.454  21.934  27.485  1.00  0.00     0.162 HD
BRANCH  16  18
ATOM     18  C   UNL A   1      34.148  21.730  25.568  1.00  0.00     0.172 C 
BRANCH  18  19
ATOM     19  C   UNL A   1      33.828  20.372  25.025  1.00  0.00     0.079 A 
ATOM     20  C   UNL A   1      32.595  19.729  25.052  1.00  0.00     0.113 A 
ATOM     21  N   UNL A   1      34.836  19.498  24.638  1.00  0.00    -0.226 NA
ATOM     22  N   UNL A   1      32.898  18.436  24.779  1.00  0.00    -0.325 N 
ATOM     23  C   UNL A   1      34.231  18.350  24.514  1.00  0.00     0.168 A 
ATOM     24  C   UNL A   1      32.229  17.199  25.134  1.00  0.00     0.135 C 
ATOM     25  S   UNL A   1      34.820  16.733  24.638  1.00  0.00    -0.086 SA
ATOM     26  C   UNL A   1      33.344  16.279  25.639  1.00  0.00     0.100 C 
ENDBRANCH  18  19
ENDBRANCH  16  18
ENDBRANCH  12  16
ENDBRANCH   3   6
ENDBRANCH   1   2
BRANCH   1  27
ATOM     27  C   UNL A   1      33.674  30.278  27.523  1.00  0.00     0.042 C 
BRANCH  27  28
ATOM     28  C   UNL A   1      34.569  31.492  27.699  1.00  0.00     0.118 C 
BRANCH  28  29
ATOM     29  N   UNL A   1      34.503  32.034  29.053  1.00  0.00    -0.352 N 
ATOM     30  C   UNL A   1      35.296  31.729  30.141  1.00  0.00     0.251 C 
ATOM     31  H   UNL A   1      33.800  32.705  29.211  1.00  0.00     0.163 HD
ATOM     32  O   UNL A   1      34.956  32.020  31.272  1.00  0.00    -0.269 OA
BRANCH  30  33
ATOM     33  C   UNL A   1      36.561  31.018  29.899  1.00  0.00     0.039 A 
ATOM     34  C   UNL A   1      37.751  31.728  29.729  1.00  0.00     0.014 A 
ATOM     35  C   UNL A   1      36.552  29.626  29.910  1.00  0.00     0.014 A 
ATOM     36  C   UNL A   1      38.946  31.021  29.656  1.00  0.00     0.010 A 
ATOM     37  C   UNL A   1      37.738  28.944  30.002  1.00  0.00     0.010 A 
ATOM     38  C   UNL A   1      38.937  29.626  29.822  1.00  0.00    -0.014 A 
BRANCH  38  39
ATOM     39  C   UNL A   1      40.191  28.884  29.875  1.00  0.00     0.031 A 
ATOM     40  C   UNL A   1      40.790  28.718  31.230  1.00  0.00     0.074 A 
ATOM     41  C   UNL A   1      40.711  28.237  28.811  1.00  0.00     0.049 A 
ATOM     42  N   UNL A   1      41.920  29.186  31.653  1.00  0.00    -0.248 NA
ATOM     43  C   UNL A   1      40.007  28.029  32.266  1.00  0.00     0.031 C 
ATOM     44  C   UNL A   1      40.136  28.042  27.475  1.00  0.00     0.029 A 
ATOM     45  N   UNL A   1      41.865  27.520  28.747  1.00  0.00    -0.354 N 
ATOM     46  C   UNL A   1      42.071  28.730  32.959  1.00  0.00     0.074 A 
ATOM     47  C   UNL A   1      40.813  28.130  33.326  1.00  0.00     0.031 C 
ATOM     48  C   UNL A   1      40.822  27.079  26.823  1.00  0.00     0.029 A 
ATOM     49  C   UNL A   1      41.985  26.732  27.613  1.00  0.00     0.049 A 
ATOM     50  H   UNL A   1      42.557  27.558  29.446  1.00  0.00     0.167 HD
ATOM     51  C   UNL A   1      43.289  28.715  33.568  1.00  0.00     0.037 A 
ATOM     52  C   UNL A   1      42.970  25.841  27.351  1.00  0.00     0.037 A 
ATOM     53  C   UNL A   1      44.231  29.560  32.881  1.00  0.00     0.049 A 
ATOM     54  C   UNL A   1      44.138  26.227  28.178  1.00  0.00     0.074 A 
ATOM     55  C   UNL A   1      44.291  30.911  32.600  1.00  0.00     0.029 A 
ATOM     56  N   UNL A   1      45.137  28.969  32.036  1.00  0.00    -0.354 N 
ATOM     57  N   UNL A   1      44.817  27.328  28.004  1.00  0.00    -0.248 NA
ATOM     58  C   UNL A   1      44.275  25.609  29.487  1.00  0.00     0.031 C 
ATOM     59  C   UNL A   1      44.832  30.987  31.281  1.00  0.00     0.029 A 
ATOM     60  C   UNL A   1      45.122  29.686  30.868  1.00  0.00     0.049 A 
ATOM     61  H   UNL A   1      45.693  28.180  32.232  1.00  0.00     0.167 HD
ATOM     62  C   UNL A   1      45.109  27.767  29.287  1.00  0.00     0.074 A 
ATOM     63  C   UNL A   1      44.837  26.622  30.152  1.00  0.00     0.031 C 
ATOM     64  C   UNL A   1      45.277  29.094  29.559  1.00  0.00     0.037 A 
BRANCH  51  65
ATOM     65  C   UNL A   1      43.729  27.694  34.586  1.00  0.00     0.064 A 
ATOM     66  C   UNL A   1      43.684  26.323  34.259  1.00  0.00     0.173 A 
ATOM     67  C   UNL A   1      43.902  27.989  35.954  1.00  0.00     0.173 A 
ATOM     68  F   UNL A   1      43.499  25.928  32.991  1.00  0.00    -0.203 F 
ATOM     69  C   UNL A   1      43.735  25.328  35.241  1.00  0.00     0.198 A 
ATOM     70  C   UNL A   1      44.005  26.992  36.924  1.00  0.00     0.198 A 
ATOM     71  F   UNL A   1      43.861  29.243  36.419  1.00  0.00    -0.203 F 
ATOM     72  F   UNL A   1      43.562  24.044  34.896  1.00  0.00    -0.200 F 
ATOM     73  C   UNL A   1      43.890  25.664  36.572  1.00  0.00     0.200 A 
ATOM     74  F   UNL A   1      44.133  27.339  38.213  1.00  0.00    -0.200 F 
ATOM     75  F   UNL A   1      43.876  24.718  37.520  1.00  0.00    -0.200 F 
ENDBRANCH  51  65
BRANCH  52  76
ATOM     76  C   UNL A   1      42.839  24.523  26.692  1.00  0.00     0.064 A 
ATOM     77  C   UNL A   1      43.411  24.285  25.433  1.00  0.00     0.173 A 
ATOM     78  C   UNL A   1      42.399  23.390  27.407  1.00  0.00     0.173 A 
ATOM     79  F   UNL A   1      43.891  25.307  24.709  1.00  0.00    -0.203 F 
ATOM     80  C   UNL A   1      43.565  22.989  24.933  1.00  0.00     0.198 A 
ATOM     81  C   UNL A   1      42.548  22.097  26.903  1.00  0.00     0.198 A 
ATOM     82  F   UNL A   1      41.906  23.507  28.647  1.00  0.00    -0.203 F 
ATOM     83  F   UNL A   1      44.177  22.795  23.756  1.00  0.00    -0.200 F 
ATOM     84  C   UNL A   1      43.145  21.895  25.673  1.00  0.00     0.200 A 
ATOM     85  F   UNL A   1      42.170  21.046  27.646  1.00  0.00    -0.200 F 
ATOM     86  F   UNL A   1      43.354  20.651  25.223  1.00  0.00    -0.200 F 
ENDBRANCH  52  76
BRANCH  64  87
ATOM     87  C   UNL A   1      45.384  30.046  28.399  1.00  0.00     0.064 A 
ATOM     88  C   UNL A   1      44.281  30.671  27.791  1.00  0.00     0.173 A 
ATOM     89  C   UNL A   1      46.659  30.469  28.002  1.00  0.00     0.173 A 
ATOM     90  F   UNL A   1      43.030  30.396  28.180  1.00  0.00    -0.203 F 
ATOM     91  C   UNL A   1      44.448  31.645  26.808  1.00  0.00     0.198 A 
ATOM     92  C   UNL A   1      46.825  31.468  27.045  1.00  0.00     0.198 A 
ATOM     93  F   UNL A   1      47.751  29.950  28.585  1.00  0.00    -0.203 F 
ATOM     94  F   UNL A   1      43.378  32.221  26.242  1.00  0.00    -0.200 F 
ATOM     95  C   UNL A   1      45.721  32.050  26.443  1.00  0.00     0.200 A 
ATOM     96  F   UNL A   1      48.057  31.890  26.731  1.00  0.00    -0.200 F 
ATOM     97  F   UNL A   1      45.883  33.020  25.533  1.00  0.00    -0.200 F 
ENDBRANCH  64  87
ENDBRANCH  38  39
ENDBRANCH  30  33
ENDBRANCH  28  29
ENDBRANCH  27  28
ENDBRANCH   1  27
TORSDOF 13
ENDMDL
MODEL 3
REMARK VINA RESULT:     -13.2      1.672      2.296
REMARK SMILES Cc1c(C(=O)NCCCNC(=O)c2ccc(-c3c4nc(c(-c5c(F)c(F)c(F)c(F)c5F)c5ccc([nH]5)c(-c5c(F)c(F)c(F)c(F)c5F)c5nc(c(-c6c(F)c(F)c(F)c(F)c6F)c6ccc3[nH]6)C=C5)C=C4)cc2)sc2ncnc(NCc3cn4c(n3)SCC4)c12
REMARK SMILES IDX 7 1 6 2 4 3 5 4 3 6 1 7 2 8 92 9 76 10 77 11 81 12 78 13
REMARK SMILES IDX 80 14 79 15 82 16 83 18 84 19 85 20 88 21 86 22 87 23 91 24
REMARK SMILES IDX 89 25 90 26 8 27 9 28 10 29 11 30 12 32 13 33 14 34 75 35
REMARK SMILES IDX 15 36 74 37 16 38 17 39 18 40 68 41 19 42 73 43 67 44 69 45
REMARK SMILES IDX 20 46 72 47 66 48 65 49 21 51 53 52 33 53 52 54 34 55 37 56
REMARK SMILES IDX 51 57 70 58 35 59 36 60 50 62 71 63 38 64 22 65 23 66 31 67
REMARK SMILES IDX 24 68 25 69 29 70 32 71 26 72 27 73 30 74 28 75 54 76 55 77
REMARK SMILES IDX 63 78 56 79 57 80 61 81 64 82 58 83 59 84 62 85 60 86 39 87
REMARK SMILES IDX 40 88 48 89 41 90 42 91 46 92 49 93 43 94 44 95 47 96 45 97
REMARK H PARENT 6 5 82 17 10 31 69 50 37 61
REMARK Flexibility Score: inf
ROOT
ATOM      1  C   UNL A   1      35.976  22.094  25.250  1.00  0.00     0.118 C 
ENDROOT
BRANCH   1   2
ATOM      2  N   UNL A   1      35.167  20.985  24.771  1.00  0.00    -0.351 N 
ATOM      3  C   UNL A   1      33.812  20.828  24.595  1.00  0.00     0.261 C 
ATOM      4  O   UNL A   1      33.476  19.690  24.255  1.00  0.00    -0.268 OA
ATOM      5  H   UNL A   1      35.693  20.189  24.524  1.00  0.00     0.163 HD
BRANCH   3   6
ATOM      6  C   UNL A   1      32.856  21.929  24.736  1.00  0.00     0.098 A 
ATOM      7  C   UNL A   1      33.186  22.983  22.447  1.00  0.00     0.047 C 
ATOM      8  C   UNL A   1      32.557  22.932  23.802  1.00  0.00    -0.014 A 
ATOM      9  C   UNL A   1      31.622  23.937  24.338  1.00  0.00     0.057 A 
ATOM     10  S   UNL A   1      31.833  22.052  26.087  1.00  0.00    -0.110 S 
ATOM     11  C   UNL A   1      31.250  23.562  25.623  1.00  0.00     0.129 A 
ATOM     12  C   UNL A   1      31.047  25.165  23.909  1.00  0.00     0.138 A 
ATOM     13  N   UNL A   1      30.486  24.228  26.501  1.00  0.00    -0.225 NA
ATOM     14  N   UNL A   1      30.300  25.871  24.802  1.00  0.00    -0.219 NA
ATOM     15  C   UNL A   1      30.063  25.385  26.019  1.00  0.00     0.225 A 
BRANCH  12  16
ATOM     16  N   UNL A   1      31.134  25.857  22.734  1.00  0.00    -0.364 N 
ATOM     17  H   UNL A   1      30.453  25.610  22.066  1.00  0.00     0.162 HD
BRANCH  16  18
ATOM     18  C   UNL A   1      32.044  26.880  22.300  1.00  0.00     0.172 C 
BRANCH  18  19
ATOM     19  C   UNL A   1      32.608  27.838  23.304  1.00  0.00     0.079 A 
ATOM     20  C   UNL A   1      33.742  27.657  24.088  1.00  0.00     0.113 A 
ATOM     21  N   UNL A   1      31.881  28.942  23.730  1.00  0.00    -0.226 NA
ATOM     22  N   UNL A   1      33.626  28.605  25.050  1.00  0.00    -0.325 N 
ATOM     23  C   UNL A   1      32.524  29.359  24.784  1.00  0.00     0.168 A 
ATOM     24  C   UNL A   1      34.133  28.660  26.408  1.00  0.00     0.135 C 
ATOM     25  S   UNL A   1      31.994  30.254  26.161  1.00  0.00    -0.086 SA
ATOM     26  C   UNL A   1      32.943  29.118  27.255  1.00  0.00     0.100 C 
ENDBRANCH  18  19
ENDBRANCH  16  18
ENDBRANCH  12  16
ENDBRANCH   3   6
ENDBRANCH   1   2
BRANCH   1  27
ATOM     27  C   UNL A   1      37.469  21.836  25.014  1.00  0.00     0.042 C 
BRANCH  27  28
ATOM     28  C   UNL A   1      38.328  22.434  26.115  1.00  0.00     0.118 C 
BRANCH  28  29
ATOM     29  N   UNL A   1      39.723  22.013  26.014  1.00  0.00    -0.352 N 
ATOM     30  C   UNL A   1      40.864  22.750  26.264  1.00  0.00     0.251 C 
ATOM     31  H   UNL A   1      39.869  21.082  25.730  1.00  0.00     0.163 HD
ATOM     32  O   UNL A   1      41.952  22.386  25.861  1.00  0.00    -0.269 OA
BRANCH  30  33
ATOM     33  C   UNL A   1      40.725  24.007  27.016  1.00  0.00     0.039 A 
ATOM     34  C   UNL A   1      41.505  24.245  28.149  1.00  0.00     0.014 A 
ATOM     35  C   UNL A   1      39.849  24.975  26.533  1.00  0.00     0.014 A 
ATOM     36  C   UNL A   1      41.458  25.502  28.741  1.00  0.00     0.010 A 
ATOM     37  C   UNL A   1      39.925  26.257  27.016  1.00  0.00     0.010 A 
ATOM     38  C   UNL A   1      40.684  26.517  28.153  1.00  0.00    -0.014 A 
BRANCH  38  39
ATOM     39  C   UNL A   1      40.722  27.873  28.687  1.00  0.00     0.031 A 
ATOM     40  C   UNL A   1      41.826  28.738  28.182  1.00  0.00     0.074 A 
ATOM     41  C   UNL A   1      39.743  28.389  29.457  1.00  0.00     0.049 A 
ATOM     42  N   UNL A   1      42.800  29.248  28.864  1.00  0.00    -0.248 NA
ATOM     43  C   UNL A   1      41.912  28.998  26.737  1.00  0.00     0.031 C 
ATOM     44  C   UNL A   1      38.449  27.803  29.828  1.00  0.00     0.029 A 
ATOM     45  N   UNL A   1      39.674  29.632  30.007  1.00  0.00    -0.354 N 
ATOM     46  C   UNL A   1      43.544  30.018  27.974  1.00  0.00     0.074 A 
ATOM     47  C   UNL A   1      43.027  29.729  26.661  1.00  0.00     0.031 C 
ATOM     48  C   UNL A   1      37.644  28.761  30.333  1.00  0.00     0.029 A 
ATOM     49  C   UNL A   1      38.422  29.972  30.495  1.00  0.00     0.049 A 
ATOM     50  H   UNL A   1      40.448  30.238  30.054  1.00  0.00     0.167 HD
ATOM     51  C   UNL A   1      44.402  30.979  28.415  1.00  0.00     0.037 A 
ATOM     52  C   UNL A   1      38.048  31.177  30.986  1.00  0.00     0.037 A 
ATOM     53  C   UNL A   1      44.718  30.803  29.809  1.00  0.00     0.049 A 
ATOM     54  C   UNL A   1      39.285  31.877  31.410  1.00  0.00     0.074 A 
ATOM     55  C   UNL A   1      45.323  29.802  30.544  1.00  0.00     0.029 A 
ATOM     56  N   UNL A   1      44.065  31.588  30.726  1.00  0.00    -0.354 N 
ATOM     57  N   UNL A   1      40.036  31.484  32.403  1.00  0.00    -0.248 NA
ATOM     58  C   UNL A   1      39.931  32.754  30.447  1.00  0.00     0.031 C 
ATOM     59  C   UNL A   1      44.587  29.748  31.765  1.00  0.00     0.029 A 
ATOM     60  C   UNL A   1      43.623  30.757  31.723  1.00  0.00     0.049 A 
ATOM     61  H   UNL A   1      43.939  32.564  30.679  1.00  0.00     0.167 HD
ATOM     62  C   UNL A   1      41.335  31.700  31.967  1.00  0.00     0.074 A 
ATOM     63  C   UNL A   1      41.205  32.571  30.801  1.00  0.00     0.031 C 
ATOM     64  C   UNL A   1      42.370  30.933  32.420  1.00  0.00     0.037 A 
BRANCH  51  65
ATOM     65  C   UNL A   1      44.703  32.263  27.686  1.00  0.00     0.064 A 
ATOM     66  C   UNL A   1      45.923  32.401  26.994  1.00  0.00     0.173 A 
ATOM     67  C   UNL A   1      43.981  33.457  27.891  1.00  0.00     0.173 A 
ATOM     68  F   UNL A   1      46.703  31.334  26.764  1.00  0.00    -0.203 F 
ATOM     69  C   UNL A   1      46.415  33.651  26.605  1.00  0.00     0.198 A 
ATOM     70  C   UNL A   1      44.449  34.696  27.454  1.00  0.00     0.198 A 
ATOM     71  F   UNL A   1      42.859  33.490  28.620  1.00  0.00    -0.203 F 
ATOM     72  F   UNL A   1      47.637  33.747  26.062  1.00  0.00    -0.200 F 
ATOM     73  C   UNL A   1      45.679  34.798  26.840  1.00  0.00     0.200 A 
ATOM     74  F   UNL A   1      43.732  35.799  27.712  1.00  0.00    -0.200 F 
ATOM     75  F   UNL A   1      46.174  36.001  26.525  1.00  0.00    -0.200 F 
ENDBRANCH  51  65
BRANCH  52  76
ATOM     76  C   UNL A   1      36.749  31.859  30.804  1.00  0.00     0.064 A 
ATOM     77  C   UNL A   1      35.874  32.046  31.885  1.00  0.00     0.173 A 
ATOM     78  C   UNL A   1      36.467  32.592  29.633  1.00  0.00     0.173 A 
ATOM     79  F   UNL A   1      36.097  31.415  33.048  1.00  0.00    -0.203 F 
ATOM     80  C   UNL A   1      34.800  32.938  31.811  1.00  0.00     0.198 A 
ATOM     81  C   UNL A   1      35.391  33.477  29.559  1.00  0.00     0.198 A 
ATOM     82  F   UNL A   1      37.284  32.537  28.572  1.00  0.00    -0.203 F 
ATOM     83  F   UNL A   1      34.024  33.140  32.885  1.00  0.00    -0.200 F 
ATOM     84  C   UNL A   1      34.566  33.662  30.653  1.00  0.00     0.200 A 
ATOM     85  F   UNL A   1      35.198  34.198  28.445  1.00  0.00    -0.200 F 
ATOM     86  F   UNL A   1      33.579  34.565  30.605  1.00  0.00    -0.200 F 
ENDBRANCH  52  76
BRANCH  64  87
ATOM     87  C   UNL A   1      42.112  30.014  33.583  1.00  0.00     0.064 A 
ATOM     88  C   UNL A   1      41.692  28.679  33.452  1.00  0.00     0.173 A 
ATOM     89  C   UNL A   1      42.467  30.451  34.865  1.00  0.00     0.173 A 
ATOM     90  F   UNL A   1      41.427  28.153  32.251  1.00  0.00    -0.203 F 
ATOM     91  C   UNL A   1      41.599  27.835  34.558  1.00  0.00     0.198 A 
ATOM     92  C   UNL A   1      42.407  29.597  35.964  1.00  0.00     0.198 A 
ATOM     93  F   UNL A   1      42.929  31.699  35.046  1.00  0.00    -0.203 F 
ATOM     94  F   UNL A   1      41.191  26.567  34.405  1.00  0.00    -0.200 F 
ATOM     95  C   UNL A   1      41.966  28.292  35.812  1.00  0.00     0.200 A 
ATOM     96  F   UNL A   1      42.810  30.030  37.167  1.00  0.00    -0.200 F 
ATOM     97  F   UNL A   1      41.922  27.469  36.868  1.00  0.00    -0.200 F 
ENDBRANCH  64  87
ENDBRANCH  38  39
ENDBRANCH  30  33
ENDBRANCH  28  29
ENDBRANCH  27  28
ENDBRANCH   1  27
TORSDOF 13
ENDMDL
