MODEL 1
REMARK VINA RESULT:     -14.0      0.000      0.000
REMARK SMILES O=C(NCCCNC(=O)c1ccc(-c2c3nc(c(-c4c(F)c(F)c(F)c(F)c4F)c4ccc([nH]4)c(-c4c(F)c(F)c(F)c(F)c4F)c4nc(c(-c5c(F)c(F)c(F)c(F)c5F)c5ccc2[nH]5)C=C4)C=C3)cc1)C1=Cc2cc(S(F)(F)(F)(F)F)cc(Br)c2O[C@@H]1C(F)(F)F
REMARK SMILES IDX 5 1 4 2 3 3 1 4 2 5 73 7 74 8 89 9 75 10 88 11 76 12 87 13
REMARK SMILES IDX 77 14 85 15 84 16 86 17 90 18 91 19 92 20 93 21 78 22 79 23
REMARK SMILES IDX 80 24 81 25 82 26 83 27 6 28 7 29 8 30 9 32 10 33 11 34
REMARK SMILES IDX 72 35 12 36 71 37 13 38 14 39 15 40 65 41 16 42 70 43 64 44
REMARK SMILES IDX 66 45 17 46 69 47 63 48 62 49 18 51 50 52 30 53 49 54 31 55
REMARK SMILES IDX 34 56 48 57 67 58 32 59 33 60 47 62 68 63 35 64 19 65 20 66
REMARK SMILES IDX 28 67 21 68 22 69 26 70 29 71 23 72 24 73 27 74 25 75 51 76
REMARK SMILES IDX 52 77 60 78 53 79 54 80 58 81 61 82 55 83 56 84 59 85 57 86
REMARK SMILES IDX 36 87 37 88 45 89 38 90 39 91 43 92 46 93 40 94 41 95 44 96
REMARK SMILES IDX 42 97
REMARK H PARENT 3 6 7 31 66 50 34 61
REMARK Flexibility Score: inf
ROOT
ATOM      1  C   UNL A   1      33.108  28.031  24.061  1.00  0.00     0.042 C 
ENDROOT
BRANCH   1   2
ATOM      2  C   UNL A   1      33.412  26.668  24.660  1.00  0.00     0.118 C 
BRANCH   2   3
ATOM      3  N   UNL A   1      33.717  25.716  23.582  1.00  0.00    -0.352 N 
ATOM      4  O   UNL A   1      33.125  23.715  22.446  1.00  0.00    -0.270 OA
ATOM      5  C   UNL A   1      32.861  24.538  23.378  1.00  0.00     0.251 C 
ATOM      6  H   UNL A   1      34.494  25.868  22.997  1.00  0.00     0.163 HD
BRANCH   5   7
ATOM      7  C   UNL A   1      31.662  24.305  24.281  1.00  0.00     0.067 C 
ATOM      8  C   UNL A   1      31.554  23.145  24.984  1.00  0.00     0.025 C 
ATOM      9  C   UNL A   1      30.581  25.368  24.399  1.00  0.00     0.314 C 
ATOM     10  C   UNL A   1      32.633  22.082  24.866  1.00  0.00     0.020 A 
ATOM     11  O   UNL A   1      34.361  23.706  25.026  1.00  0.00    -0.474 OA
ATOM     12  C   UNL A   1      32.179  20.802  24.595  1.00  0.00     0.036 A 
ATOM     13  C   UNL A   1      33.932  22.358  24.906  1.00  0.00     0.142 A 
ATOM     14  C   UNL A   1      33.185  19.809  24.665  1.00  0.00     0.109 A 
ATOM     15  C   UNL A   1      34.863  21.351  24.832  1.00  0.00     0.062 A 
ATOM     16  C   UNL A   1      34.482  20.054  24.625  1.00  0.00     0.044 A 
ATOM     17  Br  UNL A   1      36.766  21.778  25.027  1.00  0.00    -0.047 Br
BRANCH   9  18
ATOM     18  C   UNL A   1      30.473  25.824  25.845  1.00  0.00     0.429 C 
ATOM     19  F   UNL A   1      30.479  27.153  25.893  1.00  0.00    -0.167 F 
ATOM     20  F   UNL A   1      29.341  25.366  26.372  1.00  0.00    -0.167 F 
ATOM     21  F   UNL A   1      31.507  25.352  26.537  1.00  0.00    -0.167 F 
ENDBRANCH   9  18
BRANCH  14  22
ATOM     22  S   UNL A   1      32.658  18.085  24.820  1.00  0.00     0.310 S 
ATOM     23  F   UNL A   1      34.160  17.577  24.833  1.00  0.00    -0.094 F 
ATOM     24  F   UNL A   1      32.697  17.946  23.251  1.00  0.00    -0.094 F 
ATOM     25  F   UNL A   1      32.219  16.601  24.968  1.00  0.00    -0.094 F 
ATOM     26  F   UNL A   1      32.760  18.204  26.391  1.00  0.00    -0.094 F 
ATOM     27  F   UNL A   1      33.212  19.560  24.686  1.00  0.00    -0.094 F 
ENDBRANCH  14  22
ENDBRANCH   5   7
ENDBRANCH   2   3
ENDBRANCH   1   2
BRANCH   1  28
ATOM     28  C   UNL A   1      33.845  29.105  24.846  1.00  0.00     0.118 C 
BRANCH  28  29
ATOM     29  N   UNL A   1      32.877  30.075  25.378  1.00  0.00    -0.352 N 
ATOM     30  C   UNL A   1      33.181  30.816  26.610  1.00  0.00     0.251 C 
ATOM     31  H   UNL A   1      32.025  30.228  24.909  1.00  0.00     0.163 HD
ATOM     32  O   UNL A   1      32.345  31.655  27.071  1.00  0.00    -0.269 OA
BRANCH  30  33
ATOM     33  C   UNL A   1      34.496  30.580  27.334  1.00  0.00     0.039 A 
ATOM     34  C   UNL A   1      34.750  29.318  27.847  1.00  0.00     0.014 A 
ATOM     35  C   UNL A   1      35.323  31.595  27.562  1.00  0.00     0.014 A 
ATOM     36  C   UNL A   1      35.761  29.294  28.837  1.00  0.00     0.010 A 
ATOM     37  C   UNL A   1      36.371  31.459  28.439  1.00  0.00     0.010 A 
ATOM     38  C   UNL A   1      36.645  30.257  29.028  1.00  0.00    -0.014 A 
BRANCH  38  39
ATOM     39  C   UNL A   1      37.900  30.038  29.858  1.00  0.00     0.031 A 
ATOM     40  C   UNL A   1      38.026  30.611  31.125  1.00  0.00     0.074 A 
ATOM     41  C   UNL A   1      38.832  29.181  29.300  1.00  0.00     0.049 A 
ATOM     42  N   UNL A   1      39.006  30.421  32.010  1.00  0.00    -0.248 NA
ATOM     43  C   UNL A   1      37.054  31.549  31.706  1.00  0.00     0.031 C 
ATOM     44  C   UNL A   1      38.708  28.593  28.026  1.00  0.00     0.029 A 
ATOM     45  N   UNL A   1      40.018  28.748  29.850  1.00  0.00    -0.354 N 
ATOM     46  C   UNL A   1      38.770  31.125  33.119  1.00  0.00     0.074 A 
ATOM     47  C   UNL A   1      37.513  31.865  32.937  1.00  0.00     0.031 C 
ATOM     48  C   UNL A   1      39.808  27.826  27.807  1.00  0.00     0.029 A 
ATOM     49  C   UNL A   1      40.638  27.920  28.940  1.00  0.00     0.049 A 
ATOM     50  H   UNL A   1      40.363  28.987  30.740  1.00  0.00     0.167 HD
ATOM     51  C   UNL A   1      39.550  31.176  34.275  1.00  0.00     0.037 A 
ATOM     52  C   UNL A   1      41.858  27.278  29.072  1.00  0.00     0.037 A 
ATOM     53  C   UNL A   1      40.749  30.498  34.423  1.00  0.00     0.049 A 
ATOM     54  C   UNL A   1      42.668  27.375  30.206  1.00  0.00     0.074 A 
ATOM     55  C   UNL A   1      41.545  30.534  35.584  1.00  0.00     0.029 A 
ATOM     56  N   UNL A   1      41.380  29.692  33.503  1.00  0.00    -0.354 N 
ATOM     57  N   UNL A   1      42.412  28.048  31.329  1.00  0.00    -0.248 NA
ATOM     58  C   UNL A   1      43.978  26.725  30.343  1.00  0.00     0.031 C 
ATOM     59  C   UNL A   1      42.646  29.766  35.365  1.00  0.00     0.029 A 
ATOM     60  C   UNL A   1      42.556  29.239  34.063  1.00  0.00     0.049 A 
ATOM     61  H   UNL A   1      41.051  29.474  32.601  1.00  0.00     0.167 HD
ATOM     62  C   UNL A   1      43.412  27.890  32.197  1.00  0.00     0.074 A 
ATOM     63  C   UNL A   1      44.438  27.042  31.572  1.00  0.00     0.031 C 
ATOM     64  C   UNL A   1      43.510  28.416  33.487  1.00  0.00     0.037 A 
BRANCH  51  65
ATOM     65  C   UNL A   1      39.056  32.024  35.436  1.00  0.00     0.064 A 
ATOM     66  C   UNL A   1      39.317  33.384  35.483  1.00  0.00     0.173 A 
ATOM     67  C   UNL A   1      38.329  31.429  36.374  1.00  0.00     0.173 A 
ATOM     68  F   UNL A   1      39.816  34.063  34.454  1.00  0.00    -0.203 F 
ATOM     69  C   UNL A   1      39.006  33.984  36.726  1.00  0.00     0.198 A 
ATOM     70  C   UNL A   1      37.943  32.115  37.500  1.00  0.00     0.198 A 
ATOM     71  F   UNL A   1      37.970  30.158  36.221  1.00  0.00    -0.203 F 
ATOM     72  F   UNL A   1      39.543  35.171  36.992  1.00  0.00    -0.200 F 
ATOM     73  C   UNL A   1      38.219  33.447  37.641  1.00  0.00     0.200 A 
ATOM     74  F   UNL A   1      37.292  31.475  38.467  1.00  0.00    -0.200 F 
ATOM     75  F   UNL A   1      37.722  34.163  38.646  1.00  0.00    -0.200 F 
ENDBRANCH  51  65
BRANCH  52  76
ATOM     76  C   UNL A   1      42.343  26.417  27.916  1.00  0.00     0.064 A 
ATOM     77  C   UNL A   1      43.183  26.942  26.947  1.00  0.00     0.173 A 
ATOM     78  C   UNL A   1      41.900  25.168  27.839  1.00  0.00     0.173 A 
ATOM     79  F   UNL A   1      43.848  28.083  27.105  1.00  0.00    -0.203 F 
ATOM     80  C   UNL A   1      43.267  26.155  25.775  1.00  0.00     0.198 A 
ATOM     81  C   UNL A   1      42.136  24.409  26.718  1.00  0.00     0.198 A 
ATOM     82  F   UNL A   1      41.221  24.646  28.857  1.00  0.00    -0.203 F 
ATOM     83  F   UNL A   1      43.742  26.733  24.674  1.00  0.00    -0.200 F 
ATOM     84  C   UNL A   1      42.908  24.887  25.696  1.00  0.00     0.200 A 
ATOM     85  F   UNL A   1      41.606  23.192  26.626  1.00  0.00    -0.200 F 
ATOM     86  F   UNL A   1      43.277  24.115  24.677  1.00  0.00    -0.200 F 
ENDBRANCH  52  76
BRANCH  64  87
ATOM     87  C   UNL A   1      44.739  28.062  34.310  1.00  0.00     0.064 A 
ATOM     88  C   UNL A   1      45.849  28.883  34.202  1.00  0.00     0.173 A 
ATOM     89  C   UNL A   1      44.761  26.970  35.063  1.00  0.00     0.173 A 
ATOM     90  F   UNL A   1      45.802  30.103  33.675  1.00  0.00    -0.203 F 
ATOM     91  C   UNL A   1      47.040  28.305  34.702  1.00  0.00     0.198 A 
ATOM     92  C   UNL A   1      45.933  26.537  35.634  1.00  0.00     0.198 A 
ATOM     93  F   UNL A   1      43.638  26.286  35.267  1.00  0.00    -0.203 F 
ATOM     94  F   UNL A   1      48.196  28.844  34.325  1.00  0.00    -0.200 F 
ATOM     95  C   UNL A   1      47.084  27.267  35.517  1.00  0.00     0.200 A 
ATOM     96  F   UNL A   1      45.950  25.391  36.309  1.00  0.00    -0.200 F 
ATOM     97  F   UNL A   1      48.187  26.949  36.189  1.00  0.00    -0.200 F 
ENDBRANCH  64  87
ENDBRANCH  38  39
ENDBRANCH  30  33
ENDBRANCH  28  29
ENDBRANCH   1  28
TORSDOF 12
ENDMDL
MODEL 2
REMARK VINA RESULT:     -13.9      0.573      1.732
REMARK SMILES O=C(NCCCNC(=O)c1ccc(-c2c3nc(c(-c4c(F)c(F)c(F)c(F)c4F)c4ccc([nH]4)c(-c4c(F)c(F)c(F)c(F)c4F)c4nc(c(-c5c(F)c(F)c(F)c(F)c5F)c5ccc2[nH]5)C=C4)C=C3)cc1)C1=Cc2cc(S(F)(F)(F)(F)F)cc(Br)c2O[C@@H]1C(F)(F)F
REMARK SMILES IDX 5 1 4 2 3 3 1 4 2 5 73 7 74 8 89 9 75 10 88 11 76 12 87 13
REMARK SMILES IDX 77 14 85 15 84 16 86 17 90 18 91 19 92 20 93 21 78 22 79 23
REMARK SMILES IDX 80 24 81 25 82 26 83 27 6 28 7 29 8 30 9 32 10 33 11 34
REMARK SMILES IDX 72 35 12 36 71 37 13 38 14 39 15 40 65 41 16 42 70 43 64 44
REMARK SMILES IDX 66 45 17 46 69 47 63 48 62 49 18 51 50 52 30 53 49 54 31 55
REMARK SMILES IDX 34 56 48 57 67 58 32 59 33 60 47 62 68 63 35 64 19 65 20 66
REMARK SMILES IDX 28 67 21 68 22 69 26 70 29 71 23 72 24 73 27 74 25 75 51 76
REMARK SMILES IDX 52 77 60 78 53 79 54 80 58 81 61 82 55 83 56 84 59 85 57 86
REMARK SMILES IDX 36 87 37 88 45 89 38 90 39 91 43 92 46 93 40 94 41 95 44 96
REMARK SMILES IDX 42 97
REMARK H PARENT 3 6 7 31 66 50 34 61
REMARK Flexibility Score: inf
ROOT
ATOM      1  C   UNL A   1      32.818  27.795  24.405  1.00  0.00     0.042 C 
ENDROOT
BRANCH   1   2
ATOM      2  C   UNL A   1      33.352  26.497  24.988  1.00  0.00     0.118 C 
BRANCH   2   3
ATOM      3  N   UNL A   1      33.791  25.613  23.899  1.00  0.00    -0.352 N 
ATOM      4  O   UNL A   1      33.436  23.608  22.675  1.00  0.00    -0.270 OA
ATOM      5  C   UNL A   1      33.056  24.372  23.617  1.00  0.00     0.251 C 
ATOM      6  H   UNL A   1      34.578  25.853  23.358  1.00  0.00     0.163 HD
BRANCH   5   7
ATOM      7  C   UNL A   1      31.841  24.003  24.452  1.00  0.00     0.067 C 
ATOM      8  C   UNL A   1      31.800  22.808  25.102  1.00  0.00     0.025 C 
ATOM      9  C   UNL A   1      30.672  24.968  24.560  1.00  0.00     0.314 C 
ATOM     10  C   UNL A   1      32.968  21.842  24.993  1.00  0.00     0.020 A 
ATOM     11  O   UNL A   1      34.546  23.594  25.300  1.00  0.00    -0.474 OA
ATOM     12  C   UNL A   1      32.634  20.543  24.649  1.00  0.00     0.036 A 
ATOM     13  C   UNL A   1      34.236  22.222  25.105  1.00  0.00     0.142 A 
ATOM     14  C   UNL A   1      33.716  19.634  24.727  1.00  0.00     0.109 A 
ATOM     15  C   UNL A   1      35.251  21.298  25.035  1.00  0.00     0.062 A 
ATOM     16  C   UNL A   1      34.988  19.984  24.759  1.00  0.00     0.044 A 
ATOM     17  Br  UNL A   1      37.100  21.870  25.338  1.00  0.00    -0.047 Br
BRANCH   9  18
ATOM     18  C   UNL A   1      30.463  25.350  26.017  1.00  0.00     0.429 C 
ATOM     19  F   UNL A   1      29.401  24.708  26.495  1.00  0.00    -0.167 F 
ATOM     20  F   UNL A   1      31.539  25.014  26.723  1.00  0.00    -0.167 F 
ATOM     21  F   UNL A   1      30.265  26.662  26.107  1.00  0.00    -0.167 F 
ENDBRANCH   9  18
BRANCH  14  22
ATOM     22  S   UNL A   1      33.327  17.867  24.787  1.00  0.00     0.310 S 
ATOM     23  F   UNL A   1      31.870  18.119  24.214  1.00  0.00    -0.094 F 
ATOM     24  F   UNL A   1      32.720  18.062  26.228  1.00  0.00    -0.094 F 
ATOM     25  F   UNL A   1      32.986  16.350  24.819  1.00  0.00    -0.094 F 
ATOM     26  F   UNL A   1      33.811  17.719  23.292  1.00  0.00    -0.094 F 
ATOM     27  F   UNL A   1      33.577  19.426  24.699  1.00  0.00    -0.094 F 
ENDBRANCH  14  22
ENDBRANCH   5   7
ENDBRANCH   2   3
ENDBRANCH   1   2
BRANCH   1  28
ATOM     28  C   UNL A   1      33.590  28.967  24.989  1.00  0.00     0.118 C 
BRANCH  28  29
ATOM     29  N   UNL A   1      32.644  29.983  25.475  1.00  0.00    -0.352 N 
ATOM     30  C   UNL A   1      32.995  30.821  26.630  1.00  0.00     0.251 C 
ATOM     31  H   UNL A   1      31.775  30.101  25.027  1.00  0.00     0.163 HD
ATOM     32  O   UNL A   1      32.177  31.698  27.051  1.00  0.00    -0.269 OA
BRANCH  30  33
ATOM     33  C   UNL A   1      34.336  30.638  27.322  1.00  0.00     0.039 A 
ATOM     34  C   UNL A   1      34.678  29.375  27.777  1.00  0.00     0.014 A 
ATOM     35  C   UNL A   1      35.101  31.693  27.579  1.00  0.00     0.014 A 
ATOM     36  C   UNL A   1      35.707  29.374  28.748  1.00  0.00     0.010 A 
ATOM     37  C   UNL A   1      36.172  31.588  28.432  1.00  0.00     0.010 A 
ATOM     38  C   UNL A   1      36.532  30.382  28.965  1.00  0.00    -0.014 A 
BRANCH  38  39
ATOM     39  C   UNL A   1      37.813  30.210  29.765  1.00  0.00     0.031 A 
ATOM     40  C   UNL A   1      37.936  30.757  31.043  1.00  0.00     0.074 A 
ATOM     41  C   UNL A   1      38.777  29.415  29.168  1.00  0.00     0.049 A 
ATOM     42  N   UNL A   1      38.943  30.598  31.904  1.00  0.00    -0.248 NA
ATOM     43  C   UNL A   1      36.930  31.630  31.667  1.00  0.00     0.031 C 
ATOM     44  C   UNL A   1      38.656  28.852  27.882  1.00  0.00     0.029 A 
ATOM     45  N   UNL A   1      39.994  29.031  29.683  1.00  0.00    -0.354 N 
ATOM     46  C   UNL A   1      38.694  31.262  33.034  1.00  0.00     0.074 A 
ATOM     47  C   UNL A   1      37.398  31.940  32.895  1.00  0.00     0.031 C 
ATOM     48  C   UNL A   1      39.789  28.148  27.623  1.00  0.00     0.029 A 
ATOM     49  C   UNL A   1      40.637  28.258  28.741  1.00  0.00     0.049 A 
ATOM     50  H   UNL A   1      40.345  29.267  30.572  1.00  0.00     0.167 HD
ATOM     51  C   UNL A   1      39.495  31.326  34.176  1.00  0.00     0.037 A 
ATOM     52  C   UNL A   1      41.891  27.677  28.833  1.00  0.00     0.037 A 
ATOM     53  C   UNL A   1      40.730  30.708  34.283  1.00  0.00     0.049 A 
ATOM     54  C   UNL A   1      42.718  27.790  29.953  1.00  0.00     0.074 A 
ATOM     55  C   UNL A   1      41.547  30.758  35.429  1.00  0.00     0.029 A 
ATOM     56  N   UNL A   1      41.383  29.957  33.331  1.00  0.00    -0.354 N 
ATOM     57  N   UNL A   1      42.451  28.421  31.097  1.00  0.00    -0.248 NA
ATOM     58  C   UNL A   1      44.062  27.205  30.048  1.00  0.00     0.031 C 
ATOM     59  C   UNL A   1      42.681  30.053  35.169  1.00  0.00     0.029 A 
ATOM     60  C   UNL A   1      42.591  29.553  33.856  1.00  0.00     0.049 A 
ATOM     61  H   UNL A   1      41.046  29.745  32.431  1.00  0.00     0.167 HD
ATOM     62  C   UNL A   1      43.476  28.295  31.941  1.00  0.00     0.074 A 
ATOM     63  C   UNL A   1      44.531  27.517  31.276  1.00  0.00     0.031 C 
ATOM     64  C   UNL A   1      43.574  28.794  33.242  1.00  0.00     0.037 A 
BRANCH  51  65
ATOM     65  C   UNL A   1      38.983  32.119  35.367  1.00  0.00     0.064 A 
ATOM     66  C   UNL A   1      39.174  33.489  35.442  1.00  0.00     0.173 A 
ATOM     67  C   UNL A   1      38.308  31.465  36.304  1.00  0.00     0.173 A 
ATOM     68  F   UNL A   1      39.614  34.218  34.420  1.00  0.00    -0.203 F 
ATOM     69  C   UNL A   1      38.858  34.043  36.705  1.00  0.00     0.198 A 
ATOM     70  C   UNL A   1      37.911  32.104  37.454  1.00  0.00     0.198 A 
ATOM     71  F   UNL A   1      38.012  30.181  36.128  1.00  0.00    -0.203 F 
ATOM     72  F   UNL A   1      39.338  35.250  36.989  1.00  0.00    -0.200 F 
ATOM     73  C   UNL A   1      38.120  33.444  37.622  1.00  0.00     0.200 A 
ATOM     74  F   UNL A   1      37.315  31.407  38.419  1.00  0.00    -0.200 F 
ATOM     75  F   UNL A   1      37.608  34.109  38.654  1.00  0.00    -0.200 F 
ENDBRANCH  51  65
BRANCH  52  76
ATOM     76  C   UNL A   1      42.395  26.870  27.646  1.00  0.00     0.064 A 
ATOM     77  C   UNL A   1      42.188  25.502  27.583  1.00  0.00     0.173 A 
ATOM     78  C   UNL A   1      43.078  27.508  26.703  1.00  0.00     0.173 A 
ATOM     79  F   UNL A   1      41.311  24.865  28.354  1.00  0.00    -0.203 F 
ATOM     80  C   UNL A   1      42.995  24.844  26.625  1.00  0.00     0.198 A 
ATOM     81  C   UNL A   1      43.730  26.807  25.717  1.00  0.00     0.198 A 
ATOM     82  F   UNL A   1      43.131  28.837  26.712  1.00  0.00    -0.203 F 
ATOM     83  F   UNL A   1      43.136  23.526  26.735  1.00  0.00    -0.200 F 
ATOM     84  C   UNL A   1      43.618  25.448  25.630  1.00  0.00     0.200 A 
ATOM     85  F   UNL A   1      44.481  27.462  24.836  1.00  0.00    -0.200 F 
ATOM     86  F   UNL A   1      44.110  24.770  24.597  1.00  0.00    -0.200 F 
ENDBRANCH  52  76
BRANCH  64  87
ATOM     87  C   UNL A   1      44.836  28.485  34.031  1.00  0.00     0.064 A 
ATOM     88  C   UNL A   1      44.855  27.332  34.798  1.00  0.00     0.173 A 
ATOM     89  C   UNL A   1      45.863  29.327  34.028  1.00  0.00     0.173 A 
ATOM     90  F   UNL A   1      43.977  26.345  34.646  1.00  0.00    -0.203 F 
ATOM     91  C   UNL A   1      45.893  27.300  35.760  1.00  0.00     0.198 A 
ATOM     92  C   UNL A   1      46.909  29.157  34.902  1.00  0.00     0.198 A 
ATOM     93  F   UNL A   1      45.880  30.343  33.170  1.00  0.00    -0.203 F 
ATOM     94  F   UNL A   1      45.781  26.431  36.761  1.00  0.00    -0.200 F 
ATOM     95  C   UNL A   1      46.964  28.072  35.732  1.00  0.00     0.200 A 
ATOM     96  F   UNL A   1      47.883  30.062  34.943  1.00  0.00    -0.200 F 
ATOM     97  F   UNL A   1      48.038  27.807  36.471  1.00  0.00    -0.200 F 
ENDBRANCH  64  87
ENDBRANCH  38  39
ENDBRANCH  30  33
ENDBRANCH  28  29
ENDBRANCH   1  28
TORSDOF 12
ENDMDL
MODEL 3
REMARK VINA RESULT:     -13.9      4.028      7.406
REMARK SMILES O=C(NCCCNC(=O)c1ccc(-c2c3nc(c(-c4c(F)c(F)c(F)c(F)c4F)c4ccc([nH]4)c(-c4c(F)c(F)c(F)c(F)c4F)c4nc(c(-c5c(F)c(F)c(F)c(F)c5F)c5ccc2[nH]5)C=C4)C=C3)cc1)C1=Cc2cc(S(F)(F)(F)(F)F)cc(Br)c2O[C@@H]1C(F)(F)F
REMARK SMILES IDX 5 1 4 2 3 3 1 4 2 5 73 7 74 8 89 9 75 10 88 11 76 12 87 13
REMARK SMILES IDX 77 14 85 15 84 16 86 17 90 18 91 19 92 20 93 21 78 22 79 23
REMARK SMILES IDX 80 24 81 25 82 26 83 27 6 28 7 29 8 30 9 32 10 33 11 34
REMARK SMILES IDX 72 35 12 36 71 37 13 38 14 39 15 40 65 41 16 42 70 43 64 44
REMARK SMILES IDX 66 45 17 46 69 47 63 48 62 49 18 51 50 52 30 53 49 54 31 55
REMARK SMILES IDX 34 56 48 57 67 58 32 59 33 60 47 62 68 63 35 64 19 65 20 66
REMARK SMILES IDX 28 67 21 68 22 69 26 70 29 71 23 72 24 73 27 74 25 75 51 76
REMARK SMILES IDX 52 77 60 78 53 79 54 80 58 81 61 82 55 83 56 84 59 85 57 86
REMARK SMILES IDX 36 87 37 88 45 89 38 90 39 91 43 92 46 93 40 94 41 95 44 96
REMARK SMILES IDX 42 97
REMARK H PARENT 3 6 7 31 66 50 34 61
REMARK Flexibility Score: inf
ROOT
ATOM      1  C   UNL A   1      35.292  23.548  26.054  1.00  0.00     0.042 C 
ENDROOT
BRANCH   1   2
ATOM      2  C   UNL A   1      34.487  24.529  25.216  1.00  0.00     0.118 C 
BRANCH   2   3
ATOM      3  N   UNL A   1      33.257  24.892  25.934  1.00  0.00    -0.352 N 
ATOM      4  O   UNL A   1      30.915  25.280  25.831  1.00  0.00    -0.270 OA
ATOM      5  C   UNL A   1      31.979  24.966  25.211  1.00  0.00     0.251 C 
ATOM      6  H   UNL A   1      33.289  25.086  26.899  1.00  0.00     0.163 HD
BRANCH   5   7
ATOM      7  C   UNL A   1      31.930  24.667  23.722  1.00  0.00     0.067 C 
ATOM      8  C   UNL A   1      31.578  25.643  22.842  1.00  0.00     0.025 C 
ATOM      9  C   UNL A   1      32.275  23.275  23.215  1.00  0.00     0.314 C 
ATOM     10  C   UNL A   1      31.233  27.034  23.349  1.00  0.00     0.020 A 
ATOM     11  O   UNL A   1      33.086  27.038  24.837  1.00  0.00    -0.474 OA
ATOM     12  C   UNL A   1      30.038  27.556  22.880  1.00  0.00     0.036 A 
ATOM     13  C   UNL A   1      31.954  27.674  24.262  1.00  0.00     0.142 A 
ATOM     14  C   UNL A   1      29.832  28.913  23.227  1.00  0.00     0.109 A 
ATOM     15  C   UNL A   1      31.615  28.946  24.655  1.00  0.00     0.062 A 
ATOM     16  C   UNL A   1      30.480  29.548  24.186  1.00  0.00     0.044 A 
ATOM     17  Br  UNL A   1      32.776  29.913  25.903  1.00  0.00    -0.047 Br
BRANCH   9  18
ATOM     18  C   UNL A   1      33.460  23.360  22.267  1.00  0.00     0.429 C 
ATOM     19  F   UNL A   1      34.448  22.596  22.723  1.00  0.00    -0.167 F 
ATOM     20  F   UNL A   1      33.094  22.938  21.060  1.00  0.00    -0.167 F 
ATOM     21  F   UNL A   1      33.875  24.622  22.188  1.00  0.00    -0.167 F 
ENDBRANCH   9  18
BRANCH  14  22
ATOM     22  S   UNL A   1      28.590  29.841  22.292  1.00  0.00     0.310 S 
ATOM     23  F   UNL A   1      28.882  31.161  23.123  1.00  0.00    -0.094 F 
ATOM     24  F   UNL A   1      27.514  29.475  23.383  1.00  0.00    -0.094 F 
ATOM     25  F   UNL A   1      27.538  30.654  21.487  1.00  0.00    -0.094 F 
ATOM     26  F   UNL A   1      29.713  30.312  21.287  1.00  0.00    -0.094 F 
ATOM     27  F   UNL A   1      29.693  29.112  23.160  1.00  0.00    -0.094 F 
ENDBRANCH  14  22
ENDBRANCH   5   7
ENDBRANCH   2   3
ENDBRANCH   1   2
BRANCH   1  28
ATOM     28  C   UNL A   1      36.730  24.030  26.155  1.00  0.00     0.118 C 
BRANCH  28  29
ATOM     29  N   UNL A   1      37.643  22.900  25.927  1.00  0.00    -0.352 N 
ATOM     30  C   UNL A   1      39.048  22.994  26.346  1.00  0.00     0.251 C 
ATOM     31  H   UNL A   1      37.312  22.080  25.493  1.00  0.00     0.163 HD
ATOM     32  O   UNL A   1      39.838  22.017  26.149  1.00  0.00    -0.269 OA
BRANCH  30  33
ATOM     33  C   UNL A   1      39.558  24.260  27.016  1.00  0.00     0.039 A 
ATOM     34  C   UNL A   1      39.311  24.437  28.367  1.00  0.00     0.014 A 
ATOM     35  C   UNL A   1      40.127  25.215  26.289  1.00  0.00     0.014 A 
ATOM     36  C   UNL A   1      39.437  25.778  28.803  1.00  0.00     0.010 A 
ATOM     37  C   UNL A   1      40.345  26.462  26.821  1.00  0.00     0.010 A 
ATOM     38  C   UNL A   1      40.068  26.725  28.133  1.00  0.00    -0.014 A 
BRANCH  38  39
ATOM     39  C   UNL A   1      40.465  28.039  28.788  1.00  0.00     0.031 A 
ATOM     40  C   UNL A   1      39.524  29.050  28.988  1.00  0.00     0.074 A 
ATOM     41  C   UNL A   1      41.776  28.103  29.230  1.00  0.00     0.049 A 
ATOM     42  N   UNL A   1      39.692  30.200  29.643  1.00  0.00    -0.248 NA
ATOM     43  C   UNL A   1      38.141  29.000  28.490  1.00  0.00     0.031 C 
ATOM     44  C   UNL A   1      42.729  27.083  29.039  1.00  0.00     0.029 A 
ATOM     45  N   UNL A   1      42.388  29.129  29.914  1.00  0.00    -0.354 N 
ATOM     46  C   UNL A   1      38.557  30.903  29.641  1.00  0.00     0.074 A 
ATOM     47  C   UNL A   1      37.545  30.143  28.894  1.00  0.00     0.031 C 
ATOM     48  C   UNL A   1      43.901  27.494  29.590  1.00  0.00     0.029 A 
ATOM     49  C   UNL A   1      43.701  28.776  30.135  1.00  0.00     0.049 A 
ATOM     50  H   UNL A   1      41.961  29.970  30.197  1.00  0.00     0.167 HD
ATOM     51  C   UNL A   1      38.326  32.145  30.234  1.00  0.00     0.037 A 
ATOM     52  C   UNL A   1      44.683  29.518  30.772  1.00  0.00     0.037 A 
ATOM     53  C   UNL A   1      39.297  32.866  30.908  1.00  0.00     0.049 A 
ATOM     54  C   UNL A   1      44.467  30.787  31.314  1.00  0.00     0.074 A 
ATOM     55  C   UNL A   1      39.079  34.117  31.517  1.00  0.00     0.029 A 
ATOM     56  N   UNL A   1      40.616  32.524  31.107  1.00  0.00    -0.354 N 
ATOM     57  N   UNL A   1      43.323  31.470  31.345  1.00  0.00    -0.248 NA
ATOM     58  C   UNL A   1      45.509  31.594  31.962  1.00  0.00     0.031 C 
ATOM     59  C   UNL A   1      40.253  34.528  32.069  1.00  0.00     0.029 A 
ATOM     60  C   UNL A   1      41.223  33.541  31.812  1.00  0.00     0.049 A 
ATOM     61  H   UNL A   1      41.052  31.697  30.799  1.00  0.00     0.167 HD
ATOM     62  C   UNL A   1      43.502  32.639  31.965  1.00  0.00     0.074 A 
ATOM     63  C   UNL A   1      44.914  32.739  32.364  1.00  0.00     0.031 C 
ATOM     64  C   UNL A   1      42.546  33.624  32.216  1.00  0.00     0.037 A 
BRANCH  51  65
ATOM     65  C   UNL A   1      36.931  32.739  30.133  1.00  0.00     0.064 A 
ATOM     66  C   UNL A   1      36.555  33.485  29.027  1.00  0.00     0.173 A 
ATOM     67  C   UNL A   1      36.073  32.480  31.112  1.00  0.00     0.173 A 
ATOM     68  F   UNL A   1      37.286  33.557  27.919  1.00  0.00    -0.203 F 
ATOM     69  C   UNL A   1      35.323  34.163  29.185  1.00  0.00     0.198 A 
ATOM     70  C   UNL A   1      34.834  33.072  31.132  1.00  0.00     0.198 A 
ATOM     71  F   UNL A   1      36.417  31.638  32.083  1.00  0.00    -0.203 F 
ATOM     72  F   UNL A   1      35.059  35.167  28.354  1.00  0.00    -0.200 F 
ATOM     73  C   UNL A   1      34.419  33.869  30.102  1.00  0.00     0.200 A 
ATOM     74  F   UNL A   1      34.026  32.868  32.169  1.00  0.00    -0.200 F 
ATOM     75  F   UNL A   1      33.171  34.324  30.027  1.00  0.00    -0.200 F 
ENDBRANCH  51  65
BRANCH  52  76
ATOM     76  C   UNL A   1      46.074  28.915  30.886  1.00  0.00     0.064 A 
ATOM     77  C   UNL A   1      47.025  29.140  29.904  1.00  0.00     0.173 A 
ATOM     78  C   UNL A   1      46.331  28.132  31.927  1.00  0.00     0.173 A 
ATOM     79  F   UNL A   1      46.910  30.100  28.990  1.00  0.00    -0.203 F 
ATOM     80  C   UNL A   1      48.128  28.256  29.961  1.00  0.00     0.198 A 
ATOM     81  C   UNL A   1      47.493  27.400  31.981  1.00  0.00     0.198 A 
ATOM     82  F   UNL A   1      45.457  28.055  32.926  1.00  0.00    -0.203 F 
ATOM     83  F   UNL A   1      48.893  28.151  28.878  1.00  0.00    -0.200 F 
ATOM     84  C   UNL A   1      48.450  27.528  31.014  1.00  0.00     0.200 A 
ATOM     85  F   UNL A   1      47.688  26.554  32.989  1.00  0.00    -0.200 F 
ATOM     86  F   UNL A   1      49.642  26.949  31.128  1.00  0.00    -0.200 F 
ENDBRANCH  52  76
BRANCH  64  87
ATOM     87  C   UNL A   1      42.983  34.864  32.981  1.00  0.00     0.064 A 
ATOM     88  C   UNL A   1      42.870  34.847  34.361  1.00  0.00     0.173 A 
ATOM     89  C   UNL A   1      43.404  35.946  32.337  1.00  0.00     0.173 A 
ATOM     90  F   UNL A   1      42.701  33.730  35.061  1.00  0.00    -0.203 F 
ATOM     91  C   UNL A   1      42.951  36.128  34.958  1.00  0.00     0.198 A 
ATOM     92  C   UNL A   1      43.593  37.130  33.008  1.00  0.00     0.198 A 
ATOM     93  F   UNL A   1      43.645  35.884  31.030  1.00  0.00    -0.203 F 
ATOM     94  F   UNL A   1      42.503  36.259  36.204  1.00  0.00    -0.200 F 
ATOM     95  C   UNL A   1      43.441  37.201  34.365  1.00  0.00     0.200 A 
ATOM     96  F   UNL A   1      43.928  38.223  32.328  1.00  0.00    -0.200 F 
ATOM     97  F   UNL A   1      43.769  38.292  35.051  1.00  0.00    -0.200 F 
ENDBRANCH  64  87
ENDBRANCH  38  39
ENDBRANCH  30  33
ENDBRANCH  28  29
ENDBRANCH   1  28
TORSDOF 12
ENDMDL
