MODEL 1
REMARK VINA RESULT:      -9.7      0.000      0.000
REMARK SMILES COc1ccc(OC)c(-c2cc(-c3ccccc3)nc(S[C@H](C)C(=O)NCCCNC(=O)c3ccc(-c4c5nc(c(-c6c(F)c(F)c(F)c(F)c6F)c6ccc([nH]6)c(-c6c(F)c(F)c(F)c(F)c6F)c6nc(c(-c7c(F)c(F)c(F)c(F)c7F)c7ccc4[nH]7)C=C6)C=C5)cc3)c2C#N)c1
REMARK SMILES IDX 27 1 26 2 24 3 25 4 22 6 23 7 21 8 20 9 10 10 11 11 96 12
REMARK SMILES IDX 12 13 19 14 9 15 3 16 4 17 99 18 5 19 6 20 2 21 1 22 7 23
REMARK SMILES IDX 8 24 97 25 98 26 13 27 14 28 18 29 15 30 17 31 16 32 28 33
REMARK SMILES IDX 29 34 30 35 31 36 32 38 33 39 34 40 95 41 35 42 94 43 36 44
REMARK SMILES IDX 37 45 38 46 88 47 39 48 93 49 87 50 89 51 40 52 92 53 86 54
REMARK SMILES IDX 85 55 41 57 73 58 53 59 72 60 54 61 57 62 71 63 90 64 55 65
REMARK SMILES IDX 56 66 70 68 91 69 58 70 42 71 43 72 51 73 44 74 45 75 49 76
REMARK SMILES IDX 52 77 46 78 47 79 50 80 48 81 74 82 75 83 83 84 76 85 77 86
REMARK SMILES IDX 81 87 84 88 78 89 79 90 82 91 80 92 59 93 60 94 68 95 61 96
REMARK SMILES IDX 62 97 66 98 69 99 63 100 64 101 67 102 65 103
REMARK H PARENT 26 5 30 37 89 56 57 67
REMARK Flexibility Score: inf
ROOT
ATOM      1  C   UNL A   1      49.220  24.995  32.490  1.00  0.00     0.117 C 
ENDROOT
BRANCH   1   2
ATOM      2  N   UNL A   1      50.506  25.143  31.849  1.00  0.00    -0.355 N 
ATOM      3  C   UNL A   1      51.062  26.215  31.221  1.00  0.00     0.233 C 
ATOM      4  O   UNL A   1      52.219  26.071  30.811  1.00  0.00    -0.274 OA
ATOM      5  H   UNL A   1      51.072  24.337  31.868  1.00  0.00     0.163 HD
BRANCH   3   6
ATOM      6  C   UNL A   1      50.301  27.518  30.957  1.00  0.00     0.139 C 
ATOM      7  C   UNL A   1      50.595  28.574  32.008  1.00  0.00     0.030 C 
BRANCH   6   8
ATOM      8  S   UNL A   1      50.255  27.924  29.151  1.00  0.00    -0.092 SA
BRANCH   8   9
ATOM      9  C   UNL A   1      48.569  27.700  28.577  1.00  0.00     0.116 A 
ATOM     10  C   UNL A   1      46.743  26.314  27.780  1.00  0.00     0.008 A 
ATOM     11  C   UNL A   1      45.904  27.421  27.957  1.00  0.00     0.039 A 
ATOM     12  C   UNL A   1      48.110  26.457  28.120  1.00  0.00     0.092 A 
ATOM     13  C   UNL A   1      46.447  28.642  28.328  1.00  0.00     0.072 A 
ATOM     14  N   UNL A   1      47.756  28.776  28.642  1.00  0.00    -0.240 NA
BRANCH  10  15
ATOM     15  C   UNL A   1      46.168  25.038  27.294  1.00  0.00     0.029 A 
ATOM     16  C   UNL A   1      45.776  23.637  25.297  1.00  0.00     0.119 A 
ATOM     17  C   UNL A   1      45.073  22.733  26.079  1.00  0.00     0.050 A 
ATOM     18  C   UNL A   1      46.332  24.764  25.906  1.00  0.00     0.059 A 
ATOM     19  C   UNL A   1      44.927  22.958  27.446  1.00  0.00     0.051 A 
ATOM     20  C   UNL A   1      45.456  24.101  28.072  1.00  0.00     0.127 A 
BRANCH  16  21
ATOM     21  O   UNL A   1      45.816  23.326  23.969  1.00  0.00    -0.497 OA
ATOM     22  C   UNL A   1      44.900  22.352  23.491  1.00  0.00     0.278 C 
ENDBRANCH  16  21
BRANCH  20  23
ATOM     23  O   UNL A   1      45.109  24.102  29.393  1.00  0.00    -0.496 OA
ATOM     24  C   UNL A   1      44.140  23.233  29.937  1.00  0.00     0.278 C 
ENDBRANCH  20  23
ENDBRANCH  10  15
BRANCH  12  25
ATOM     25  C   UNL A   1      49.013  25.348  27.992  1.00  0.00     0.103 C 
ATOM     26  N   UNL A   1      49.744  24.452  27.901  1.00  0.00    -0.192 NA
ENDBRANCH  12  25
BRANCH  13  27
ATOM     27  C   UNL A   1      45.656  29.879  28.317  1.00  0.00     0.000 A 
ATOM     28  C   UNL A   1      44.638  30.083  29.267  1.00  0.00     0.010 A 
ATOM     29  C   UNL A   1      45.902  30.900  27.388  1.00  0.00     0.010 A 
ATOM     30  C   UNL A   1      43.888  31.259  29.286  1.00  0.00     0.001 A 
ATOM     31  C   UNL A   1      45.149  32.079  27.403  1.00  0.00     0.001 A 
ATOM     32  C   UNL A   1      44.144  32.257  28.351  1.00  0.00     0.000 A 
ENDBRANCH  13  27
ENDBRANCH   8   9
ENDBRANCH   6   8
ENDBRANCH   3   6
ENDBRANCH   1   2
BRANCH   1  33
ATOM     33  C   UNL A   1      49.293  24.258  33.815  1.00  0.00     0.042 C 
BRANCH  33  34
ATOM     34  C   UNL A   1      47.938  24.021  34.458  1.00  0.00     0.118 C 
BRANCH  34  35
ATOM     35  N   UNL A   1      47.898  24.467  35.843  1.00  0.00    -0.352 N 
ATOM     36  C   UNL A   1      47.185  25.477  36.436  1.00  0.00     0.251 C 
ATOM     37  H   UNL A   1      48.477  23.959  36.455  1.00  0.00     0.163 HD
ATOM     38  O   UNL A   1      47.474  25.827  37.578  1.00  0.00    -0.269 OA
BRANCH  36  39
ATOM     39  C   UNL A   1      46.087  26.158  35.716  1.00  0.00     0.039 A 
ATOM     40  C   UNL A   1      46.357  27.368  35.072  1.00  0.00     0.014 A 
ATOM     41  C   UNL A   1      44.788  25.644  35.710  1.00  0.00     0.014 A 
ATOM     42  C   UNL A   1      45.337  28.034  34.390  1.00  0.00     0.010 A 
ATOM     43  C   UNL A   1      43.802  26.247  34.937  1.00  0.00     0.010 A 
ATOM     44  C   UNL A   1      44.058  27.463  34.290  1.00  0.00    -0.014 A 
BRANCH  44  45
ATOM     45  C   UNL A   1      42.972  28.150  33.544  1.00  0.00     0.031 A 
ATOM     46  C   UNL A   1      42.744  27.845  32.087  1.00  0.00     0.074 A 
ATOM     47  C   UNL A   1      42.209  29.064  34.174  1.00  0.00     0.049 A 
ATOM     48  N   UNL A   1      41.853  28.344  31.267  1.00  0.00    -0.248 NA
ATOM     49  C   UNL A   1      43.654  26.873  31.459  1.00  0.00     0.031 C 
ATOM     50  C   UNL A   1      42.363  29.479  35.569  1.00  0.00     0.029 A 
ATOM     51  N   UNL A   1      41.145  29.804  33.724  1.00  0.00    -0.354 N 
ATOM     52  C   UNL A   1      42.095  27.747  30.037  1.00  0.00     0.074 A 
ATOM     53  C   UNL A   1      43.265  26.912  30.194  1.00  0.00     0.031 C 
ATOM     54  C   UNL A   1      41.403  30.365  35.874  1.00  0.00     0.029 A 
ATOM     55  C   UNL A   1      40.592  30.615  34.686  1.00  0.00     0.049 A 
ATOM     56  H   UNL A   1      40.809  29.760  32.800  1.00  0.00     0.167 HD
ATOM     57  C   UNL A   1      41.385  27.854  28.888  1.00  0.00     0.037 A 
ATOM     58  C   UNL A   1      39.550  31.463  34.615  1.00  0.00     0.037 A 
ATOM     59  C   UNL A   1      40.214  28.677  28.739  1.00  0.00     0.049 A 
ATOM     60  C   UNL A   1      38.802  31.592  33.314  1.00  0.00     0.074 A 
ATOM     61  C   UNL A   1      39.401  28.830  27.630  1.00  0.00     0.029 A 
ATOM     62  N   UNL A   1      39.692  29.493  29.732  1.00  0.00    -0.354 N 
ATOM     63  N   UNL A   1      38.996  30.966  32.179  1.00  0.00    -0.248 NA
ATOM     64  C   UNL A   1      37.684  32.544  33.288  1.00  0.00     0.031 C 
ATOM     65  C   UNL A   1      38.422  29.782  27.934  1.00  0.00     0.029 A 
ATOM     66  C   UNL A   1      38.583  30.171  29.253  1.00  0.00     0.049 A 
ATOM     67  H   UNL A   1      40.056  29.577  30.644  1.00  0.00     0.167 HD
ATOM     68  C   UNL A   1      38.005  31.419  31.318  1.00  0.00     0.074 A 
ATOM     69  C   UNL A   1      37.199  32.356  32.071  1.00  0.00     0.031 C 
ATOM     70  C   UNL A   1      37.785  31.095  30.019  1.00  0.00     0.037 A 
BRANCH  57  71
ATOM     71  C   UNL A   1      41.852  27.053  27.705  1.00  0.00     0.064 A 
ATOM     72  C   UNL A   1      41.514  25.698  27.553  1.00  0.00     0.173 A 
ATOM     73  C   UNL A   1      42.616  27.652  26.692  1.00  0.00     0.173 A 
ATOM     74  F   UNL A   1      40.794  25.072  28.497  1.00  0.00    -0.203 F 
ATOM     75  C   UNL A   1      41.951  24.968  26.451  1.00  0.00     0.198 A 
ATOM     76  C   UNL A   1      43.020  26.926  25.573  1.00  0.00     0.198 A 
ATOM     77  F   UNL A   1      42.963  28.944  26.780  1.00  0.00    -0.203 F 
ATOM     78  F   UNL A   1      41.662  23.661  26.360  1.00  0.00    -0.200 F 
ATOM     79  C   UNL A   1      42.695  25.584  25.459  1.00  0.00     0.200 A 
ATOM     80  F   UNL A   1      43.725  27.529  24.606  1.00  0.00    -0.200 F 
ATOM     81  F   UNL A   1      43.107  24.882  24.394  1.00  0.00    -0.200 F 
ENDBRANCH  57  71
BRANCH  58  82
ATOM     82  C   UNL A   1      39.131  32.242  35.812  1.00  0.00     0.064 A 
ATOM     83  C   UNL A   1      39.604  33.545  36.027  1.00  0.00     0.173 A 
ATOM     84  C   UNL A   1      38.279  31.692  36.781  1.00  0.00     0.173 A 
ATOM     85  F   UNL A   1      40.435  34.110  35.139  1.00  0.00    -0.203 F 
ATOM     86  C   UNL A   1      39.272  34.252  37.181  1.00  0.00     0.198 A 
ATOM     87  C   UNL A   1      37.918  32.414  37.917  1.00  0.00     0.198 A 
ATOM     88  F   UNL A   1      37.789  30.453  36.622  1.00  0.00    -0.203 F 
ATOM     89  F   UNL A   1      39.793  35.468  37.392  1.00  0.00    -0.200 F 
ATOM     90  C   UNL A   1      38.426  33.687  38.124  1.00  0.00     0.200 A 
ATOM     91  F   UNL A   1      37.083  31.872  38.816  1.00  0.00    -0.200 F 
ATOM     92  F   UNL A   1      38.109  34.365  39.235  1.00  0.00    -0.200 F 
ENDBRANCH  58  82
BRANCH  70  93
ATOM     93  C   UNL A   1      36.599  31.726  29.345  1.00  0.00     0.064 A 
ATOM     94  C   UNL A   1      36.572  33.090  29.019  1.00  0.00     0.173 A 
ATOM     95  C   UNL A   1      35.484  30.947  28.998  1.00  0.00     0.173 A 
ATOM     96  F   UNL A   1      37.607  33.882  29.340  1.00  0.00    -0.203 F 
ATOM     97  C   UNL A   1      35.457  33.659  28.409  1.00  0.00     0.198 A 
ATOM     98  C   UNL A   1      34.388  31.511  28.352  1.00  0.00     0.198 A 
ATOM     99  F   UNL A   1      35.460  29.635  29.277  1.00  0.00    -0.203 F 
ATOM    100  F   UNL A   1      35.428  34.977  28.168  1.00  0.00    -0.200 F 
ATOM    101  C   UNL A   1      34.370  32.868  28.069  1.00  0.00     0.200 A 
ATOM    102  F   UNL A   1      33.346  30.742  28.007  1.00  0.00    -0.200 F 
ATOM    103  F   UNL A   1      33.301  33.416  27.476  1.00  0.00    -0.200 F 
ENDBRANCH  70  93
ENDBRANCH  44  45
ENDBRANCH  36  39
ENDBRANCH  34  35
ENDBRANCH  33  34
ENDBRANCH   1  33
TORSDOF 17
ENDMDL
MODEL 2
REMARK VINA RESULT:      -9.5      5.915     11.416
REMARK SMILES COc1ccc(OC)c(-c2cc(-c3ccccc3)nc(S[C@H](C)C(=O)NCCCNC(=O)c3ccc(-c4c5nc(c(-c6c(F)c(F)c(F)c(F)c6F)c6ccc([nH]6)c(-c6c(F)c(F)c(F)c(F)c6F)c6nc(c(-c7c(F)c(F)c(F)c(F)c7F)c7ccc4[nH]7)C=C6)C=C5)cc3)c2C#N)c1
REMARK SMILES IDX 27 1 26 2 24 3 25 4 22 6 23 7 21 8 20 9 10 10 11 11 96 12
REMARK SMILES IDX 12 13 19 14 9 15 3 16 4 17 99 18 5 19 6 20 2 21 1 22 7 23
REMARK SMILES IDX 8 24 97 25 98 26 13 27 14 28 18 29 15 30 17 31 16 32 28 33
REMARK SMILES IDX 29 34 30 35 31 36 32 38 33 39 34 40 95 41 35 42 94 43 36 44
REMARK SMILES IDX 37 45 38 46 88 47 39 48 93 49 87 50 89 51 40 52 92 53 86 54
REMARK SMILES IDX 85 55 41 57 73 58 53 59 72 60 54 61 57 62 71 63 90 64 55 65
REMARK SMILES IDX 56 66 70 68 91 69 58 70 42 71 43 72 51 73 44 74 45 75 49 76
REMARK SMILES IDX 52 77 46 78 47 79 50 80 48 81 74 82 75 83 83 84 76 85 77 86
REMARK SMILES IDX 81 87 84 88 78 89 79 90 82 91 80 92 59 93 60 94 68 95 61 96
REMARK SMILES IDX 62 97 66 98 69 99 63 100 64 101 67 102 65 103
REMARK H PARENT 26 5 30 37 89 56 57 67
REMARK Flexibility Score: inf
ROOT
ATOM      1  C   UNL A   1      39.934  22.116  26.470  1.00  0.00     0.117 C 
ENDROOT
BRANCH   1   2
ATOM      2  N   UNL A   1      38.995  21.150  25.948  1.00  0.00    -0.355 N 
ATOM      3  C   UNL A   1      37.921  21.316  25.129  1.00  0.00     0.233 C 
ATOM      4  O   UNL A   1      37.322  20.288  24.794  1.00  0.00    -0.274 OA
ATOM      5  H   UNL A   1      39.157  20.221  26.233  1.00  0.00     0.163 HD
BRANCH   3   6
ATOM      6  C   UNL A   1      37.411  22.692  24.685  1.00  0.00     0.139 C 
ATOM      7  C   UNL A   1      37.093  22.731  23.201  1.00  0.00     0.030 C 
BRANCH   6   8
ATOM      8  S   UNL A   1      36.277  23.434  25.947  1.00  0.00    -0.092 SA
BRANCH   8   9
ATOM      9  C   UNL A   1      34.591  23.039  25.476  1.00  0.00     0.116 A 
ATOM     10  C   UNL A   1      32.326  23.678  24.884  1.00  0.00     0.008 A 
ATOM     11  C   UNL A   1      32.110  22.346  24.510  1.00  0.00     0.039 A 
ATOM     12  C   UNL A   1      33.610  24.034  25.361  1.00  0.00     0.092 A 
ATOM     13  C   UNL A   1      33.100  21.401  24.736  1.00  0.00     0.072 A 
ATOM     14  N   UNL A   1      34.323  21.744  25.203  1.00  0.00    -0.240 NA
BRANCH  10  15
ATOM     15  C   UNL A   1      31.230  24.662  24.725  1.00  0.00     0.029 A 
ATOM     16  C   UNL A   1      30.323  26.452  23.283  1.00  0.00     0.119 A 
ATOM     17  C   UNL A   1      29.327  26.689  24.217  1.00  0.00     0.050 A 
ATOM     18  C   UNL A   1      31.249  25.436  23.530  1.00  0.00     0.059 A 
ATOM     19  C   UNL A   1      29.263  25.925  25.379  1.00  0.00     0.051 A 
ATOM     20  C   UNL A   1      30.203  24.916  25.658  1.00  0.00     0.127 A 
BRANCH  16  21
ATOM     21  O   UNL A   1      30.303  27.291  22.206  1.00  0.00    -0.497 OA
ATOM     22  C   UNL A   1      30.769  28.619  22.395  1.00  0.00     0.278 C 
ENDBRANCH  16  21
BRANCH  20  23
ATOM     23  O   UNL A   1      29.946  24.377  26.887  1.00  0.00    -0.496 OA
ATOM     24  C   UNL A   1      29.520  23.045  27.072  1.00  0.00     0.278 C 
ENDBRANCH  20  23
ENDBRANCH  10  15
BRANCH  12  25
ATOM     25  C   UNL A   1      33.902  25.391  25.728  1.00  0.00     0.103 C 
ATOM     26  N   UNL A   1      34.126  26.490  26.025  1.00  0.00    -0.192 NA
ENDBRANCH  12  25
BRANCH  13  27
ATOM     27  C   UNL A   1      32.854  19.963  24.568  1.00  0.00     0.000 A 
ATOM     28  C   UNL A   1      32.883  19.100  25.679  1.00  0.00     0.010 A 
ATOM     29  C   UNL A   1      32.559  19.409  23.314  1.00  0.00     0.010 A 
ATOM     30  C   UNL A   1      32.633  17.734  25.544  1.00  0.00     0.001 A 
ATOM     31  C   UNL A   1      32.312  18.040  23.176  1.00  0.00     0.001 A 
ATOM     32  C   UNL A   1      32.349  17.204  24.289  1.00  0.00     0.000 A 
ENDBRANCH  13  27
ENDBRANCH   8   9
ENDBRANCH   6   8
ENDBRANCH   3   6
ENDBRANCH   1   2
BRANCH   1  33
ATOM     33  C   UNL A   1      41.383  21.715  26.259  1.00  0.00     0.042 C 
BRANCH  33  34
ATOM     34  C   UNL A   1      42.380  22.763  26.719  1.00  0.00     0.118 C 
BRANCH  34  35
ATOM     35  N   UNL A   1      42.782  23.656  25.641  1.00  0.00    -0.352 N 
ATOM     36  C   UNL A   1      42.693  25.020  25.532  1.00  0.00     0.251 C 
ATOM     37  H   UNL A   1      43.183  23.207  24.864  1.00  0.00     0.163 HD
ATOM     38  O   UNL A   1      42.885  25.549  24.440  1.00  0.00    -0.269 OA
BRANCH  36  39
ATOM     39  C   UNL A   1      42.359  25.857  26.705  1.00  0.00     0.039 A 
ATOM     40  C   UNL A   1      43.080  27.036  26.912  1.00  0.00     0.014 A 
ATOM     41  C   UNL A   1      41.382  25.471  27.624  1.00  0.00     0.014 A 
ATOM     42  C   UNL A   1      42.789  27.842  28.014  1.00  0.00     0.010 A 
ATOM     43  C   UNL A   1      41.015  26.329  28.656  1.00  0.00     0.010 A 
ATOM     44  C   UNL A   1      41.732  27.512  28.878  1.00  0.00    -0.014 A 
BRANCH  44  45
ATOM     45  C   UNL A   1      41.397  28.377  30.038  1.00  0.00     0.031 A 
ATOM     46  C   UNL A   1      40.225  29.321  29.965  1.00  0.00     0.074 A 
ATOM     47  C   UNL A   1      42.160  28.328  31.147  1.00  0.00     0.049 A 
ATOM     48  N   UNL A   1      39.778  30.156  30.870  1.00  0.00    -0.248 NA
ATOM     49  C   UNL A   1      39.472  29.352  28.701  1.00  0.00     0.031 C 
ATOM     50  C   UNL A   1      43.348  27.490  31.319  1.00  0.00     0.029 A 
ATOM     51  N   UNL A   1      42.048  28.993  32.341  1.00  0.00    -0.354 N 
ATOM     52  C   UNL A   1      38.698  30.804  30.285  1.00  0.00     0.074 A 
ATOM     53  C   UNL A   1      38.606  30.328  28.923  1.00  0.00     0.031 C 
ATOM     54  C   UNL A   1      43.828  27.656  32.561  1.00  0.00     0.029 A 
ATOM     55  C   UNL A   1      43.011  28.645  33.257  1.00  0.00     0.049 A 
ATOM     56  H   UNL A   1      41.344  29.656  32.525  1.00  0.00     0.167 HD
ATOM     57  C   UNL A   1      37.837  31.689  30.842  1.00  0.00     0.037 A 
ATOM     58  C   UNL A   1      43.210  29.077  34.517  1.00  0.00     0.037 A 
ATOM     59  C   UNL A   1      37.926  32.152  32.202  1.00  0.00     0.049 A 
ATOM     60  C   UNL A   1      42.261  30.091  35.098  1.00  0.00     0.074 A 
ATOM     61  C   UNL A   1      37.085  33.020  32.876  1.00  0.00     0.029 A 
ATOM     62  N   UNL A   1      38.923  31.787  33.096  1.00  0.00    -0.354 N 
ATOM     63  N   UNL A   1      41.200  30.640  34.559  1.00  0.00    -0.248 NA
ATOM     64  C   UNL A   1      42.534  30.539  36.470  1.00  0.00     0.031 C 
ATOM     65  C   UNL A   1      37.606  33.225  34.158  1.00  0.00     0.029 A 
ATOM     66  C   UNL A   1      38.732  32.432  34.306  1.00  0.00     0.049 A 
ATOM     67  H   UNL A   1      39.657  31.160  32.898  1.00  0.00     0.167 HD
ATOM     68  C   UNL A   1      40.660  31.469  35.534  1.00  0.00     0.074 A 
ATOM     69  C   UNL A   1      41.499  31.331  36.706  1.00  0.00     0.031 C 
ATOM     70  C   UNL A   1      39.572  32.277  35.467  1.00  0.00     0.037 A 
BRANCH  57  71
ATOM     71  C   UNL A   1      36.718  32.207  29.982  1.00  0.00     0.064 A 
ATOM     72  C   UNL A   1      35.664  31.377  29.567  1.00  0.00     0.173 A 
ATOM     73  C   UNL A   1      36.678  33.556  29.596  1.00  0.00     0.173 A 
ATOM     74  F   UNL A   1      35.658  30.077  29.898  1.00  0.00    -0.203 F 
ATOM     75  C   UNL A   1      34.632  31.870  28.772  1.00  0.00     0.198 A 
ATOM     76  C   UNL A   1      35.625  34.052  28.831  1.00  0.00     0.198 A 
ATOM     77  F   UNL A   1      37.654  34.396  29.968  1.00  0.00    -0.203 F 
ATOM     78  F   UNL A   1      33.669  31.043  28.342  1.00  0.00    -0.200 F 
ATOM     79  C   UNL A   1      34.609  33.207  28.412  1.00  0.00     0.200 A 
ATOM     80  F   UNL A   1      35.595  35.350  28.499  1.00  0.00    -0.200 F 
ATOM     81  F   UNL A   1      33.610  33.682  27.655  1.00  0.00    -0.200 F 
ENDBRANCH  57  71
BRANCH  58  82
ATOM     82  C   UNL A   1      44.338  28.541  35.326  1.00  0.00     0.064 A 
ATOM     83  C   UNL A   1      44.169  27.414  36.143  1.00  0.00     0.173 A 
ATOM     84  C   UNL A   1      45.597  29.162  35.327  1.00  0.00     0.173 A 
ATOM     85  F   UNL A   1      42.980  26.795  36.191  1.00  0.00    -0.203 F 
ATOM     86  C   UNL A   1      45.201  26.951  36.957  1.00  0.00     0.198 A 
ATOM     87  C   UNL A   1      46.640  28.675  36.114  1.00  0.00     0.198 A 
ATOM     88  F   UNL A   1      45.817  30.238  34.558  1.00  0.00    -0.203 F 
ATOM     89  F   UNL A   1      44.989  25.913  37.777  1.00  0.00    -0.200 F 
ATOM     90  C   UNL A   1      46.437  27.580  36.939  1.00  0.00     0.200 A 
ATOM     91  F   UNL A   1      47.838  29.274  36.078  1.00  0.00    -0.200 F 
ATOM     92  F   UNL A   1      47.428  27.137  37.724  1.00  0.00    -0.200 F 
ENDBRANCH  58  82
BRANCH  70  93
ATOM     93  C   UNL A   1      39.204  33.039  36.709  1.00  0.00     0.064 A 
ATOM     94  C   UNL A   1      38.359  32.497  37.688  1.00  0.00     0.173 A 
ATOM     95  C   UNL A   1      39.726  34.323  36.932  1.00  0.00     0.173 A 
ATOM     96  F   UNL A   1      37.823  31.278  37.517  1.00  0.00    -0.203 F 
ATOM     97  C   UNL A   1      38.018  33.226  38.824  1.00  0.00     0.198 A 
ATOM     98  C   UNL A   1      39.415  35.033  38.088  1.00  0.00     0.198 A 
ATOM     99  F   UNL A   1      40.547  34.887  36.033  1.00  0.00    -0.203 F 
ATOM    100  F   UNL A   1      37.156  32.712  39.713  1.00  0.00    -0.200 F 
ATOM    101  C   UNL A   1      38.551  34.489  39.027  1.00  0.00     0.200 A 
ATOM    102  F   UNL A   1      39.947  36.246  38.292  1.00  0.00    -0.200 F 
ATOM    103  F   UNL A   1      38.227  35.187  40.124  1.00  0.00    -0.200 F 
ENDBRANCH  70  93
ENDBRANCH  44  45
ENDBRANCH  36  39
ENDBRANCH  34  35
ENDBRANCH  33  34
ENDBRANCH   1  33
TORSDOF 17
ENDMDL
MODEL 3
REMARK VINA RESULT:      -9.2      1.415      3.674
REMARK SMILES COc1ccc(OC)c(-c2cc(-c3ccccc3)nc(S[C@H](C)C(=O)NCCCNC(=O)c3ccc(-c4c5nc(c(-c6c(F)c(F)c(F)c(F)c6F)c6ccc([nH]6)c(-c6c(F)c(F)c(F)c(F)c6F)c6nc(c(-c7c(F)c(F)c(F)c(F)c7F)c7ccc4[nH]7)C=C6)C=C5)cc3)c2C#N)c1
REMARK SMILES IDX 27 1 26 2 24 3 25 4 22 6 23 7 21 8 20 9 10 10 11 11 96 12
REMARK SMILES IDX 12 13 19 14 9 15 3 16 4 17 99 18 5 19 6 20 2 21 1 22 7 23
REMARK SMILES IDX 8 24 97 25 98 26 13 27 14 28 18 29 15 30 17 31 16 32 28 33
REMARK SMILES IDX 29 34 30 35 31 36 32 38 33 39 34 40 95 41 35 42 94 43 36 44
REMARK SMILES IDX 37 45 38 46 88 47 39 48 93 49 87 50 89 51 40 52 92 53 86 54
REMARK SMILES IDX 85 55 41 57 73 58 53 59 72 60 54 61 57 62 71 63 90 64 55 65
REMARK SMILES IDX 56 66 70 68 91 69 58 70 42 71 43 72 51 73 44 74 45 75 49 76
REMARK SMILES IDX 52 77 46 78 47 79 50 80 48 81 74 82 75 83 83 84 76 85 77 86
REMARK SMILES IDX 81 87 84 88 78 89 79 90 82 91 80 92 59 93 60 94 68 95 61 96
REMARK SMILES IDX 62 97 66 98 69 99 63 100 64 101 67 102 65 103
REMARK H PARENT 26 5 30 37 89 56 57 67
REMARK Flexibility Score: inf
ROOT
ATOM      1  C   UNL A   1      49.592  24.993  32.687  1.00  0.00     0.117 C 
ENDROOT
BRANCH   1   2
ATOM      2  N   UNL A   1      50.909  25.227  32.140  1.00  0.00    -0.355 N 
ATOM      3  C   UNL A   1      51.485  26.372  31.684  1.00  0.00     0.233 C 
ATOM      4  O   UNL A   1      52.664  26.287  31.322  1.00  0.00    -0.274 OA
ATOM      5  H   UNL A   1      51.482  24.428  32.088  1.00  0.00     0.163 HD
BRANCH   3   6
ATOM      6  C   UNL A   1      50.724  27.695  31.545  1.00  0.00     0.139 C 
ATOM      7  C   UNL A   1      51.067  28.670  32.657  1.00  0.00     0.030 C 
BRANCH   6   8
ATOM      8  S   UNL A   1      50.611  28.231  29.777  1.00  0.00    -0.092 SA
BRANCH   8   9
ATOM      9  C   UNL A   1      48.883  28.189  29.296  1.00  0.00     0.116 A 
ATOM     10  C   UNL A   1      46.692  29.214  29.083  1.00  0.00     0.008 A 
ATOM     11  C   UNL A   1      46.322  28.118  28.293  1.00  0.00     0.039 A 
ATOM     12  C   UNL A   1      48.018  29.256  29.579  1.00  0.00     0.092 A 
ATOM     13  C   UNL A   1      47.204  27.060  28.131  1.00  0.00     0.072 A 
ATOM     14  N   UNL A   1      48.466  27.099  28.616  1.00  0.00    -0.240 NA
BRANCH  10  15
ATOM     15  C   UNL A   1      45.711  30.296  29.327  1.00  0.00     0.029 A 
ATOM     16  C   UNL A   1      44.147  31.262  30.977  1.00  0.00     0.119 A 
ATOM     17  C   UNL A   1      43.731  32.186  30.031  1.00  0.00     0.050 A 
ATOM     18  C   UNL A   1      45.140  30.344  30.630  1.00  0.00     0.059 A 
ATOM     19  C   UNL A   1      44.297  32.185  28.759  1.00  0.00     0.051 A 
ATOM     20  C   UNL A   1      45.278  31.250  28.382  1.00  0.00     0.127 A 
BRANCH  16  21
ATOM     21  O   UNL A   1      43.492  31.340  32.172  1.00  0.00    -0.497 OA
ATOM     22  C   UNL A   1      43.269  32.631  32.720  1.00  0.00     0.278 C 
ENDBRANCH  16  21
BRANCH  20  23
ATOM     23  O   UNL A   1      45.605  31.432  27.068  1.00  0.00    -0.496 OA
ATOM     24  C   UNL A   1      44.860  32.252  26.194  1.00  0.00     0.278 C 
ENDBRANCH  20  23
ENDBRANCH  10  15
BRANCH  12  25
ATOM     25  C   UNL A   1      48.467  30.370  30.366  1.00  0.00     0.103 C 
ATOM     26  N   UNL A   1      48.818  31.272  31.006  1.00  0.00    -0.192 NA
ENDBRANCH  12  25
BRANCH  13  27
ATOM     27  C   UNL A   1      46.795  25.798  27.501  1.00  0.00     0.000 A 
ATOM     28  C   UNL A   1      45.997  24.876  28.203  1.00  0.00     0.010 A 
ATOM     29  C   UNL A   1      47.158  25.482  26.184  1.00  0.00     0.010 A 
ATOM     30  C   UNL A   1      45.582  23.680  27.617  1.00  0.00     0.001 A 
ATOM     31  C   UNL A   1      46.746  24.283  25.595  1.00  0.00     0.001 A 
ATOM     32  C   UNL A   1      45.959  23.383  26.310  1.00  0.00     0.000 A 
ENDBRANCH  13  27
ENDBRANCH   8   9
ENDBRANCH   6   8
ENDBRANCH   3   6
ENDBRANCH   1   2
BRANCH   1  33
ATOM     33  C   UNL A   1      49.612  24.190  33.974  1.00  0.00     0.042 C 
BRANCH  33  34
ATOM     34  C   UNL A   1      48.245  24.024  34.613  1.00  0.00     0.118 C 
BRANCH  34  35
ATOM     35  N   UNL A   1      48.209  24.522  35.980  1.00  0.00    -0.352 N 
ATOM     36  C   UNL A   1      47.491  25.549  36.537  1.00  0.00     0.251 C 
ATOM     37  H   UNL A   1      48.795  24.043  36.607  1.00  0.00     0.163 HD
ATOM     38  O   UNL A   1      47.783  25.945  37.663  1.00  0.00    -0.269 OA
BRANCH  36  39
ATOM     39  C   UNL A   1      46.383  26.193  35.798  1.00  0.00     0.039 A 
ATOM     40  C   UNL A   1      46.622  27.416  35.166  1.00  0.00     0.014 A 
ATOM     41  C   UNL A   1      45.106  25.631  35.761  1.00  0.00     0.014 A 
ATOM     42  C   UNL A   1      45.592  28.048  34.467  1.00  0.00     0.010 A 
ATOM     43  C   UNL A   1      44.114  26.202  34.970  1.00  0.00     0.010 A 
ATOM     44  C   UNL A   1      44.337  27.430  34.336  1.00  0.00    -0.014 A 
BRANCH  44  45
ATOM     45  C   UNL A   1      43.243  28.081  33.571  1.00  0.00     0.031 A 
ATOM     46  C   UNL A   1      43.053  27.772  32.109  1.00  0.00     0.074 A 
ATOM     47  C   UNL A   1      42.436  28.965  34.188  1.00  0.00     0.049 A 
ATOM     48  N   UNL A   1      42.161  28.242  31.274  1.00  0.00    -0.248 NA
ATOM     49  C   UNL A   1      44.008  26.834  31.496  1.00  0.00     0.031 C 
ATOM     50  C   UNL A   1      42.549  29.382  35.586  1.00  0.00     0.029 A 
ATOM     51  N   UNL A   1      41.356  29.670  33.720  1.00  0.00    -0.354 N 
ATOM     52  C   UNL A   1      42.447  27.656  30.047  1.00  0.00     0.074 A 
ATOM     53  C   UNL A   1      43.642  26.863  30.225  1.00  0.00     0.031 C 
ATOM     54  C   UNL A   1      41.553  30.233  35.875  1.00  0.00     0.029 A 
ATOM     55  C   UNL A   1      40.757  30.458  34.672  1.00  0.00     0.049 A 
ATOM     56  H   UNL A   1      41.039  29.616  32.789  1.00  0.00     0.167 HD
ATOM     57  C   UNL A   1      41.756  27.742  28.885  1.00  0.00     0.037 A 
ATOM     58  C   UNL A   1      39.687  31.270  34.584  1.00  0.00     0.037 A 
ATOM     59  C   UNL A   1      40.559  28.524  28.715  1.00  0.00     0.049 A 
ATOM     60  C   UNL A   1      38.960  31.376  33.268  1.00  0.00     0.074 A 
ATOM     61  C   UNL A   1      39.763  28.651  27.591  1.00  0.00     0.029 A 
ATOM     62  N   UNL A   1      39.990  29.319  29.700  1.00  0.00    -0.354 N 
ATOM     63  N   UNL A   1      39.197  30.760  32.136  1.00  0.00    -0.248 NA
ATOM     64  C   UNL A   1      37.810  32.288  33.224  1.00  0.00     0.031 C 
ATOM     65  C   UNL A   1      38.746  29.568  27.878  1.00  0.00     0.029 A 
ATOM     66  C   UNL A   1      38.868  29.959  29.201  1.00  0.00     0.049 A 
ATOM     67  H   UNL A   1      40.334  29.412  30.619  1.00  0.00     0.167 HD
ATOM     68  C   UNL A   1      38.208  31.180  31.257  1.00  0.00     0.074 A 
ATOM     69  C   UNL A   1      37.354  32.087  31.996  1.00  0.00     0.031 C 
ATOM     70  C   UNL A   1      38.023  30.852  29.954  1.00  0.00     0.037 A 
BRANCH  57  71
ATOM     71  C   UNL A   1      42.272  26.961  27.709  1.00  0.00     0.064 A 
ATOM     72  C   UNL A   1      41.865  25.639  27.467  1.00  0.00     0.173 A 
ATOM     73  C   UNL A   1      43.158  27.549  26.793  1.00  0.00     0.173 A 
ATOM     74  F   UNL A   1      41.028  25.024  28.317  1.00  0.00    -0.203 F 
ATOM     75  C   UNL A   1      42.349  24.927  26.373  1.00  0.00     0.198 A 
ATOM     76  C   UNL A   1      43.611  26.845  25.680  1.00  0.00     0.198 A 
ATOM     77  F   UNL A   1      43.576  28.811  26.970  1.00  0.00    -0.203 F 
ATOM     78  F   UNL A   1      41.989  23.647  26.197  1.00  0.00    -0.200 F 
ATOM     79  C   UNL A   1      43.214  25.532  25.476  1.00  0.00     0.200 A 
ATOM     80  F   UNL A   1      44.435  27.438  24.804  1.00  0.00    -0.200 F 
ATOM     81  F   UNL A   1      43.672  24.849  24.418  1.00  0.00    -0.200 F 
ENDBRANCH  57  71
BRANCH  58  82
ATOM     82  C   UNL A   1      39.218  32.030  35.774  1.00  0.00     0.064 A 
ATOM     83  C   UNL A   1      39.692  33.324  36.036  1.00  0.00     0.173 A 
ATOM     84  C   UNL A   1      38.316  31.470  36.691  1.00  0.00     0.173 A 
ATOM     85  F   UNL A   1      40.569  33.897  35.199  1.00  0.00    -0.203 F 
ATOM     86  C   UNL A   1      39.311  34.012  37.186  1.00  0.00     0.198 A 
ATOM     87  C   UNL A   1      37.908  32.174  37.822  1.00  0.00     0.198 A 
ATOM     88  F   UNL A   1      37.824  30.240  36.485  1.00  0.00    -0.203 F 
ATOM     89  F   UNL A   1      39.832  35.219  37.444  1.00  0.00    -0.200 F 
ATOM     90  C   UNL A   1      38.417  33.438  38.077  1.00  0.00     0.200 A 
ATOM     91  F   UNL A   1      37.027  31.624  38.669  1.00  0.00    -0.200 F 
ATOM     92  F   UNL A   1      38.054  34.098  39.184  1.00  0.00    -0.200 F 
ENDBRANCH  58  82
BRANCH  70  93
ATOM     93  C   UNL A   1      36.829  31.443  29.258  1.00  0.00     0.064 A 
ATOM     94  C   UNL A   1      36.781  32.796  28.889  1.00  0.00     0.173 A 
ATOM     95  C   UNL A   1      35.726  30.637  28.936  1.00  0.00     0.173 A 
ATOM     96  F   UNL A   1      37.804  33.613  29.186  1.00  0.00    -0.203 F 
ATOM     97  C   UNL A   1      35.659  33.328  28.260  1.00  0.00     0.198 A 
ATOM     98  C   UNL A   1      34.623  31.163  28.270  1.00  0.00     0.198 A 
ATOM     99  F   UNL A   1      35.722  29.334  29.257  1.00  0.00    -0.203 F 
ATOM    100  F   UNL A   1      35.610  34.637  27.976  1.00  0.00    -0.200 F 
ATOM    101  C   UNL A   1      34.585  32.510  27.944  1.00  0.00     0.200 A 
ATOM    102  F   UNL A   1      33.594  30.367  27.949  1.00  0.00    -0.200 F 
ATOM    103  F   UNL A   1      33.508  33.022  27.333  1.00  0.00    -0.200 F 
ENDBRANCH  70  93
ENDBRANCH  44  45
ENDBRANCH  36  39
ENDBRANCH  34  35
ENDBRANCH  33  34
ENDBRANCH   1  33
TORSDOF 17
ENDMDL
