MODEL 1
REMARK VINA RESULT:     -13.2      0.000      0.000
REMARK SMILES O=C(NCCCNC(=O)c1ccc(-c2c3nc(c(-c4c(F)c(F)c(F)c(F)c4F)c4ccc([nH]4)c(-c4c(F)c(F)c(F)c(F)c4F)c4nc(c(-c5c(F)c(F)c(F)c(F)c5F)c5ccc2[nH]5)C=C4)C=C3)cc1)C1=Cc2c(Cl)cc(Cl)cc2O[C@@H]1C(F)(F)F
REMARK SMILES IDX 5 1 4 2 3 3 1 4 2 5 73 7 74 8 84 9 75 10 83 11 76 12 82 13
REMARK SMILES IDX 77 14 78 15 81 16 79 17 80 18 85 19 86 20 87 21 88 22 6 23
REMARK SMILES IDX 7 24 8 25 9 27 10 28 11 29 72 30 12 31 71 32 13 33 14 34
REMARK SMILES IDX 15 35 65 36 16 37 70 38 64 39 66 40 17 41 69 42 63 43 62 44
REMARK SMILES IDX 18 46 50 47 30 48 49 49 31 50 34 51 48 52 67 53 32 54 33 55
REMARK SMILES IDX 47 57 68 58 35 59 19 60 20 61 28 62 21 63 22 64 26 65 29 66
REMARK SMILES IDX 23 67 24 68 27 69 25 70 51 71 52 72 60 73 53 74 54 75 58 76
REMARK SMILES IDX 61 77 55 78 56 79 59 80 57 81 36 82 37 83 45 84 38 85 39 86
REMARK SMILES IDX 43 87 46 88 40 89 41 90 44 91 42 92
REMARK H PARENT 3 6 7 26 66 45 34 56
REMARK Flexibility Score: inf
ROOT
ATOM      1  C   UNL A   1      31.831  28.745  25.856  1.00  0.00     0.042 C 
ENDROOT
BRANCH   1   2
ATOM      2  C   UNL A   1      32.041  27.650  26.894  1.00  0.00     0.118 C 
BRANCH   2   3
ATOM      3  N   UNL A   1      31.027  26.601  26.846  1.00  0.00    -0.352 N 
ATOM      4  O   UNL A   1      30.199  24.517  26.620  1.00  0.00    -0.270 OA
ATOM      5  C   UNL A   1      31.069  25.329  26.330  1.00  0.00     0.251 C 
ATOM      6  H   UNL A   1      30.166  26.849  27.254  1.00  0.00     0.163 HD
BRANCH   5   7
ATOM      7  C   UNL A   1      32.261  24.936  25.543  1.00  0.00     0.067 C 
ATOM      8  C   UNL A   1      33.212  24.134  26.042  1.00  0.00     0.027 C 
ATOM      9  C   UNL A   1      32.168  25.124  24.064  1.00  0.00     0.314 C 
ATOM     10  C   UNL A   1      33.350  22.867  25.299  1.00  0.00     0.036 A 
ATOM     11  O   UNL A   1      32.240  23.869  23.345  1.00  0.00    -0.475 OA
ATOM     12  C   UNL A   1      33.727  21.665  25.937  1.00  0.00     0.053 A 
ATOM     13  C   UNL A   1      32.781  22.791  24.010  1.00  0.00     0.130 A 
ATOM     14  Cl  UNL A   1      34.372  21.637  27.543  1.00  0.00    -0.083 Cl
ATOM     15  C   UNL A   1      33.462  20.429  25.338  1.00  0.00     0.042 A 
ATOM     16  C   UNL A   1      32.538  21.557  23.407  1.00  0.00     0.067 A 
ATOM     17  C   UNL A   1      32.844  20.384  24.090  1.00  0.00     0.046 A 
ATOM     18  Cl  UNL A   1      32.361  18.869  23.436  1.00  0.00    -0.084 Cl
BRANCH   9  19
ATOM     19  C   UNL A   1      33.273  26.092  23.591  1.00  0.00     0.429 C 
ATOM     20  F   UNL A   1      34.072  25.507  22.667  1.00  0.00    -0.167 F 
ATOM     21  F   UNL A   1      32.762  27.207  23.017  1.00  0.00    -0.167 F 
ATOM     22  F   UNL A   1      34.069  26.497  24.610  1.00  0.00    -0.167 F 
ENDBRANCH   9  19
ENDBRANCH   5   7
ENDBRANCH   2   3
ENDBRANCH   1   2
BRANCH   1  23
ATOM     23  C   UNL A   1      33.002  29.714  25.795  1.00  0.00     0.118 C 
BRANCH  23  24
ATOM     24  N   UNL A   1      32.700  31.038  26.328  1.00  0.00    -0.352 N 
ATOM     25  C   UNL A   1      33.371  31.820  27.252  1.00  0.00     0.251 C 
ATOM     26  H   UNL A   1      31.877  31.445  25.969  1.00  0.00     0.163 HD
ATOM     27  O   UNL A   1      32.904  32.874  27.603  1.00  0.00    -0.269 OA
BRANCH  25  28
ATOM     28  C   UNL A   1      34.647  31.334  27.838  1.00  0.00     0.039 A 
ATOM     29  C   UNL A   1      35.704  32.236  27.989  1.00  0.00     0.014 A 
ATOM     30  C   UNL A   1      34.801  30.013  28.251  1.00  0.00     0.014 A 
ATOM     31  C   UNL A   1      36.880  31.824  28.622  1.00  0.00     0.010 A 
ATOM     32  C   UNL A   1      35.903  29.647  29.009  1.00  0.00     0.010 A 
ATOM     33  C   UNL A   1      36.972  30.537  29.177  1.00  0.00    -0.014 A 
BRANCH  33  34
ATOM     34  C   UNL A   1      38.190  30.082  29.893  1.00  0.00     0.031 A 
ATOM     35  C   UNL A   1      38.448  30.546  31.304  1.00  0.00     0.074 A 
ATOM     36  C   UNL A   1      39.092  29.309  29.256  1.00  0.00     0.049 A 
ATOM     37  N   UNL A   1      39.476  30.308  32.081  1.00  0.00    -0.248 NA
ATOM     38  C   UNL A   1      37.443  31.436  31.908  1.00  0.00     0.031 C 
ATOM     39  C   UNL A   1      38.998  28.867  27.863  1.00  0.00     0.029 A 
ATOM     40  N   UNL A   1      40.267  28.759  29.697  1.00  0.00    -0.354 N 
ATOM     41  C   UNL A   1      39.249  31.042  33.240  1.00  0.00     0.074 A 
ATOM     42  C   UNL A   1      38.034  31.797  33.034  1.00  0.00     0.031 C 
ATOM     43  C   UNL A   1      40.044  28.075  27.580  1.00  0.00     0.029 A 
ATOM     44  C   UNL A   1      40.899  27.981  28.758  1.00  0.00     0.049 A 
ATOM     45  H   UNL A   1      40.625  28.906  30.603  1.00  0.00     0.167 HD
ATOM     46  C   UNL A   1      39.963  31.053  34.390  1.00  0.00     0.037 A 
ATOM     47  C   UNL A   1      42.035  27.263  28.845  1.00  0.00     0.037 A 
ATOM     48  C   UNL A   1      41.141  30.257  34.605  1.00  0.00     0.049 A 
ATOM     49  C   UNL A   1      42.779  27.246  30.153  1.00  0.00     0.074 A 
ATOM     50  C   UNL A   1      41.903  30.132  35.753  1.00  0.00     0.029 A 
ATOM     51  N   UNL A   1      41.721  29.438  33.646  1.00  0.00    -0.354 N 
ATOM     52  N   UNL A   1      42.512  27.879  31.270  1.00  0.00    -0.248 NA
ATOM     53  C   UNL A   1      43.976  26.396  30.217  1.00  0.00     0.031 C 
ATOM     54  C   UNL A   1      42.969  29.270  35.475  1.00  0.00     0.029 A 
ATOM     55  C   UNL A   1      42.841  28.815  34.172  1.00  0.00     0.049 A 
ATOM     56  H   UNL A   1      41.387  29.320  32.728  1.00  0.00     0.167 HD
ATOM     57  C   UNL A   1      43.486  27.485  32.176  1.00  0.00     0.074 A 
ATOM     58  C   UNL A   1      44.336  26.537  31.484  1.00  0.00     0.031 C 
ATOM     59  C   UNL A   1      43.668  27.874  33.463  1.00  0.00     0.037 A 
BRANCH  46  60
ATOM     60  C   UNL A   1      39.476  31.939  35.502  1.00  0.00     0.064 A 
ATOM     61  C   UNL A   1      38.559  31.482  36.463  1.00  0.00     0.173 A 
ATOM     62  C   UNL A   1      39.940  33.259  35.618  1.00  0.00     0.173 A 
ATOM     63  F   UNL A   1      38.069  30.236  36.391  1.00  0.00    -0.203 F 
ATOM     64  C   UNL A   1      38.098  32.323  37.474  1.00  0.00     0.198 A 
ATOM     65  C   UNL A   1      39.505  34.084  36.652  1.00  0.00     0.198 A 
ATOM     66  F   UNL A   1      40.818  33.748  34.730  1.00  0.00    -0.203 F 
ATOM     67  F   UNL A   1      37.174  31.882  38.339  1.00  0.00    -0.200 F 
ATOM     68  C   UNL A   1      38.577  33.620  37.572  1.00  0.00     0.200 A 
ATOM     69  F   UNL A   1      39.978  35.334  36.754  1.00  0.00    -0.200 F 
ATOM     70  F   UNL A   1      38.137  34.426  38.548  1.00  0.00    -0.200 F 
ENDBRANCH  46  60
BRANCH  47  71
ATOM     71  C   UNL A   1      42.503  26.461  27.684  1.00  0.00     0.064 A 
ATOM     72  C   UNL A   1      43.483  26.959  26.813  1.00  0.00     0.173 A 
ATOM     73  C   UNL A   1      41.983  25.186  27.418  1.00  0.00     0.173 A 
ATOM     74  F   UNL A   1      44.000  28.179  27.016  1.00  0.00    -0.203 F 
ATOM     75  C   UNL A   1      43.903  26.227  25.705  1.00  0.00     0.198 A 
ATOM     76  C   UNL A   1      42.427  24.442  26.326  1.00  0.00     0.198 A 
ATOM     77  F   UNL A   1      41.052  24.658  28.225  1.00  0.00    -0.203 F 
ATOM     78  F   UNL A   1      44.802  26.751  24.861  1.00  0.00    -0.200 F 
ATOM     79  C   UNL A   1      43.379  24.966  25.465  1.00  0.00     0.200 A 
ATOM     80  F   UNL A   1      41.930  23.216  26.108  1.00  0.00    -0.200 F 
ATOM     81  F   UNL A   1      43.784  24.260  24.401  1.00  0.00    -0.200 F 
ENDBRANCH  47  71
BRANCH  59  82
ATOM     82  C   UNL A   1      44.808  27.243  34.207  1.00  0.00     0.064 A 
ATOM     83  C   UNL A   1      46.082  27.831  34.246  1.00  0.00     0.173 A 
ATOM     84  C   UNL A   1      44.622  26.034  34.895  1.00  0.00     0.173 A 
ATOM     85  F   UNL A   1      46.313  28.981  33.594  1.00  0.00    -0.203 F 
ATOM     86  C   UNL A   1      47.137  27.209  34.906  1.00  0.00     0.198 A 
ATOM     87  C   UNL A   1      45.672  25.434  35.586  1.00  0.00     0.198 A 
ATOM     88  F   UNL A   1      43.422  25.435  34.900  1.00  0.00    -0.203 F 
ATOM     89  F   UNL A   1      48.361  27.754  34.870  1.00  0.00    -0.200 F 
ATOM     90  C   UNL A   1      46.931  26.014  35.578  1.00  0.00     0.200 A 
ATOM     91  F   UNL A   1      45.466  24.287  36.249  1.00  0.00    -0.200 F 
ATOM     92  F   UNL A   1      47.949  25.416  36.211  1.00  0.00    -0.200 F 
ENDBRANCH  59  82
ENDBRANCH  33  34
ENDBRANCH  25  28
ENDBRANCH  23  24
ENDBRANCH   1  23
TORSDOF 11
ENDMDL
MODEL 2
REMARK VINA RESULT:     -13.1      0.094      1.963
REMARK SMILES O=C(NCCCNC(=O)c1ccc(-c2c3nc(c(-c4c(F)c(F)c(F)c(F)c4F)c4ccc([nH]4)c(-c4c(F)c(F)c(F)c(F)c4F)c4nc(c(-c5c(F)c(F)c(F)c(F)c5F)c5ccc2[nH]5)C=C4)C=C3)cc1)C1=Cc2c(Cl)cc(Cl)cc2O[C@@H]1C(F)(F)F
REMARK SMILES IDX 5 1 4 2 3 3 1 4 2 5 73 7 74 8 84 9 75 10 83 11 76 12 82 13
REMARK SMILES IDX 77 14 78 15 81 16 79 17 80 18 85 19 86 20 87 21 88 22 6 23
REMARK SMILES IDX 7 24 8 25 9 27 10 28 11 29 72 30 12 31 71 32 13 33 14 34
REMARK SMILES IDX 15 35 65 36 16 37 70 38 64 39 66 40 17 41 69 42 63 43 62 44
REMARK SMILES IDX 18 46 50 47 30 48 49 49 31 50 34 51 48 52 67 53 32 54 33 55
REMARK SMILES IDX 47 57 68 58 35 59 19 60 20 61 28 62 21 63 22 64 26 65 29 66
REMARK SMILES IDX 23 67 24 68 27 69 25 70 51 71 52 72 60 73 53 74 54 75 58 76
REMARK SMILES IDX 61 77 55 78 56 79 59 80 57 81 36 82 37 83 45 84 38 85 39 86
REMARK SMILES IDX 43 87 46 88 40 89 41 90 44 91 42 92
REMARK H PARENT 3 6 7 26 66 45 34 56
REMARK Flexibility Score: inf
ROOT
ATOM      1  C   UNL A   1      31.899  28.700  25.671  1.00  0.00     0.042 C 
ENDROOT
BRANCH   1   2
ATOM      2  C   UNL A   1      32.061  27.652  26.763  1.00  0.00     0.118 C 
BRANCH   2   3
ATOM      3  N   UNL A   1      31.037  26.612  26.729  1.00  0.00    -0.352 N 
ATOM      4  O   UNL A   1      30.192  24.530  26.549  1.00  0.00    -0.270 OA
ATOM      5  C   UNL A   1      31.075  25.324  26.251  1.00  0.00     0.251 C 
ATOM      6  H   UNL A   1      30.172  26.880  27.113  1.00  0.00     0.163 HD
BRANCH   5   7
ATOM      7  C   UNL A   1      32.276  24.897  25.497  1.00  0.00     0.067 C 
ATOM      8  C   UNL A   1      33.197  24.080  26.028  1.00  0.00     0.027 C 
ATOM      9  C   UNL A   1      32.223  25.068  24.015  1.00  0.00     0.314 C 
ATOM     10  C   UNL A   1      33.325  22.801  25.303  1.00  0.00     0.036 A 
ATOM     11  O   UNL A   1      32.285  23.804  23.312  1.00  0.00    -0.475 OA
ATOM     12  C   UNL A   1      33.661  21.600  25.964  1.00  0.00     0.053 A 
ATOM     13  C   UNL A   1      32.786  22.723  24.002  1.00  0.00     0.130 A 
ATOM     14  Cl  UNL A   1      34.267  21.577  27.586  1.00  0.00    -0.083 Cl
ATOM     15  C   UNL A   1      33.384  20.362  25.373  1.00  0.00     0.042 A 
ATOM     16  C   UNL A   1      32.531  21.486  23.407  1.00  0.00     0.067 A 
ATOM     17  C   UNL A   1      32.795  20.316  24.112  1.00  0.00     0.046 A 
ATOM     18  Cl  UNL A   1      32.295  18.803  23.463  1.00  0.00    -0.084 Cl
BRANCH   9  19
ATOM     19  C   UNL A   1      33.360  26.007  23.558  1.00  0.00     0.429 C 
ATOM     20  F   UNL A   1      34.210  25.370  22.718  1.00  0.00    -0.167 F 
ATOM     21  F   UNL A   1      32.891  27.089  22.893  1.00  0.00    -0.167 F 
ATOM     22  F   UNL A   1      34.095  26.466  24.599  1.00  0.00    -0.167 F 
ENDBRANCH   9  19
ENDBRANCH   5   7
ENDBRANCH   2   3
ENDBRANCH   1   2
BRANCH   1  23
ATOM     23  C   UNL A   1      33.046  29.699  25.654  1.00  0.00     0.118 C 
BRANCH  23  24
ATOM     24  N   UNL A   1      32.707  30.996  26.229  1.00  0.00    -0.352 N 
ATOM     25  C   UNL A   1      33.347  31.759  27.191  1.00  0.00     0.251 C 
ATOM     26  H   UNL A   1      31.880  31.398  25.872  1.00  0.00     0.163 HD
ATOM     27  O   UNL A   1      32.852  32.789  27.572  1.00  0.00    -0.269 OA
BRANCH  25  28
ATOM     28  C   UNL A   1      34.624  31.280  27.779  1.00  0.00     0.039 A 
ATOM     29  C   UNL A   1      35.681  32.185  27.919  1.00  0.00     0.014 A 
ATOM     30  C   UNL A   1      34.780  29.963  28.204  1.00  0.00     0.014 A 
ATOM     31  C   UNL A   1      36.858  31.779  28.554  1.00  0.00     0.010 A 
ATOM     32  C   UNL A   1      35.885  29.606  28.964  1.00  0.00     0.010 A 
ATOM     33  C   UNL A   1      36.953  30.498  29.121  1.00  0.00    -0.014 A 
BRANCH  33  34
ATOM     34  C   UNL A   1      38.173  30.051  29.839  1.00  0.00     0.031 A 
ATOM     35  C   UNL A   1      38.427  30.518  31.249  1.00  0.00     0.074 A 
ATOM     36  C   UNL A   1      39.081  29.284  29.203  1.00  0.00     0.049 A 
ATOM     37  N   UNL A   1      39.455  30.288  32.028  1.00  0.00    -0.248 NA
ATOM     38  C   UNL A   1      37.416  31.403  31.851  1.00  0.00     0.031 C 
ATOM     39  C   UNL A   1      38.990  28.839  27.811  1.00  0.00     0.029 A 
ATOM     40  N   UNL A   1      40.259  28.741  29.647  1.00  0.00    -0.354 N 
ATOM     41  C   UNL A   1      39.223  31.022  33.185  1.00  0.00     0.074 A 
ATOM     42  C   UNL A   1      38.004  31.769  32.978  1.00  0.00     0.031 C 
ATOM     43  C   UNL A   1      40.042  28.053  27.530  1.00  0.00     0.029 A 
ATOM     44  C   UNL A   1      40.896  27.965  28.709  1.00  0.00     0.049 A 
ATOM     45  H   UNL A   1      40.615  28.891  30.553  1.00  0.00     0.167 HD
ATOM     46  C   UNL A   1      39.935  31.038  34.336  1.00  0.00     0.037 A 
ATOM     47  C   UNL A   1      42.037  27.255  28.798  1.00  0.00     0.037 A 
ATOM     48  C   UNL A   1      41.118  30.250  34.554  1.00  0.00     0.049 A 
ATOM     49  C   UNL A   1      42.780  27.243  30.107  1.00  0.00     0.074 A 
ATOM     50  C   UNL A   1      41.879  30.130  35.702  1.00  0.00     0.029 A 
ATOM     51  N   UNL A   1      41.704  29.434  33.597  1.00  0.00    -0.354 N 
ATOM     52  N   UNL A   1      42.507  27.877  31.222  1.00  0.00    -0.248 NA
ATOM     53  C   UNL A   1      43.981  26.402  30.173  1.00  0.00     0.031 C 
ATOM     54  C   UNL A   1      42.951  29.275  35.427  1.00  0.00     0.029 A 
ATOM     55  C   UNL A   1      42.827  28.817  34.124  1.00  0.00     0.049 A 
ATOM     56  H   UNL A   1      41.372  29.312  32.677  1.00  0.00     0.167 HD
ATOM     57  C   UNL A   1      43.482  27.490  32.130  1.00  0.00     0.074 A 
ATOM     58  C   UNL A   1      44.339  26.546  31.440  1.00  0.00     0.031 C 
ATOM     59  C   UNL A   1      43.661  27.881  33.417  1.00  0.00     0.037 A 
BRANCH  46  60
ATOM     60  C   UNL A   1      39.442  31.923  35.446  1.00  0.00     0.064 A 
ATOM     61  C   UNL A   1      39.862  33.257  35.571  1.00  0.00     0.173 A 
ATOM     62  C   UNL A   1      38.526  31.436  36.392  1.00  0.00     0.173 A 
ATOM     63  F   UNL A   1      40.750  33.769  34.705  1.00  0.00    -0.203 F 
ATOM     64  C   UNL A   1      39.415  34.058  36.620  1.00  0.00     0.198 A 
ATOM     65  C   UNL A   1      38.053  32.252  37.418  1.00  0.00     0.198 A 
ATOM     66  F   UNL A   1      38.088  30.171  36.321  1.00  0.00    -0.203 F 
ATOM     67  F   UNL A   1      39.883  35.306  36.753  1.00  0.00    -0.200 F 
ATOM     68  C   UNL A   1      38.505  33.557  37.538  1.00  0.00     0.200 A 
ATOM     69  F   UNL A   1      37.163  31.770  38.298  1.00  0.00    -0.200 F 
ATOM     70  F   UNL A   1      38.071  34.329  38.542  1.00  0.00    -0.200 F 
ENDBRANCH  46  60
BRANCH  47  71
ATOM     71  C   UNL A   1      42.511  26.454  27.639  1.00  0.00     0.064 A 
ATOM     72  C   UNL A   1      42.013  25.164  27.403  1.00  0.00     0.173 A 
ATOM     73  C   UNL A   1      43.470  26.954  26.746  1.00  0.00     0.173 A 
ATOM     74  F   UNL A   1      41.106  24.635  28.237  1.00  0.00    -0.203 F 
ATOM     75  C   UNL A   1      42.476  24.395  26.339  1.00  0.00     0.198 A 
ATOM     76  C   UNL A   1      43.909  26.194  25.663  1.00  0.00     0.198 A 
ATOM     77  F   UNL A   1      43.971  28.185  26.919  1.00  0.00    -0.203 F 
ATOM     78  F   UNL A   1      42.020  23.146  26.170  1.00  0.00    -0.200 F 
ATOM     79  C   UNL A   1      43.420  24.913  25.465  1.00  0.00     0.200 A 
ATOM     80  F   UNL A   1      44.810  26.706  24.811  1.00  0.00    -0.200 F 
ATOM     81  F   UNL A   1      43.864  24.174  24.439  1.00  0.00    -0.200 F 
ENDBRANCH  47  71
BRANCH  59  82
ATOM     82  C   UNL A   1      44.804  27.257  34.163  1.00  0.00     0.064 A 
ATOM     83  C   UNL A   1      44.656  26.055  34.871  1.00  0.00     0.173 A 
ATOM     84  C   UNL A   1      46.067  27.870  34.165  1.00  0.00     0.173 A 
ATOM     85  F   UNL A   1      43.466  25.437  34.910  1.00  0.00    -0.203 F 
ATOM     86  C   UNL A   1      45.717  25.514  35.592  1.00  0.00     0.198 A 
ATOM     87  C   UNL A   1      47.135  27.306  34.856  1.00  0.00     0.198 A 
ATOM     88  F   UNL A   1      46.265  29.014  33.494  1.00  0.00    -0.203 F 
ATOM     89  F   UNL A   1      45.534  24.404  36.318  1.00  0.00    -0.200 F 
ATOM     90  C   UNL A   1      46.956  26.137  35.580  1.00  0.00     0.200 A 
ATOM     91  F   UNL A   1      48.336  27.901  34.830  1.00  0.00    -0.200 F 
ATOM     92  F   UNL A   1      47.975  25.617  36.277  1.00  0.00    -0.200 F 
ENDBRANCH  59  82
ENDBRANCH  33  34
ENDBRANCH  25  28
ENDBRANCH  23  24
ENDBRANCH   1  23
TORSDOF 11
ENDMDL
MODEL 3
REMARK VINA RESULT:     -12.9      2.456      3.532
REMARK SMILES O=C(NCCCNC(=O)c1ccc(-c2c3nc(c(-c4c(F)c(F)c(F)c(F)c4F)c4ccc([nH]4)c(-c4c(F)c(F)c(F)c(F)c4F)c4nc(c(-c5c(F)c(F)c(F)c(F)c5F)c5ccc2[nH]5)C=C4)C=C3)cc1)C1=Cc2c(Cl)cc(Cl)cc2O[C@@H]1C(F)(F)F
REMARK SMILES IDX 5 1 4 2 3 3 1 4 2 5 73 7 74 8 84 9 75 10 83 11 76 12 82 13
REMARK SMILES IDX 77 14 78 15 81 16 79 17 80 18 85 19 86 20 87 21 88 22 6 23
REMARK SMILES IDX 7 24 8 25 9 27 10 28 11 29 72 30 12 31 71 32 13 33 14 34
REMARK SMILES IDX 15 35 65 36 16 37 70 38 64 39 66 40 17 41 69 42 63 43 62 44
REMARK SMILES IDX 18 46 50 47 30 48 49 49 31 50 34 51 48 52 67 53 32 54 33 55
REMARK SMILES IDX 47 57 68 58 35 59 19 60 20 61 28 62 21 63 22 64 26 65 29 66
REMARK SMILES IDX 23 67 24 68 27 69 25 70 51 71 52 72 60 73 53 74 54 75 58 76
REMARK SMILES IDX 61 77 55 78 56 79 59 80 57 81 36 82 37 83 45 84 38 85 39 86
REMARK SMILES IDX 43 87 46 88 40 89 41 90 44 91 42 92
REMARK H PARENT 3 6 7 26 66 45 34 56
REMARK Flexibility Score: inf
ROOT
ATOM      1  C   UNL A   1      32.692  30.093  25.881  1.00  0.00     0.042 C 
ENDROOT
BRANCH   1   2
ATOM      2  C   UNL A   1      31.416  29.328  25.555  1.00  0.00     0.118 C 
BRANCH   2   3
ATOM      3  N   UNL A   1      31.385  27.981  26.118  1.00  0.00    -0.352 N 
ATOM      4  O   UNL A   1      31.429  25.728  26.123  1.00  0.00    -0.270 OA
ATOM      5  C   UNL A   1      31.155  26.762  25.527  1.00  0.00     0.251 C 
ATOM      6  H   UNL A   1      31.559  27.940  27.086  1.00  0.00     0.163 HD
BRANCH   5   7
ATOM      7  C   UNL A   1      30.711  26.746  24.114  1.00  0.00     0.067 C 
ATOM      8  C   UNL A   1      29.418  26.828  23.773  1.00  0.00     0.027 C 
ATOM      9  C   UNL A   1      31.756  27.044  23.089  1.00  0.00     0.314 C 
ATOM     10  C   UNL A   1      29.104  28.030  22.975  1.00  0.00     0.036 A 
ATOM     11  O   UNL A   1      31.474  28.259  22.354  1.00  0.00    -0.475 OA
ATOM     12  C   UNL A   1      27.854  28.678  23.064  1.00  0.00     0.053 A 
ATOM     13  C   UNL A   1      30.176  28.720  22.372  1.00  0.00     0.130 A 
ATOM     14  Cl  UNL A   1      26.490  27.950  23.844  1.00  0.00    -0.083 Cl
ATOM     15  C   UNL A   1      27.709  30.004  22.641  1.00  0.00     0.042 A 
ATOM     16  C   UNL A   1      30.022  30.035  21.930  1.00  0.00     0.067 A 
ATOM     17  C   UNL A   1      28.802  30.680  22.104  1.00  0.00     0.046 A 
ATOM     18  Cl  UNL A   1      28.670  32.358  21.747  1.00  0.00    -0.084 Cl
BRANCH   9  19
ATOM     19  C   UNL A   1      31.903  25.843  22.130  1.00  0.00     0.429 C 
ATOM     20  F   UNL A   1      31.380  26.125  20.914  1.00  0.00    -0.167 F 
ATOM     21  F   UNL A   1      33.199  25.506  21.931  1.00  0.00    -0.167 F 
ATOM     22  F   UNL A   1      31.270  24.738  22.593  1.00  0.00    -0.167 F 
ENDBRANCH   9  19
ENDBRANCH   5   7
ENDBRANCH   2   3
ENDBRANCH   1   2
BRANCH   1  23
ATOM     23  C   UNL A   1      32.638  30.745  27.255  1.00  0.00     0.118 C 
BRANCH  23  24
ATOM     24  N   UNL A   1      32.837  32.190  27.229  1.00  0.00    -0.352 N 
ATOM     25  C   UNL A   1      33.896  32.969  27.662  1.00  0.00     0.251 C 
ATOM     26  H   UNL A   1      32.089  32.698  26.837  1.00  0.00     0.163 HD
ATOM     27  O   UNL A   1      33.826  34.171  27.603  1.00  0.00    -0.269 OA
BRANCH  25  28
ATOM     28  C   UNL A   1      35.101  32.317  28.237  1.00  0.00     0.039 A 
ATOM     29  C   UNL A   1      36.269  33.072  28.383  1.00  0.00     0.014 A 
ATOM     30  C   UNL A   1      35.084  30.986  28.645  1.00  0.00     0.014 A 
ATOM     31  C   UNL A   1      37.385  32.507  29.006  1.00  0.00     0.010 A 
ATOM     32  C   UNL A   1      36.134  30.476  29.394  1.00  0.00     0.010 A 
ATOM     33  C   UNL A   1      37.311  31.217  29.556  1.00  0.00    -0.014 A 
BRANCH  33  34
ATOM     34  C   UNL A   1      38.464  30.603  30.261  1.00  0.00     0.031 A 
ATOM     35  C   UNL A   1      38.726  30.942  31.707  1.00  0.00     0.074 A 
ATOM     36  C   UNL A   1      39.310  29.798  29.589  1.00  0.00     0.049 A 
ATOM     37  N   UNL A   1      39.707  30.558  32.485  1.00  0.00    -0.248 NA
ATOM     38  C   UNL A   1      37.790  31.877  32.353  1.00  0.00     0.031 C 
ATOM     39  C   UNL A   1      39.212  29.464  28.166  1.00  0.00     0.029 A 
ATOM     40  N   UNL A   1      40.418  29.112  30.013  1.00  0.00    -0.354 N 
ATOM     41  C   UNL A   1      39.518  31.227  33.689  1.00  0.00     0.074 A 
ATOM     42  C   UNL A   1      38.382  32.102  33.514  1.00  0.00     0.031 C 
ATOM     43  C   UNL A   1      40.190  28.601  27.848  1.00  0.00     0.029 A 
ATOM     44  C   UNL A   1      41.002  28.346  29.032  1.00  0.00     0.049 A 
ATOM     45  H   UNL A   1      40.764  29.162  30.933  1.00  0.00     0.167 HD
ATOM     46  C   UNL A   1      40.199  31.093  34.850  1.00  0.00     0.037 A 
ATOM     47  C   UNL A   1      42.066  27.523  29.090  1.00  0.00     0.037 A 
ATOM     48  C   UNL A   1      41.295  30.179  35.031  1.00  0.00     0.049 A 
ATOM     49  C   UNL A   1      42.771  27.346  30.408  1.00  0.00     0.074 A 
ATOM     50  C   UNL A   1      42.012  29.904  36.182  1.00  0.00     0.029 A 
ATOM     51  N   UNL A   1      41.824  29.379  34.028  1.00  0.00    -0.354 N 
ATOM     52  N   UNL A   1      42.532  27.923  31.562  1.00  0.00    -0.248 NA
ATOM     53  C   UNL A   1      43.884  26.389  30.434  1.00  0.00     0.031 C 
ATOM     54  C   UNL A   1      43.003  28.970  35.864  1.00  0.00     0.029 A 
ATOM     55  C   UNL A   1      42.868  28.620  34.530  1.00  0.00     0.049 A 
ATOM     56  H   UNL A   1      41.504  29.356  33.097  1.00  0.00     0.167 HD
ATOM     57  C   UNL A   1      43.443  27.379  32.457  1.00  0.00     0.074 A 
ATOM     58  C   UNL A   1      44.222  26.407  31.715  1.00  0.00     0.031 C 
ATOM     59  C   UNL A   1      43.626  27.659  33.772  1.00  0.00     0.037 A 
BRANCH  46  60
ATOM     60  C   UNL A   1      39.765  31.940  36.013  1.00  0.00     0.064 A 
ATOM     61  C   UNL A   1      38.656  31.597  36.804  1.00  0.00     0.173 A 
ATOM     62  C   UNL A   1      40.474  33.103  36.352  1.00  0.00     0.173 A 
ATOM     63  F   UNL A   1      37.932  30.506  36.515  1.00  0.00    -0.203 F 
ATOM     64  C   UNL A   1      38.251  32.406  37.864  1.00  0.00     0.198 A 
ATOM     65  C   UNL A   1      40.087  33.889  37.435  1.00  0.00     0.198 A 
ATOM     66  F   UNL A   1      41.543  33.478  35.634  1.00  0.00    -0.203 F 
ATOM     67  F   UNL A   1      37.151  32.091  38.561  1.00  0.00    -0.200 F 
ATOM     68  C   UNL A   1      38.971  33.547  38.183  1.00  0.00     0.200 A 
ATOM     69  F   UNL A   1      40.792  34.985  37.751  1.00  0.00    -0.200 F 
ATOM     70  F   UNL A   1      38.584  34.320  39.206  1.00  0.00    -0.200 F 
ENDBRANCH  46  60
BRANCH  47  71
ATOM     71  C   UNL A   1      42.490  26.764  27.884  1.00  0.00     0.064 A 
ATOM     72  C   UNL A   1      41.970  25.489  27.617  1.00  0.00     0.173 A 
ATOM     73  C   UNL A   1      43.422  27.289  26.978  1.00  0.00     0.173 A 
ATOM     74  F   UNL A   1      41.087  24.937  28.462  1.00  0.00    -0.203 F 
ATOM     75  C   UNL A   1      42.386  24.757  26.508  1.00  0.00     0.198 A 
ATOM     76  C   UNL A   1      43.814  26.569  25.851  1.00  0.00     0.198 A 
ATOM     77  F   UNL A   1      43.942  28.508  27.180  1.00  0.00    -0.203 F 
ATOM     78  F   UNL A   1      41.911  23.521  26.307  1.00  0.00    -0.200 F 
ATOM     79  C   UNL A   1      43.304  25.300  25.622  1.00  0.00     0.200 A 
ATOM     80  F   UNL A   1      44.689  27.104  24.988  1.00  0.00    -0.200 F 
ATOM     81  F   UNL A   1      43.704  24.598  24.553  1.00  0.00    -0.200 F 
ENDBRANCH  47  71
BRANCH  59  82
ATOM     82  C   UNL A   1      44.685  26.875  34.491  1.00  0.00     0.064 A 
ATOM     83  C   UNL A   1      46.005  27.338  34.592  1.00  0.00     0.173 A 
ATOM     84  C   UNL A   1      44.371  25.646  35.091  1.00  0.00     0.173 A 
ATOM     85  F   UNL A   1      46.358  28.502  34.025  1.00  0.00    -0.203 F 
ATOM     86  C   UNL A   1      46.983  26.577  35.227  1.00  0.00     0.198 A 
ATOM     87  C   UNL A   1      45.344  24.906  35.758  1.00  0.00     0.198 A 
ATOM     88  F   UNL A   1      43.121  25.164  35.034  1.00  0.00    -0.203 F 
ATOM     89  F   UNL A   1      48.252  27.006  35.250  1.00  0.00    -0.200 F 
ATOM     90  C   UNL A   1      46.651  25.365  35.812  1.00  0.00     0.200 A 
ATOM     91  F   UNL A   1      45.017  23.742  36.337  1.00  0.00    -0.200 F 
ATOM     92  F   UNL A   1      47.594  24.633  36.420  1.00  0.00    -0.200 F 
ENDBRANCH  59  82
ENDBRANCH  33  34
ENDBRANCH  25  28
ENDBRANCH  23  24
ENDBRANCH   1  23
TORSDOF 11
ENDMDL
