MODEL 1
REMARK VINA RESULT:     -10.3      0.000      0.000
REMARK SMILES C=CCN(CC(=O)NCCCNC(=O)c1ccc(-c2c3nc(c(-c4c(F)c(F)c(F)c(F)c4F)c4ccc([nH]4)c(-c4c(F)c(F)c(F)c(F)c4F)c4nc(c(-c5c(F)c(F)c(F)c(F)c5F)c5ccc2[nH]5)C=C4)C=C3)cc1)C(=O)N1CC[C@@H](C(=O)OC)C1
REMARK SMILES IDX 6 1 7 2 8 3 5 5 4 6 3 7 2 8 1 9 78 10 79 11 80 12 81 13
REMARK SMILES IDX 88 14 82 15 83 16 84 17 85 18 86 19 87 20 9 21 10 22 11 23
REMARK SMILES IDX 12 24 13 25 14 27 15 28 16 29 77 30 17 31 76 32 18 33 19 34
REMARK SMILES IDX 20 35 70 36 21 37 75 38 69 39 71 40 22 41 74 42 68 43 67 44
REMARK SMILES IDX 23 46 55 47 35 48 54 49 36 50 39 51 53 52 72 53 37 54 38 55
REMARK SMILES IDX 52 57 73 58 40 59 24 60 25 61 33 62 26 63 27 64 31 65 34 66
REMARK SMILES IDX 28 67 29 68 32 69 30 70 56 71 57 72 65 73 58 74 59 75 63 76
REMARK SMILES IDX 66 77 60 78 61 79 64 80 62 81 41 82 42 83 50 84 43 85 44 86
REMARK SMILES IDX 48 87 51 88 45 89 46 90 49 91 47 92
REMARK H PARENT 8 4 12 26 71 45 39 56
REMARK Flexibility Score: inf
ROOT
ATOM      1  C   UNL A   1      31.583  29.391  24.328  1.00  0.00     0.239 C 
ATOM      2  O   UNL A   1      30.958  28.968  23.346  1.00  0.00    -0.273 OA
ATOM      3  N   UNL A   1      31.030  30.450  24.981  1.00  0.00    -0.354 N 
ATOM      4  H   UNL A   1      30.408  30.993  24.443  1.00  0.00     0.163 HD
ENDROOT
BRANCH   1   5
ATOM      5  C   UNL A   1      32.856  28.661  24.801  1.00  0.00     0.221 C 
BRANCH   5   6
ATOM      6  N   UNL A   1      32.774  27.782  25.975  1.00  0.00    -0.312 N 
BRANCH   6   7
ATOM      7  C   UNL A   1      33.480  28.222  27.177  1.00  0.00     0.149 C 
BRANCH   7   8
ATOM      8  C   UNL A   1      34.656  29.092  26.845  1.00  0.00    -0.013 C 
ATOM      9  C   UNL A   1      34.882  30.267  27.448  1.00  0.00     0.006 C 
ENDBRANCH   7   8
ENDBRANCH   6   7
BRANCH   6  10
ATOM     10  C   UNL A   1      31.885  26.720  26.122  1.00  0.00     0.320 C 
ATOM     11  O   UNL A   1      30.920  26.780  26.885  1.00  0.00    -0.248 OA
BRANCH  10  12
ATOM     12  N   UNL A   1      32.033  25.636  25.295  1.00  0.00    -0.324 N 
ATOM     13  C   UNL A   1      31.235  25.310  24.138  1.00  0.00     0.122 C 
ATOM     14  C   UNL A   1      33.316  24.948  25.172  1.00  0.00     0.136 C 
ATOM     15  C   UNL A   1      31.533  23.835  23.976  1.00  0.00     0.039 C 
ATOM     16  C   UNL A   1      33.060  23.797  24.181  1.00  0.00     0.120 C 
BRANCH  16  17
ATOM     17  C   UNL A   1      33.847  23.996  22.896  1.00  0.00     0.310 C 
ATOM     18  O   UNL A   1      33.643  24.896  22.093  1.00  0.00    -0.252 OA
BRANCH  17  19
ATOM     19  O   UNL A   1      34.851  23.082  22.787  1.00  0.00    -0.469 OA
ATOM     20  C   UNL A   1      35.991  23.328  23.609  1.00  0.00     0.282 C 
ENDBRANCH  17  19
ENDBRANCH  16  17
ENDBRANCH  10  12
ENDBRANCH   6  10
ENDBRANCH   5   6
ENDBRANCH   1   5
BRANCH   3  21
ATOM     21  C   UNL A   1      31.212  30.900  26.342  1.00  0.00     0.117 C 
BRANCH  21  22
ATOM     22  C   UNL A   1      31.226  32.415  26.511  1.00  0.00     0.042 C 
BRANCH  22  23
ATOM     23  C   UNL A   1      32.547  33.002  26.999  1.00  0.00     0.118 C 
BRANCH  23  24
ATOM     24  N   UNL A   1      32.399  34.313  27.612  1.00  0.00    -0.352 N 
ATOM     25  C   UNL A   1      33.022  34.894  28.687  1.00  0.00     0.251 C 
ATOM     26  H   UNL A   1      31.731  34.888  27.175  1.00  0.00     0.163 HD
ATOM     27  O   UNL A   1      32.583  35.959  29.117  1.00  0.00    -0.269 OA
BRANCH  25  28
ATOM     28  C   UNL A   1      34.196  34.276  29.346  1.00  0.00     0.039 A 
ATOM     29  C   UNL A   1      33.975  33.456  30.459  1.00  0.00     0.014 A 
ATOM     30  C   UNL A   1      35.505  34.549  28.944  1.00  0.00     0.014 A 
ATOM     31  C   UNL A   1      35.055  32.874  31.129  1.00  0.00     0.010 A 
ATOM     32  C   UNL A   1      36.577  33.907  29.564  1.00  0.00     0.010 A 
ATOM     33  C   UNL A   1      36.365  33.070  30.669  1.00  0.00    -0.014 A 
BRANCH  33  34
ATOM     34  C   UNL A   1      37.518  32.410  31.338  1.00  0.00     0.031 A 
ATOM     35  C   UNL A   1      38.267  31.299  30.653  1.00  0.00     0.074 A 
ATOM     36  C   UNL A   1      37.861  32.780  32.587  1.00  0.00     0.049 A 
ATOM     37  N   UNL A   1      39.267  30.578  31.095  1.00  0.00    -0.248 NA
ATOM     38  C   UNL A   1      37.818  30.933  29.301  1.00  0.00     0.031 C 
ATOM     39  C   UNL A   1      37.186  33.810  33.378  1.00  0.00     0.029 A 
ATOM     40  N   UNL A   1      38.860  32.327  33.414  1.00  0.00    -0.354 N 
ATOM     41  C   UNL A   1      39.554  29.667  30.086  1.00  0.00     0.074 A 
ATOM     42  C   UNL A   1      38.591  29.892  29.029  1.00  0.00     0.031 C 
ATOM     43  C   UNL A   1      37.802  33.926  34.565  1.00  0.00     0.029 A 
ATOM     44  C   UNL A   1      38.891  32.956  34.634  1.00  0.00     0.049 A 
ATOM     45  H   UNL A   1      39.492  31.618  33.157  1.00  0.00     0.167 HD
ATOM     46  C   UNL A   1      40.545  28.744  30.034  1.00  0.00     0.037 A 
ATOM     47  C   UNL A   1      39.702  32.769  35.692  1.00  0.00     0.037 A 
ATOM     48  C   UNL A   1      41.518  28.538  31.076  1.00  0.00     0.049 A 
ATOM     49  C   UNL A   1      40.794  31.737  35.609  1.00  0.00     0.074 A 
ATOM     50  C   UNL A   1      42.596  27.670  31.091  1.00  0.00     0.029 A 
ATOM     51  N   UNL A   1      41.528  29.209  32.291  1.00  0.00    -0.354 N 
ATOM     52  N   UNL A   1      41.100  30.933  34.620  1.00  0.00    -0.248 NA
ATOM     53  C   UNL A   1      41.661  31.596  36.787  1.00  0.00     0.031 C 
ATOM     54  C   UNL A   1      43.229  27.780  32.334  1.00  0.00     0.029 A 
ATOM     55  C   UNL A   1      42.580  28.757  33.072  1.00  0.00     0.049 A 
ATOM     56  H   UNL A   1      40.882  29.902  32.558  1.00  0.00     0.167 HD
ATOM     57  C   UNL A   1      42.209  30.213  35.044  1.00  0.00     0.074 A 
ATOM     58  C   UNL A   1      42.532  30.688  36.372  1.00  0.00     0.031 C 
ATOM     59  C   UNL A   1      42.896  29.243  34.391  1.00  0.00     0.037 A 
BRANCH  46  60
ATOM     60  C   UNL A   1      40.630  27.883  28.805  1.00  0.00     0.064 A 
ATOM     61  C   UNL A   1      39.981  26.641  28.729  1.00  0.00     0.173 A 
ATOM     62  C   UNL A   1      41.336  28.323  27.674  1.00  0.00     0.173 A 
ATOM     63  F   UNL A   1      39.301  26.169  29.784  1.00  0.00    -0.203 F 
ATOM     64  C   UNL A   1      40.061  25.859  27.580  1.00  0.00     0.198 A 
ATOM     65  C   UNL A   1      41.388  27.551  26.516  1.00  0.00     0.198 A 
ATOM     66  F   UNL A   1      41.969  29.506  27.689  1.00  0.00    -0.203 F 
ATOM     67  F   UNL A   1      39.476  24.653  27.549  1.00  0.00    -0.200 F 
ATOM     68  C   UNL A   1      40.758  26.318  26.472  1.00  0.00     0.200 A 
ATOM     69  F   UNL A   1      42.050  28.003  25.441  1.00  0.00    -0.200 F 
ATOM     70  F   UNL A   1      40.828  25.567  25.364  1.00  0.00    -0.200 F 
ENDBRANCH  46  60
BRANCH  47  71
ATOM     71  C   UNL A   1      39.529  33.597  36.914  1.00  0.00     0.064 A 
ATOM     72  C   UNL A   1      40.175  34.835  37.042  1.00  0.00     0.173 A 
ATOM     73  C   UNL A   1      38.724  33.168  37.980  1.00  0.00     0.173 A 
ATOM     74  F   UNL A   1      40.972  35.279  36.059  1.00  0.00    -0.203 F 
ATOM     75  C   UNL A   1      40.039  35.603  38.197  1.00  0.00     0.198 A 
ATOM     76  C   UNL A   1      38.565  33.951  39.122  1.00  0.00     0.198 A 
ATOM     77  F   UNL A   1      38.081  31.995  37.907  1.00  0.00    -0.203 F 
ATOM     78  F   UNL A   1      40.706  36.759  38.311  1.00  0.00    -0.200 F 
ATOM     79  C   UNL A   1      39.231  35.163  39.233  1.00  0.00     0.200 A 
ATOM     80  F   UNL A   1      37.771  33.530  40.116  1.00  0.00    -0.200 F 
ATOM     81  F   UNL A   1      39.098  35.903  40.342  1.00  0.00    -0.200 F 
ENDBRANCH  47  71
BRANCH  59  82
ATOM     82  C   UNL A   1      44.091  28.660  35.088  1.00  0.00     0.064 A 
ATOM     83  C   UNL A   1      43.986  27.526  35.907  1.00  0.00     0.173 A 
ATOM     84  C   UNL A   1      45.362  29.226  34.910  1.00  0.00     0.173 A 
ATOM     85  F   UNL A   1      42.791  26.956  36.122  1.00  0.00    -0.203 F 
ATOM     86  C   UNL A   1      45.105  27.000  36.548  1.00  0.00     0.198 A 
ATOM     87  C   UNL A   1      46.485  28.678  35.526  1.00  0.00     0.198 A 
ATOM     88  F   UNL A   1      45.519  30.307  34.131  1.00  0.00    -0.203 F 
ATOM     89  F   UNL A   1      44.972  25.950  37.370  1.00  0.00    -0.200 F 
ATOM     90  C   UNL A   1      46.353  27.573  36.352  1.00  0.00     0.200 A 
ATOM     91  F   UNL A   1      47.691  29.223  35.324  1.00  0.00    -0.200 F 
ATOM     92  F   UNL A   1      47.429  27.063  36.966  1.00  0.00    -0.200 F 
ENDBRANCH  59  82
ENDBRANCH  33  34
ENDBRANCH  25  28
ENDBRANCH  23  24
ENDBRANCH  22  23
ENDBRANCH  21  22
ENDBRANCH   3  21
TORSDOF 17
ENDMDL
MODEL 2
REMARK VINA RESULT:     -10.3      1.504      3.378
REMARK SMILES C=CCN(CC(=O)NCCCNC(=O)c1ccc(-c2c3nc(c(-c4c(F)c(F)c(F)c(F)c4F)c4ccc([nH]4)c(-c4c(F)c(F)c(F)c(F)c4F)c4nc(c(-c5c(F)c(F)c(F)c(F)c5F)c5ccc2[nH]5)C=C4)C=C3)cc1)C(=O)N1CC[C@@H](C(=O)OC)C1
REMARK SMILES IDX 6 1 7 2 8 3 5 5 4 6 3 7 2 8 1 9 78 10 79 11 80 12 81 13
REMARK SMILES IDX 88 14 82 15 83 16 84 17 85 18 86 19 87 20 9 21 10 22 11 23
REMARK SMILES IDX 12 24 13 25 14 27 15 28 16 29 77 30 17 31 76 32 18 33 19 34
REMARK SMILES IDX 20 35 70 36 21 37 75 38 69 39 71 40 22 41 74 42 68 43 67 44
REMARK SMILES IDX 23 46 55 47 35 48 54 49 36 50 39 51 53 52 72 53 37 54 38 55
REMARK SMILES IDX 52 57 73 58 40 59 24 60 25 61 33 62 26 63 27 64 31 65 34 66
REMARK SMILES IDX 28 67 29 68 32 69 30 70 56 71 57 72 65 73 58 74 59 75 63 76
REMARK SMILES IDX 66 77 60 78 61 79 64 80 62 81 41 82 42 83 50 84 43 85 44 86
REMARK SMILES IDX 48 87 51 88 45 89 46 90 49 91 47 92
REMARK H PARENT 8 4 12 26 71 45 39 56
REMARK Flexibility Score: inf
ROOT
ATOM      1  C   UNL A   1      32.943  29.412  25.288  1.00  0.00     0.239 C 
ATOM      2  O   UNL A   1      34.039  29.073  25.754  1.00  0.00    -0.273 OA
ATOM      3  N   UNL A   1      32.141  30.142  26.111  1.00  0.00    -0.354 N 
ATOM      4  H   UNL A   1      32.327  30.039  27.073  1.00  0.00     0.163 HD
ENDROOT
BRANCH   1   5
ATOM      5  C   UNL A   1      32.598  29.087  23.821  1.00  0.00     0.221 C 
BRANCH   5   6
ATOM      6  N   UNL A   1      31.930  27.814  23.514  1.00  0.00    -0.312 N 
BRANCH   6   7
ATOM      7  C   UNL A   1      32.016  26.765  24.529  1.00  0.00     0.149 C 
BRANCH   7   8
ATOM      8  C   UNL A   1      30.870  26.830  25.495  1.00  0.00    -0.013 C 
ATOM      9  C   UNL A   1      30.298  25.736  26.015  1.00  0.00     0.006 C 
ENDBRANCH   7   8
ENDBRANCH   6   7
BRANCH   6  10
ATOM     10  C   UNL A   1      31.020  27.615  22.479  1.00  0.00     0.320 C 
ATOM     11  O   UNL A   1      31.222  26.792  21.585  1.00  0.00    -0.248 OA
BRANCH  10  12
ATOM     12  N   UNL A   1      29.818  28.271  22.542  1.00  0.00    -0.324 N 
ATOM     13  C   UNL A   1      28.758  28.053  23.495  1.00  0.00     0.122 C 
ATOM     14  C   UNL A   1      29.657  29.611  21.980  1.00  0.00     0.136 C 
ATOM     15  C   UNL A   1      27.577  28.667  22.774  1.00  0.00     0.039 C 
ATOM     16  C   UNL A   1      28.182  29.977  22.234  1.00  0.00     0.120 C 
BRANCH  16  17
ATOM     17  C   UNL A   1      28.068  31.140  23.206  1.00  0.00     0.310 C 
ATOM     18  O   UNL A   1      27.107  31.341  23.934  1.00  0.00    -0.252 OA
BRANCH  17  19
ATOM     19  O   UNL A   1      29.203  31.894  23.206  1.00  0.00    -0.469 OA
ATOM     20  C   UNL A   1      29.002  33.298  23.046  1.00  0.00     0.282 C 
ENDBRANCH  17  19
ENDBRANCH  16  17
ENDBRANCH  10  12
ENDBRANCH   6  10
ENDBRANCH   5   6
ENDBRANCH   1   5
BRANCH   3  21
ATOM     21  C   UNL A   1      31.060  31.046  25.792  1.00  0.00     0.117 C 
BRANCH  21  22
ATOM     22  C   UNL A   1      31.045  32.330  26.614  1.00  0.00     0.042 C 
BRANCH  22  23
ATOM     23  C   UNL A   1      32.409  32.795  27.116  1.00  0.00     0.118 C 
BRANCH  23  24
ATOM     24  N   UNL A   1      32.400  34.164  27.610  1.00  0.00    -0.352 N 
ATOM     25  C   UNL A   1      33.142  34.791  28.578  1.00  0.00     0.251 C 
ATOM     26  H   UNL A   1      31.742  34.746  27.168  1.00  0.00     0.163 HD
ATOM     27  O   UNL A   1      32.813  35.920  28.934  1.00  0.00    -0.269 OA
BRANCH  25  28
ATOM     28  C   UNL A   1      34.318  34.146  29.210  1.00  0.00     0.039 A 
ATOM     29  C   UNL A   1      34.095  33.240  30.253  1.00  0.00     0.014 A 
ATOM     30  C   UNL A   1      35.627  34.473  28.852  1.00  0.00     0.014 A 
ATOM     31  C   UNL A   1      35.175  32.629  30.897  1.00  0.00     0.010 A 
ATOM     32  C   UNL A   1      36.702  33.805  29.441  1.00  0.00     0.010 A 
ATOM     33  C   UNL A   1      36.489  32.883  30.476  1.00  0.00    -0.014 A 
BRANCH  33  34
ATOM     34  C   UNL A   1      37.643  32.196  31.114  1.00  0.00     0.031 A 
ATOM     35  C   UNL A   1      38.392  31.117  30.380  1.00  0.00     0.074 A 
ATOM     36  C   UNL A   1      37.988  32.512  32.377  1.00  0.00     0.049 A 
ATOM     37  N   UNL A   1      39.394  30.378  30.789  1.00  0.00    -0.248 NA
ATOM     38  C   UNL A   1      37.941  30.810  29.014  1.00  0.00     0.031 C 
ATOM     39  C   UNL A   1      37.313  33.506  33.214  1.00  0.00     0.029 A 
ATOM     40  N   UNL A   1      38.988  32.024  33.182  1.00  0.00    -0.354 N 
ATOM     41  C   UNL A   1      39.680  29.513  29.740  1.00  0.00     0.074 A 
ATOM     42  C   UNL A   1      38.715  29.782  28.696  1.00  0.00     0.031 C 
ATOM     43  C   UNL A   1      37.930  33.570  34.404  1.00  0.00     0.029 A 
ATOM     44  C   UNL A   1      39.020  32.600  34.429  1.00  0.00     0.049 A 
ATOM     45  H   UNL A   1      39.621  31.328  32.894  1.00  0.00     0.167 HD
ATOM     46  C   UNL A   1      40.672  28.594  29.647  1.00  0.00     0.037 A 
ATOM     47  C   UNL A   1      39.833  32.368  35.477  1.00  0.00     0.037 A 
ATOM     48  C   UNL A   1      41.647  28.344  30.677  1.00  0.00     0.049 A 
ATOM     49  C   UNL A   1      40.926  31.342  35.347  1.00  0.00     0.074 A 
ATOM     50  C   UNL A   1      42.726  27.477  30.654  1.00  0.00     0.029 A 
ATOM     51  N   UNL A   1      41.658  28.961  31.920  1.00  0.00    -0.354 N 
ATOM     52  N   UNL A   1      41.232  30.582  34.324  1.00  0.00    -0.248 NA
ATOM     53  C   UNL A   1      41.795  31.150  36.517  1.00  0.00     0.031 C 
ATOM     54  C   UNL A   1      43.361  27.534  31.898  1.00  0.00     0.029 A 
ATOM     55  C   UNL A   1      42.712  28.477  32.680  1.00  0.00     0.049 A 
ATOM     56  H   UNL A   1      41.012  29.642  32.219  1.00  0.00     0.167 HD
ATOM     57  C   UNL A   1      42.342  29.845  34.714  1.00  0.00     0.074 A 
ATOM     58  C   UNL A   1      42.667  30.262  36.061  1.00  0.00     0.031 C 
ATOM     59  C   UNL A   1      43.029  28.906  34.018  1.00  0.00     0.037 A 
BRANCH  46  60
ATOM     60  C   UNL A   1      40.756  27.788  28.382  1.00  0.00     0.064 A 
ATOM     61  C   UNL A   1      41.488  28.234  27.271  1.00  0.00     0.173 A 
ATOM     62  C   UNL A   1      40.130  26.535  28.291  1.00  0.00     0.173 A 
ATOM     63  F   UNL A   1      42.099  29.428  27.300  1.00  0.00    -0.203 F 
ATOM     64  C   UNL A   1      41.565  27.473  26.108  1.00  0.00     0.198 A 
ATOM     65  C   UNL A   1      40.234  25.762  27.137  1.00  0.00     0.198 A 
ATOM     66  F   UNL A   1      39.422  26.056  29.326  1.00  0.00    -0.203 F 
ATOM     67  F   UNL A   1      42.228  27.943  25.042  1.00  0.00    -0.200 F 
ATOM     68  C   UNL A   1      40.945  26.234  26.045  1.00  0.00     0.200 A 
ATOM     69  F   UNL A   1      39.646  24.559  27.083  1.00  0.00    -0.200 F 
ATOM     70  F   UNL A   1      41.025  25.499  24.928  1.00  0.00    -0.200 F 
ENDBRANCH  46  60
BRANCH  47  71
ATOM     71  C   UNL A   1      39.661  33.141  36.734  1.00  0.00     0.064 A 
ATOM     72  C   UNL A   1      38.746  32.730  37.713  1.00  0.00     0.173 A 
ATOM     73  C   UNL A   1      40.400  34.308  36.981  1.00  0.00     0.173 A 
ATOM     74  F   UNL A   1      38.001  31.632  37.514  1.00  0.00    -0.203 F 
ATOM     75  C   UNL A   1      38.561  33.467  38.881  1.00  0.00     0.198 A 
ATOM     76  C   UNL A   1      40.235  35.027  38.163  1.00  0.00     0.198 A 
ATOM     77  F   UNL A   1      41.292  34.742  36.079  1.00  0.00    -0.203 F 
ATOM     78  F   UNL A   1      37.645  33.077  39.778  1.00  0.00    -0.200 F 
ATOM     79  C   UNL A   1      39.309  34.611  39.107  1.00  0.00     0.200 A 
ATOM     80  F   UNL A   1      40.971  36.126  38.385  1.00  0.00    -0.200 F 
ATOM     81  F   UNL A   1      39.133  35.317  40.232  1.00  0.00    -0.200 F 
ENDBRANCH  47  71
BRANCH  59  82
ATOM     82  C   UNL A   1      44.226  28.294  34.687  1.00  0.00     0.064 A 
ATOM     83  C   UNL A   1      44.129  27.108  35.430  1.00  0.00     0.173 A 
ATOM     84  C   UNL A   1      45.490  28.886  34.558  1.00  0.00     0.173 A 
ATOM     85  F   UNL A   1      42.940  26.509  35.596  1.00  0.00    -0.203 F 
ATOM     86  C   UNL A   1      45.249  26.556  36.046  1.00  0.00     0.198 A 
ATOM     87  C   UNL A   1      46.615  28.315  35.149  1.00  0.00     0.198 A 
ATOM     88  F   UNL A   1      45.639  30.018  33.853  1.00  0.00    -0.203 F 
ATOM     89  F   UNL A   1      45.124  25.452  36.797  1.00  0.00    -0.200 F 
ATOM     90  C   UNL A   1      46.492  27.156  35.900  1.00  0.00     0.200 A 
ATOM     91  F   UNL A   1      47.816  28.888  34.995  1.00  0.00    -0.200 F 
ATOM     92  F   UNL A   1      47.569  26.621  36.490  1.00  0.00    -0.200 F 
ENDBRANCH  59  82
ENDBRANCH  33  34
ENDBRANCH  25  28
ENDBRANCH  23  24
ENDBRANCH  22  23
ENDBRANCH  21  22
ENDBRANCH   3  21
TORSDOF 17
ENDMDL
MODEL 3
REMARK VINA RESULT:     -10.3      5.758     11.033
REMARK SMILES C=CCN(CC(=O)NCCCNC(=O)c1ccc(-c2c3nc(c(-c4c(F)c(F)c(F)c(F)c4F)c4ccc([nH]4)c(-c4c(F)c(F)c(F)c(F)c4F)c4nc(c(-c5c(F)c(F)c(F)c(F)c5F)c5ccc2[nH]5)C=C4)C=C3)cc1)C(=O)N1CC[C@@H](C(=O)OC)C1
REMARK SMILES IDX 6 1 7 2 8 3 5 5 4 6 3 7 2 8 1 9 78 10 79 11 80 12 81 13
REMARK SMILES IDX 88 14 82 15 83 16 84 17 85 18 86 19 87 20 9 21 10 22 11 23
REMARK SMILES IDX 12 24 13 25 14 27 15 28 16 29 77 30 17 31 76 32 18 33 19 34
REMARK SMILES IDX 20 35 70 36 21 37 75 38 69 39 71 40 22 41 74 42 68 43 67 44
REMARK SMILES IDX 23 46 55 47 35 48 54 49 36 50 39 51 53 52 72 53 37 54 38 55
REMARK SMILES IDX 52 57 73 58 40 59 24 60 25 61 33 62 26 63 27 64 31 65 34 66
REMARK SMILES IDX 28 67 29 68 32 69 30 70 56 71 57 72 65 73 58 74 59 75 63 76
REMARK SMILES IDX 66 77 60 78 61 79 64 80 62 81 41 82 42 83 50 84 43 85 44 86
REMARK SMILES IDX 48 87 51 88 45 89 46 90 49 91 47 92
REMARK H PARENT 8 4 12 26 71 45 39 56
REMARK Flexibility Score: inf
ROOT
ATOM      1  C   UNL A   1      37.409  23.564  25.580  1.00  0.00     0.239 C 
ATOM      2  O   UNL A   1      37.936  24.189  26.509  1.00  0.00    -0.273 OA
ATOM      3  N   UNL A   1      37.990  22.378  25.247  1.00  0.00    -0.354 N 
ATOM      4  H   UNL A   1      38.936  22.291  25.508  1.00  0.00     0.163 HD
ENDROOT
BRANCH   1   5
ATOM      5  C   UNL A   1      36.110  24.093  24.938  1.00  0.00     0.221 C 
BRANCH   5   6
ATOM      6  N   UNL A   1      34.865  24.050  25.718  1.00  0.00    -0.312 N 
BRANCH   6   7
ATOM      7  C   UNL A   1      34.012  25.236  25.660  1.00  0.00     0.149 C 
BRANCH   7   8
ATOM      8  C   UNL A   1      33.745  25.662  24.247  1.00  0.00    -0.013 C 
ATOM      9  C   UNL A   1      32.722  25.182  23.527  1.00  0.00     0.006 C 
ENDBRANCH   7   8
ENDBRANCH   6   7
BRANCH   6  10
ATOM     10  C   UNL A   1      34.311  22.903  26.282  1.00  0.00     0.320 C 
ATOM     11  O   UNL A   1      34.356  22.689  27.494  1.00  0.00    -0.248 OA
BRANCH  10  12
ATOM     12  N   UNL A   1      33.594  22.066  25.468  1.00  0.00    -0.324 N 
ATOM     13  C   UNL A   1      33.817  21.817  24.064  1.00  0.00     0.122 C 
ATOM     14  C   UNL A   1      32.839  20.941  26.015  1.00  0.00     0.136 C 
ATOM     15  C   UNL A   1      32.478  21.252  23.644  1.00  0.00     0.039 C 
ATOM     16  C   UNL A   1      32.171  20.276  24.797  1.00  0.00     0.120 C 
BRANCH  16  17
ATOM     17  C   UNL A   1      32.722  18.878  24.568  1.00  0.00     0.310 C 
ATOM     18  O   UNL A   1      33.237  18.500  23.525  1.00  0.00    -0.252 OA
BRANCH  17  19
ATOM     19  O   UNL A   1      32.626  18.120  25.696  1.00  0.00    -0.469 OA
ATOM     20  C   UNL A   1      32.557  16.711  25.479  1.00  0.00     0.282 C 
ENDBRANCH  17  19
ENDBRANCH  16  17
ENDBRANCH  10  12
ENDBRANCH   6  10
ENDBRANCH   5   6
ENDBRANCH   1   5
BRANCH   3  21
ATOM     21  C   UNL A   1      37.435  21.229  24.571  1.00  0.00     0.117 C 
BRANCH  21  22
ATOM     22  C   UNL A   1      38.185  19.926  24.819  1.00  0.00     0.042 C 
BRANCH  22  23
ATOM     23  C   UNL A   1      38.979  19.871  26.121  1.00  0.00     0.118 C 
BRANCH  23  24
ATOM     24  N   UNL A   1      40.164  19.031  26.034  1.00  0.00    -0.352 N 
ATOM     25  C   UNL A   1      41.502  19.335  26.046  1.00  0.00     0.251 C 
ATOM     26  H   UNL A   1      39.971  18.070  25.951  1.00  0.00     0.163 HD
ATOM     27  O   UNL A   1      42.309  18.449  25.773  1.00  0.00    -0.269 OA
BRANCH  25  28
ATOM     28  C   UNL A   1      41.998  20.693  26.368  1.00  0.00     0.039 A 
ATOM     29  C   UNL A   1      42.141  21.612  25.322  1.00  0.00     0.014 A 
ATOM     30  C   UNL A   1      42.397  21.053  27.657  1.00  0.00     0.014 A 
ATOM     31  C   UNL A   1      42.632  22.896  25.574  1.00  0.00     0.010 A 
ATOM     32  C   UNL A   1      42.813  22.358  27.923  1.00  0.00     0.010 A 
ATOM     33  C   UNL A   1      42.944  23.291  26.884  1.00  0.00    -0.014 A 
BRANCH  33  34
ATOM     34  C   UNL A   1      43.413  24.672  27.175  1.00  0.00     0.031 A 
ATOM     35  C   UNL A   1      42.470  25.694  27.751  1.00  0.00     0.074 A 
ATOM     36  C   UNL A   1      44.678  25.021  26.874  1.00  0.00     0.049 A 
ATOM     37  N   UNL A   1      42.685  26.956  28.030  1.00  0.00    -0.248 NA
ATOM     38  C   UNL A   1      41.097  25.246  28.029  1.00  0.00     0.031 C 
ATOM     39  C   UNL A   1      45.676  24.138  26.269  1.00  0.00     0.029 A 
ATOM     40  N   UNL A   1      45.341  26.214  27.030  1.00  0.00    -0.354 N 
ATOM     41  C   UNL A   1      41.476  27.453  28.499  1.00  0.00     0.074 A 
ATOM     42  C   UNL A   1      40.517  26.372  28.420  1.00  0.00     0.031 C 
ATOM     43  C   UNL A   1      46.829  24.811  26.124  1.00  0.00     0.029 A 
ATOM     44  C   UNL A   1      46.642  26.181  26.593  1.00  0.00     0.049 A 
ATOM     45  H   UNL A   1      44.922  27.016  27.416  1.00  0.00     0.167 HD
ATOM     46  C   UNL A   1      41.196  28.691  28.974  1.00  0.00     0.037 A 
ATOM     47  C   UNL A   1      47.579  27.148  26.567  1.00  0.00     0.037 A 
ATOM     48  C   UNL A   1      42.157  29.759  29.075  1.00  0.00     0.049 A 
ATOM     49  C   UNL A   1      47.242  28.514  27.101  1.00  0.00     0.074 A 
ATOM     50  C   UNL A   1      41.985  31.029  29.599  1.00  0.00     0.029 A 
ATOM     51  N   UNL A   1      43.472  29.681  28.639  1.00  0.00    -0.354 N 
ATOM     52  N   UNL A   1      46.115  28.950  27.609  1.00  0.00    -0.248 NA
ATOM     53  C   UNL A   1      48.313  29.519  27.067  1.00  0.00     0.031 C 
ATOM     54  C   UNL A   1      43.181  31.735  29.436  1.00  0.00     0.029 A 
ATOM     55  C   UNL A   1      44.116  30.888  28.862  1.00  0.00     0.049 A 
ATOM     56  H   UNL A   1      43.886  28.886  28.232  1.00  0.00     0.167 HD
ATOM     57  C   UNL A   1      46.349  30.267  27.981  1.00  0.00     0.074 A 
ATOM     58  C   UNL A   1      47.730  30.553  27.657  1.00  0.00     0.031 C 
ATOM     59  C   UNL A   1      45.494  31.159  28.541  1.00  0.00     0.037 A 
BRANCH  46  60
ATOM     60  C   UNL A   1      39.788  28.960  29.427  1.00  0.00     0.064 A 
ATOM     61  C   UNL A   1      39.393  28.768  30.760  1.00  0.00     0.173 A 
ATOM     62  C   UNL A   1      38.831  29.453  28.526  1.00  0.00     0.173 A 
ATOM     63  F   UNL A   1      40.265  28.289  31.660  1.00  0.00    -0.203 F 
ATOM     64  C   UNL A   1      38.088  29.029  31.167  1.00  0.00     0.198 A 
ATOM     65  C   UNL A   1      37.534  29.743  28.944  1.00  0.00     0.198 A 
ATOM     66  F   UNL A   1      39.156  29.662  27.241  1.00  0.00    -0.203 F 
ATOM     67  F   UNL A   1      37.721  28.790  32.433  1.00  0.00    -0.200 F 
ATOM     68  C   UNL A   1      37.162  29.524  30.260  1.00  0.00     0.200 A 
ATOM     69  F   UNL A   1      36.645  30.235  28.069  1.00  0.00    -0.200 F 
ATOM     70  F   UNL A   1      35.908  29.783  30.655  1.00  0.00    -0.200 F 
ENDBRANCH  46  60
BRANCH  47  71
ATOM     71  C   UNL A   1      48.937  26.851  26.040  1.00  0.00     0.064 A 
ATOM     72  C   UNL A   1      49.264  27.115  24.703  1.00  0.00     0.173 A 
ATOM     73  C   UNL A   1      49.931  26.292  26.857  1.00  0.00     0.173 A 
ATOM     74  F   UNL A   1      48.341  27.629  23.877  1.00  0.00    -0.203 F 
ATOM     75  C   UNL A   1      50.526  26.813  24.197  1.00  0.00     0.198 A 
ATOM     76  C   UNL A   1      51.203  26.018  26.357  1.00  0.00     0.198 A 
ATOM     77  F   UNL A   1      49.672  26.025  28.145  1.00  0.00    -0.203 F 
ATOM     78  F   UNL A   1      50.796  27.031  22.903  1.00  0.00    -0.200 F 
ATOM     79  C   UNL A   1      51.496  26.270  25.025  1.00  0.00     0.200 A 
ATOM     80  F   UNL A   1      52.143  25.507  27.164  1.00  0.00    -0.200 F 
ATOM     81  F   UNL A   1      52.711  25.983  24.539  1.00  0.00    -0.200 F 
ENDBRANCH  47  71
BRANCH  59  82
ATOM     82  C   UNL A   1      46.041  32.517  28.874  1.00  0.00     0.064 A 
ATOM     83  C   UNL A   1      46.660  32.782  30.104  1.00  0.00     0.173 A 
ATOM     84  C   UNL A   1      45.969  33.559  27.937  1.00  0.00     0.173 A 
ATOM     85  F   UNL A   1      46.741  31.824  31.040  1.00  0.00    -0.203 F 
ATOM     86  C   UNL A   1      47.159  34.049  30.396  1.00  0.00     0.198 A 
ATOM     87  C   UNL A   1      46.497  34.816  28.220  1.00  0.00     0.198 A 
ATOM     88  F   UNL A   1      45.393  33.357  26.742  1.00  0.00    -0.203 F 
ATOM     89  F   UNL A   1      47.697  34.294  31.599  1.00  0.00    -0.200 F 
ATOM     90  C   UNL A   1      47.083  35.062  29.452  1.00  0.00     0.200 A 
ATOM     91  F   UNL A   1      46.436  35.789  27.301  1.00  0.00    -0.200 F 
ATOM     92  F   UNL A   1      47.567  36.280  29.733  1.00  0.00    -0.200 F 
ENDBRANCH  59  82
ENDBRANCH  33  34
ENDBRANCH  25  28
ENDBRANCH  23  24
ENDBRANCH  22  23
ENDBRANCH  21  22
ENDBRANCH   3  21
TORSDOF 17
ENDMDL
