MODEL 1
REMARK VINA RESULT:     -12.0      0.000      0.000
REMARK SMILES CN(C)C(=O)C[NH+]1CCN(c2cc(C(=O)NCCCNC(=O)c3ccc(-c4c5nc(c(-c6c(F)c(F)c(F)c(F)c6F)c6ccc([nH]6)c(-c6c(F)c(F)c(F)c(F)c6F)c6nc(c(-c7c(F)c(F)c(F)c(F)c7F)c7ccc4[nH]7)C=C6)C=C5)cc3)c3cc(NC(=O)c4cccc(Cl)c4)ccc3n2)CC1
REMARK SMILES IDX 17 1 16 2 14 3 15 4 13 6 11 7 12 8 102 9 101 10 86 11 100 12
REMARK SMILES IDX 87 13 99 14 88 15 10 16 7 17 8 18 104 19 9 21 103 22 6 23
REMARK SMILES IDX 4 24 1 25 2 26 3 27 5 28 89 29 90 30 91 32 92 33 93 34 98 35
REMARK SMILES IDX 94 36 96 37 95 38 97 39 18 40 19 41 20 42 21 43 22 45 23 46
REMARK SMILES IDX 24 47 85 48 25 49 84 50 26 51 27 52 28 53 78 54 29 55 83 56
REMARK SMILES IDX 77 57 79 58 30 59 82 60 76 61 75 62 31 64 63 65 43 66 62 67
REMARK SMILES IDX 44 68 47 69 61 70 80 71 45 72 46 73 60 75 81 76 48 77 32 78
REMARK SMILES IDX 33 79 41 80 34 81 35 82 39 83 42 84 36 85 37 86 40 87 38 88
REMARK SMILES IDX 64 89 65 90 73 91 66 92 67 93 71 94 74 95 68 96 69 97 72 98
REMARK SMILES IDX 70 99 49 100 50 101 58 102 51 103 52 104 56 105 59 106
REMARK SMILES IDX 53 107 54 108 57 109 55 110
REMARK H PARENT 16 5 7 20 89 31 20 44 79 63 47 74
REMARK Flexibility Score: inf
ROOT
ATOM      1  C   UNL A   1      36.278  29.695  30.470  1.00  0.00     0.118 C 
ENDROOT
BRANCH   1   2
ATOM      2  N   UNL A   1      36.889  29.619  29.158  1.00  0.00    -0.352 N 
ATOM      3  C   UNL A   1      36.384  29.856  27.890  1.00  0.00     0.252 C 
ATOM      4  O   UNL A   1      37.234  29.957  26.999  1.00  0.00    -0.269 OA
ATOM      5  H   UNL A   1      37.836  29.349  29.171  1.00  0.00     0.163 HD
BRANCH   3   6
ATOM      6  C   UNL A   1      34.928  29.916  27.484  1.00  0.00     0.052 A 
ATOM      7  C   UNL A   1      33.129  28.640  26.470  1.00  0.00     0.130 A 
ATOM      8  C   UNL A   1      34.432  28.720  26.948  1.00  0.00     0.061 A 
ATOM      9  N   UNL A   1      32.272  29.666  26.614  1.00  0.00    -0.231 NA
ATOM     10  C   UNL A   1      32.719  30.833  27.080  1.00  0.00     0.074 A 
ATOM     11  C   UNL A   1      34.060  31.028  27.449  1.00  0.00     0.015 A 
ATOM     12  C   UNL A   1      31.834  31.909  27.125  1.00  0.00     0.031 A 
ATOM     13  C   UNL A   1      34.461  32.351  27.637  1.00  0.00     0.037 A 
ATOM     14  C   UNL A   1      32.261  33.215  27.397  1.00  0.00     0.028 A 
ATOM     15  C   UNL A   1      33.615  33.450  27.561  1.00  0.00     0.042 A 
BRANCH   7  16
ATOM     16  N   UNL A   1      32.716  27.530  25.763  1.00  0.00    -0.345 N 
ATOM     17  N   UNL A   1      33.640  25.715  23.645  1.00  0.00    -0.324 N 
ATOM     18  C   UNL A   1      33.190  27.102  23.377  1.00  0.00     0.284 C 
ATOM     19  C   UNL A   1      34.204  25.681  25.023  1.00  0.00     0.284 C 
ATOM     20  H   UNL A   1      34.355  25.430  22.977  1.00  0.00     0.348 HD
ATOM     21  C   UNL A   1      32.196  27.690  24.408  1.00  0.00     0.179 C 
ATOM     22  C   UNL A   1      33.262  26.215  26.124  1.00  0.00     0.179 C 
BRANCH  17  23
ATOM     23  C   UNL A   1      32.512  24.764  23.486  1.00  0.00     0.363 C 
BRANCH  23  24
ATOM     24  C   UNL A   1      33.017  23.320  23.337  1.00  0.00     0.277 C 
ATOM     25  C   UNL A   1      32.864  20.975  23.943  1.00  0.00     0.146 C 
ATOM     26  N   UNL A   1      32.531  22.359  24.220  1.00  0.00    -0.344 N 
ATOM     27  C   UNL A   1      31.501  22.629  25.209  1.00  0.00     0.146 C 
ATOM     28  O   UNL A   1      33.816  23.039  22.439  1.00  0.00    -0.268 OA
ENDBRANCH  23  24
ENDBRANCH  17  23
ENDBRANCH   7  16
BRANCH  15  29
ATOM     29  N   UNL A   1      34.100  34.766  27.635  1.00  0.00    -0.322 N 
ATOM     30  C   UNL A   1      33.992  35.711  28.645  1.00  0.00     0.255 C 
ATOM     31  H   UNL A   1      34.598  35.068  26.841  1.00  0.00     0.170 HD
ATOM     32  O   UNL A   1      34.192  36.896  28.381  1.00  0.00    -0.269 OA
BRANCH  30  33
ATOM     33  C   UNL A   1      33.649  35.333  30.050  1.00  0.00     0.041 A 
ATOM     34  C   UNL A   1      34.549  34.528  30.754  1.00  0.00     0.014 A 
ATOM     35  C   UNL A   1      32.522  35.830  30.715  1.00  0.00     0.034 A 
ATOM     36  C   UNL A   1      34.405  34.331  32.132  1.00  0.00     0.002 A 
ATOM     37  C   UNL A   1      32.412  35.676  32.100  1.00  0.00     0.041 A 
ATOM     38  C   UNL A   1      33.363  34.951  32.815  1.00  0.00     0.020 A 
ATOM     39  Cl  UNL A   1      31.128  36.450  32.941  1.00  0.00    -0.084 Cl
ENDBRANCH  30  33
ENDBRANCH  15  29
ENDBRANCH   3   6
ENDBRANCH   1   2
BRANCH   1  40
ATOM     40  C   UNL A   1      36.204  31.037  31.178  1.00  0.00     0.042 C 
BRANCH  40  41
ATOM     41  C   UNL A   1      36.387  31.027  32.693  1.00  0.00     0.118 C 
BRANCH  41  42
ATOM     42  N   UNL A   1      36.775  32.300  33.309  1.00  0.00    -0.352 N 
ATOM     43  C   UNL A   1      37.978  32.963  33.440  1.00  0.00     0.251 C 
ATOM     44  H   UNL A   1      36.018  32.784  33.712  1.00  0.00     0.163 HD
ATOM     45  O   UNL A   1      38.042  34.053  34.007  1.00  0.00    -0.269 OA
BRANCH  43  46
ATOM     46  C   UNL A   1      39.202  32.389  32.883  1.00  0.00     0.039 A 
ATOM     47  C   UNL A   1      40.013  31.516  33.623  1.00  0.00     0.014 A 
ATOM     48  C   UNL A   1      39.543  32.750  31.589  1.00  0.00     0.014 A 
ATOM     49  C   UNL A   1      41.109  30.917  33.002  1.00  0.00     0.010 A 
ATOM     50  C   UNL A   1      40.518  32.042  30.934  1.00  0.00     0.010 A 
ATOM     51  C   UNL A   1      41.326  31.135  31.635  1.00  0.00    -0.014 A 
BRANCH  51  52
ATOM     52  C   UNL A   1      42.383  30.477  30.842  1.00  0.00     0.031 A 
ATOM     53  C   UNL A   1      43.628  31.263  30.539  1.00  0.00     0.074 A 
ATOM     54  C   UNL A   1      42.101  29.320  30.217  1.00  0.00     0.049 A 
ATOM     55  N   UNL A   1      44.520  31.082  29.603  1.00  0.00    -0.248 NA
ATOM     56  C   UNL A   1      43.834  32.487  31.338  1.00  0.00     0.031 C 
ATOM     57  C   UNL A   1      40.874  28.538  30.388  1.00  0.00     0.029 A 
ATOM     58  N   UNL A   1      42.806  28.627  29.270  1.00  0.00    -0.354 N 
ATOM     59  C   UNL A   1      45.351  32.194  29.666  1.00  0.00     0.074 A 
ATOM     60  C   UNL A   1      44.807  33.081  30.667  1.00  0.00     0.031 C 
ATOM     61  C   UNL A   1      40.920  27.465  29.585  1.00  0.00     0.029 A 
ATOM     62  C   UNL A   1      42.152  27.511  28.808  1.00  0.00     0.049 A 
ATOM     63  H   UNL A   1      43.697  28.902  28.951  1.00  0.00     0.167 HD
ATOM     64  C   UNL A   1      46.486  32.429  28.967  1.00  0.00     0.037 A 
ATOM     65  C   UNL A   1      42.513  26.639  27.851  1.00  0.00     0.037 A 
ATOM     66  C   UNL A   1      47.018  31.489  28.018  1.00  0.00     0.049 A 
ATOM     67  C   UNL A   1      43.812  26.882  27.133  1.00  0.00     0.074 A 
ATOM     68  C   UNL A   1      48.209  31.538  27.321  1.00  0.00     0.029 A 
ATOM     69  N   UNL A   1      46.380  30.310  27.647  1.00  0.00    -0.354 N 
ATOM     70  N   UNL A   1      44.648  27.887  27.255  1.00  0.00    -0.248 NA
ATOM     71  C   UNL A   1      44.222  25.872  26.153  1.00  0.00     0.031 C 
ATOM     72  C   UNL A   1      48.271  30.411  26.494  1.00  0.00     0.029 A 
ATOM     73  C   UNL A   1      47.143  29.632  26.712  1.00  0.00     0.049 A 
ATOM     74  H   UNL A   1      45.513  30.003  27.997  1.00  0.00     0.167 HD
ATOM     75  C   UNL A   1      45.693  27.625  26.383  1.00  0.00     0.074 A 
ATOM     76  C   UNL A   1      45.393  26.351  25.756  1.00  0.00     0.031 C 
ATOM     77  C   UNL A   1      46.796  28.366  26.114  1.00  0.00     0.037 A 
BRANCH  64  78
ATOM     78  C   UNL A   1      47.211  33.722  29.222  1.00  0.00     0.064 A 
ATOM     79  C   UNL A   1      48.220  33.826  30.195  1.00  0.00     0.173 A 
ATOM     80  C   UNL A   1      46.893  34.878  28.494  1.00  0.00     0.173 A 
ATOM     81  F   UNL A   1      48.563  32.757  30.931  1.00  0.00    -0.203 F 
ATOM     82  C   UNL A   1      48.841  35.044  30.466  1.00  0.00     0.198 A 
ATOM     83  C   UNL A   1      47.545  36.086  28.739  1.00  0.00     0.198 A 
ATOM     84  F   UNL A   1      45.942  34.845  27.550  1.00  0.00    -0.203 F 
ATOM     85  F   UNL A   1      49.741  35.129  31.455  1.00  0.00    -0.200 F 
ATOM     86  C   UNL A   1      48.507  36.171  29.734  1.00  0.00     0.200 A 
ATOM     87  F   UNL A   1      47.232  37.174  28.020  1.00  0.00    -0.200 F 
ATOM     88  F   UNL A   1      49.105  37.342  29.994  1.00  0.00    -0.200 F 
ENDBRANCH  64  78
BRANCH  65  89
ATOM     89  C   UNL A   1      41.670  25.445  27.580  1.00  0.00     0.064 A 
ATOM     90  C   UNL A   1      41.950  24.224  28.212  1.00  0.00     0.173 A 
ATOM     91  C   UNL A   1      40.548  25.500  26.741  1.00  0.00     0.173 A 
ATOM     92  F   UNL A   1      43.016  24.118  29.017  1.00  0.00    -0.203 F 
ATOM     93  C   UNL A   1      41.150  23.104  28.004  1.00  0.00     0.198 A 
ATOM     94  C   UNL A   1      39.731  24.385  26.555  1.00  0.00     0.198 A 
ATOM     95  F   UNL A   1      40.224  26.647  26.127  1.00  0.00    -0.203 F 
ATOM     96  F   UNL A   1      41.460  21.943  28.597  1.00  0.00    -0.200 F 
ATOM     97  C   UNL A   1      40.036  23.186  27.181  1.00  0.00     0.200 A 
ATOM     98  F   UNL A   1      38.643  24.475  25.778  1.00  0.00    -0.200 F 
ATOM     99  F   UNL A   1      39.257  22.112  26.994  1.00  0.00    -0.200 F 
ENDBRANCH  65  89
BRANCH  77 100
ATOM    100  C   UNL A   1      47.754  27.802  25.109  1.00  0.00     0.064 A 
ATOM    101  C   UNL A   1      47.547  27.964  23.731  1.00  0.00     0.173 A 
ATOM    102  C   UNL A   1      48.913  27.134  25.529  1.00  0.00     0.173 A 
ATOM    103  F   UNL A   1      46.444  28.584  23.282  1.00  0.00    -0.203 F 
ATOM    104  C   UNL A   1      48.453  27.451  22.809  1.00  0.00     0.198 A 
ATOM    105  C   UNL A   1      49.836  26.654  24.606  1.00  0.00     0.198 A 
ATOM    106  F   UNL A   1      49.159  26.963  26.838  1.00  0.00    -0.203 F 
ATOM    107  F   UNL A   1      48.209  27.570  21.497  1.00  0.00    -0.200 F 
ATOM    108  C   UNL A   1      49.600  26.806  23.248  1.00  0.00     0.200 A 
ATOM    109  F   UNL A   1      50.952  26.047  25.030  1.00  0.00    -0.200 F 
ATOM    110  F   UNL A   1      50.478  26.322  22.358  1.00  0.00    -0.200 F 
ENDBRANCH  77 100
ENDBRANCH  51  52
ENDBRANCH  43  46
ENDBRANCH  41  42
ENDBRANCH  40  41
ENDBRANCH   1  40
TORSDOF 15
ENDMDL
MODEL 2
REMARK VINA RESULT:     -11.8      4.783     10.469
REMARK SMILES CN(C)C(=O)C[NH+]1CCN(c2cc(C(=O)NCCCNC(=O)c3ccc(-c4c5nc(c(-c6c(F)c(F)c(F)c(F)c6F)c6ccc([nH]6)c(-c6c(F)c(F)c(F)c(F)c6F)c6nc(c(-c7c(F)c(F)c(F)c(F)c7F)c7ccc4[nH]7)C=C6)C=C5)cc3)c3cc(NC(=O)c4cccc(Cl)c4)ccc3n2)CC1
REMARK SMILES IDX 17 1 16 2 14 3 15 4 13 6 11 7 12 8 102 9 101 10 86 11 100 12
REMARK SMILES IDX 87 13 99 14 88 15 10 16 7 17 8 18 104 19 9 21 103 22 6 23
REMARK SMILES IDX 4 24 1 25 2 26 3 27 5 28 89 29 90 30 91 32 92 33 93 34 98 35
REMARK SMILES IDX 94 36 96 37 95 38 97 39 18 40 19 41 20 42 21 43 22 45 23 46
REMARK SMILES IDX 24 47 85 48 25 49 84 50 26 51 27 52 28 53 78 54 29 55 83 56
REMARK SMILES IDX 77 57 79 58 30 59 82 60 76 61 75 62 31 64 63 65 43 66 62 67
REMARK SMILES IDX 44 68 47 69 61 70 80 71 45 72 46 73 60 75 81 76 48 77 32 78
REMARK SMILES IDX 33 79 41 80 34 81 35 82 39 83 42 84 36 85 37 86 40 87 38 88
REMARK SMILES IDX 64 89 65 90 73 91 66 92 67 93 71 94 74 95 68 96 69 97 72 98
REMARK SMILES IDX 70 99 49 100 50 101 58 102 51 103 52 104 56 105 59 106
REMARK SMILES IDX 53 107 54 108 57 109 55 110
REMARK H PARENT 16 5 7 20 89 31 20 44 79 63 47 74
REMARK Flexibility Score: inf
ROOT
ATOM      1  C   UNL A   1      32.168  27.752  27.272  1.00  0.00     0.118 C 
ENDROOT
BRANCH   1   2
ATOM      2  N   UNL A   1      31.570  26.453  27.503  1.00  0.00    -0.352 N 
ATOM      3  C   UNL A   1      31.436  25.341  26.687  1.00  0.00     0.252 C 
ATOM      4  O   UNL A   1      31.111  24.301  27.270  1.00  0.00    -0.269 OA
ATOM      5  H   UNL A   1      31.189  26.340  28.403  1.00  0.00     0.163 HD
BRANCH   3   6
ATOM      6  C   UNL A   1      31.563  25.293  25.180  1.00  0.00     0.052 A 
ATOM      7  C   UNL A   1      31.015  26.483  23.136  1.00  0.00     0.130 A 
ATOM      8  C   UNL A   1      31.031  26.411  24.525  1.00  0.00     0.061 A 
ATOM      9  N   UNL A   1      31.612  25.540  22.386  1.00  0.00    -0.231 NA
ATOM     10  C   UNL A   1      32.090  24.441  22.971  1.00  0.00     0.074 A 
ATOM     11  C   UNL A   1      32.012  24.238  24.359  1.00  0.00     0.015 A 
ATOM     12  C   UNL A   1      32.614  23.435  22.161  1.00  0.00     0.031 A 
ATOM     13  C   UNL A   1      32.275  22.943  24.807  1.00  0.00     0.037 A 
ATOM     14  C   UNL A   1      32.943  22.169  22.662  1.00  0.00     0.028 A 
ATOM     15  C   UNL A   1      32.677  21.893  23.992  1.00  0.00     0.042 A 
BRANCH   7  16
ATOM     16  N   UNL A   1      30.312  27.484  22.500  1.00  0.00    -0.345 N 
ATOM     17  N   UNL A   1      29.056  30.082  23.057  1.00  0.00    -0.324 N 
ATOM     18  C   UNL A   1      28.473  28.794  23.503  1.00  0.00     0.284 C 
ATOM     19  C   UNL A   1      30.534  29.911  22.992  1.00  0.00     0.284 C 
ATOM     20  H   UNL A   1      28.828  30.829  23.711  1.00  0.00     0.348 HD
ATOM     21  C   UNL A   1      28.862  27.559  22.655  1.00  0.00     0.179 C 
ATOM     22  C   UNL A   1      31.013  28.721  22.133  1.00  0.00     0.179 C 
BRANCH  17  23
ATOM     23  C   UNL A   1      28.488  30.482  21.745  1.00  0.00     0.363 C 
BRANCH  23  24
ATOM     24  C   UNL A   1      28.126  31.975  21.727  1.00  0.00     0.277 C 
ATOM     25  C   UNL A   1      27.263  33.907  20.537  1.00  0.00     0.146 C 
ATOM     26  N   UNL A   1      27.790  32.556  20.507  1.00  0.00    -0.344 N 
ATOM     27  C   UNL A   1      27.670  31.804  19.269  1.00  0.00     0.146 C 
ATOM     28  O   UNL A   1      28.118  32.618  22.781  1.00  0.00    -0.268 OA
ENDBRANCH  23  24
ENDBRANCH  17  23
ENDBRANCH   7  16
BRANCH  15  29
ATOM     29  N   UNL A   1      32.805  20.582  24.480  1.00  0.00    -0.322 N 
ATOM     30  C   UNL A   1      33.935  19.857  24.830  1.00  0.00     0.255 C 
ATOM     31  H   UNL A   1      31.955  20.098  24.593  1.00  0.00     0.170 HD
ATOM     32  O   UNL A   1      33.858  18.631  24.913  1.00  0.00    -0.269 OA
BRANCH  30  33
ATOM     33  C   UNL A   1      35.244  20.519  25.118  1.00  0.00     0.041 A 
ATOM     34  C   UNL A   1      36.416  19.836  24.782  1.00  0.00     0.014 A 
ATOM     35  C   UNL A   1      35.339  21.825  25.613  1.00  0.00     0.034 A 
ATOM     36  C   UNL A   1      37.655  20.487  24.810  1.00  0.00     0.002 A 
ATOM     37  C   UNL A   1      36.570  22.487  25.586  1.00  0.00     0.041 A 
ATOM     38  C   UNL A   1      37.724  21.831  25.162  1.00  0.00     0.020 A 
ATOM     39  Cl  UNL A   1      36.649  24.150  26.015  1.00  0.00    -0.084 Cl
ENDBRANCH  30  33
ENDBRANCH  15  29
ENDBRANCH   3   6
ENDBRANCH   1   2
BRANCH   1  40
ATOM     40  C   UNL A   1      33.364  27.864  26.342  1.00  0.00     0.042 C 
BRANCH  40  41
ATOM     41  C   UNL A   1      33.563  29.202  25.634  1.00  0.00     0.118 C 
BRANCH  41  42
ATOM     42  N   UNL A   1      32.987  30.378  26.293  1.00  0.00    -0.352 N 
ATOM     43  C   UNL A   1      33.464  31.265  27.237  1.00  0.00     0.251 C 
ATOM     44  H   UNL A   1      32.069  30.578  26.002  1.00  0.00     0.163 HD
ATOM     45  O   UNL A   1      32.772  32.201  27.633  1.00  0.00    -0.269 OA
BRANCH  43  46
ATOM     46  C   UNL A   1      34.820  31.122  27.768  1.00  0.00     0.039 A 
ATOM     47  C   UNL A   1      35.729  32.188  27.767  1.00  0.00     0.014 A 
ATOM     48  C   UNL A   1      35.180  29.880  28.266  1.00  0.00     0.014 A 
ATOM     49  C   UNL A   1      36.970  32.023  28.384  1.00  0.00     0.010 A 
ATOM     50  C   UNL A   1      36.327  29.767  29.010  1.00  0.00     0.010 A 
ATOM     51  C   UNL A   1      37.244  30.827  29.061  1.00  0.00    -0.014 A 
BRANCH  51  52
ATOM     52  C   UNL A   1      38.472  30.572  29.840  1.00  0.00     0.031 A 
ATOM     53  C   UNL A   1      39.462  29.584  29.289  1.00  0.00     0.074 A 
ATOM     54  C   UNL A   1      38.545  31.024  31.104  1.00  0.00     0.049 A 
ATOM     55  N   UNL A   1      40.406  28.922  29.901  1.00  0.00    -0.248 NA
ATOM     56  C   UNL A   1      39.293  29.216  27.869  1.00  0.00     0.031 C 
ATOM     57  C   UNL A   1      37.575  31.915  31.745  1.00  0.00     0.029 A 
ATOM     58  N   UNL A   1      39.450  30.752  32.095  1.00  0.00    -0.354 N 
ATOM     59  C   UNL A   1      40.896  28.023  28.961  1.00  0.00     0.074 A 
ATOM     60  C   UNL A   1      40.089  28.165  27.771  1.00  0.00     0.031 C 
ATOM     61  C   UNL A   1      37.946  32.129  33.017  1.00  0.00     0.029 A 
ATOM     62  C   UNL A   1      39.147  31.351  33.293  1.00  0.00     0.049 A 
ATOM     63  H   UNL A   1      40.241  30.181  31.961  1.00  0.00     0.167 HD
ATOM     64  C   UNL A   1      41.947  27.180  29.079  1.00  0.00     0.037 A 
ATOM     65  C   UNL A   1      39.771  31.260  34.480  1.00  0.00     0.037 A 
ATOM     66  C   UNL A   1      42.755  27.114  30.267  1.00  0.00     0.049 A 
ATOM     67  C   UNL A   1      40.980  30.370  34.572  1.00  0.00     0.074 A 
ATOM     68  C   UNL A   1      43.912  26.395  30.492  1.00  0.00     0.029 A 
ATOM     69  N   UNL A   1      42.481  27.817  31.436  1.00  0.00    -0.354 N 
ATOM     70  N   UNL A   1      41.500  29.587  33.655  1.00  0.00    -0.248 NA
ATOM     71  C   UNL A   1      41.690  30.353  35.854  1.00  0.00     0.031 C 
ATOM     72  C   UNL A   1      44.315  26.628  31.812  1.00  0.00     0.029 A 
ATOM     73  C   UNL A   1      43.437  27.532  32.395  1.00  0.00     0.049 A 
ATOM     74  H   UNL A   1      41.719  28.426  31.563  1.00  0.00     0.167 HD
ATOM     75  C   UNL A   1      42.610  28.997  34.240  1.00  0.00     0.074 A 
ATOM     76  C   UNL A   1      42.698  29.535  35.586  1.00  0.00     0.031 C 
ATOM     77  C   UNL A   1      43.476  28.090  33.724  1.00  0.00     0.037 A 
BRANCH  64  78
ATOM     78  C   UNL A   1      42.278  26.302  27.903  1.00  0.00     0.064 A 
ATOM     79  C   UNL A   1      43.255  26.663  26.961  1.00  0.00     0.173 A 
ATOM     80  C   UNL A   1      41.605  25.086  27.705  1.00  0.00     0.173 A 
ATOM     81  F   UNL A   1      43.926  27.818  27.091  1.00  0.00    -0.203 F 
ATOM     82  C   UNL A   1      43.509  25.871  25.842  1.00  0.00     0.198 A 
ATOM     83  C   UNL A   1      41.890  24.277  26.607  1.00  0.00     0.198 A 
ATOM     84  F   UNL A   1      40.663  24.683  28.570  1.00  0.00    -0.203 F 
ATOM     85  F   UNL A   1      44.389  26.282  24.919  1.00  0.00    -0.200 F 
ATOM     86  C   UNL A   1      42.830  24.677  25.669  1.00  0.00     0.200 A 
ATOM     87  F   UNL A   1      41.244  23.113  26.447  1.00  0.00    -0.200 F 
ATOM     88  F   UNL A   1      43.074  23.915  24.593  1.00  0.00    -0.200 F 
ENDBRANCH  64  78
BRANCH  65  89
ATOM     89  C   UNL A   1      39.301  32.078  35.628  1.00  0.00     0.064 A 
ATOM     90  C   UNL A   1      38.425  31.529  36.576  1.00  0.00     0.173 A 
ATOM     91  C   UNL A   1      39.749  33.390  35.842  1.00  0.00     0.173 A 
ATOM     92  F   UNL A   1      37.963  30.281  36.413  1.00  0.00    -0.203 F 
ATOM     93  C   UNL A   1      38.005  32.263  37.682  1.00  0.00     0.198 A 
ATOM     94  C   UNL A   1      39.349  34.115  36.964  1.00  0.00     0.198 A 
ATOM     95  F   UNL A   1      40.602  33.957  34.977  1.00  0.00    -0.203 F 
ATOM     96  F   UNL A   1      37.143  31.722  38.554  1.00  0.00    -0.200 F 
ATOM     97  C   UNL A   1      38.472  33.553  37.880  1.00  0.00     0.200 A 
ATOM     98  F   UNL A   1      39.821  35.353  37.164  1.00  0.00    -0.200 F 
ATOM     99  F   UNL A   1      38.080  34.254  38.953  1.00  0.00    -0.200 F 
ENDBRANCH  65  89
BRANCH  77 100
ATOM    100  C   UNL A   1      44.591  27.642  34.620  1.00  0.00     0.064 A 
ATOM    101  C   UNL A   1      44.451  26.524  35.456  1.00  0.00     0.173 A 
ATOM    102  C   UNL A   1      45.825  28.308  34.607  1.00  0.00     0.173 A 
ATOM    103  F   UNL A   1      43.284  25.865  35.512  1.00  0.00    -0.203 F 
ATOM    104  C   UNL A   1      45.500  26.108  36.269  1.00  0.00     0.198 A 
ATOM    105  C   UNL A   1      46.883  27.867  35.394  1.00  0.00     0.198 A 
ATOM    106  F   UNL A   1      46.008  29.377  33.816  1.00  0.00    -0.203 F 
ATOM    107  F   UNL A   1      45.328  25.071  37.099  1.00  0.00    -0.200 F 
ATOM    108  C   UNL A   1      46.716  26.774  36.230  1.00  0.00     0.200 A 
ATOM    109  F   UNL A   1      48.063  28.500  35.343  1.00  0.00    -0.200 F 
ATOM    110  F   UNL A   1      47.730  26.364  37.006  1.00  0.00    -0.200 F 
ENDBRANCH  77 100
ENDBRANCH  51  52
ENDBRANCH  43  46
ENDBRANCH  41  42
ENDBRANCH  40  41
ENDBRANCH   1  40
TORSDOF 15
ENDMDL
MODEL 3
REMARK VINA RESULT:     -11.4      5.061     11.552
REMARK SMILES CN(C)C(=O)C[NH+]1CCN(c2cc(C(=O)NCCCNC(=O)c3ccc(-c4c5nc(c(-c6c(F)c(F)c(F)c(F)c6F)c6ccc([nH]6)c(-c6c(F)c(F)c(F)c(F)c6F)c6nc(c(-c7c(F)c(F)c(F)c(F)c7F)c7ccc4[nH]7)C=C6)C=C5)cc3)c3cc(NC(=O)c4cccc(Cl)c4)ccc3n2)CC1
REMARK SMILES IDX 17 1 16 2 14 3 15 4 13 6 11 7 12 8 102 9 101 10 86 11 100 12
REMARK SMILES IDX 87 13 99 14 88 15 10 16 7 17 8 18 104 19 9 21 103 22 6 23
REMARK SMILES IDX 4 24 1 25 2 26 3 27 5 28 89 29 90 30 91 32 92 33 93 34 98 35
REMARK SMILES IDX 94 36 96 37 95 38 97 39 18 40 19 41 20 42 21 43 22 45 23 46
REMARK SMILES IDX 24 47 85 48 25 49 84 50 26 51 27 52 28 53 78 54 29 55 83 56
REMARK SMILES IDX 77 57 79 58 30 59 82 60 76 61 75 62 31 64 63 65 43 66 62 67
REMARK SMILES IDX 44 68 47 69 61 70 80 71 45 72 46 73 60 75 81 76 48 77 32 78
REMARK SMILES IDX 33 79 41 80 34 81 35 82 39 83 42 84 36 85 37 86 40 87 38 88
REMARK SMILES IDX 64 89 65 90 73 91 66 92 67 93 71 94 74 95 68 96 69 97 72 98
REMARK SMILES IDX 70 99 49 100 50 101 58 102 51 103 52 104 56 105 59 106
REMARK SMILES IDX 53 107 54 108 57 109 55 110
REMARK H PARENT 16 5 7 20 89 31 20 44 79 63 47 74
REMARK Flexibility Score: inf
ROOT
ATOM      1  C   UNL A   1      43.856  23.962  31.559  1.00  0.00     0.118 C 
ENDROOT
BRANCH   1   2
ATOM      2  N   UNL A   1      44.503  23.590  30.318  1.00  0.00    -0.352 N 
ATOM      3  C   UNL A   1      44.118  23.742  28.996  1.00  0.00     0.252 C 
ATOM      4  O   UNL A   1      45.014  23.555  28.165  1.00  0.00    -0.269 OA
ATOM      5  H   UNL A   1      45.375  23.148  30.435  1.00  0.00     0.163 HD
BRANCH   3   6
ATOM      6  C   UNL A   1      42.726  24.024  28.477  1.00  0.00     0.052 A 
ATOM      7  C   UNL A   1      40.899  25.621  28.555  1.00  0.00     0.130 A 
ATOM      8  C   UNL A   1      42.194  25.250  28.897  1.00  0.00     0.061 A 
ATOM      9  N   UNL A   1      40.161  24.871  27.716  1.00  0.00    -0.231 NA
ATOM     10  C   UNL A   1      40.616  23.678  27.331  1.00  0.00     0.074 A 
ATOM     11  C   UNL A   1      41.858  23.178  27.754  1.00  0.00     0.015 A 
ATOM     12  C   UNL A   1      39.789  22.879  26.542  1.00  0.00     0.031 A 
ATOM     13  C   UNL A   1      42.085  21.820  27.525  1.00  0.00     0.037 A 
ATOM     14  C   UNL A   1      40.090  21.539  26.267  1.00  0.00     0.028 A 
ATOM     15  C   UNL A   1      41.212  20.977  26.850  1.00  0.00     0.042 A 
BRANCH   7  16
ATOM     16  N   UNL A   1      40.315  26.726  29.137  1.00  0.00    -0.345 N 
ATOM     17  N   UNL A   1      39.911  29.597  28.657  1.00  0.00    -0.324 N 
ATOM     18  C   UNL A   1      41.219  29.024  29.057  1.00  0.00     0.284 C 
ATOM     19  C   UNL A   1      39.174  28.552  27.894  1.00  0.00     0.284 C 
ATOM     20  H   UNL A   1      40.040  30.420  28.070  1.00  0.00     0.348 HD
ATOM     21  C   UNL A   1      41.148  27.694  29.845  1.00  0.00     0.179 C 
ATOM     22  C   UNL A   1      39.023  27.200  28.624  1.00  0.00     0.179 C 
BRANCH  17  23
ATOM     23  C   UNL A   1      39.154  30.046  29.852  1.00  0.00     0.363 C 
BRANCH  23  24
ATOM     24  C   UNL A   1      39.772  31.316  30.458  1.00  0.00     0.277 C 
ATOM     25  C   UNL A   1      39.688  33.713  30.831  1.00  0.00     0.146 C 
ATOM     26  N   UNL A   1      39.225  32.547  30.103  1.00  0.00    -0.344 N 
ATOM     27  C   UNL A   1      38.043  32.687  29.269  1.00  0.00     0.146 C 
ATOM     28  O   UNL A   1      40.713  31.223  31.252  1.00  0.00    -0.268 OA
ENDBRANCH  23  24
ENDBRANCH  17  23
ENDBRANCH   7  16
BRANCH  15  29
ATOM     29  N   UNL A   1      41.437  19.593  26.761  1.00  0.00    -0.322 N 
ATOM     30  C   UNL A   1      42.446  18.884  26.126  1.00  0.00     0.255 C 
ATOM     31  H   UNL A   1      40.771  19.036  27.224  1.00  0.00     0.170 HD
ATOM     32  O   UNL A   1      42.278  17.688  25.887  1.00  0.00    -0.269 OA
BRANCH  30  33
ATOM     33  C   UNL A   1      43.738  19.524  25.732  1.00  0.00     0.041 A 
ATOM     34  C   UNL A   1      44.895  18.741  25.751  1.00  0.00     0.014 A 
ATOM     35  C   UNL A   1      43.818  20.837  25.252  1.00  0.00     0.034 A 
ATOM     36  C   UNL A   1      46.084  19.207  25.179  1.00  0.00     0.002 A 
ATOM     37  C   UNL A   1      44.991  21.277  24.632  1.00  0.00     0.041 A 
ATOM     38  C   UNL A   1      46.115  20.457  24.570  1.00  0.00     0.020 A 
ATOM     39  Cl  UNL A   1      45.023  22.820  23.875  1.00  0.00    -0.084 Cl
ENDBRANCH  30  33
ENDBRANCH  15  29
ENDBRANCH   3   6
ENDBRANCH   1   2
BRANCH   1  40
ATOM     40  C   UNL A   1      43.788  22.953  32.693  1.00  0.00     0.042 C 
BRANCH  40  41
ATOM     41  C   UNL A   1      44.996  22.880  33.624  1.00  0.00     0.118 C 
BRANCH  41  42
ATOM     42  N   UNL A   1      44.727  23.069  35.053  1.00  0.00    -0.352 N 
ATOM     43  C   UNL A   1      44.415  24.172  35.822  1.00  0.00     0.251 C 
ATOM     44  H   UNL A   1      44.779  22.235  35.573  1.00  0.00     0.163 HD
ATOM     45  O   UNL A   1      44.222  24.066  37.032  1.00  0.00    -0.269 OA
BRANCH  43  46
ATOM     46  C   UNL A   1      44.283  25.491  35.203  1.00  0.00     0.039 A 
ATOM     47  C   UNL A   1      45.384  26.342  35.036  1.00  0.00     0.014 A 
ATOM     48  C   UNL A   1      43.017  25.878  34.794  1.00  0.00     0.014 A 
ATOM     49  C   UNL A   1      45.217  27.541  34.343  1.00  0.00     0.010 A 
ATOM     50  C   UNL A   1      42.886  26.973  33.977  1.00  0.00     0.010 A 
ATOM     51  C   UNL A   1      43.976  27.827  33.760  1.00  0.00    -0.014 A 
BRANCH  51  52
ATOM     52  C   UNL A   1      43.703  29.007  32.915  1.00  0.00     0.031 A 
ATOM     53  C   UNL A   1      44.102  28.943  31.467  1.00  0.00     0.074 A 
ATOM     54  C   UNL A   1      43.352  30.162  33.507  1.00  0.00     0.049 A 
ATOM     55  N   UNL A   1      44.309  29.912  30.617  1.00  0.00    -0.248 NA
ATOM     56  C   UNL A   1      44.412  27.601  30.937  1.00  0.00     0.031 C 
ATOM     57  C   UNL A   1      43.035  30.328  34.928  1.00  0.00     0.029 A 
ATOM     58  N   UNL A   1      43.254  31.429  32.996  1.00  0.00    -0.354 N 
ATOM     59  C   UNL A   1      44.827  29.301  29.481  1.00  0.00     0.074 A 
ATOM     60  C   UNL A   1      44.984  27.897  29.782  1.00  0.00     0.031 C 
ATOM     61  C   UNL A   1      42.763  31.619  35.171  1.00  0.00     0.029 A 
ATOM     62  C   UNL A   1      42.935  32.376  33.938  1.00  0.00     0.049 A 
ATOM     63  H   UNL A   1      43.397  31.640  32.045  1.00  0.00     0.167 HD
ATOM     64  C   UNL A   1      45.114  29.866  28.286  1.00  0.00     0.037 A 
ATOM     65  C   UNL A   1      42.814  33.709  33.808  1.00  0.00     0.037 A 
ATOM     66  C   UNL A   1      44.889  31.261  28.016  1.00  0.00     0.049 A 
ATOM     67  C   UNL A   1      43.071  34.309  32.453  1.00  0.00     0.074 A 
ATOM     68  C   UNL A   1      45.025  31.949  26.827  1.00  0.00     0.029 A 
ATOM     69  N   UNL A   1      44.464  32.180  28.970  1.00  0.00    -0.354 N 
ATOM     70  N   UNL A   1      43.474  33.719  31.352  1.00  0.00    -0.248 NA
ATOM     71  C   UNL A   1      42.852  35.752  32.320  1.00  0.00     0.031 C 
ATOM     72  C   UNL A   1      44.725  33.294  27.070  1.00  0.00     0.029 A 
ATOM     73  C   UNL A   1      44.352  33.436  28.400  1.00  0.00     0.049 A 
ATOM     74  H   UNL A   1      44.271  31.969  29.911  1.00  0.00     0.167 HD
ATOM     75  C   UNL A   1      43.540  34.712  30.387  1.00  0.00     0.074 A 
ATOM     76  C   UNL A   1      43.110  35.939  31.033  1.00  0.00     0.031 C 
ATOM     77  C   UNL A   1      43.925  34.629  29.089  1.00  0.00     0.037 A 
BRANCH  64  78
ATOM     78  C   UNL A   1      45.670  28.979  27.206  1.00  0.00     0.064 A 
ATOM     79  C   UNL A   1      47.044  28.938  26.914  1.00  0.00     0.173 A 
ATOM     80  C   UNL A   1      44.822  28.163  26.441  1.00  0.00     0.173 A 
ATOM     81  F   UNL A   1      47.904  29.703  27.605  1.00  0.00    -0.203 F 
ATOM     82  C   UNL A   1      47.540  28.160  25.870  1.00  0.00     0.198 A 
ATOM     83  C   UNL A   1      45.326  27.354  25.424  1.00  0.00     0.198 A 
ATOM     84  F   UNL A   1      43.501  28.154  26.670  1.00  0.00    -0.203 F 
ATOM     85  F   UNL A   1      48.843  28.204  25.565  1.00  0.00    -0.200 F 
ATOM     86  C   UNL A   1      46.681  27.364  25.130  1.00  0.00     0.200 A 
ATOM     87  F   UNL A   1      44.497  26.573  24.717  1.00  0.00    -0.200 F 
ATOM     88  F   UNL A   1      47.158  26.616  24.126  1.00  0.00    -0.200 F 
ENDBRANCH  64  78
BRANCH  65  89
ATOM     89  C   UNL A   1      42.373  34.529  34.966  1.00  0.00     0.064 A 
ATOM     90  C   UNL A   1      43.319  35.099  35.830  1.00  0.00     0.173 A 
ATOM     91  C   UNL A   1      41.020  34.809  35.209  1.00  0.00     0.173 A 
ATOM     92  F   UNL A   1      44.624  34.856  35.646  1.00  0.00    -0.203 F 
ATOM     93  C   UNL A   1      42.929  35.905  36.898  1.00  0.00     0.198 A 
ATOM     94  C   UNL A   1      40.633  35.638  36.261  1.00  0.00     0.198 A 
ATOM     95  F   UNL A   1      40.075  34.304  34.402  1.00  0.00    -0.203 F 
ATOM     96  F   UNL A   1      43.855  36.411  37.724  1.00  0.00    -0.200 F 
ATOM     97  C   UNL A   1      41.587  36.180  37.109  1.00  0.00     0.200 A 
ATOM     98  F   UNL A   1      39.336  35.920  36.448  1.00  0.00    -0.200 F 
ATOM     99  F   UNL A   1      41.213  36.968  38.126  1.00  0.00    -0.200 F 
ENDBRANCH  65  89
BRANCH  77 100
ATOM    100  C   UNL A   1      43.883  35.898  28.294  1.00  0.00     0.064 A 
ATOM    101  C   UNL A   1      42.681  36.390  27.765  1.00  0.00     0.173 A 
ATOM    102  C   UNL A   1      45.049  36.653  28.100  1.00  0.00     0.173 A 
ATOM    103  F   UNL A   1      41.543  35.694  27.913  1.00  0.00    -0.203 F 
ATOM    104  C   UNL A   1      42.654  37.579  27.044  1.00  0.00     0.198 A 
ATOM    105  C   UNL A   1      45.012  37.860  27.410  1.00  0.00     0.198 A 
ATOM    106  F   UNL A   1      46.222  36.227  28.596  1.00  0.00    -0.203 F 
ATOM    107  F   UNL A   1      41.505  38.004  26.501  1.00  0.00    -0.200 F 
ATOM    108  C   UNL A   1      43.817  38.316  26.876  1.00  0.00     0.200 A 
ATOM    109  F   UNL A   1      46.132  38.580  27.262  1.00  0.00    -0.200 F 
ATOM    110  F   UNL A   1      43.787  39.468  26.190  1.00  0.00    -0.200 F 
ENDBRANCH  77 100
ENDBRANCH  51  52
ENDBRANCH  43  46
ENDBRANCH  41  42
ENDBRANCH  40  41
ENDBRANCH   1  40
TORSDOF 15
ENDMDL
