MODEL 1
REMARK VINA RESULT:     -12.4      0.000      0.000
REMARK SMILES N#Cc1ccc(C(=O)N[C@@H]2C=C[C@@H](C(=O)NCCCNC(=O)c3ccc(-c4c5nc(c(-c6c(F)c(F)c(F)c(F)c6F)c6ccc([nH]6)c(-c6c(F)c(F)c(F)c(F)c6F)c6nc(c(-c7c(F)c(F)c(F)c(F)c7F)c7ccc4[nH]7)C=C6)C=C5)cc3)C2)cc1
REMARK SMILES IDX 17 1 16 2 14 3 15 4 13 6 10 7 11 8 86 9 12 10 9 11 7 12 8 13
REMARK SMILES IDX 6 15 3 16 4 17 88 18 5 19 87 20 2 21 1 22 18 23 19 24 20 25
REMARK SMILES IDX 21 26 22 28 23 29 24 30 85 31 25 32 84 33 26 34 27 35 28 36
REMARK SMILES IDX 78 37 29 38 83 39 77 40 79 41 30 42 82 43 76 44 75 45 31 47
REMARK SMILES IDX 63 48 43 49 62 50 44 51 47 52 61 53 80 54 45 55 46 56 60 58
REMARK SMILES IDX 81 59 48 60 32 61 33 62 41 63 34 64 35 65 39 66 42 67 36 68
REMARK SMILES IDX 37 69 40 70 38 71 64 72 65 73 73 74 66 75 67 76 71 77 74 78
REMARK SMILES IDX 68 79 69 80 72 81 70 82 49 83 50 84 58 85 51 86 52 87 56 88
REMARK SMILES IDX 59 89 53 90 54 91 57 92 55 93
REMARK H PARENT 16 5 9 14 20 27 79 46 47 57
REMARK Flexibility Score: inf
ROOT
ATOM      1  C   UNL A   1      31.277  30.732  25.483  1.00  0.00     0.117 C 
ENDROOT
BRANCH   1   2
ATOM      2  N   UNL A   1      30.363  30.735  24.359  1.00  0.00    -0.356 N 
ATOM      3  C   UNL A   1      30.061  29.735  23.501  1.00  0.00     0.227 C 
ATOM      4  O   UNL A   1      29.433  30.021  22.479  1.00  0.00    -0.274 OA
ATOM      5  H   UNL A   1      29.895  31.586  24.198  1.00  0.00     0.163 HD
BRANCH   3   6
ATOM      6  C   UNL A   1      30.452  28.298  23.802  1.00  0.00     0.103 C 
ATOM      7  C   UNL A   1      29.907  26.002  23.126  1.00  0.00     0.106 C 
ATOM      8  C   UNL A   1      31.146  26.483  22.459  1.00  0.00    -0.006 C 
ATOM      9  C   UNL A   1      29.324  27.259  23.801  1.00  0.00     0.047 C 
ATOM     10  C   UNL A   1      31.460  27.728  22.838  1.00  0.00    -0.016 C 
BRANCH   7  11
ATOM     11  N   UNL A   1      30.151  24.840  23.980  1.00  0.00    -0.346 N 
ATOM     12  C   UNL A   1      31.033  24.525  24.991  1.00  0.00     0.251 C 
ATOM     13  O   UNL A   1      31.133  23.353  25.350  1.00  0.00    -0.269 OA
ATOM     14  H   UNL A   1      29.532  24.100  23.785  1.00  0.00     0.164 HD
BRANCH  12  15
ATOM     15  C   UNL A   1      31.908  25.531  25.629  1.00  0.00     0.039 A 
ATOM     16  C   UNL A   1      33.445  27.672  26.568  1.00  0.00     0.052 A 
ATOM     17  C   UNL A   1      34.028  26.696  25.751  1.00  0.00     0.020 A 
ATOM     18  C   UNL A   1      32.139  27.491  27.025  1.00  0.00     0.020 A 
ATOM     19  C   UNL A   1      33.255  25.630  25.270  1.00  0.00     0.015 A 
ATOM     20  C   UNL A   1      31.402  26.378  26.609  1.00  0.00     0.015 A 
BRANCH  16  21
ATOM     21  C   UNL A   1      34.162  28.865  26.909  1.00  0.00     0.099 C 
ATOM     22  N   UNL A   1      34.721  29.836  27.221  1.00  0.00    -0.192 NA
ENDBRANCH  16  21
ENDBRANCH  12  15
ENDBRANCH   7  11
ENDBRANCH   3   6
ENDBRANCH   1   2
BRANCH   1  23
ATOM     23  C   UNL A   1      31.048  31.950  26.343  1.00  0.00     0.042 C 
BRANCH  23  24
ATOM     24  C   UNL A   1      32.329  32.417  26.998  1.00  0.00     0.118 C 
BRANCH  24  25
ATOM     25  N   UNL A   1      32.261  33.823  27.378  1.00  0.00    -0.352 N 
ATOM     26  C   UNL A   1      32.951  34.486  28.359  1.00  0.00     0.251 C 
ATOM     27  H   UNL A   1      31.632  34.373  26.857  1.00  0.00     0.163 HD
ATOM     28  O   UNL A   1      32.569  35.579  28.761  1.00  0.00    -0.269 OA
BRANCH  26  29
ATOM     29  C   UNL A   1      34.154  33.853  28.925  1.00  0.00     0.039 A 
ATOM     30  C   UNL A   1      35.408  34.408  28.677  1.00  0.00     0.014 A 
ATOM     31  C   UNL A   1      34.028  32.714  29.721  1.00  0.00     0.014 A 
ATOM     32  C   UNL A   1      36.530  33.829  29.263  1.00  0.00     0.010 A 
ATOM     33  C   UNL A   1      35.113  32.254  30.443  1.00  0.00     0.010 A 
ATOM     34  C   UNL A   1      36.385  32.763  30.169  1.00  0.00    -0.014 A 
BRANCH  34  35
ATOM     35  C   UNL A   1      37.563  32.101  30.771  1.00  0.00     0.031 A 
ATOM     36  C   UNL A   1      38.014  32.501  32.150  1.00  0.00     0.074 A 
ATOM     37  C   UNL A   1      38.231  31.169  30.070  1.00  0.00     0.049 A 
ATOM     38  N   UNL A   1      39.016  32.043  32.858  1.00  0.00    -0.248 NA
ATOM     39  C   UNL A   1      37.270  33.588  32.810  1.00  0.00     0.031 C 
ATOM     40  C   UNL A   1      37.923  30.757  28.699  1.00  0.00     0.029 A 
ATOM     41  N   UNL A   1      39.303  30.393  30.420  1.00  0.00    -0.354 N 
ATOM     42  C   UNL A   1      39.015  32.787  34.031  1.00  0.00     0.074 A 
ATOM     43  C   UNL A   1      37.990  33.795  33.899  1.00  0.00     0.031 C 
ATOM     44  C   UNL A   1      38.756  29.768  28.343  1.00  0.00     0.029 A 
ATOM     45  C   UNL A   1      39.681  29.509  29.441  1.00  0.00     0.049 A 
ATOM     46  H   UNL A   1      39.759  30.462  31.290  1.00  0.00     0.167 HD
ATOM     47  C   UNL A   1      39.769  32.616  35.142  1.00  0.00     0.037 A 
ATOM     48  C   UNL A   1      40.665  28.593  29.437  1.00  0.00     0.037 A 
ATOM     49  C   UNL A   1      40.783  31.604  35.264  1.00  0.00     0.049 A 
ATOM     50  C   UNL A   1      41.500  28.424  30.676  1.00  0.00     0.074 A 
ATOM     51  C   UNL A   1      41.589  31.315  36.347  1.00  0.00     0.029 A 
ATOM     52  N   UNL A   1      41.132  30.717  34.254  1.00  0.00    -0.354 N 
ATOM     53  N   UNL A   1      41.448  29.084  31.809  1.00  0.00    -0.248 NA
ATOM     54  C   UNL A   1      42.516  27.367  30.644  1.00  0.00     0.031 C 
ATOM     55  C   UNL A   1      42.473  30.298  35.972  1.00  0.00     0.029 A 
ATOM     56  C   UNL A   1      42.159  29.893  34.683  1.00  0.00     0.049 A 
ATOM     57  H   UNL A   1      40.712  30.679  33.364  1.00  0.00     0.167 HD
ATOM     58  C   UNL A   1      42.398  28.502  32.636  1.00  0.00     0.074 A 
ATOM     59  C   UNL A   1      42.998  27.423  31.877  1.00  0.00     0.031 C 
ATOM     60  C   UNL A   1      42.742  28.825  33.909  1.00  0.00     0.037 A 
BRANCH  47  61
ATOM     61  C   UNL A   1      39.517  33.548  36.295  1.00  0.00     0.064 A 
ATOM     62  C   UNL A   1      40.104  34.824  36.359  1.00  0.00     0.173 A 
ATOM     63  C   UNL A   1      38.691  33.159  37.359  1.00  0.00     0.173 A 
ATOM     64  F   UNL A   1      40.918  35.244  35.378  1.00  0.00    -0.203 F 
ATOM     65  C   UNL A   1      39.913  35.651  37.464  1.00  0.00     0.198 A 
ATOM     66  C   UNL A   1      38.466  34.007  38.441  1.00  0.00     0.198 A 
ATOM     67  F   UNL A   1      38.102  31.953  37.354  1.00  0.00    -0.203 F 
ATOM     68  F   UNL A   1      40.549  36.828  37.535  1.00  0.00    -0.200 F 
ATOM     69  C   UNL A   1      39.089  35.243  38.500  1.00  0.00     0.200 A 
ATOM     70  F   UNL A   1      37.656  33.618  39.436  1.00  0.00    -0.200 F 
ATOM     71  F   UNL A   1      38.903  36.039  39.563  1.00  0.00    -0.200 F 
ENDBRANCH  47  61
BRANCH  48  72
ATOM     72  C   UNL A   1      40.882  27.750  28.231  1.00  0.00     0.064 A 
ATOM     73  C   UNL A   1      40.277  26.493  28.103  1.00  0.00     0.173 A 
ATOM     74  C   UNL A   1      41.689  28.196  27.173  1.00  0.00     0.173 A 
ATOM     75  F   UNL A   1      39.505  26.016  29.091  1.00  0.00    -0.203 F 
ATOM     76  C   UNL A   1      40.490  25.704  26.974  1.00  0.00     0.198 A 
ATOM     77  C   UNL A   1      41.873  27.422  26.031  1.00  0.00     0.198 A 
ATOM     78  F   UNL A   1      42.279  29.398  27.240  1.00  0.00    -0.203 F 
ATOM     79  F   UNL A   1      39.938  24.485  26.899  1.00  0.00    -0.200 F 
ATOM     80  C   UNL A   1      41.282  26.171  25.937  1.00  0.00     0.200 A 
ATOM     81  F   UNL A   1      42.618  27.889  25.022  1.00  0.00    -0.200 F 
ATOM     82  F   UNL A   1      41.478  25.416  24.848  1.00  0.00    -0.200 F 
ENDBRANCH  48  72
BRANCH  60  83
ATOM     83  C   UNL A   1      43.776  27.961  34.578  1.00  0.00     0.064 A 
ATOM     84  C   UNL A   1      43.437  26.786  35.266  1.00  0.00     0.173 A 
ATOM     85  C   UNL A   1      45.133  28.319  34.521  1.00  0.00     0.173 A 
ATOM     86  F   UNL A   1      42.155  26.402  35.358  1.00  0.00    -0.203 F 
ATOM     87  C   UNL A   1      44.411  26.033  35.918  1.00  0.00     0.198 A 
ATOM     88  C   UNL A   1      46.107  27.538  35.134  1.00  0.00     0.198 A 
ATOM     89  F   UNL A   1      45.515  29.424  33.865  1.00  0.00    -0.203 F 
ATOM     90  F   UNL A   1      44.053  24.959  36.636  1.00  0.00    -0.200 F 
ATOM     91  C   UNL A   1      45.744  26.405  35.845  1.00  0.00     0.200 A 
ATOM     92  F   UNL A   1      47.398  27.887  35.043  1.00  0.00    -0.200 F 
ATOM     93  F   UNL A   1      46.680  25.679  36.473  1.00  0.00    -0.200 F 
ENDBRANCH  60  83
ENDBRANCH  34  35
ENDBRANCH  26  29
ENDBRANCH  24  25
ENDBRANCH  23  24
ENDBRANCH   1  23
TORSDOF 13
ENDMDL
MODEL 2
REMARK VINA RESULT:     -12.2      1.176      2.474
REMARK SMILES N#Cc1ccc(C(=O)N[C@@H]2C=C[C@@H](C(=O)NCCCNC(=O)c3ccc(-c4c5nc(c(-c6c(F)c(F)c(F)c(F)c6F)c6ccc([nH]6)c(-c6c(F)c(F)c(F)c(F)c6F)c6nc(c(-c7c(F)c(F)c(F)c(F)c7F)c7ccc4[nH]7)C=C6)C=C5)cc3)C2)cc1
REMARK SMILES IDX 17 1 16 2 14 3 15 4 13 6 10 7 11 8 86 9 12 10 9 11 7 12 8 13
REMARK SMILES IDX 6 15 3 16 4 17 88 18 5 19 87 20 2 21 1 22 18 23 19 24 20 25
REMARK SMILES IDX 21 26 22 28 23 29 24 30 85 31 25 32 84 33 26 34 27 35 28 36
REMARK SMILES IDX 78 37 29 38 83 39 77 40 79 41 30 42 82 43 76 44 75 45 31 47
REMARK SMILES IDX 63 48 43 49 62 50 44 51 47 52 61 53 80 54 45 55 46 56 60 58
REMARK SMILES IDX 81 59 48 60 32 61 33 62 41 63 34 64 35 65 39 66 42 67 36 68
REMARK SMILES IDX 37 69 40 70 38 71 64 72 65 73 73 74 66 75 67 76 71 77 74 78
REMARK SMILES IDX 68 79 69 80 72 81 70 82 49 83 50 84 58 85 51 86 52 87 56 88
REMARK SMILES IDX 59 89 53 90 54 91 57 92 55 93
REMARK H PARENT 16 5 9 14 20 27 79 46 47 57
REMARK Flexibility Score: inf
ROOT
ATOM      1  C   UNL A   1      31.568  30.512  26.089  1.00  0.00     0.117 C 
ENDROOT
BRANCH   1   2
ATOM      2  N   UNL A   1      31.684  29.677  27.266  1.00  0.00    -0.356 N 
ATOM      3  C   UNL A   1      31.801  28.332  27.352  1.00  0.00     0.227 C 
ATOM      4  O   UNL A   1      31.654  27.809  28.459  1.00  0.00    -0.274 OA
ATOM      5  H   UNL A   1      31.679  30.156  28.126  1.00  0.00     0.163 HD
BRANCH   3   6
ATOM      6  C   UNL A   1      32.138  27.494  26.130  1.00  0.00     0.103 C 
ATOM      7  C   UNL A   1      33.714  25.764  25.391  1.00  0.00     0.106 C 
ATOM      8  C   UNL A   1      32.402  25.175  25.767  1.00  0.00    -0.006 C 
ATOM      9  C   UNL A   1      33.623  27.230  25.860  1.00  0.00     0.047 C 
ATOM     10  C   UNL A   1      31.530  26.116  26.153  1.00  0.00    -0.016 C 
BRANCH   7  11
ATOM     11  N   UNL A   1      34.043  25.534  23.984  1.00  0.00    -0.346 N 
ATOM     12  C   UNL A   1      33.520  25.923  22.771  1.00  0.00     0.251 C 
ATOM     13  O   UNL A   1      33.898  25.353  21.749  1.00  0.00    -0.269 OA
ATOM     14  H   UNL A   1      34.835  24.959  23.879  1.00  0.00     0.164 HD
BRANCH  12  15
ATOM     15  C   UNL A   1      32.479  26.966  22.648  1.00  0.00     0.039 A 
ATOM     16  C   UNL A   1      30.524  28.962  22.792  1.00  0.00     0.052 A 
ATOM     17  C   UNL A   1      30.147  27.619  22.679  1.00  0.00     0.020 A 
ATOM     18  C   UNL A   1      31.872  29.305  22.687  1.00  0.00     0.020 A 
ATOM     19  C   UNL A   1      31.126  26.617  22.619  1.00  0.00     0.015 A 
ATOM     20  C   UNL A   1      32.838  28.304  22.541  1.00  0.00     0.015 A 
BRANCH  16  21
ATOM     21  C   UNL A   1      29.547  29.978  23.048  1.00  0.00     0.099 C 
ATOM     22  N   UNL A   1      28.749  30.788  23.294  1.00  0.00    -0.192 NA
ENDBRANCH  16  21
ENDBRANCH  12  15
ENDBRANCH   7  11
ENDBRANCH   3   6
ENDBRANCH   1   2
BRANCH   1  23
ATOM     23  C   UNL A   1      31.415  31.958  26.490  1.00  0.00     0.042 C 
BRANCH  23  24
ATOM     24  C   UNL A   1      32.718  32.534  26.999  1.00  0.00     0.118 C 
BRANCH  24  25
ATOM     25  N   UNL A   1      32.542  33.880  27.534  1.00  0.00    -0.352 N 
ATOM     26  C   UNL A   1      33.137  34.459  28.624  1.00  0.00     0.251 C 
ATOM     27  H   UNL A   1      31.907  34.451  27.044  1.00  0.00     0.163 HD
ATOM     28  O   UNL A   1      32.667  35.473  29.126  1.00  0.00    -0.269 OA
BRANCH  26  29
ATOM     29  C   UNL A   1      34.347  33.833  29.183  1.00  0.00     0.039 A 
ATOM     30  C   UNL A   1      35.604  34.306  28.811  1.00  0.00     0.014 A 
ATOM     31  C   UNL A   1      34.225  32.784  30.095  1.00  0.00     0.014 A 
ATOM     32  C   UNL A   1      36.736  33.739  29.390  1.00  0.00     0.010 A 
ATOM     33  C   UNL A   1      35.333  32.351  30.798  1.00  0.00     0.010 A 
ATOM     34  C   UNL A   1      36.605  32.774  30.404  1.00  0.00    -0.014 A 
BRANCH  34  35
ATOM     35  C   UNL A   1      37.791  32.124  31.003  1.00  0.00     0.031 A 
ATOM     36  C   UNL A   1      38.237  32.523  32.384  1.00  0.00     0.074 A 
ATOM     37  C   UNL A   1      38.470  31.203  30.298  1.00  0.00     0.049 A 
ATOM     38  N   UNL A   1      39.244  32.074  33.090  1.00  0.00    -0.248 NA
ATOM     39  C   UNL A   1      37.480  33.598  33.050  1.00  0.00     0.031 C 
ATOM     40  C   UNL A   1      38.167  30.793  28.926  1.00  0.00     0.029 A 
ATOM     41  N   UNL A   1      39.551  30.438  30.646  1.00  0.00    -0.354 N 
ATOM     42  C   UNL A   1      39.234  32.813  34.267  1.00  0.00     0.074 A 
ATOM     43  C   UNL A   1      38.198  33.809  34.139  1.00  0.00     0.031 C 
ATOM     44  C   UNL A   1      39.011  29.816  28.565  1.00  0.00     0.029 A 
ATOM     45  C   UNL A   1      39.939  29.563  29.663  1.00  0.00     0.049 A 
ATOM     46  H   UNL A   1      40.006  30.508  31.515  1.00  0.00     0.167 HD
ATOM     47  C   UNL A   1      39.990  32.646  35.377  1.00  0.00     0.037 A 
ATOM     48  C   UNL A   1      40.934  28.658  29.654  1.00  0.00     0.037 A 
ATOM     49  C   UNL A   1      41.016  31.645  35.494  1.00  0.00     0.049 A 
ATOM     50  C   UNL A   1      41.771  28.494  30.893  1.00  0.00     0.074 A 
ATOM     51  C   UNL A   1      41.826  31.361  36.577  1.00  0.00     0.029 A 
ATOM     52  N   UNL A   1      41.376  30.767  34.480  1.00  0.00    -0.354 N 
ATOM     53  N   UNL A   1      41.711  29.149  32.028  1.00  0.00    -0.248 NA
ATOM     54  C   UNL A   1      42.800  27.449  30.856  1.00  0.00     0.031 C 
ATOM     55  C   UNL A   1      42.722  30.356  36.196  1.00  0.00     0.029 A 
ATOM     56  C   UNL A   1      42.413  29.954  34.906  1.00  0.00     0.049 A 
ATOM     57  H   UNL A   1      40.956  30.728  33.591  1.00  0.00     0.167 HD
ATOM     58  C   UNL A   1      42.669  28.575  32.853  1.00  0.00     0.074 A 
ATOM     59  C   UNL A   1      43.281  27.505  32.090  1.00  0.00     0.031 C 
ATOM     60  C   UNL A   1      43.009  28.895  34.128  1.00  0.00     0.037 A 
BRANCH  47  61
ATOM     61  C   UNL A   1      39.728  33.570  36.534  1.00  0.00     0.064 A 
ATOM     62  C   UNL A   1      40.389  34.804  36.662  1.00  0.00     0.173 A 
ATOM     63  C   UNL A   1      38.816  33.214  37.537  1.00  0.00     0.173 A 
ATOM     64  F   UNL A   1      41.286  35.190  35.741  1.00  0.00    -0.203 F 
ATOM     65  C   UNL A   1      40.182  35.620  37.772  1.00  0.00     0.198 A 
ATOM     66  C   UNL A   1      38.579  34.054  38.624  1.00  0.00     0.198 A 
ATOM     67  F   UNL A   1      38.154  32.049  37.470  1.00  0.00    -0.203 F 
ATOM     68  F   UNL A   1      40.886  36.753  37.908  1.00  0.00    -0.200 F 
ATOM     69  C   UNL A   1      39.273  35.247  38.748  1.00  0.00     0.200 A 
ATOM     70  F   UNL A   1      37.687  33.698  39.559  1.00  0.00    -0.200 F 
ATOM     71  F   UNL A   1      39.073  36.032  39.816  1.00  0.00    -0.200 F 
ENDBRANCH  47  61
BRANCH  48  72
ATOM     72  C   UNL A   1      41.162  27.824  28.445  1.00  0.00     0.064 A 
ATOM     73  C   UNL A   1      40.484  26.611  28.260  1.00  0.00     0.173 A 
ATOM     74  C   UNL A   1      42.051  28.234  27.440  1.00  0.00     0.173 A 
ATOM     75  F   UNL A   1      39.631  26.169  29.197  1.00  0.00    -0.203 F 
ATOM     76  C   UNL A   1      40.706  25.828  27.129  1.00  0.00     0.198 A 
ATOM     77  C   UNL A   1      42.245  27.468  26.294  1.00  0.00     0.198 A 
ATOM     78  F   UNL A   1      42.713  29.393  27.562  1.00  0.00    -0.203 F 
ATOM     79  F   UNL A   1      40.082  24.650  27.000  1.00  0.00    -0.200 F 
ATOM     80  C   UNL A   1      41.581  26.260  26.144  1.00  0.00     0.200 A 
ATOM     81  F   UNL A   1      43.073  27.902  25.335  1.00  0.00    -0.200 F 
ATOM     82  F   UNL A   1      41.787  25.512  25.052  1.00  0.00    -0.200 F 
ENDBRANCH  48  72
BRANCH  60  83
ATOM     83  C   UNL A   1      44.052  28.041  34.793  1.00  0.00     0.064 A 
ATOM     84  C   UNL A   1      45.413  28.383  34.787  1.00  0.00     0.173 A 
ATOM     85  C   UNL A   1      43.676  26.861  35.455  1.00  0.00     0.173 A 
ATOM     86  F   UNL A   1      45.828  29.495  34.164  1.00  0.00    -0.203 F 
ATOM     87  C   UNL A   1      46.363  27.548  35.370  1.00  0.00     0.198 A 
ATOM     88  C   UNL A   1      44.623  26.054  36.077  1.00  0.00     0.198 A 
ATOM     89  F   UNL A   1      42.387  26.493  35.505  1.00  0.00    -0.203 F 
ATOM     90  F   UNL A   1      47.665  27.854  35.282  1.00  0.00    -0.200 F 
ATOM     91  C   UNL A   1      45.966  26.388  36.019  1.00  0.00     0.200 A 
ATOM     92  F   UNL A   1      44.235  24.946  36.724  1.00  0.00    -0.200 F 
ATOM     93  F   UNL A   1      46.882  25.585  36.580  1.00  0.00    -0.200 F 
ENDBRANCH  60  83
ENDBRANCH  34  35
ENDBRANCH  26  29
ENDBRANCH  24  25
ENDBRANCH  23  24
ENDBRANCH   1  23
TORSDOF 13
ENDMDL
MODEL 3
REMARK VINA RESULT:     -12.2      1.185      3.000
REMARK SMILES N#Cc1ccc(C(=O)N[C@@H]2C=C[C@@H](C(=O)NCCCNC(=O)c3ccc(-c4c5nc(c(-c6c(F)c(F)c(F)c(F)c6F)c6ccc([nH]6)c(-c6c(F)c(F)c(F)c(F)c6F)c6nc(c(-c7c(F)c(F)c(F)c(F)c7F)c7ccc4[nH]7)C=C6)C=C5)cc3)C2)cc1
REMARK SMILES IDX 17 1 16 2 14 3 15 4 13 6 10 7 11 8 86 9 12 10 9 11 7 12 8 13
REMARK SMILES IDX 6 15 3 16 4 17 88 18 5 19 87 20 2 21 1 22 18 23 19 24 20 25
REMARK SMILES IDX 21 26 22 28 23 29 24 30 85 31 25 32 84 33 26 34 27 35 28 36
REMARK SMILES IDX 78 37 29 38 83 39 77 40 79 41 30 42 82 43 76 44 75 45 31 47
REMARK SMILES IDX 63 48 43 49 62 50 44 51 47 52 61 53 80 54 45 55 46 56 60 58
REMARK SMILES IDX 81 59 48 60 32 61 33 62 41 63 34 64 35 65 39 66 42 67 36 68
REMARK SMILES IDX 37 69 40 70 38 71 64 72 65 73 73 74 66 75 67 76 71 77 74 78
REMARK SMILES IDX 68 79 69 80 72 81 70 82 49 83 50 84 58 85 51 86 52 87 56 88
REMARK SMILES IDX 59 89 53 90 54 91 57 92 55 93
REMARK H PARENT 16 5 9 14 20 27 79 46 47 57
REMARK Flexibility Score: inf
ROOT
ATOM      1  C   UNL A   1      31.599  30.573  26.083  1.00  0.00     0.117 C 
ENDROOT
BRANCH   1   2
ATOM      2  N   UNL A   1      31.630  29.722  27.255  1.00  0.00    -0.356 N 
ATOM      3  C   UNL A   1      31.696  28.374  27.329  1.00  0.00     0.227 C 
ATOM      4  O   UNL A   1      31.478  27.845  28.422  1.00  0.00    -0.274 OA
ATOM      5  H   UNL A   1      31.600  30.193  28.118  1.00  0.00     0.163 HD
BRANCH   3   6
ATOM      6  C   UNL A   1      32.062  27.537  26.115  1.00  0.00     0.103 C 
ATOM      7  C   UNL A   1      33.746  25.918  25.363  1.00  0.00     0.106 C 
ATOM      8  C   UNL A   1      32.494  25.238  25.790  1.00  0.00    -0.006 C 
ATOM      9  C   UNL A   1      33.554  27.382  25.805  1.00  0.00     0.047 C 
ATOM     10  C   UNL A   1      31.563  26.117  26.184  1.00  0.00    -0.016 C 
BRANCH   7  11
ATOM     11  N   UNL A   1      34.051  25.683  23.952  1.00  0.00    -0.346 N 
ATOM     12  C   UNL A   1      33.489  26.041  22.746  1.00  0.00     0.251 C 
ATOM     13  O   UNL A   1      33.862  25.471  21.723  1.00  0.00    -0.269 OA
ATOM     14  H   UNL A   1      34.859  25.132  23.835  1.00  0.00     0.164 HD
BRANCH  12  15
ATOM     15  C   UNL A   1      32.413  27.048  22.636  1.00  0.00     0.039 A 
ATOM     16  C   UNL A   1      30.399  28.984  22.802  1.00  0.00     0.052 A 
ATOM     17  C   UNL A   1      30.062  27.627  22.722  1.00  0.00     0.020 A 
ATOM     18  C   UNL A   1      31.733  29.367  22.652  1.00  0.00     0.020 A 
ATOM     19  C   UNL A   1      31.071  26.657  22.651  1.00  0.00     0.015 A 
ATOM     20  C   UNL A   1      32.725  28.394  22.496  1.00  0.00     0.015 A 
BRANCH  16  21
ATOM     21  C   UNL A   1      29.398  29.973  23.068  1.00  0.00     0.099 C 
ATOM     22  N   UNL A   1      28.560  30.746  23.297  1.00  0.00    -0.192 NA
ENDBRANCH  16  21
ENDBRANCH  12  15
ENDBRANCH   7  11
ENDBRANCH   3   6
ENDBRANCH   1   2
BRANCH   1  23
ATOM     23  C   UNL A   1      31.479  32.020  26.494  1.00  0.00     0.042 C 
BRANCH  23  24
ATOM     24  C   UNL A   1      32.737  32.510  27.175  1.00  0.00     0.118 C 
BRANCH  24  25
ATOM     25  N   UNL A   1      32.617  33.901  27.597  1.00  0.00    -0.352 N 
ATOM     26  C   UNL A   1      33.220  34.539  28.649  1.00  0.00     0.251 C 
ATOM     27  H   UNL A   1      32.019  34.460  27.049  1.00  0.00     0.163 HD
ATOM     28  O   UNL A   1      32.791  35.611  29.058  1.00  0.00    -0.269 OA
BRANCH  26  29
ATOM     29  C   UNL A   1      34.389  33.905  29.281  1.00  0.00     0.039 A 
ATOM     30  C   UNL A   1      34.203  32.967  30.295  1.00  0.00     0.014 A 
ATOM     31  C   UNL A   1      35.674  34.233  28.846  1.00  0.00     0.014 A 
ATOM     32  C   UNL A   1      35.317  32.337  30.844  1.00  0.00     0.010 A 
ATOM     33  C   UNL A   1      36.756  33.480  29.262  1.00  0.00     0.010 A 
ATOM     34  C   UNL A   1      36.597  32.573  30.313  1.00  0.00    -0.014 A 
BRANCH  34  35
ATOM     35  C   UNL A   1      37.801  31.952  30.907  1.00  0.00     0.031 A 
ATOM     36  C   UNL A   1      38.244  32.363  32.286  1.00  0.00     0.074 A 
ATOM     37  C   UNL A   1      38.500  31.048  30.199  1.00  0.00     0.049 A 
ATOM     38  N   UNL A   1      39.264  31.938  32.987  1.00  0.00    -0.248 NA
ATOM     39  C   UNL A   1      37.463  33.419  32.954  1.00  0.00     0.031 C 
ATOM     40  C   UNL A   1      38.201  30.631  28.828  1.00  0.00     0.029 A 
ATOM     41  N   UNL A   1      39.601  30.310  30.542  1.00  0.00    -0.354 N 
ATOM     42  C   UNL A   1      39.241  32.676  34.164  1.00  0.00     0.074 A 
ATOM     43  C   UNL A   1      38.181  33.647  34.040  1.00  0.00     0.031 C 
ATOM     44  C   UNL A   1      39.068  29.674  28.464  1.00  0.00     0.029 A 
ATOM     45  C   UNL A   1      40.006  29.444  29.557  1.00  0.00     0.049 A 
ATOM     46  H   UNL A   1      40.058  30.391  31.409  1.00  0.00     0.167 HD
ATOM     47  C   UNL A   1      40.006  32.529  35.271  1.00  0.00     0.037 A 
ATOM     48  C   UNL A   1      41.023  28.564  29.545  1.00  0.00     0.037 A 
ATOM     49  C   UNL A   1      41.056  31.553  35.384  1.00  0.00     0.049 A 
ATOM     50  C   UNL A   1      41.868  28.421  30.780  1.00  0.00     0.074 A 
ATOM     51  C   UNL A   1      41.877  31.289  36.463  1.00  0.00     0.029 A 
ATOM     52  N   UNL A   1      41.433  30.684  34.369  1.00  0.00    -0.354 N 
ATOM     53  N   UNL A   1      41.798  29.074  31.915  1.00  0.00    -0.248 NA
ATOM     54  C   UNL A   1      42.923  27.401  30.739  1.00  0.00     0.031 C 
ATOM     55  C   UNL A   1      42.796  30.306  36.079  1.00  0.00     0.029 A 
ATOM     56  C   UNL A   1      42.491  29.896  34.790  1.00  0.00     0.049 A 
ATOM     57  H   UNL A   1      41.011  30.635  33.481  1.00  0.00     0.167 HD
ATOM     58  C   UNL A   1      42.772  28.523  32.736  1.00  0.00     0.074 A 
ATOM     59  C   UNL A   1      43.407  27.469  31.970  1.00  0.00     0.031 C 
ATOM     60  C   UNL A   1      43.109  28.852  34.009  1.00  0.00     0.037 A 
BRANCH  47  61
ATOM     61  C   UNL A   1      39.726  33.445  36.429  1.00  0.00     0.064 A 
ATOM     62  C   UNL A   1      38.850  33.082  37.468  1.00  0.00     0.173 A 
ATOM     63  C   UNL A   1      40.326  34.710  36.499  1.00  0.00     0.173 A 
ATOM     64  F   UNL A   1      38.233  31.891  37.446  1.00  0.00    -0.203 F 
ATOM     65  C   UNL A   1      38.551  33.967  38.501  1.00  0.00     0.198 A 
ATOM     66  C   UNL A   1      40.058  35.576  37.557  1.00  0.00     0.198 A 
ATOM     67  F   UNL A   1      41.171  35.114  35.537  1.00  0.00    -0.203 F 
ATOM     68  F   UNL A   1      37.651  33.626  39.434  1.00  0.00    -0.200 F 
ATOM     69  C   UNL A   1      39.161  35.211  38.547  1.00  0.00     0.200 A 
ATOM     70  F   UNL A   1      40.661  36.772  37.609  1.00  0.00    -0.200 F 
ATOM     71  F   UNL A   1      38.874  36.062  39.542  1.00  0.00    -0.200 F 
ENDBRANCH  47  61
BRANCH  48  72
ATOM     72  C   UNL A   1      41.265  27.735  28.335  1.00  0.00     0.064 A 
ATOM     73  C   UNL A   1      42.148  28.155  27.330  1.00  0.00     0.173 A 
ATOM     74  C   UNL A   1      40.631  26.495  28.168  1.00  0.00     0.173 A 
ATOM     75  F   UNL A   1      42.772  29.338  27.436  1.00  0.00    -0.203 F 
ATOM     76  C   UNL A   1      42.366  27.379  26.193  1.00  0.00     0.198 A 
ATOM     77  C   UNL A   1      40.877  25.704  27.050  1.00  0.00     0.198 A 
ATOM     78  F   UNL A   1      39.789  26.041  29.108  1.00  0.00    -0.203 F 
ATOM     79  F   UNL A   1      43.177  27.826  25.225  1.00  0.00    -0.200 F 
ATOM     80  C   UNL A   1      41.736  26.151  26.057  1.00  0.00     0.200 A 
ATOM     81  F   UNL A   1      40.284  24.509  26.935  1.00  0.00    -0.200 F 
ATOM     82  F   UNL A   1      41.954  25.401  24.969  1.00  0.00    -0.200 F 
ENDBRANCH  48  72
BRANCH  60  83
ATOM     83  C   UNL A   1      44.176  28.024  34.670  1.00  0.00     0.064 A 
ATOM     84  C   UNL A   1      45.531  28.390  34.645  1.00  0.00     0.173 A 
ATOM     85  C   UNL A   1      43.829  26.844  35.348  1.00  0.00     0.173 A 
ATOM     86  F   UNL A   1      45.918  29.504  34.005  1.00  0.00    -0.203 F 
ATOM     87  C   UNL A   1      46.502  27.578  35.224  1.00  0.00     0.198 A 
ATOM     88  C   UNL A   1      44.799  26.060  35.966  1.00  0.00     0.198 A 
ATOM     89  F   UNL A   1      42.548  26.453  35.417  1.00  0.00    -0.203 F 
ATOM     90  F   UNL A   1      47.797  27.907  35.117  1.00  0.00    -0.200 F 
ATOM     91  C   UNL A   1      46.135  26.418  35.889  1.00  0.00     0.200 A 
ATOM     92  F   UNL A   1      44.439  24.952  36.629  1.00  0.00    -0.200 F 
ATOM     93  F   UNL A   1      47.072  25.637  36.446  1.00  0.00    -0.200 F 
ENDBRANCH  60  83
ENDBRANCH  34  35
ENDBRANCH  26  29
ENDBRANCH  24  25
ENDBRANCH  23  24
ENDBRANCH   1  23
TORSDOF 13
ENDMDL
