MODEL 1
REMARK VINA RESULT:     -12.5      0.000      0.000
REMARK SMILES Cc1cc2c(c(C)c1Cl)C=C(C(=O)NCCCNC(=O)c1ccc(-c3c4nc(c(-c5c(F)c(F)c(F)c(F)c5F)c5ccc([nH]5)c(-c5c(F)c(F)c(F)c(F)c5F)c5nc(c(-c6c(F)c(F)c(F)c(F)c6F)c6ccc3[nH]6)C=C5)C=C4)cc1)[C@@H](C(F)(F)F)O2
REMARK SMILES IDX 16 1 15 2 14 3 12 4 13 5 11 7 1 8 2 9 3 10 8 11 4 12 6 13
REMARK SMILES IDX 9 14 5 15 89 16 7 17 10 18 84 19 85 20 86 21 87 22 88 23
REMARK SMILES IDX 17 24 18 25 19 26 20 28 21 29 22 30 83 31 23 32 82 33 24 34
REMARK SMILES IDX 25 35 26 36 76 37 27 38 81 39 75 40 77 41 28 42 80 43 74 44
REMARK SMILES IDX 73 45 29 47 61 48 41 49 60 50 42 51 45 52 59 53 78 54 43 55
REMARK SMILES IDX 44 56 58 58 79 59 46 60 30 61 31 62 39 63 32 64 33 65 37 66
REMARK SMILES IDX 40 67 34 68 35 69 38 70 36 71 62 72 63 73 71 74 64 75 65 76
REMARK SMILES IDX 69 77 72 78 66 79 67 80 70 81 68 82 47 83 48 84 56 85 49 86
REMARK SMILES IDX 50 87 54 88 57 89 51 90 52 91 55 92 53 93
REMARK H PARENT 14 6 18 27 77 46 45 57
REMARK Flexibility Score: inf
ROOT
ATOM      1  C   UNL A   1      33.980  28.272  24.612  1.00  0.00     0.042 C 
ENDROOT
BRANCH   1   2
ATOM      2  C   UNL A   1      33.061  27.138  24.187  1.00  0.00     0.118 C 
BRANCH   2   3
ATOM      3  N   UNL A   1      32.272  26.639  25.301  1.00  0.00    -0.352 N 
ATOM      4  C   UNL A   1      32.113  25.469  25.962  1.00  0.00     0.251 C 
ATOM      5  O   UNL A   1      31.290  25.495  26.881  1.00  0.00    -0.270 OA
ATOM      6  H   UNL A   1      31.698  27.344  25.678  1.00  0.00     0.163 HD
BRANCH   4   7
ATOM      7  C   UNL A   1      32.846  24.206  25.655  1.00  0.00     0.067 C 
ATOM      8  C   UNL A   1      37.008  19.288  24.791  1.00  0.00     0.046 C 
ATOM      9  C   UNL A   1      36.327  20.590  25.114  1.00  0.00    -0.028 A 
ATOM     10  C   UNL A   1      34.935  20.649  25.031  1.00  0.00     0.052 A 
ATOM     11  C   UNL A   1      37.037  21.745  25.503  1.00  0.00     0.047 A 
ATOM     12  C   UNL A   1      34.265  21.835  25.304  1.00  0.00     0.128 A 
ATOM     13  C   UNL A   1      36.364  22.957  25.796  1.00  0.00    -0.021 A 
ATOM     14  Cl  UNL A   1      38.768  21.641  25.625  1.00  0.00    -0.084 Cl
ATOM     15  C   UNL A   1      34.953  22.991  25.688  1.00  0.00     0.022 A 
ATOM     16  O   UNL A   1      32.905  21.765  25.213  1.00  0.00    -0.475 OA
ATOM     17  C   UNL A   1      37.108  24.204  26.214  1.00  0.00     0.047 C 
ATOM     18  C   UNL A   1      34.150  24.182  25.988  1.00  0.00     0.026 C 
ATOM     19  C   UNL A   1      32.218  23.020  24.991  1.00  0.00     0.314 C 
BRANCH  19  20
ATOM     20  C   UNL A   1      31.994  23.226  23.480  1.00  0.00     0.429 C 
ATOM     21  F   UNL A   1      30.824  23.877  23.263  1.00  0.00    -0.167 F 
ATOM     22  F   UNL A   1      32.962  23.981  22.907  1.00  0.00    -0.167 F 
ATOM     23  F   UNL A   1      31.947  22.063  22.793  1.00  0.00    -0.167 F 
ENDBRANCH  19  20
ENDBRANCH   4   7
ENDBRANCH   2   3
ENDBRANCH   1   2
BRANCH   1  24
ATOM     24  C   UNL A   1      34.051  28.408  26.126  1.00  0.00     0.118 C 
BRANCH  24  25
ATOM     25  N   UNL A   1      33.773  29.777  26.560  1.00  0.00    -0.352 N 
ATOM     26  C   UNL A   1      34.379  30.538  27.525  1.00  0.00     0.251 C 
ATOM     27  H   UNL A   1      33.035  30.221  26.085  1.00  0.00     0.163 HD
ATOM     28  O   UNL A   1      33.825  31.551  27.948  1.00  0.00    -0.269 OA
BRANCH  26  29
ATOM     29  C   UNL A   1      35.694  30.141  28.057  1.00  0.00     0.039 A 
ATOM     30  C   UNL A   1      35.786  29.616  29.349  1.00  0.00     0.014 A 
ATOM     31  C   UNL A   1      36.844  30.310  27.282  1.00  0.00     0.014 A 
ATOM     32  C   UNL A   1      37.026  29.205  29.836  1.00  0.00     0.010 A 
ATOM     33  C   UNL A   1      38.054  29.800  27.722  1.00  0.00     0.010 A 
ATOM     34  C   UNL A   1      38.162  29.263  29.012  1.00  0.00    -0.014 A 
BRANCH  34  35
ATOM     35  C   UNL A   1      39.487  28.805  29.488  1.00  0.00     0.031 A 
ATOM     36  C   UNL A   1      40.239  29.624  30.497  1.00  0.00     0.074 A 
ATOM     37  C   UNL A   1      40.033  27.690  28.966  1.00  0.00     0.049 A 
ATOM     38  N   UNL A   1      41.435  29.434  30.992  1.00  0.00    -0.248 NA
ATOM     39  C   UNL A   1      39.573  30.840  30.994  1.00  0.00     0.031 C 
ATOM     40  C   UNL A   1      39.411  26.843  27.948  1.00  0.00     0.029 A 
ATOM     41  N   UNL A   1      41.234  27.080  29.219  1.00  0.00    -0.354 N 
ATOM     42  C   UNL A   1      41.663  30.505  31.845  1.00  0.00     0.074 A 
ATOM     43  C   UNL A   1      40.517  31.381  31.747  1.00  0.00     0.031 C 
ATOM     44  C   UNL A   1      40.217  25.802  27.692  1.00  0.00     0.029 A 
ATOM     45  C   UNL A   1      41.429  25.930  28.495  1.00  0.00     0.049 A 
ATOM     46  H   UNL A   1      41.894  27.433  29.858  1.00  0.00     0.167 HD
ATOM     47  C   UNL A   1      42.716  30.718  32.666  1.00  0.00     0.037 A 
ATOM     48  C   UNL A   1      42.469  25.075  28.485  1.00  0.00     0.037 A 
ATOM     49  C   UNL A   1      43.838  29.826  32.776  1.00  0.00     0.049 A 
ATOM     50  C   UNL A   1      43.641  25.345  29.389  1.00  0.00     0.074 A 
ATOM     51  C   UNL A   1      44.935  29.920  33.612  1.00  0.00     0.029 A 
ATOM     52  N   UNL A   1      44.004  28.673  32.021  1.00  0.00    -0.354 N 
ATOM     53  N   UNL A   1      43.821  26.328  30.238  1.00  0.00    -0.248 NA
ATOM     54  C   UNL A   1      44.754  24.388  29.335  1.00  0.00     0.031 C 
ATOM     55  C   UNL A   1      45.791  28.852  33.327  1.00  0.00     0.029 A 
ATOM     56  C   UNL A   1      45.202  28.060  32.353  1.00  0.00     0.049 A 
ATOM     57  H   UNL A   1      43.366  28.339  31.349  1.00  0.00     0.167 HD
ATOM     58  C   UNL A   1      45.053  26.099  30.834  1.00  0.00     0.074 A 
ATOM     59  C   UNL A   1      45.570  24.873  30.261  1.00  0.00     0.031 C 
ATOM     60  C   UNL A   1      45.698  26.839  31.769  1.00  0.00     0.037 A 
BRANCH  47  61
ATOM     61  C   UNL A   1      42.696  31.953  33.519  1.00  0.00     0.064 A 
ATOM     62  C   UNL A   1      43.253  33.163  33.074  1.00  0.00     0.173 A 
ATOM     63  C   UNL A   1      42.082  31.941  34.780  1.00  0.00     0.173 A 
ATOM     64  F   UNL A   1      43.864  33.227  31.882  1.00  0.00    -0.203 F 
ATOM     65  C   UNL A   1      43.220  34.305  33.872  1.00  0.00     0.198 A 
ATOM     66  C   UNL A   1      42.022  33.092  35.561  1.00  0.00     0.198 A 
ATOM     67  F   UNL A   1      41.532  30.812  35.254  1.00  0.00    -0.203 F 
ATOM     68  F   UNL A   1      43.806  35.432  33.447  1.00  0.00    -0.200 F 
ATOM     69  C   UNL A   1      42.597  34.271  35.109  1.00  0.00     0.200 A 
ATOM     70  F   UNL A   1      41.406  33.062  36.751  1.00  0.00    -0.200 F 
ATOM     71  F   UNL A   1      42.557  35.373  35.871  1.00  0.00    -0.200 F 
ENDBRANCH  47  61
BRANCH  48  72
ATOM     72  C   UNL A   1      42.414  23.865  27.625  1.00  0.00     0.064 A 
ATOM     73  C   UNL A   1      42.850  23.916  26.294  1.00  0.00     0.173 A 
ATOM     74  C   UNL A   1      41.977  22.629  28.122  1.00  0.00     0.173 A 
ATOM     75  F   UNL A   1      43.262  25.079  25.768  1.00  0.00    -0.203 F 
ATOM     76  C   UNL A   1      42.847  22.777  25.491  1.00  0.00     0.198 A 
ATOM     77  C   UNL A   1      42.000  21.484  27.327  1.00  0.00     0.198 A 
ATOM     78  F   UNL A   1      41.558  22.526  29.392  1.00  0.00    -0.203 F 
ATOM     79  F   UNL A   1      43.247  22.858  24.214  1.00  0.00    -0.200 F 
ATOM     80  C   UNL A   1      42.433  21.560  26.011  1.00  0.00     0.200 A 
ATOM     81  F   UNL A   1      41.617  20.308  27.840  1.00  0.00    -0.200 F 
ATOM     82  F   UNL A   1      42.449  20.460  25.246  1.00  0.00    -0.200 F 
ENDBRANCH  48  72
BRANCH  60  83
ATOM     83  C   UNL A   1      47.034  26.346  32.246  1.00  0.00     0.064 A 
ATOM     84  C   UNL A   1      47.139  25.436  33.308  1.00  0.00     0.173 A 
ATOM     85  C   UNL A   1      48.210  26.719  31.577  1.00  0.00     0.173 A 
ATOM     86  F   UNL A   1      46.045  25.059  33.986  1.00  0.00    -0.203 F 
ATOM     87  C   UNL A   1      48.377  24.927  33.692  1.00  0.00     0.198 A 
ATOM     88  C   UNL A   1      49.440  26.182  31.943  1.00  0.00     0.198 A 
ATOM     89  F   UNL A   1      48.160  27.578  30.549  1.00  0.00    -0.203 F 
ATOM     90  F   UNL A   1      48.459  24.086  34.730  1.00  0.00    -0.200 F 
ATOM     91  C   UNL A   1      49.523  25.291  33.002  1.00  0.00     0.200 A 
ATOM     92  F   UNL A   1      50.545  26.519  31.263  1.00  0.00    -0.200 F 
ATOM     93  F   UNL A   1      50.710  24.782  33.358  1.00  0.00    -0.200 F 
ENDBRANCH  60  83
ENDBRANCH  34  35
ENDBRANCH  26  29
ENDBRANCH  24  25
ENDBRANCH   1  24
TORSDOF 11
ENDMDL
MODEL 2
REMARK VINA RESULT:     -12.4      3.594      8.940
REMARK SMILES Cc1cc2c(c(C)c1Cl)C=C(C(=O)NCCCNC(=O)c1ccc(-c3c4nc(c(-c5c(F)c(F)c(F)c(F)c5F)c5ccc([nH]5)c(-c5c(F)c(F)c(F)c(F)c5F)c5nc(c(-c6c(F)c(F)c(F)c(F)c6F)c6ccc3[nH]6)C=C5)C=C4)cc1)[C@@H](C(F)(F)F)O2
REMARK SMILES IDX 16 1 15 2 14 3 12 4 13 5 11 7 1 8 2 9 3 10 8 11 4 12 6 13
REMARK SMILES IDX 9 14 5 15 89 16 7 17 10 18 84 19 85 20 86 21 87 22 88 23
REMARK SMILES IDX 17 24 18 25 19 26 20 28 21 29 22 30 83 31 23 32 82 33 24 34
REMARK SMILES IDX 25 35 26 36 76 37 27 38 81 39 75 40 77 41 28 42 80 43 74 44
REMARK SMILES IDX 73 45 29 47 61 48 41 49 60 50 42 51 45 52 59 53 78 54 43 55
REMARK SMILES IDX 44 56 58 58 79 59 46 60 30 61 31 62 39 63 32 64 33 65 37 66
REMARK SMILES IDX 40 67 34 68 35 69 38 70 36 71 62 72 63 73 71 74 64 75 65 76
REMARK SMILES IDX 69 77 72 78 66 79 67 80 70 81 68 82 47 83 48 84 56 85 49 86
REMARK SMILES IDX 50 87 54 88 57 89 51 90 52 91 55 92 53 93
REMARK H PARENT 14 6 18 27 77 46 45 57
REMARK Flexibility Score: inf
ROOT
ATOM      1  C   UNL A   1      35.116  23.830  26.379  1.00  0.00     0.042 C 
ENDROOT
BRANCH   1   2
ATOM      2  C   UNL A   1      33.885  23.422  25.586  1.00  0.00     0.118 C 
BRANCH   2   3
ATOM      3  N   UNL A   1      34.030  23.727  24.171  1.00  0.00    -0.352 N 
ATOM      4  C   UNL A   1      33.705  24.738  23.334  1.00  0.00     0.251 C 
ATOM      5  O   UNL A   1      34.025  24.563  22.154  1.00  0.00    -0.270 OA
ATOM      6  H   UNL A   1      34.493  23.000  23.694  1.00  0.00     0.163 HD
BRANCH   4   7
ATOM      7  C   UNL A   1      33.013  25.996  23.738  1.00  0.00     0.067 C 
ATOM      8  C   UNL A   1      31.026  31.706  26.126  1.00  0.00     0.046 C 
ATOM      9  C   UNL A   1      31.771  30.451  25.763  1.00  0.00    -0.028 A 
ATOM     10  C   UNL A   1      31.249  29.637  24.757  1.00  0.00     0.052 A 
ATOM     11  C   UNL A   1      32.976  30.072  26.391  1.00  0.00     0.047 A 
ATOM     12  C   UNL A   1      31.894  28.460  24.399  1.00  0.00     0.128 A 
ATOM     13  C   UNL A   1      33.649  28.879  26.027  1.00  0.00    -0.021 A 
ATOM     14  Cl  UNL A   1      33.622  31.114  27.623  1.00  0.00    -0.084 Cl
ATOM     15  C   UNL A   1      33.087  28.065  25.014  1.00  0.00     0.022 A 
ATOM     16  O   UNL A   1      31.302  27.759  23.388  1.00  0.00    -0.475 OA
ATOM     17  C   UNL A   1      34.940  28.456  26.689  1.00  0.00     0.047 C 
ATOM     18  C   UNL A   1      33.708  26.823  24.540  1.00  0.00     0.026 C 
ATOM     19  C   UNL A   1      31.617  26.348  23.324  1.00  0.00     0.314 C 
BRANCH  19  20
ATOM     20  C   UNL A   1      30.544  25.545  24.086  1.00  0.00     0.429 C 
ATOM     21  F   UNL A   1      31.003  25.193  25.313  1.00  0.00    -0.167 F 
ATOM     22  F   UNL A   1      29.410  26.256  24.293  1.00  0.00    -0.167 F 
ATOM     23  F   UNL A   1      30.184  24.411  23.445  1.00  0.00    -0.167 F 
ENDBRANCH  19  20
ENDBRANCH   4   7
ENDBRANCH   2   3
ENDBRANCH   1   2
BRANCH   1  24
ATOM     24  C   UNL A   1      36.365  23.868  25.509  1.00  0.00     0.118 C 
BRANCH  24  25
ATOM     25  N   UNL A   1      37.290  22.786  25.845  1.00  0.00    -0.352 N 
ATOM     26  C   UNL A   1      38.586  22.838  26.287  1.00  0.00     0.251 C 
ATOM     27  H   UNL A   1      36.926  21.879  25.734  1.00  0.00     0.163 HD
ATOM     28  O   UNL A   1      39.295  21.834  26.236  1.00  0.00    -0.269 OA
BRANCH  26  29
ATOM     29  C   UNL A   1      39.130  24.097  26.824  1.00  0.00     0.039 A 
ATOM     30  C   UNL A   1      39.896  24.925  25.999  1.00  0.00     0.014 A 
ATOM     31  C   UNL A   1      38.900  24.449  28.156  1.00  0.00     0.014 A 
ATOM     32  C   UNL A   1      40.378  26.135  26.497  1.00  0.00     0.010 A 
ATOM     33  C   UNL A   1      39.283  25.698  28.616  1.00  0.00     0.010 A 
ATOM     34  C   UNL A   1      40.044  26.544  27.799  1.00  0.00    -0.014 A 
BRANCH  34  35
ATOM     35  C   UNL A   1      40.513  27.837  28.347  1.00  0.00     0.031 A 
ATOM     36  C   UNL A   1      41.975  28.042  28.621  1.00  0.00     0.074 A 
ATOM     37  C   UNL A   1      39.617  28.795  28.652  1.00  0.00     0.049 A 
ATOM     38  N   UNL A   1      42.580  29.071  29.158  1.00  0.00    -0.248 NA
ATOM     39  C   UNL A   1      42.878  26.931  28.276  1.00  0.00     0.031 C 
ATOM     40  C   UNL A   1      38.169  28.684  28.469  1.00  0.00     0.029 A 
ATOM     41  N   UNL A   1      39.792  30.047  29.181  1.00  0.00    -0.354 N 
ATOM     42  C   UNL A   1      43.923  28.725  29.222  1.00  0.00     0.074 A 
ATOM     43  C   UNL A   1      44.038  27.367  28.740  1.00  0.00     0.031 C 
ATOM     44  C   UNL A   1      37.592  29.837  28.842  1.00  0.00     0.029 A 
ATOM     45  C   UNL A   1      38.622  30.749  29.328  1.00  0.00     0.049 A 
ATOM     46  H   UNL A   1      40.673  30.408  29.432  1.00  0.00     0.167 HD
ATOM     47  C   UNL A   1      44.970  29.486  29.611  1.00  0.00     0.037 A 
ATOM     48  C   UNL A   1      38.408  31.992  29.801  1.00  0.00     0.037 A 
ATOM     49  C   UNL A   1      44.848  30.846  30.062  1.00  0.00     0.049 A 
ATOM     50  C   UNL A   1      39.586  32.812  30.251  1.00  0.00     0.074 A 
ATOM     51  C   UNL A   1      45.848  31.725  30.432  1.00  0.00     0.029 A 
ATOM     52  N   UNL A   1      43.644  31.522  30.205  1.00  0.00    -0.354 N 
ATOM     53  N   UNL A   1      40.859  32.499  30.251  1.00  0.00    -0.248 NA
ATOM     54  C   UNL A   1      39.299  34.157  30.766  1.00  0.00     0.031 C 
ATOM     55  C   UNL A   1      45.248  32.916  30.850  1.00  0.00     0.029 A 
ATOM     56  C   UNL A   1      43.875  32.801  30.686  1.00  0.00     0.049 A 
ATOM     57  H   UNL A   1      42.756  31.150  29.996  1.00  0.00     0.167 HD
ATOM     58  C   UNL A   1      41.527  33.612  30.742  1.00  0.00     0.074 A 
ATOM     59  C   UNL A   1      40.518  34.615  31.016  1.00  0.00     0.031 C 
ATOM     60  C   UNL A   1      42.856  33.784  30.952  1.00  0.00     0.037 A 
BRANCH  47  61
ATOM     61  C   UNL A   1      46.339  28.872  29.549  1.00  0.00     0.064 A 
ATOM     62  C   UNL A   1      46.885  28.183  30.644  1.00  0.00     0.173 A 
ATOM     63  C   UNL A   1      47.100  28.940  28.374  1.00  0.00     0.173 A 
ATOM     64  F   UNL A   1      46.205  28.101  31.798  1.00  0.00    -0.203 F 
ATOM     65  C   UNL A   1      48.152  27.610  30.572  1.00  0.00     0.198 A 
ATOM     66  C   UNL A   1      48.353  28.337  28.294  1.00  0.00     0.198 A 
ATOM     67  F   UNL A   1      46.626  29.584  27.296  1.00  0.00    -0.203 F 
ATOM     68  F   UNL A   1      48.673  27.004  31.648  1.00  0.00    -0.200 F 
ATOM     69  C   UNL A   1      48.881  27.679  29.396  1.00  0.00     0.200 A 
ATOM     70  F   UNL A   1      49.051  28.392  27.151  1.00  0.00    -0.200 F 
ATOM     71  F   UNL A   1      50.096  27.118  29.324  1.00  0.00    -0.200 F 
ENDBRANCH  47  61
BRANCH  48  72
ATOM     72  C   UNL A   1      37.027  32.540  29.820  1.00  0.00     0.064 A 
ATOM     73  C   UNL A   1      36.204  32.363  30.941  1.00  0.00     0.173 A 
ATOM     74  C   UNL A   1      36.520  33.291  28.750  1.00  0.00     0.173 A 
ATOM     75  F   UNL A   1      36.639  31.638  31.982  1.00  0.00    -0.203 F 
ATOM     76  C   UNL A   1      34.925  32.912  30.988  1.00  0.00     0.198 A 
ATOM     77  C   UNL A   1      35.250  33.863  28.809  1.00  0.00     0.198 A 
ATOM     78  F   UNL A   1      37.271  33.496  27.658  1.00  0.00    -0.203 F 
ATOM     79  F   UNL A   1      34.149  32.708  32.062  1.00  0.00    -0.200 F 
ATOM     80  C   UNL A   1      34.453  33.671  29.928  1.00  0.00     0.200 A 
ATOM     81  F   UNL A   1      34.806  34.610  27.790  1.00  0.00    -0.200 F 
ATOM     82  F   UNL A   1      33.230  34.217  29.982  1.00  0.00    -0.200 F 
ENDBRANCH  48  72
BRANCH  60  83
ATOM     83  C   UNL A   1      43.307  35.110  31.494  1.00  0.00     0.064 A 
ATOM     84  C   UNL A   1      43.701  36.152  30.643  1.00  0.00     0.173 A 
ATOM     85  C   UNL A   1      43.261  35.367  32.874  1.00  0.00     0.173 A 
ATOM     86  F   UNL A   1      43.772  35.952  29.319  1.00  0.00    -0.203 F 
ATOM     87  C   UNL A   1      44.044  37.400  31.153  1.00  0.00     0.198 A 
ATOM     88  C   UNL A   1      43.574  36.626  33.377  1.00  0.00     0.198 A 
ATOM     89  F   UNL A   1      42.882  34.406  33.728  1.00  0.00    -0.203 F 
ATOM     90  F   UNL A   1      44.449  38.372  30.325  1.00  0.00    -0.200 F 
ATOM     91  C   UNL A   1      43.969  37.639  32.517  1.00  0.00     0.200 A 
ATOM     92  F   UNL A   1      43.482  36.860  34.693  1.00  0.00    -0.200 F 
ATOM     93  F   UNL A   1      44.277  38.849  33.005  1.00  0.00    -0.200 F 
ENDBRANCH  60  83
ENDBRANCH  34  35
ENDBRANCH  26  29
ENDBRANCH  24  25
ENDBRANCH   1  24
TORSDOF 11
ENDMDL
MODEL 3
REMARK VINA RESULT:     -12.4      4.376      7.863
REMARK SMILES Cc1cc2c(c(C)c1Cl)C=C(C(=O)NCCCNC(=O)c1ccc(-c3c4nc(c(-c5c(F)c(F)c(F)c(F)c5F)c5ccc([nH]5)c(-c5c(F)c(F)c(F)c(F)c5F)c5nc(c(-c6c(F)c(F)c(F)c(F)c6F)c6ccc3[nH]6)C=C5)C=C4)cc1)[C@@H](C(F)(F)F)O2
REMARK SMILES IDX 16 1 15 2 14 3 12 4 13 5 11 7 1 8 2 9 3 10 8 11 4 12 6 13
REMARK SMILES IDX 9 14 5 15 89 16 7 17 10 18 84 19 85 20 86 21 87 22 88 23
REMARK SMILES IDX 17 24 18 25 19 26 20 28 21 29 22 30 83 31 23 32 82 33 24 34
REMARK SMILES IDX 25 35 26 36 76 37 27 38 81 39 75 40 77 41 28 42 80 43 74 44
REMARK SMILES IDX 73 45 29 47 61 48 41 49 60 50 42 51 45 52 59 53 78 54 43 55
REMARK SMILES IDX 44 56 58 58 79 59 46 60 30 61 31 62 39 63 32 64 33 65 37 66
REMARK SMILES IDX 40 67 34 68 35 69 38 70 36 71 62 72 63 73 71 74 64 75 65 76
REMARK SMILES IDX 69 77 72 78 66 79 67 80 70 81 68 82 47 83 48 84 56 85 49 86
REMARK SMILES IDX 50 87 54 88 57 89 51 90 52 91 55 92 53 93
REMARK H PARENT 14 6 18 27 77 46 45 57
REMARK Flexibility Score: inf
ROOT
ATOM      1  C   UNL A   1      37.852  19.633  24.864  1.00  0.00     0.042 C 
ENDROOT
BRANCH   1   2
ATOM      2  C   UNL A   1      36.545  20.389  25.040  1.00  0.00     0.118 C 
BRANCH   2   3
ATOM      3  N   UNL A   1      35.397  19.496  24.994  1.00  0.00    -0.352 N 
ATOM      4  C   UNL A   1      34.050  19.608  25.002  1.00  0.00     0.251 C 
ATOM      5  O   UNL A   1      33.435  18.539  24.959  1.00  0.00    -0.270 OA
ATOM      6  H   UNL A   1      35.678  18.554  24.943  1.00  0.00     0.163 HD
BRANCH   4   7
ATOM      7  C   UNL A   1      33.298  20.896  25.056  1.00  0.00     0.067 C 
ATOM      8  C   UNL A   1      30.270  26.567  24.090  1.00  0.00     0.046 C 
ATOM      9  C   UNL A   1      31.046  25.284  23.974  1.00  0.00    -0.028 A 
ATOM     10  C   UNL A   1      31.036  24.402  25.056  1.00  0.00     0.052 A 
ATOM     11  C   UNL A   1      31.773  24.935  22.816  1.00  0.00     0.047 A 
ATOM     12  C   UNL A   1      31.752  23.213  25.000  1.00  0.00     0.128 A 
ATOM     13  C   UNL A   1      32.499  23.719  22.743  1.00  0.00    -0.021 A 
ATOM     14  Cl  UNL A   1      31.751  26.035  21.471  1.00  0.00    -0.084 Cl
ATOM     15  C   UNL A   1      32.482  22.853  23.863  1.00  0.00     0.022 A 
ATOM     16  O   UNL A   1      31.648  22.422  26.108  1.00  0.00    -0.475 OA
ATOM     17  C   UNL A   1      33.283  23.330  21.512  1.00  0.00     0.047 C 
ATOM     18  C   UNL A   1      33.176  21.560  23.891  1.00  0.00     0.026 C 
ATOM     19  C   UNL A   1      32.720  21.471  26.312  1.00  0.00     0.314 C 
BRANCH  19  20
ATOM     20  C   UNL A   1      33.788  22.086  27.238  1.00  0.00     0.429 C 
ATOM     21  F   UNL A   1      34.428  21.111  27.930  1.00  0.00    -0.167 F 
ATOM     22  F   UNL A   1      34.744  22.759  26.555  1.00  0.00    -0.167 F 
ATOM     23  F   UNL A   1      33.268  22.950  28.137  1.00  0.00    -0.167 F 
ENDBRANCH  19  20
ENDBRANCH   4   7
ENDBRANCH   2   3
ENDBRANCH   1   2
BRANCH   1  24
ATOM     24  C   UNL A   1      38.956  20.192  25.750  1.00  0.00     0.118 C 
BRANCH  24  25
ATOM     25  N   UNL A   1      40.003  19.203  25.999  1.00  0.00    -0.352 N 
ATOM     26  C   UNL A   1      41.358  19.363  26.125  1.00  0.00     0.251 C 
ATOM     27  H   UNL A   1      39.686  18.276  26.088  1.00  0.00     0.163 HD
ATOM     28  O   UNL A   1      42.105  18.390  26.040  1.00  0.00    -0.269 OA
BRANCH  26  29
ATOM     29  C   UNL A   1      41.920  20.704  26.363  1.00  0.00     0.039 A 
ATOM     30  C   UNL A   1      42.161  21.553  25.279  1.00  0.00     0.014 A 
ATOM     31  C   UNL A   1      42.232  21.113  27.661  1.00  0.00     0.014 A 
ATOM     32  C   UNL A   1      42.657  22.836  25.509  1.00  0.00     0.010 A 
ATOM     33  C   UNL A   1      42.618  22.423  27.898  1.00  0.00     0.010 A 
ATOM     34  C   UNL A   1      42.856  23.290  26.824  1.00  0.00    -0.014 A 
BRANCH  34  35
ATOM     35  C   UNL A   1      43.351  24.657  27.103  1.00  0.00     0.031 A 
ATOM     36  C   UNL A   1      42.418  25.683  27.678  1.00  0.00     0.074 A 
ATOM     37  C   UNL A   1      44.617  24.984  26.783  1.00  0.00     0.049 A 
ATOM     38  N   UNL A   1      42.635  26.947  27.935  1.00  0.00    -0.248 NA
ATOM     39  C   UNL A   1      41.045  25.239  27.976  1.00  0.00     0.031 C 
ATOM     40  C   UNL A   1      45.595  24.080  26.178  1.00  0.00     0.029 A 
ATOM     41  N   UNL A   1      45.296  26.167  26.919  1.00  0.00    -0.354 N 
ATOM     42  C   UNL A   1      41.430  27.445  28.412  1.00  0.00     0.074 A 
ATOM     43  C   UNL A   1      40.465  26.371  28.340  1.00  0.00     0.031 C 
ATOM     44  C   UNL A   1      46.761  24.729  26.032  1.00  0.00     0.029 A 
ATOM     45  C   UNL A   1      46.599  26.104  26.493  1.00  0.00     0.049 A 
ATOM     46  H   UNL A   1      44.888  26.984  27.286  1.00  0.00     0.167 HD
ATOM     47  C   UNL A   1      41.163  28.677  28.902  1.00  0.00     0.037 A 
ATOM     48  C   UNL A   1      47.556  27.052  26.480  1.00  0.00     0.037 A 
ATOM     49  C   UNL A   1      42.138  29.730  28.994  1.00  0.00     0.049 A 
ATOM     50  C   UNL A   1      47.231  28.422  27.007  1.00  0.00     0.074 A 
ATOM     51  C   UNL A   1      41.988  30.999  29.519  1.00  0.00     0.029 A 
ATOM     52  N   UNL A   1      43.448  29.631  28.545  1.00  0.00    -0.354 N 
ATOM     53  N   UNL A   1      46.106  28.867  27.513  1.00  0.00    -0.248 NA
ATOM     54  C   UNL A   1      48.305  29.423  26.963  1.00  0.00     0.031 C 
ATOM     55  C   UNL A   1      43.192  31.688  29.342  1.00  0.00     0.029 A 
ATOM     56  C   UNL A   1      44.111  30.830  28.758  1.00  0.00     0.049 A 
ATOM     57  H   UNL A   1      43.848  28.829  28.137  1.00  0.00     0.167 HD
ATOM     58  C   UNL A   1      46.340  30.188  27.868  1.00  0.00     0.074 A 
ATOM     59  C   UNL A   1      47.722  30.468  27.533  1.00  0.00     0.031 C 
ATOM     60  C   UNL A   1      45.487  31.087  28.416  1.00  0.00     0.037 A 
BRANCH  47  61
ATOM     61  C   UNL A   1      39.769  28.946  29.390  1.00  0.00     0.064 A 
ATOM     62  C   UNL A   1      38.769  29.425  28.529  1.00  0.00     0.173 A 
ATOM     63  C   UNL A   1      39.416  28.688  30.723  1.00  0.00     0.173 A 
ATOM     64  F   UNL A   1      39.056  29.702  27.248  1.00  0.00    -0.203 F 
ATOM     65  C   UNL A   1      37.477  29.663  28.992  1.00  0.00     0.198 A 
ATOM     66  C   UNL A   1      38.115  28.895  31.174  1.00  0.00     0.198 A 
ATOM     67  F   UNL A   1      40.332  28.227  31.588  1.00  0.00    -0.203 F 
ATOM     68  F   UNL A   1      36.554  30.172  28.163  1.00  0.00    -0.200 F 
ATOM     69  C   UNL A   1      37.149  29.390  30.309  1.00  0.00     0.200 A 
ATOM     70  F   UNL A   1      37.796  28.617  32.445  1.00  0.00    -0.200 F 
ATOM     71  F   UNL A   1      35.902  29.608  30.751  1.00  0.00    -0.200 F 
ENDBRANCH  47  61
BRANCH  48  72
ATOM     72  C   UNL A   1      48.919  26.710  25.995  1.00  0.00     0.064 A 
ATOM     73  C   UNL A   1      49.291  26.974  24.670  1.00  0.00     0.173 A 
ATOM     74  C   UNL A   1      49.887  26.165  26.849  1.00  0.00     0.173 A 
ATOM     75  F   UNL A   1      48.395  27.480  23.810  1.00  0.00    -0.203 F 
ATOM     76  C   UNL A   1      50.580  26.701  24.216  1.00  0.00     0.198 A 
ATOM     77  C   UNL A   1      51.184  25.917  26.402  1.00  0.00     0.198 A 
ATOM     78  F   UNL A   1      49.583  25.901  28.129  1.00  0.00    -0.203 F 
ATOM     79  F   UNL A   1      50.904  26.940  22.938  1.00  0.00    -0.200 F 
ATOM     80  C   UNL A   1      51.529  26.183  25.085  1.00  0.00     0.200 A 
ATOM     81  F   UNL A   1      52.102  25.434  27.250  1.00  0.00    -0.200 F 
ATOM     82  F   UNL A   1      52.774  25.940  24.655  1.00  0.00    -0.200 F 
ENDBRANCH  48  72
BRANCH  60  83
ATOM     83  C   UNL A   1      46.018  32.462  28.705  1.00  0.00     0.064 A 
ATOM     84  C   UNL A   1      45.895  33.503  27.772  1.00  0.00     0.173 A 
ATOM     85  C   UNL A   1      46.574  32.762  29.958  1.00  0.00     0.173 A 
ATOM     86  F   UNL A   1      45.382  33.264  26.557  1.00  0.00    -0.203 F 
ATOM     87  C   UNL A   1      46.322  34.791  28.081  1.00  0.00     0.198 A 
ATOM     88  C   UNL A   1      46.969  34.058  30.273  1.00  0.00     0.198 A 
ATOM     89  F   UNL A   1      46.703  31.804  30.887  1.00  0.00    -0.203 F 
ATOM     90  F   UNL A   1      46.227  35.763  27.164  1.00  0.00    -0.200 F 
ATOM     91  C   UNL A   1      46.847  35.070  29.334  1.00  0.00     0.200 A 
ATOM     92  F   UNL A   1      47.458  34.329  31.492  1.00  0.00    -0.200 F 
ATOM     93  F   UNL A   1      47.236  36.316  29.637  1.00  0.00    -0.200 F 
ENDBRANCH  60  83
ENDBRANCH  34  35
ENDBRANCH  26  29
ENDBRANCH  24  25
ENDBRANCH   1  24
TORSDOF 11
ENDMDL
