MODEL 1
REMARK VINA RESULT:     -12.3      0.000      0.000
REMARK SMILES COCC[C@@]1(C(=O)NCCCNC(=O)c2ccc(-c3c4nc(c(-c5c(F)c(F)c(F)c(F)c5F)c5ccc([nH]5)c(-c5c(F)c(F)c(F)c(F)c5F)c5nc(c(-c6c(F)c(F)c(F)c(F)c6F)c6ccc3[nH]6)C=C5)C=C4)cc2)CCC[N@@H+](Cc2cccc3c2OC(C)(C)C3)C1
REMARK SMILES IDX 9 1 8 2 6 3 7 4 5 6 78 7 94 8 79 9 81 10 80 11 4 13 3 14
REMARK SMILES IDX 2 15 1 16 82 17 83 18 84 19 88 20 85 21 87 22 89 23 86 24
REMARK SMILES IDX 93 25 90 26 91 27 92 28 10 29 11 30 12 31 13 32 14 34 15 35
REMARK SMILES IDX 16 36 77 37 17 38 76 39 18 40 19 41 20 42 70 43 21 44 75 45
REMARK SMILES IDX 69 46 71 47 22 48 74 49 68 50 67 51 23 53 55 54 35 55 54 56
REMARK SMILES IDX 36 57 39 58 53 59 72 60 37 61 38 62 52 64 73 65 40 66 24 67
REMARK SMILES IDX 25 68 33 69 26 70 27 71 31 72 34 73 28 74 29 75 32 76 30 77
REMARK SMILES IDX 56 78 57 79 65 80 58 81 59 82 63 83 66 84 60 85 61 86 64 87
REMARK SMILES IDX 62 88 41 89 42 90 50 91 43 92 44 93 48 94 51 95 45 96 46 97
REMARK SMILES IDX 49 98 47 99
REMARK H PARENT 8 5 81 12 12 33 71 52 39 63
REMARK Flexibility Score: inf
ROOT
ATOM      1  C   UNL A   1      36.553  20.106  25.020  1.00  0.00     0.117 C 
ENDROOT
BRANCH   1   2
ATOM      2  N   UNL A   1      36.357  21.510  25.270  1.00  0.00    -0.355 N 
ATOM      3  C   UNL A   1      35.256  22.166  25.692  1.00  0.00     0.232 C 
ATOM      4  O   UNL A   1      35.521  23.121  26.438  1.00  0.00    -0.274 OA
ATOM      5  H   UNL A   1      37.145  22.078  25.111  1.00  0.00     0.163 HD
BRANCH   3   6
ATOM      6  C   UNL A   1      33.789  21.890  25.268  1.00  0.00     0.100 C 
ATOM      7  C   UNL A   1      33.799  21.894  23.717  1.00  0.00     0.029 C 
ATOM      8  C   UNL A   1      32.648  22.868  25.714  1.00  0.00     0.279 C 
ATOM      9  C   UNL A   1      33.991  23.327  23.206  1.00  0.00     0.063 C 
ATOM     10  N   UNL A   1      32.702  24.219  25.152  1.00  0.00    -0.330 N 
ATOM     11  C   UNL A   1      32.876  24.258  23.702  1.00  0.00     0.262 C 
ATOM     12  H   UNL A   1      33.587  24.595  25.492  1.00  0.00     0.348 HD
BRANCH   6  13
ATOM     13  C   UNL A   1      33.360  20.472  25.810  1.00  0.00     0.051 C 
BRANCH  13  14
ATOM     14  C   UNL A   1      32.776  19.413  24.857  1.00  0.00     0.161 C 
BRANCH  14  15
ATOM     15  O   UNL A   1      32.134  18.351  25.575  1.00  0.00    -0.385 OA
ATOM     16  C   UNL A   1      32.844  17.122  25.550  1.00  0.00     0.194 C 
ENDBRANCH  14  15
ENDBRANCH  13  14
ENDBRANCH   6  13
BRANCH  10  17
ATOM     17  C   UNL A   1      31.745  25.206  25.742  1.00  0.00     0.303 C 
BRANCH  17  18
ATOM     18  C   UNL A   1      32.187  26.653  25.680  1.00  0.00     0.049 A 
ATOM     19  C   UNL A   1      33.443  27.021  26.163  1.00  0.00     0.013 A 
ATOM     20  C   UNL A   1      31.607  27.524  24.789  1.00  0.00     0.132 A 
ATOM     21  C   UNL A   1      34.171  28.018  25.500  1.00  0.00     0.001 A 
ATOM     22  C   UNL A   1      32.385  28.279  23.946  1.00  0.00    -0.001 A 
ATOM     23  O   UNL A   1      30.275  27.810  24.667  1.00  0.00    -0.487 OA
ATOM     24  C   UNL A   1      33.686  28.562  24.301  1.00  0.00     0.008 A 
ATOM     25  C   UNL A   1      31.528  28.620  22.778  1.00  0.00     0.087 C 
ATOM     26  C   UNL A   1      30.195  28.748  23.543  1.00  0.00     0.108 C 
ATOM     27  C   UNL A   1      30.042  30.242  23.912  1.00  0.00     0.057 C 
ATOM     28  C   UNL A   1      28.933  28.281  22.825  1.00  0.00     0.057 C 
ENDBRANCH  17  18
ENDBRANCH  10  17
ENDBRANCH   3   6
ENDBRANCH   1   2
BRANCH   1  29
ATOM     29  C   UNL A   1      37.992  19.770  24.696  1.00  0.00     0.042 C 
BRANCH  29  30
ATOM     30  C   UNL A   1      38.920  20.166  25.835  1.00  0.00     0.118 C 
BRANCH  30  31
ATOM     31  N   UNL A   1      40.016  19.208  26.003  1.00  0.00    -0.352 N 
ATOM     32  C   UNL A   1      41.364  19.403  26.072  1.00  0.00     0.251 C 
ATOM     33  H   UNL A   1      39.732  18.269  26.080  1.00  0.00     0.163 HD
ATOM     34  O   UNL A   1      42.130  18.443  25.882  1.00  0.00    -0.269 OA
BRANCH  32  35
ATOM     35  C   UNL A   1      41.919  20.728  26.378  1.00  0.00     0.039 A 
ATOM     36  C   UNL A   1      42.147  21.640  25.343  1.00  0.00     0.014 A 
ATOM     37  C   UNL A   1      42.262  21.061  27.690  1.00  0.00     0.014 A 
ATOM     38  C   UNL A   1      42.660  22.903  25.636  1.00  0.00     0.010 A 
ATOM     39  C   UNL A   1      42.662  22.353  27.995  1.00  0.00     0.010 A 
ATOM     40  C   UNL A   1      42.884  23.281  26.970  1.00  0.00    -0.014 A 
BRANCH  40  41
ATOM     41  C   UNL A   1      43.374  24.633  27.325  1.00  0.00     0.031 A 
ATOM     42  C   UNL A   1      42.425  25.645  27.906  1.00  0.00     0.074 A 
ATOM     43  C   UNL A   1      44.646  24.971  27.044  1.00  0.00     0.049 A 
ATOM     44  N   UNL A   1      42.628  26.909  28.181  1.00  0.00    -0.248 NA
ATOM     45  C   UNL A   1      41.053  25.187  28.178  1.00  0.00     0.031 C 
ATOM     46  C   UNL A   1      45.641  24.091  26.430  1.00  0.00     0.029 A 
ATOM     47  N   UNL A   1      45.318  26.154  27.227  1.00  0.00    -0.354 N 
ATOM     48  C   UNL A   1      41.408  27.396  28.634  1.00  0.00     0.074 A 
ATOM     49  C   UNL A   1      40.455  26.312  28.537  1.00  0.00     0.031 C 
ATOM     50  C   UNL A   1      46.802  24.753  26.312  1.00  0.00     0.029 A 
ATOM     51  C   UNL A   1      46.621  26.116  26.799  1.00  0.00     0.049 A 
ATOM     52  H   UNL A   1      44.904  26.952  27.627  1.00  0.00     0.167 HD
ATOM     53  C   UNL A   1      41.118  28.627  29.113  1.00  0.00     0.037 A 
ATOM     54  C   UNL A   1      47.561  27.080  26.792  1.00  0.00     0.037 A 
ATOM     55  C   UNL A   1      42.081  29.688  29.237  1.00  0.00     0.049 A 
ATOM     56  C   UNL A   1      47.213  28.440  27.333  1.00  0.00     0.074 A 
ATOM     57  C   UNL A   1      41.910  30.953  29.770  1.00  0.00     0.029 A 
ATOM     58  N   UNL A   1      43.403  29.605  28.820  1.00  0.00    -0.354 N 
ATOM     59  N   UNL A   1      46.076  28.871  27.824  1.00  0.00    -0.248 NA
ATOM     60  C   UNL A   1      48.282  29.447  27.325  1.00  0.00     0.031 C 
ATOM     61  C   UNL A   1      43.113  31.652  29.630  1.00  0.00     0.029 A 
ATOM     62  C   UNL A   1      44.052  30.804  29.064  1.00  0.00     0.049 A 
ATOM     63  H   UNL A   1      43.817  28.810  28.411  1.00  0.00     0.167 HD
ATOM     64  C   UNL A   1      46.300  30.184  28.213  1.00  0.00     0.074 A 
ATOM     65  C   UNL A   1      47.687  30.475  27.912  1.00  0.00     0.031 C 
ATOM     66  C   UNL A   1      45.437  31.069  28.769  1.00  0.00     0.037 A 
BRANCH  53  67
ATOM     67  C   UNL A   1      39.703  28.891  29.546  1.00  0.00     0.064 A 
ATOM     68  C   UNL A   1      39.289  28.696  30.872  1.00  0.00     0.173 A 
ATOM     69  C   UNL A   1      38.757  29.375  28.630  1.00  0.00     0.173 A 
ATOM     70  F   UNL A   1      40.150  28.222  31.787  1.00  0.00    -0.203 F 
ATOM     71  C   UNL A   1      37.975  28.944  31.259  1.00  0.00     0.198 A 
ATOM     72  C   UNL A   1      37.452  29.655  29.027  1.00  0.00     0.198 A 
ATOM     73  F   UNL A   1      39.100  29.585  27.349  1.00  0.00    -0.203 F 
ATOM     74  F   UNL A   1      37.590  28.697  32.518  1.00  0.00    -0.200 F 
ATOM     75  C   UNL A   1      37.059  29.431  30.337  1.00  0.00     0.200 A 
ATOM     76  F   UNL A   1      36.572  30.139  28.139  1.00  0.00    -0.200 F 
ATOM     77  F   UNL A   1      35.797  29.677  30.712  1.00  0.00    -0.200 F 
ENDBRANCH  53  67
BRANCH  54  78
ATOM     78  C   UNL A   1      48.925  26.785  26.281  1.00  0.00     0.064 A 
ATOM     79  C   UNL A   1      49.280  27.094  24.961  1.00  0.00     0.173 A 
ATOM     80  C   UNL A   1      49.899  26.189  27.096  1.00  0.00     0.173 A 
ATOM     81  F   UNL A   1      48.377  27.648  24.138  1.00  0.00    -0.203 F 
ATOM     82  C   UNL A   1      50.548  26.796  24.468  1.00  0.00     0.198 A 
ATOM     83  C   UNL A   1      51.177  25.921  26.610  1.00  0.00     0.198 A 
ATOM     84  F   UNL A   1      49.613  25.882  28.370  1.00  0.00    -0.203 F 
ATOM     85  F   UNL A   1      50.845  27.058  23.187  1.00  0.00    -0.200 F 
ATOM     86  C   UNL A   1      51.498  26.216  25.294  1.00  0.00     0.200 A 
ATOM     87  F   UNL A   1      52.096  25.374  27.417  1.00  0.00    -0.200 F 
ATOM     88  F   UNL A   1      52.718  25.932  24.819  1.00  0.00    -0.200 F 
ENDBRANCH  54  78
BRANCH  66  89
ATOM     89  C   UNL A   1      45.977  32.422  29.131  1.00  0.00     0.064 A 
ATOM     90  C   UNL A   1      46.583  32.667  30.371  1.00  0.00     0.173 A 
ATOM     91  C   UNL A   1      45.928  33.474  28.204  1.00  0.00     0.173 A 
ATOM     92  F   UNL A   1      46.643  31.698  31.298  1.00  0.00    -0.203 F 
ATOM     93  C   UNL A   1      47.096  33.924  30.680  1.00  0.00     0.198 A 
ATOM     94  C   UNL A   1      46.471  34.719  28.502  1.00  0.00     0.198 A 
ATOM     95  F   UNL A   1      45.365  33.289  26.999  1.00  0.00    -0.203 F 
ATOM     96  F   UNL A   1      47.627  34.150  31.890  1.00  0.00    -0.200 F 
ATOM     97  C   UNL A   1      47.048  34.946  29.743  1.00  0.00     0.200 A 
ATOM     98  F   UNL A   1      46.439  35.700  27.590  1.00  0.00    -0.200 F 
ATOM     99  F   UNL A   1      47.552  36.152  30.038  1.00  0.00    -0.200 F 
ENDBRANCH  66  89
ENDBRANCH  40  41
ENDBRANCH  32  35
ENDBRANCH  30  31
ENDBRANCH  29  30
ENDBRANCH   1  29
TORSDOF 15
ENDMDL
MODEL 2
REMARK VINA RESULT:     -12.3      4.342     10.038
REMARK SMILES COCC[C@@]1(C(=O)NCCCNC(=O)c2ccc(-c3c4nc(c(-c5c(F)c(F)c(F)c(F)c5F)c5ccc([nH]5)c(-c5c(F)c(F)c(F)c(F)c5F)c5nc(c(-c6c(F)c(F)c(F)c(F)c6F)c6ccc3[nH]6)C=C5)C=C4)cc2)CCC[N@@H+](Cc2cccc3c2OC(C)(C)C3)C1
REMARK SMILES IDX 9 1 8 2 6 3 7 4 5 6 78 7 94 8 79 9 81 10 80 11 4 13 3 14
REMARK SMILES IDX 2 15 1 16 82 17 83 18 84 19 88 20 85 21 87 22 89 23 86 24
REMARK SMILES IDX 93 25 90 26 91 27 92 28 10 29 11 30 12 31 13 32 14 34 15 35
REMARK SMILES IDX 16 36 77 37 17 38 76 39 18 40 19 41 20 42 70 43 21 44 75 45
REMARK SMILES IDX 69 46 71 47 22 48 74 49 68 50 67 51 23 53 55 54 35 55 54 56
REMARK SMILES IDX 36 57 39 58 53 59 72 60 37 61 38 62 52 64 73 65 40 66 24 67
REMARK SMILES IDX 25 68 33 69 26 70 27 71 31 72 34 73 28 74 29 75 32 76 30 77
REMARK SMILES IDX 56 78 57 79 65 80 58 81 59 82 63 83 66 84 60 85 61 86 64 87
REMARK SMILES IDX 62 88 41 89 42 90 50 91 43 92 44 93 48 94 51 95 45 96 46 97
REMARK SMILES IDX 49 98 47 99
REMARK H PARENT 8 5 81 12 12 33 71 52 39 63
REMARK Flexibility Score: inf
ROOT
ATOM      1  C   UNL A   1      32.680  27.122  23.322  1.00  0.00     0.117 C 
ENDROOT
BRANCH   1   2
ATOM      2  N   UNL A   1      33.617  26.089  22.961  1.00  0.00    -0.355 N 
ATOM      3  C   UNL A   1      33.648  24.789  23.320  1.00  0.00     0.232 C 
ATOM      4  O   UNL A   1      34.060  24.050  22.413  1.00  0.00    -0.274 OA
ATOM      5  H   UNL A   1      34.344  26.375  22.362  1.00  0.00     0.163 HD
BRANCH   3   6
ATOM      6  C   UNL A   1      33.317  24.201  24.717  1.00  0.00     0.100 C 
ATOM      7  C   UNL A   1      34.258  24.937  25.708  1.00  0.00     0.029 C 
ATOM      8  C   UNL A   1      33.495  22.667  24.983  1.00  0.00     0.279 C 
ATOM      9  C   UNL A   1      35.698  24.447  25.514  1.00  0.00     0.063 C 
ATOM     10  N   UNL A   1      34.869  22.160  24.942  1.00  0.00    -0.330 N 
ATOM     11  C   UNL A   1      35.817  22.934  25.741  1.00  0.00     0.262 C 
ATOM     12  H   UNL A   1      35.176  22.351  23.988  1.00  0.00     0.348 HD
BRANCH   6  13
ATOM     13  C   UNL A   1      31.810  24.514  25.058  1.00  0.00     0.051 C 
BRANCH  13  14
ATOM     14  C   UNL A   1      31.402  24.957  26.475  1.00  0.00     0.161 C 
BRANCH  14  15
ATOM     15  O   UNL A   1      31.153  23.833  27.330  1.00  0.00    -0.385 OA
ATOM     16  C   UNL A   1      30.113  22.979  26.876  1.00  0.00     0.194 C 
ENDBRANCH  14  15
ENDBRANCH  13  14
ENDBRANCH   6  13
BRANCH  10  17
ATOM     17  C   UNL A   1      35.013  20.673  24.980  1.00  0.00     0.303 C 
BRANCH  17  18
ATOM     18  C   UNL A   1      33.789  19.892  24.548  1.00  0.00     0.049 A 
ATOM     19  C   UNL A   1      32.777  20.524  23.825  1.00  0.00     0.013 A 
ATOM     20  C   UNL A   1      33.832  18.522  24.447  1.00  0.00     0.132 A 
ATOM     21  C   UNL A   1      32.108  19.819  22.815  1.00  0.00     0.001 A 
ATOM     22  C   UNL A   1      33.425  17.893  23.296  1.00  0.00    -0.001 A 
ATOM     23  O   UNL A   1      34.187  17.637  25.428  1.00  0.00    -0.487 OA
ATOM     24  C   UNL A   1      32.528  18.527  22.464  1.00  0.00     0.008 A 
ATOM     25  C   UNL A   1      34.121  16.578  23.267  1.00  0.00     0.087 C 
ATOM     26  C   UNL A   1      34.116  16.320  24.787  1.00  0.00     0.108 C 
ATOM     27  C   UNL A   1      32.851  15.483  25.087  1.00  0.00     0.057 C 
ATOM     28  C   UNL A   1      35.332  15.611  25.376  1.00  0.00     0.057 C 
ENDBRANCH  17  18
ENDBRANCH  10  17
ENDBRANCH   3   6
ENDBRANCH   1   2
BRANCH   1  29
ATOM     29  C   UNL A   1      33.338  28.475  23.475  1.00  0.00     0.042 C 
BRANCH  29  30
ATOM     30  C   UNL A   1      33.678  28.762  24.930  1.00  0.00     0.118 C 
BRANCH  30  31
ATOM     31  N   UNL A   1      33.086  30.020  25.390  1.00  0.00    -0.352 N 
ATOM     32  C   UNL A   1      33.274  30.721  26.545  1.00  0.00     0.251 C 
ATOM     33  H   UNL A   1      32.448  30.428  24.762  1.00  0.00     0.163 HD
ATOM     34  O   UNL A   1      32.439  31.576  26.883  1.00  0.00    -0.269 OA
BRANCH  32  35
ATOM     35  C   UNL A   1      34.456  30.485  27.385  1.00  0.00     0.039 A 
ATOM     36  C   UNL A   1      34.638  29.239  27.991  1.00  0.00     0.014 A 
ATOM     37  C   UNL A   1      35.370  31.515  27.616  1.00  0.00     0.014 A 
ATOM     38  C   UNL A   1      35.767  29.012  28.777  1.00  0.00     0.010 A 
ATOM     39  C   UNL A   1      36.548  31.255  28.299  1.00  0.00     0.010 A 
ATOM     40  C   UNL A   1      36.750  30.007  28.903  1.00  0.00    -0.014 A 
BRANCH  40  41
ATOM     41  C   UNL A   1      37.990  29.783  29.682  1.00  0.00     0.031 A 
ATOM     42  C   UNL A   1      39.053  28.862  29.149  1.00  0.00     0.074 A 
ATOM     43  C   UNL A   1      38.116  30.340  30.901  1.00  0.00     0.049 A 
ATOM     44  N   UNL A   1      40.155  28.449  29.723  1.00  0.00    -0.248 NA
ATOM     45  C   UNL A   1      38.829  28.298  27.808  1.00  0.00     0.031 C 
ATOM     46  C   UNL A   1      37.126  31.205  31.545  1.00  0.00     0.029 A 
ATOM     47  N   UNL A   1      39.127  30.249  31.824  1.00  0.00    -0.354 N 
ATOM     48  C   UNL A   1      40.738  27.565  28.824  1.00  0.00     0.074 A 
ATOM     49  C   UNL A   1      39.839  27.449  27.696  1.00  0.00     0.031 C 
ATOM     50  C   UNL A   1      37.590  31.588  32.744  1.00  0.00     0.029 A 
ATOM     51  C   UNL A   1      38.885  30.960  32.974  1.00  0.00     0.049 A 
ATOM     52  H   UNL A   1      39.947  29.725  31.677  1.00  0.00     0.167 HD
ATOM     53  C   UNL A   1      41.929  26.929  28.919  1.00  0.00     0.037 A 
ATOM     54  C   UNL A   1      39.626  31.080  34.092  1.00  0.00     0.037 A 
ATOM     55  C   UNL A   1      42.831  27.077  30.029  1.00  0.00     0.049 A 
ATOM     56  C   UNL A   1      40.947  30.365  34.171  1.00  0.00     0.074 A 
ATOM     57  C   UNL A   1      44.091  26.531  30.198  1.00  0.00     0.029 A 
ATOM     58  N   UNL A   1      42.566  27.830  31.165  1.00  0.00    -0.354 N 
ATOM     59  N   UNL A   1      41.522  29.587  33.287  1.00  0.00    -0.248 NA
ATOM     60  C   UNL A   1      41.726  30.551  35.402  1.00  0.00     0.031 C 
ATOM     61  C   UNL A   1      44.567  26.912  31.456  1.00  0.00     0.029 A 
ATOM     62  C   UNL A   1      43.630  27.744  32.047  1.00  0.00     0.049 A 
ATOM     63  H   UNL A   1      41.743  28.349  31.319  1.00  0.00     0.167 HD
ATOM     64  C   UNL A   1      42.741  29.216  33.837  1.00  0.00     0.074 A 
ATOM     65  C   UNL A   1      42.828  29.868  35.129  1.00  0.00     0.031 C 
ATOM     66  C   UNL A   1      43.702  28.411  33.322  1.00  0.00     0.037 A 
BRANCH  53  67
ATOM     67  C   UNL A   1      42.327  26.022  27.789  1.00  0.00     0.064 A 
ATOM     68  C   UNL A   1      41.841  24.710  27.691  1.00  0.00     0.173 A 
ATOM     69  C   UNL A   1      43.182  26.480  26.775  1.00  0.00     0.173 A 
ATOM     70  F   UNL A   1      41.030  24.216  28.640  1.00  0.00    -0.203 F 
ATOM     71  C   UNL A   1      42.220  23.880  26.639  1.00  0.00     0.198 A 
ATOM     72  C   UNL A   1      43.532  25.660  25.707  1.00  0.00     0.198 A 
ATOM     73  F   UNL A   1      43.673  27.729  26.817  1.00  0.00    -0.203 F 
ATOM     74  F   UNL A   1      41.785  22.613  26.597  1.00  0.00    -0.200 F 
ATOM     75  C   UNL A   1      43.058  24.359  25.643  1.00  0.00     0.200 A 
ATOM     76  F   UNL A   1      44.331  26.128  24.737  1.00  0.00    -0.200 F 
ATOM     77  F   UNL A   1      43.416  23.562  24.626  1.00  0.00    -0.200 F 
ENDBRANCH  53  67
BRANCH  54  78
ATOM     78  C   UNL A   1      39.147  31.932  35.211  1.00  0.00     0.064 A 
ATOM     79  C   UNL A   1      39.401  33.311  35.224  1.00  0.00     0.173 A 
ATOM     80  C   UNL A   1      38.430  31.391  36.289  1.00  0.00     0.173 A 
ATOM     81  F   UNL A   1      40.098  33.871  34.225  1.00  0.00    -0.203 F 
ATOM     82  C   UNL A   1      38.978  34.111  36.283  1.00  0.00     0.198 A 
ATOM     83  C   UNL A   1      37.980  32.198  37.331  1.00  0.00     0.198 A 
ATOM     84  F   UNL A   1      38.152  30.079  36.320  1.00  0.00    -0.203 F 
ATOM     85  F   UNL A   1      39.277  35.417  36.293  1.00  0.00    -0.200 F 
ATOM     86  C   UNL A   1      38.262  33.556  37.333  1.00  0.00     0.200 A 
ATOM     87  F   UNL A   1      37.275  31.660  38.336  1.00  0.00    -0.200 F 
ATOM     88  F   UNL A   1      37.853  34.327  38.349  1.00  0.00    -0.200 F 
ENDBRANCH  54  78
BRANCH  66  89
ATOM     89  C   UNL A   1      44.951  28.225  34.134  1.00  0.00     0.064 A 
ATOM     90  C   UNL A   1      46.043  29.095  34.019  1.00  0.00     0.173 A 
ATOM     91  C   UNL A   1      45.034  27.186  35.074  1.00  0.00     0.173 A 
ATOM     92  F   UNL A   1      46.019  30.096  33.124  1.00  0.00    -0.203 F 
ATOM     93  C   UNL A   1      47.185  28.917  34.795  1.00  0.00     0.198 A 
ATOM     94  C   UNL A   1      46.163  27.030  35.872  1.00  0.00     0.198 A 
ATOM     95  F   UNL A   1      44.012  26.330  35.229  1.00  0.00    -0.203 F 
ATOM     96  F   UNL A   1      48.238  29.731  34.633  1.00  0.00    -0.200 F 
ATOM     97  C   UNL A   1      47.241  27.890  35.727  1.00  0.00     0.200 A 
ATOM     98  F   UNL A   1      46.208  26.049  36.783  1.00  0.00    -0.200 F 
ATOM     99  F   UNL A   1      48.336  27.727  36.481  1.00  0.00    -0.200 F 
ENDBRANCH  66  89
ENDBRANCH  40  41
ENDBRANCH  32  35
ENDBRANCH  30  31
ENDBRANCH  29  30
ENDBRANCH   1  29
TORSDOF 15
ENDMDL
MODEL 3
REMARK VINA RESULT:     -12.3      0.925      2.145
REMARK SMILES COCC[C@@]1(C(=O)NCCCNC(=O)c2ccc(-c3c4nc(c(-c5c(F)c(F)c(F)c(F)c5F)c5ccc([nH]5)c(-c5c(F)c(F)c(F)c(F)c5F)c5nc(c(-c6c(F)c(F)c(F)c(F)c6F)c6ccc3[nH]6)C=C5)C=C4)cc2)CCC[N@@H+](Cc2cccc3c2OC(C)(C)C3)C1
REMARK SMILES IDX 9 1 8 2 6 3 7 4 5 6 78 7 94 8 79 9 81 10 80 11 4 13 3 14
REMARK SMILES IDX 2 15 1 16 82 17 83 18 84 19 88 20 85 21 87 22 89 23 86 24
REMARK SMILES IDX 93 25 90 26 91 27 92 28 10 29 11 30 12 31 13 32 14 34 15 35
REMARK SMILES IDX 16 36 77 37 17 38 76 39 18 40 19 41 20 42 70 43 21 44 75 45
REMARK SMILES IDX 69 46 71 47 22 48 74 49 68 50 67 51 23 53 55 54 35 55 54 56
REMARK SMILES IDX 36 57 39 58 53 59 72 60 37 61 38 62 52 64 73 65 40 66 24 67
REMARK SMILES IDX 25 68 33 69 26 70 27 71 31 72 34 73 28 74 29 75 32 76 30 77
REMARK SMILES IDX 56 78 57 79 65 80 58 81 59 82 63 83 66 84 60 85 61 86 64 87
REMARK SMILES IDX 62 88 41 89 42 90 50 91 43 92 44 93 48 94 51 95 45 96 46 97
REMARK SMILES IDX 49 98 47 99
REMARK H PARENT 8 5 81 12 12 33 71 52 39 63
REMARK Flexibility Score: inf
ROOT
ATOM      1  C   UNL A   1      36.508  20.170  25.043  1.00  0.00     0.117 C 
ENDROOT
BRANCH   1   2
ATOM      2  N   UNL A   1      36.330  21.549  25.416  1.00  0.00    -0.355 N 
ATOM      3  C   UNL A   1      35.207  22.213  25.759  1.00  0.00     0.232 C 
ATOM      4  O   UNL A   1      35.403  23.072  26.632  1.00  0.00    -0.274 OA
ATOM      5  H   UNL A   1      37.154  22.090  25.423  1.00  0.00     0.163 HD
BRANCH   3   6
ATOM      6  C   UNL A   1      33.802  22.056  25.120  1.00  0.00     0.100 C 
ATOM      7  C   UNL A   1      34.010  22.293  23.600  1.00  0.00     0.029 C 
ATOM      8  C   UNL A   1      32.630  22.997  25.565  1.00  0.00     0.279 C 
ATOM      9  C   UNL A   1      34.289  23.778  23.342  1.00  0.00     0.063 C 
ATOM     10  N   UNL A   1      32.777  24.414  25.227  1.00  0.00    -0.330 N 
ATOM     11  C   UNL A   1      33.136  24.664  23.833  1.00  0.00     0.262 C 
ATOM     12  H   UNL A   1      33.619  24.703  25.728  1.00  0.00     0.348 HD
BRANCH   6  13
ATOM     13  C   UNL A   1      33.284  20.590  25.381  1.00  0.00     0.051 C 
BRANCH  13  14
ATOM     14  C   UNL A   1      32.611  19.785  24.254  1.00  0.00     0.161 C 
BRANCH  14  15
ATOM     15  O   UNL A   1      32.849  18.377  24.394  1.00  0.00    -0.385 OA
ATOM     16  C   UNL A   1      32.917  17.676  23.161  1.00  0.00     0.194 C 
ENDBRANCH  14  15
ENDBRANCH  13  14
ENDBRANCH   6  13
BRANCH  10  17
ATOM     17  C   UNL A   1      31.770  25.335  25.839  1.00  0.00     0.303 C 
BRANCH  17  18
ATOM     18  C   UNL A   1      32.151  26.800  25.845  1.00  0.00     0.049 A 
ATOM     19  C   UNL A   1      33.342  27.209  26.447  1.00  0.00     0.013 A 
ATOM     20  C   UNL A   1      31.617  27.667  24.922  1.00  0.00     0.132 A 
ATOM     21  C   UNL A   1      34.082  28.251  25.872  1.00  0.00     0.001 A 
ATOM     22  C   UNL A   1      32.433  28.473  24.167  1.00  0.00    -0.001 A 
ATOM     23  O   UNL A   1      30.290  27.899  24.685  1.00  0.00    -0.487 OA
ATOM     24  C   UNL A   1      33.683  28.802  24.645  1.00  0.00     0.008 A 
ATOM     25  C   UNL A   1      31.670  28.805  22.933  1.00  0.00     0.087 C 
ATOM     26  C   UNL A   1      30.270  28.859  23.577  1.00  0.00     0.108 C 
ATOM     27  C   UNL A   1      30.018  30.336  23.959  1.00  0.00     0.057 C 
ATOM     28  C   UNL A   1      29.099  28.356  22.738  1.00  0.00     0.057 C 
ENDBRANCH  17  18
ENDBRANCH  10  17
ENDBRANCH   3   6
ENDBRANCH   1   2
BRANCH   1  29
ATOM     29  C   UNL A   1      37.941  19.846  24.683  1.00  0.00     0.042 C 
BRANCH  29  30
ATOM     30  C   UNL A   1      38.894  20.248  25.799  1.00  0.00     0.118 C 
BRANCH  30  31
ATOM     31  N   UNL A   1      39.993  19.292  25.949  1.00  0.00    -0.352 N 
ATOM     32  C   UNL A   1      41.335  19.493  26.078  1.00  0.00     0.251 C 
ATOM     33  H   UNL A   1      39.716  18.347  25.959  1.00  0.00     0.163 HD
ATOM     34  O   UNL A   1      42.118  18.553  25.859  1.00  0.00    -0.269 OA
BRANCH  32  35
ATOM     35  C   UNL A   1      41.866  20.802  26.483  1.00  0.00     0.039 A 
ATOM     36  C   UNL A   1      42.188  21.750  25.509  1.00  0.00     0.014 A 
ATOM     37  C   UNL A   1      42.090  21.082  27.832  1.00  0.00     0.014 A 
ATOM     38  C   UNL A   1      42.677  22.997  25.895  1.00  0.00     0.010 A 
ATOM     39  C   UNL A   1      42.465  22.359  28.221  1.00  0.00     0.010 A 
ATOM     40  C   UNL A   1      42.781  23.323  27.257  1.00  0.00    -0.014 A 
BRANCH  40  41
ATOM     41  C   UNL A   1      43.243  24.658  27.706  1.00  0.00     0.031 A 
ATOM     42  C   UNL A   1      42.236  25.720  28.053  1.00  0.00     0.074 A 
ATOM     43  C   UNL A   1      44.560  24.935  27.716  1.00  0.00     0.049 A 
ATOM     44  N   UNL A   1      42.431  26.978  28.360  1.00  0.00    -0.248 NA
ATOM     45  C   UNL A   1      40.818  25.328  28.012  1.00  0.00     0.031 C 
ATOM     46  C   UNL A   1      45.625  24.001  27.346  1.00  0.00     0.029 A 
ATOM     47  N   UNL A   1      45.228  26.088  28.039  1.00  0.00    -0.354 N 
ATOM     48  C   UNL A   1      41.165  27.525  28.525  1.00  0.00     0.074 A 
ATOM     49  C   UNL A   1      40.208  26.484  28.222  1.00  0.00     0.031 C 
ATOM     50  C   UNL A   1      46.812  24.609  27.489  1.00  0.00     0.029 A 
ATOM     51  C   UNL A   1      46.591  25.986  27.915  1.00  0.00     0.049 A 
ATOM     52  H   UNL A   1      44.773  26.911  28.332  1.00  0.00     0.167 HD
ATOM     53  C   UNL A   1      40.833  28.776  28.920  1.00  0.00     0.037 A 
ATOM     54  C   UNL A   1      47.553  26.908  28.114  1.00  0.00     0.037 A 
ATOM     55  C   UNL A   1      41.793  29.795  29.252  1.00  0.00     0.049 A 
ATOM     56  C   UNL A   1      47.156  28.290  28.556  1.00  0.00     0.074 A 
ATOM     57  C   UNL A   1      41.566  31.074  29.726  1.00  0.00     0.029 A 
ATOM     58  N   UNL A   1      43.169  29.646  29.143  1.00  0.00    -0.354 N 
ATOM     59  N   UNL A   1      45.960  28.778  28.777  1.00  0.00    -0.248 NA
ATOM     60  C   UNL A   1      48.246  29.248  28.784  1.00  0.00     0.031 C 
ATOM     61  C   UNL A   1      42.801  31.717  29.856  1.00  0.00     0.029 A 
ATOM     62  C   UNL A   1      43.802  30.819  29.520  1.00  0.00     0.049 A 
ATOM     63  H   UNL A   1      43.626  28.827  28.842  1.00  0.00     0.167 HD
ATOM     64  C   UNL A   1      46.152  30.086  29.199  1.00  0.00     0.074 A 
ATOM     65  C   UNL A   1      47.583  30.311  29.216  1.00  0.00     0.031 C 
ATOM     66  C   UNL A   1      45.229  31.017  29.542  1.00  0.00     0.037 A 
BRANCH  53  67
ATOM     67  C   UNL A   1      39.371  29.110  29.023  1.00  0.00     0.064 A 
ATOM     68  C   UNL A   1      38.615  29.464  27.896  1.00  0.00     0.173 A 
ATOM     69  C   UNL A   1      38.711  29.044  30.259  1.00  0.00     0.173 A 
ATOM     70  F   UNL A   1      39.199  29.554  26.691  1.00  0.00    -0.203 F 
ATOM     71  C   UNL A   1      37.261  29.772  28.007  1.00  0.00     0.198 A 
ATOM     72  C   UNL A   1      37.351  29.319  30.362  1.00  0.00     0.198 A 
ATOM     73  F   UNL A   1      39.385  28.706  31.370  1.00  0.00    -0.203 F 
ATOM     74  F   UNL A   1      36.574  30.161  26.925  1.00  0.00    -0.200 F 
ATOM     75  C   UNL A   1      36.629  29.691  29.238  1.00  0.00     0.200 A 
ATOM     76  F   UNL A   1      36.737  29.227  31.550  1.00  0.00    -0.200 F 
ATOM     77  F   UNL A   1      35.324  29.979  29.343  1.00  0.00    -0.200 F 
ENDBRANCH  53  67
BRANCH  54  78
ATOM     78  C   UNL A   1      48.981  26.544  27.924  1.00  0.00     0.064 A 
ATOM     79  C   UNL A   1      49.802  26.260  29.024  1.00  0.00     0.173 A 
ATOM     80  C   UNL A   1      49.555  26.471  26.646  1.00  0.00     0.173 A 
ATOM     81  F   UNL A   1      49.303  26.333  30.267  1.00  0.00    -0.203 F 
ATOM     82  C   UNL A   1      51.148  25.943  28.855  1.00  0.00     0.198 A 
ATOM     83  C   UNL A   1      50.893  26.124  26.477  1.00  0.00     0.198 A 
ATOM     84  F   UNL A   1      48.810  26.724  25.560  1.00  0.00    -0.203 F 
ATOM     85  F   UNL A   1      51.922  25.725  29.928  1.00  0.00    -0.200 F 
ATOM     86  C   UNL A   1      51.691  25.869  27.582  1.00  0.00     0.200 A 
ATOM     87  F   UNL A   1      51.410  26.038  25.244  1.00  0.00    -0.200 F 
ATOM     88  F   UNL A   1      52.985  25.562  27.421  1.00  0.00    -0.200 F 
ENDBRANCH  54  78
BRANCH  66  89
ATOM     89  C   UNL A   1      45.737  32.350  30.010  1.00  0.00     0.064 A 
ATOM     90  C   UNL A   1      45.929  33.419  29.124  1.00  0.00     0.173 A 
ATOM     91  C   UNL A   1      45.991  32.571  31.373  1.00  0.00     0.173 A 
ATOM     92  F   UNL A   1      45.714  33.255  27.810  1.00  0.00    -0.203 F 
ATOM     93  C   UNL A   1      46.383  34.654  29.582  1.00  0.00     0.198 A 
ATOM     94  C   UNL A   1      46.411  33.815  31.831  1.00  0.00     0.198 A 
ATOM     95  F   UNL A   1      45.815  31.582  32.263  1.00  0.00    -0.203 F 
ATOM     96  F   UNL A   1      46.607  35.648  28.710  1.00  0.00    -0.200 F 
ATOM     97  C   UNL A   1      46.615  34.853  30.935  1.00  0.00     0.200 A 
ATOM     98  F   UNL A   1      46.619  34.011  33.140  1.00  0.00    -0.200 F 
ATOM     99  F   UNL A   1      47.041  36.045  31.374  1.00  0.00    -0.200 F 
ENDBRANCH  66  89
ENDBRANCH  40  41
ENDBRANCH  32  35
ENDBRANCH  30  31
ENDBRANCH  29  30
ENDBRANCH   1  29
TORSDOF 15
ENDMDL
