MODEL 1
REMARK VINA RESULT:     -11.7      0.000      0.000
REMARK SMILES CC(C)(C)C(=O)Nc1ccc(C(=O)NCCCNC(=O)c2ccc(-c3c4nc(c(-c5c(F)c(F)c(F)c(F)c5F)c5ccc([nH]5)c(-c5c(F)c(F)c(F)c(F)c5F)c5nc(c(-c6c(F)c(F)c(F)c(F)c6F)c6ccc3[nH]6)C=C5)C=C4)cc2)cc1Br
REMARK SMILES IDX 16 1 15 2 14 3 12 4 13 5 11 7 8 8 9 9 85 10 10 11 84 12
REMARK SMILES IDX 86 13 7 14 5 15 6 16 2 18 1 19 3 20 4 21 17 22 18 23 19 24
REMARK SMILES IDX 20 26 21 27 22 28 83 29 23 30 82 31 24 32 25 33 26 34 76 35
REMARK SMILES IDX 27 36 81 37 75 38 77 39 28 40 80 41 74 42 73 43 29 45 61 46
REMARK SMILES IDX 41 47 60 48 42 49 45 50 59 51 78 52 43 53 44 54 58 56 79 57
REMARK SMILES IDX 46 58 30 59 31 60 39 61 32 62 33 63 37 64 40 65 34 66 35 67
REMARK SMILES IDX 38 68 36 69 62 70 63 71 71 72 64 73 65 74 69 75 72 76 66 77
REMARK SMILES IDX 67 78 70 79 68 80 47 81 48 82 56 83 49 84 50 85 54 86 57 87
REMARK SMILES IDX 51 88 52 89 55 90 53 91
REMARK H PARENT 14 6 7 17 18 25 77 44 45 55
REMARK Flexibility Score: inf
ROOT
ATOM      1  C   UNL A   1      35.626  23.783  24.799  1.00  0.00     0.042 C 
ENDROOT
BRANCH   1   2
ATOM      2  C   UNL A   1      34.236  23.176  24.611  1.00  0.00     0.118 C 
BRANCH   2   3
ATOM      3  N   UNL A   1      33.973  22.850  23.217  1.00  0.00    -0.352 N 
ATOM      4  C   UNL A   1      33.361  23.575  22.226  1.00  0.00     0.251 C 
ATOM      5  O   UNL A   1      33.359  23.140  21.075  1.00  0.00    -0.269 OA
ATOM      6  H   UNL A   1      34.285  21.959  22.938  1.00  0.00     0.163 HD
BRANCH   4   7
ATOM      7  C   UNL A   1      32.768  24.903  22.498  1.00  0.00     0.041 A 
ATOM      8  C   UNL A   1      31.849  27.426  23.252  1.00  0.00     0.055 A 
ATOM      9  C   UNL A   1      33.078  27.301  22.603  1.00  0.00     0.028 A 
ATOM     10  C   UNL A   1      30.998  26.318  23.334  1.00  0.00     0.042 A 
ATOM     11  C   UNL A   1      33.545  26.038  22.241  1.00  0.00     0.016 A 
ATOM     12  C   UNL A   1      31.462  25.055  22.965  1.00  0.00     0.031 A 
ATOM     13  Br  UNL A   1      29.181  26.469  23.870  1.00  0.00    -0.049 Br
BRANCH   8  14
ATOM     14  N   UNL A   1      31.489  28.685  23.733  1.00  0.00    -0.325 N 
ATOM     15  C   UNL A   1      31.613  29.203  24.993  1.00  0.00     0.229 C 
ATOM     16  O   UNL A   1      31.083  30.306  25.172  1.00  0.00    -0.274 OA
ATOM     17  H   UNL A   1      31.086  29.289  23.068  1.00  0.00     0.169 HD
BRANCH  15  18
ATOM     18  C   UNL A   1      32.440  28.524  26.126  1.00  0.00     0.041 C 
ATOM     19  C   UNL A   1      32.239  29.357  27.416  1.00  0.00     0.021 C 
ATOM     20  C   UNL A   1      33.942  28.545  25.806  1.00  0.00     0.021 C 
ATOM     21  C   UNL A   1      31.997  27.095  26.458  1.00  0.00     0.021 C 
ENDBRANCH  15  18
ENDBRANCH   8  14
ENDBRANCH   4   7
ENDBRANCH   2   3
ENDBRANCH   1   2
BRANCH   1  22
ATOM     22  C   UNL A   1      36.250  23.485  26.159  1.00  0.00     0.118 C 
BRANCH  22  23
ATOM     23  N   UNL A   1      37.389  22.585  26.062  1.00  0.00    -0.352 N 
ATOM     24  C   UNL A   1      38.724  22.827  26.261  1.00  0.00     0.251 C 
ATOM     25  H   UNL A   1      37.167  21.658  25.815  1.00  0.00     0.163 HD
ATOM     26  O   UNL A   1      39.546  21.968  25.941  1.00  0.00    -0.269 OA
BRANCH  24  27
ATOM     27  C   UNL A   1      39.195  24.106  26.838  1.00  0.00     0.039 A 
ATOM     28  C   UNL A   1      39.920  24.984  26.024  1.00  0.00     0.014 A 
ATOM     29  C   UNL A   1      38.980  24.429  28.182  1.00  0.00     0.014 A 
ATOM     30  C   UNL A   1      40.384  26.197  26.540  1.00  0.00     0.010 A 
ATOM     31  C   UNL A   1      39.376  25.671  28.675  1.00  0.00     0.010 A 
ATOM     32  C   UNL A   1      40.093  26.563  27.864  1.00  0.00    -0.014 A 
BRANCH  32  33
ATOM     33  C   UNL A   1      40.551  27.861  28.423  1.00  0.00     0.031 A 
ATOM     34  C   UNL A   1      42.004  28.069  28.757  1.00  0.00     0.074 A 
ATOM     35  C   UNL A   1      39.655  28.833  28.684  1.00  0.00     0.049 A 
ATOM     36  N   UNL A   1      42.587  29.097  29.322  1.00  0.00    -0.248 NA
ATOM     37  C   UNL A   1      42.918  26.962  28.438  1.00  0.00     0.031 C 
ATOM     38  C   UNL A   1      38.216  28.741  28.442  1.00  0.00     0.029 A 
ATOM     39  N   UNL A   1      39.823  30.085  29.221  1.00  0.00    -0.354 N 
ATOM     40  C   UNL A   1      43.927  28.752  29.443  1.00  0.00     0.074 A 
ATOM     41  C   UNL A   1      44.063  27.403  28.939  1.00  0.00     0.031 C 
ATOM     42  C   UNL A   1      37.634  29.894  28.808  1.00  0.00     0.029 A 
ATOM     43  C   UNL A   1      38.651  30.792  29.345  1.00  0.00     0.049 A 
ATOM     44  H   UNL A   1      40.699  30.442  29.493  1.00  0.00     0.167 HD
ATOM     45  C   UNL A   1      44.955  29.502  29.910  1.00  0.00     0.037 A 
ATOM     46  C   UNL A   1      38.425  32.023  29.840  1.00  0.00     0.037 A 
ATOM     47  C   UNL A   1      44.823  30.855  30.382  1.00  0.00     0.049 A 
ATOM     48  C   UNL A   1      39.585  32.835  30.353  1.00  0.00     0.074 A 
ATOM     49  C   UNL A   1      45.811  31.717  30.824  1.00  0.00     0.029 A 
ATOM     50  N   UNL A   1      43.622  31.545  30.470  1.00  0.00    -0.354 N 
ATOM     51  N   UNL A   1      40.855  32.520  30.408  1.00  0.00    -0.248 NA
ATOM     52  C   UNL A   1      39.276  34.178  30.866  1.00  0.00     0.031 C 
ATOM     53  C   UNL A   1      45.205  32.915  31.218  1.00  0.00     0.029 A 
ATOM     54  C   UNL A   1      43.843  32.816  30.976  1.00  0.00     0.049 A 
ATOM     55  H   UNL A   1      42.743  31.185  30.213  1.00  0.00     0.167 HD
ATOM     56  C   UNL A   1      41.502  33.633  30.929  1.00  0.00     0.074 A 
ATOM     57  C   UNL A   1      40.484  34.636  31.163  1.00  0.00     0.031 C 
ATOM     58  C   UNL A   1      42.821  33.807  31.190  1.00  0.00     0.037 A 
BRANCH  45  59
ATOM     59  C   UNL A   1      46.319  28.872  29.928  1.00  0.00     0.064 A 
ATOM     60  C   UNL A   1      46.791  28.171  31.048  1.00  0.00     0.173 A 
ATOM     61  C   UNL A   1      47.152  28.946  28.801  1.00  0.00     0.173 A 
ATOM     62  F   UNL A   1      46.039  28.081  32.154  1.00  0.00    -0.203 F 
ATOM     63  C   UNL A   1      48.060  27.596  31.051  1.00  0.00     0.198 A 
ATOM     64  C   UNL A   1      48.407  28.343  28.796  1.00  0.00     0.198 A 
ATOM     65  F   UNL A   1      46.747  29.598  27.701  1.00  0.00    -0.203 F 
ATOM     66  F   UNL A   1      48.510  26.977  32.151  1.00  0.00    -0.200 F 
ATOM     67  C   UNL A   1      48.863  27.676  29.924  1.00  0.00     0.200 A 
ATOM     68  F   UNL A   1      49.178  28.410  27.702  1.00  0.00    -0.200 F 
ATOM     69  F   UNL A   1      50.082  27.117  29.927  1.00  0.00    -0.200 F 
ENDBRANCH  45  59
BRANCH  46  70
ATOM     70  C   UNL A   1      37.047  32.578  29.847  1.00  0.00     0.064 A 
ATOM     71  C   UNL A   1      36.560  33.301  28.749  1.00  0.00     0.173 A 
ATOM     72  C   UNL A   1      36.192  32.405  30.945  1.00  0.00     0.173 A 
ATOM     73  F   UNL A   1      37.347  33.511  27.684  1.00  0.00    -0.203 F 
ATOM     74  C   UNL A   1      35.278  33.845  28.757  1.00  0.00     0.198 A 
ATOM     75  C   UNL A   1      34.900  32.926  30.941  1.00  0.00     0.198 A 
ATOM     76  F   UNL A   1      36.610  31.717  32.019  1.00  0.00    -0.203 F 
ATOM     77  F   UNL A   1      34.852  34.568  27.712  1.00  0.00    -0.200 F 
ATOM     78  C   UNL A   1      34.446  33.652  29.850  1.00  0.00     0.200 A 
ATOM     79  F   UNL A   1      34.096  32.725  31.993  1.00  0.00    -0.200 F 
ATOM     80  F   UNL A   1      33.212  34.172  29.856  1.00  0.00    -0.200 F 
ENDBRANCH  46  70
BRANCH  58  81
ATOM     81  C   UNL A   1      43.245  35.147  31.716  1.00  0.00     0.064 A 
ATOM     82  C   UNL A   1      43.239  35.436  33.088  1.00  0.00     0.173 A 
ATOM     83  C   UNL A   1      43.701  36.142  30.837  1.00  0.00     0.173 A 
ATOM     84  F   UNL A   1      42.798  34.524  33.968  1.00  0.00    -0.203 F 
ATOM     85  C   UNL A   1      43.648  36.682  33.559  1.00  0.00     0.198 A 
ATOM     86  C   UNL A   1      44.137  37.374  31.313  1.00  0.00     0.198 A 
ATOM     87  F   UNL A   1      43.733  35.912  29.515  1.00  0.00    -0.203 F 
ATOM     88  F   UNL A   1      43.589  36.952  34.870  1.00  0.00    -0.200 F 
ATOM     89  C   UNL A   1      44.103  37.646  32.672  1.00  0.00     0.200 A 
ATOM     90  F   UNL A   1      44.589  38.300  30.455  1.00  0.00    -0.200 F 
ATOM     91  F   UNL A   1      44.503  38.841  33.128  1.00  0.00    -0.200 F 
ENDBRANCH  58  81
ENDBRANCH  32  33
ENDBRANCH  24  27
ENDBRANCH  22  23
ENDBRANCH   1  22
TORSDOF 12
ENDMDL
MODEL 2
REMARK VINA RESULT:     -11.6      3.234      8.600
REMARK SMILES CC(C)(C)C(=O)Nc1ccc(C(=O)NCCCNC(=O)c2ccc(-c3c4nc(c(-c5c(F)c(F)c(F)c(F)c5F)c5ccc([nH]5)c(-c5c(F)c(F)c(F)c(F)c5F)c5nc(c(-c6c(F)c(F)c(F)c(F)c6F)c6ccc3[nH]6)C=C5)C=C4)cc2)cc1Br
REMARK SMILES IDX 16 1 15 2 14 3 12 4 13 5 11 7 8 8 9 9 85 10 10 11 84 12
REMARK SMILES IDX 86 13 7 14 5 15 6 16 2 18 1 19 3 20 4 21 17 22 18 23 19 24
REMARK SMILES IDX 20 26 21 27 22 28 83 29 23 30 82 31 24 32 25 33 26 34 76 35
REMARK SMILES IDX 27 36 81 37 75 38 77 39 28 40 80 41 74 42 73 43 29 45 61 46
REMARK SMILES IDX 41 47 60 48 42 49 45 50 59 51 78 52 43 53 44 54 58 56 79 57
REMARK SMILES IDX 46 58 30 59 31 60 39 61 32 62 33 63 37 64 40 65 34 66 35 67
REMARK SMILES IDX 38 68 36 69 62 70 63 71 71 72 64 73 65 74 69 75 72 76 66 77
REMARK SMILES IDX 67 78 70 79 68 80 47 81 48 82 56 83 49 84 50 85 54 86 57 87
REMARK SMILES IDX 51 88 52 89 55 90 53 91
REMARK H PARENT 14 6 7 17 18 25 77 44 45 55
REMARK Flexibility Score: inf
ROOT
ATOM      1  C   UNL A   1      38.325  19.513  24.991  1.00  0.00     0.042 C 
ENDROOT
BRANCH   1   2
ATOM      2  C   UNL A   1      37.419  20.709  24.699  1.00  0.00     0.118 C 
BRANCH   2   3
ATOM      3  N   UNL A   1      37.943  21.938  25.277  1.00  0.00    -0.352 N 
ATOM      4  C   UNL A   1      37.330  23.136  25.543  1.00  0.00     0.251 C 
ATOM      5  O   UNL A   1      37.948  24.006  26.156  1.00  0.00    -0.269 OA
ATOM      6  H   UNL A   1      38.897  21.904  25.518  1.00  0.00     0.163 HD
BRANCH   4   7
ATOM      7  C   UNL A   1      35.919  23.378  25.172  1.00  0.00     0.041 A 
ATOM      8  C   UNL A   1      33.332  24.136  24.456  1.00  0.00     0.055 A 
ATOM      9  C   UNL A   1      34.341  24.119  23.492  1.00  0.00     0.028 A 
ATOM     10  C   UNL A   1      33.574  23.579  25.717  1.00  0.00     0.042 A 
ATOM     11  C   UNL A   1      35.639  23.756  23.854  1.00  0.00     0.016 A 
ATOM     12  C   UNL A   1      34.870  23.208  26.077  1.00  0.00     0.031 A 
ATOM     13  Br  UNL A   1      32.179  23.231  26.960  1.00  0.00    -0.049 Br
BRANCH   8  14
ATOM     14  N   UNL A   1      32.088  24.651  24.090  1.00  0.00    -0.325 N 
ATOM     15  C   UNL A   1      31.577  25.906  24.275  1.00  0.00     0.229 C 
ATOM     16  O   UNL A   1      30.386  26.049  23.970  1.00  0.00    -0.274 OA
ATOM     17  H   UNL A   1      31.490  24.017  23.632  1.00  0.00     0.169 HD
BRANCH  15  18
ATOM     18  C   UNL A   1      32.430  27.122  24.747  1.00  0.00     0.041 C 
ATOM     19  C   UNL A   1      31.484  28.343  24.857  1.00  0.00     0.021 C 
ATOM     20  C   UNL A   1      33.507  27.479  23.711  1.00  0.00     0.021 C 
ATOM     21  C   UNL A   1      33.072  26.943  26.127  1.00  0.00     0.021 C 
ENDBRANCH  15  18
ENDBRANCH   8  14
ENDBRANCH   4   7
ENDBRANCH   2   3
ENDBRANCH   1   2
BRANCH   1  22
ATOM     22  C   UNL A   1      39.316  19.753  26.125  1.00  0.00     0.118 C 
BRANCH  22  23
ATOM     23  N   UNL A   1      40.477  18.881  26.043  1.00  0.00    -0.352 N 
ATOM     24  C   UNL A   1      41.814  19.189  26.037  1.00  0.00     0.251 C 
ATOM     25  H   UNL A   1      40.272  17.919  25.980  1.00  0.00     0.163 HD
ATOM     26  O   UNL A   1      42.633  18.310  25.766  1.00  0.00    -0.269 OA
BRANCH  24  27
ATOM     27  C   UNL A   1      42.288  20.559  26.333  1.00  0.00     0.039 A 
ATOM     28  C   UNL A   1      42.590  21.412  25.265  1.00  0.00     0.014 A 
ATOM     29  C   UNL A   1      42.488  20.998  27.646  1.00  0.00     0.014 A 
ATOM     30  C   UNL A   1      43.045  22.710  25.511  1.00  0.00     0.010 A 
ATOM     31  C   UNL A   1      42.869  22.316  27.892  1.00  0.00     0.010 A 
ATOM     32  C   UNL A   1      43.163  23.183  26.828  1.00  0.00    -0.014 A 
BRANCH  32  33
ATOM     33  C   UNL A   1      43.617  24.569  27.111  1.00  0.00     0.031 A 
ATOM     34  C   UNL A   1      42.641  25.592  27.630  1.00  0.00     0.074 A 
ATOM     35  C   UNL A   1      44.890  24.925  26.851  1.00  0.00     0.049 A 
ATOM     36  N   UNL A   1      42.822  26.867  27.865  1.00  0.00    -0.248 NA
ATOM     37  C   UNL A   1      41.273  25.122  27.892  1.00  0.00     0.031 C 
ATOM     38  C   UNL A   1      45.921  24.039  26.311  1.00  0.00     0.029 A 
ATOM     39  N   UNL A   1      45.529  26.131  26.994  1.00  0.00    -0.354 N 
ATOM     40  C   UNL A   1      41.590  27.353  28.282  1.00  0.00     0.074 A 
ATOM     41  C   UNL A   1      40.658  26.249  28.221  1.00  0.00     0.031 C 
ATOM     42  C   UNL A   1      47.069  24.724  26.189  1.00  0.00     0.029 A 
ATOM     43  C   UNL A   1      46.847  26.105  26.606  1.00  0.00     0.049 A 
ATOM     44  H   UNL A   1      45.086  26.939  27.341  1.00  0.00     0.167 HD
ATOM     45  C   UNL A   1      41.270  28.602  28.701  1.00  0.00     0.037 A 
ATOM     46  C   UNL A   1      47.768  27.086  26.585  1.00  0.00     0.037 A 
ATOM     47  C   UNL A   1      42.207  29.691  28.791  1.00  0.00     0.049 A 
ATOM     48  C   UNL A   1      47.388  28.464  27.055  1.00  0.00     0.074 A 
ATOM     49  C   UNL A   1      41.994  30.978  29.253  1.00  0.00     0.029 A 
ATOM     50  N   UNL A   1      43.539  29.619  28.410  1.00  0.00    -0.354 N 
ATOM     51  N   UNL A   1      46.234  28.897  27.502  1.00  0.00    -0.248 NA
ATOM     52  C   UNL A   1      48.442  29.488  27.023  1.00  0.00     0.031 C 
ATOM     53  C   UNL A   1      43.186  31.696  29.115  1.00  0.00     0.029 A 
ATOM     54  C   UNL A   1      44.156  30.843  28.611  1.00  0.00     0.049 A 
ATOM     55  H   UNL A   1      43.980  28.816  28.049  1.00  0.00     0.167 HD
ATOM     56  C   UNL A   1      46.430  30.231  27.835  1.00  0.00     0.074 A 
ATOM     57  C   UNL A   1      47.817  30.533  27.549  1.00  0.00     0.031 C 
ATOM     58  C   UNL A   1      45.541  31.124  28.333  1.00  0.00     0.037 A 
BRANCH  45  59
ATOM     59  C   UNL A   1      39.844  28.855  29.101  1.00  0.00     0.064 A 
ATOM     60  C   UNL A   1      39.413  28.695  30.426  1.00  0.00     0.173 A 
ATOM     61  C   UNL A   1      38.906  29.290  28.153  1.00  0.00     0.173 A 
ATOM     62  F   UNL A   1      40.267  28.270  31.368  1.00  0.00    -0.203 F 
ATOM     63  C   UNL A   1      38.086  28.930  30.781  1.00  0.00     0.198 A 
ATOM     64  C   UNL A   1      37.588  29.555  28.518  1.00  0.00     0.198 A 
ATOM     65  F   UNL A   1      39.267  29.466  26.873  1.00  0.00    -0.203 F 
ATOM     66  F   UNL A   1      37.685  28.720  32.042  1.00  0.00    -0.200 F 
ATOM     67  C   UNL A   1      37.178  29.366  29.829  1.00  0.00     0.200 A 
ATOM     68  F   UNL A   1      36.714  29.988  27.599  1.00  0.00    -0.200 F 
ATOM     69  F   UNL A   1      35.903  29.596  30.174  1.00  0.00    -0.200 F 
ENDBRANCH  45  59
BRANCH  46  70
ATOM     70  C   UNL A   1      49.153  26.794  26.130  1.00  0.00     0.064 A 
ATOM     71  C   UNL A   1      49.527  27.000  24.795  1.00  0.00     0.173 A 
ATOM     72  C   UNL A   1      50.125  26.300  27.011  1.00  0.00     0.173 A 
ATOM     73  F   UNL A   1      48.626  27.451  23.909  1.00  0.00    -0.203 F 
ATOM     74  C   UNL A   1      50.815  26.707  24.355  1.00  0.00     0.198 A 
ATOM     75  C   UNL A   1      51.421  26.033  26.576  1.00  0.00     0.198 A 
ATOM     76  F   UNL A   1      49.818  26.090  28.300  1.00  0.00    -0.203 F 
ATOM     77  F   UNL A   1      51.134  26.873  23.064  1.00  0.00    -0.200 F 
ATOM     78  C   UNL A   1      51.763  26.229  25.246  1.00  0.00     0.200 A 
ATOM     79  F   UNL A   1      52.337  25.584  27.444  1.00  0.00    -0.200 F 
ATOM     80  F   UNL A   1      53.004  25.950  24.824  1.00  0.00    -0.200 F 
ENDBRANCH  46  70
BRANCH  58  81
ATOM     81  C   UNL A   1      46.051  32.501  28.643  1.00  0.00     0.064 A 
ATOM     82  C   UNL A   1      46.616  32.814  29.888  1.00  0.00     0.173 A 
ATOM     83  C   UNL A   1      46.008  33.509  27.668  1.00  0.00     0.173 A 
ATOM     84  F   UNL A   1      46.666  31.890  30.859  1.00  0.00    -0.203 F 
ATOM     85  C   UNL A   1      47.095  34.095  30.153  1.00  0.00     0.198 A 
ATOM     86  C   UNL A   1      46.515  34.779  27.927  1.00  0.00     0.198 A 
ATOM     87  F   UNL A   1      45.484  33.258  26.459  1.00  0.00    -0.203 F 
ATOM     88  F   UNL A   1      47.588  34.385  31.366  1.00  0.00    -0.200 F 
ATOM     89  C   UNL A   1      47.051  35.073  29.171  1.00  0.00     0.200 A 
ATOM     90  F   UNL A   1      46.483  35.719  26.972  1.00  0.00    -0.200 F 
ATOM     91  F   UNL A   1      47.519  36.302  29.427  1.00  0.00    -0.200 F 
ENDBRANCH  58  81
ENDBRANCH  32  33
ENDBRANCH  24  27
ENDBRANCH  22  23
ENDBRANCH   1  22
TORSDOF 12
ENDMDL
MODEL 3
REMARK VINA RESULT:     -11.6      4.186      8.204
REMARK SMILES CC(C)(C)C(=O)Nc1ccc(C(=O)NCCCNC(=O)c2ccc(-c3c4nc(c(-c5c(F)c(F)c(F)c(F)c5F)c5ccc([nH]5)c(-c5c(F)c(F)c(F)c(F)c5F)c5nc(c(-c6c(F)c(F)c(F)c(F)c6F)c6ccc3[nH]6)C=C5)C=C4)cc2)cc1Br
REMARK SMILES IDX 16 1 15 2 14 3 12 4 13 5 11 7 8 8 9 9 85 10 10 11 84 12
REMARK SMILES IDX 86 13 7 14 5 15 6 16 2 18 1 19 3 20 4 21 17 22 18 23 19 24
REMARK SMILES IDX 20 26 21 27 22 28 83 29 23 30 82 31 24 32 25 33 26 34 76 35
REMARK SMILES IDX 27 36 81 37 75 38 77 39 28 40 80 41 74 42 73 43 29 45 61 46
REMARK SMILES IDX 41 47 60 48 42 49 45 50 59 51 78 52 43 53 44 54 58 56 79 57
REMARK SMILES IDX 46 58 30 59 31 60 39 61 32 62 33 63 37 64 40 65 34 66 35 67
REMARK SMILES IDX 38 68 36 69 62 70 63 71 71 72 64 73 65 74 69 75 72 76 66 77
REMARK SMILES IDX 67 78 70 79 68 80 47 81 48 82 56 83 49 84 50 85 54 86 57 87
REMARK SMILES IDX 51 88 52 89 55 90 53 91
REMARK H PARENT 14 6 7 17 18 25 77 44 45 55
REMARK Flexibility Score: inf
ROOT
ATOM      1  C   UNL A   1      31.452  32.272  26.781  1.00  0.00     0.042 C 
ENDROOT
BRANCH   1   2
ATOM      2  C   UNL A   1      31.672  30.774  26.578  1.00  0.00     0.118 C 
BRANCH   2   3
ATOM      3  N   UNL A   1      32.949  30.337  27.123  1.00  0.00    -0.352 N 
ATOM      4  C   UNL A   1      33.643  29.166  26.953  1.00  0.00     0.251 C 
ATOM      5  O   UNL A   1      34.777  29.064  27.420  1.00  0.00    -0.269 OA
ATOM      6  H   UNL A   1      33.389  30.991  27.712  1.00  0.00     0.163 HD
BRANCH   4   7
ATOM      7  C   UNL A   1      33.086  28.049  26.159  1.00  0.00     0.041 A 
ATOM      8  C   UNL A   1      32.218  25.755  24.830  1.00  0.00     0.055 A 
ATOM      9  C   UNL A   1      31.765  26.020  26.124  1.00  0.00     0.028 A 
ATOM     10  C   UNL A   1      32.934  26.738  24.136  1.00  0.00     0.042 A 
ATOM     11  C   UNL A   1      32.213  27.159  26.795  1.00  0.00     0.016 A 
ATOM     12  C   UNL A   1      33.374  27.880  24.804  1.00  0.00     0.031 A 
ATOM     13  Br  UNL A   1      33.278  26.617  22.271  1.00  0.00    -0.049 Br
BRANCH   8  14
ATOM     14  N   UNL A   1      31.870  24.533  24.254  1.00  0.00    -0.325 N 
ATOM     15  C   UNL A   1      32.577  23.363  24.203  1.00  0.00     0.229 C 
ATOM     16  O   UNL A   1      32.081  22.469  23.505  1.00  0.00    -0.274 OA
ATOM     17  H   UNL A   1      30.986  24.510  23.820  1.00  0.00     0.169 HD
BRANCH  15  18
ATOM     18  C   UNL A   1      33.872  23.102  25.029  1.00  0.00     0.041 C 
ATOM     19  C   UNL A   1      34.410  21.706  24.628  1.00  0.00     0.021 C 
ATOM     20  C   UNL A   1      33.569  23.052  26.534  1.00  0.00     0.021 C 
ATOM     21  C   UNL A   1      35.003  24.099  24.758  1.00  0.00     0.021 C 
ENDBRANCH  15  18
ENDBRANCH   8  14
ENDBRANCH   4   7
ENDBRANCH   2   3
ENDBRANCH   1   2
BRANCH   1  22
ATOM     22  C   UNL A   1      32.735  33.055  27.040  1.00  0.00     0.118 C 
BRANCH  22  23
ATOM     23  N   UNL A   1      32.480  34.359  27.631  1.00  0.00    -0.352 N 
ATOM     24  C   UNL A   1      33.024  34.944  28.747  1.00  0.00     0.251 C 
ATOM     25  H   UNL A   1      31.813  34.908  27.157  1.00  0.00     0.163 HD
ATOM     26  O   UNL A   1      32.529  35.983  29.184  1.00  0.00    -0.269 OA
BRANCH  24  27
ATOM     27  C   UNL A   1      34.183  34.341  29.442  1.00  0.00     0.039 A 
ATOM     28  C   UNL A   1      33.951  33.560  30.580  1.00  0.00     0.014 A 
ATOM     29  C   UNL A   1      35.495  34.577  29.022  1.00  0.00     0.014 A 
ATOM     30  C   UNL A   1      35.024  32.981  31.263  1.00  0.00     0.010 A 
ATOM     31  C   UNL A   1      36.559  33.939  29.657  1.00  0.00     0.010 A 
ATOM     32  C   UNL A   1      36.337  33.144  30.793  1.00  0.00    -0.014 A 
BRANCH  32  33
ATOM     33  C   UNL A   1      37.489  32.513  31.486  1.00  0.00     0.031 A 
ATOM     34  C   UNL A   1      38.217  31.361  30.847  1.00  0.00     0.074 A 
ATOM     35  C   UNL A   1      37.847  32.936  32.714  1.00  0.00     0.049 A 
ATOM     36  N   UNL A   1      39.193  30.629  31.323  1.00  0.00    -0.248 NA
ATOM     37  C   UNL A   1      37.768  30.962  29.505  1.00  0.00     0.031 C 
ATOM     38  C   UNL A   1      37.197  34.017  33.457  1.00  0.00     0.029 A 
ATOM     39  N   UNL A   1      38.837  32.501  33.558  1.00  0.00    -0.354 N 
ATOM     40  C   UNL A   1      39.460  29.675  30.349  1.00  0.00     0.074 A 
ATOM     41  C   UNL A   1      38.512  29.888  29.278  1.00  0.00     0.031 C 
ATOM     42  C   UNL A   1      37.820  34.175  34.636  1.00  0.00     0.029 A 
ATOM     43  C   UNL A   1      38.886  33.185  34.749  1.00  0.00     0.049 A 
ATOM     44  H   UNL A   1      39.454  31.767  33.332  1.00  0.00     0.167 HD
ATOM     45  C   UNL A   1      40.423  28.723  30.339  1.00  0.00     0.037 A 
ATOM     46  C   UNL A   1      39.696  33.026  35.812  1.00  0.00     0.037 A 
ATOM     47  C   UNL A   1      41.386  28.532  31.393  1.00  0.00     0.049 A 
ATOM     48  C   UNL A   1      40.759  31.960  35.776  1.00  0.00     0.074 A 
ATOM     49  C   UNL A   1      42.434  27.631  31.453  1.00  0.00     0.029 A 
ATOM     50  N   UNL A   1      41.417  29.260  32.573  1.00  0.00    -0.354 N 
ATOM     51  N   UNL A   1      41.038  31.102  34.825  1.00  0.00    -0.248 NA
ATOM     52  C   UNL A   1      41.622  31.846  36.960  1.00  0.00     0.031 C 
ATOM     53  C   UNL A   1      43.076  27.786  32.686  1.00  0.00     0.029 A 
ATOM     54  C   UNL A   1      42.456  28.817  33.375  1.00  0.00     0.049 A 
ATOM     55  H   UNL A   1      40.792  29.984  32.807  1.00  0.00     0.167 HD
ATOM     56  C   UNL A   1      42.127  30.370  35.280  1.00  0.00     0.074 A 
ATOM     57  C   UNL A   1      42.465  30.893  36.588  1.00  0.00     0.031 C 
ATOM     58  C   UNL A   1      42.787  29.357  34.669  1.00  0.00     0.037 A 
BRANCH  45  59
ATOM     59  C   UNL A   1      40.487  27.814  29.145  1.00  0.00     0.064 A 
ATOM     60  C   UNL A   1      41.329  28.087  28.056  1.00  0.00     0.173 A 
ATOM     61  C   UNL A   1      39.719  26.640  29.101  1.00  0.00     0.173 A 
ATOM     62  F   UNL A   1      42.074  29.202  28.043  1.00  0.00    -0.203 F 
ATOM     63  C   UNL A   1      41.374  27.237  26.954  1.00  0.00     0.198 A 
ATOM     64  C   UNL A   1      39.791  25.776  28.011  1.00  0.00     0.198 A 
ATOM     65  F   UNL A   1      38.903  26.327  30.118  1.00  0.00    -0.203 F 
ATOM     66  F   UNL A   1      42.146  27.547  25.903  1.00  0.00    -0.200 F 
ATOM     67  C   UNL A   1      40.611  26.080  26.935  1.00  0.00     0.200 A 
ATOM     68  F   UNL A   1      39.063  24.651  28.000  1.00  0.00    -0.200 F 
ATOM     69  F   UNL A   1      40.661  25.261  25.876  1.00  0.00    -0.200 F 
ENDBRANCH  45  59
BRANCH  46  70
ATOM     70  C   UNL A   1      39.556  33.919  36.992  1.00  0.00     0.064 A 
ATOM     71  C   UNL A   1      38.802  33.523  38.105  1.00  0.00     0.173 A 
ATOM     72  C   UNL A   1      40.165  35.181  37.031  1.00  0.00     0.173 A 
ATOM     73  F   UNL A   1      38.183  32.333  38.105  1.00  0.00    -0.203 F 
ATOM     74  C   UNL A   1      38.645  34.363  39.204  1.00  0.00     0.198 A 
ATOM     75  C   UNL A   1      40.031  36.010  38.143  1.00  0.00     0.198 A 
ATOM     76  F   UNL A   1      40.901  35.605  35.993  1.00  0.00    -0.203 F 
ATOM     77  F   UNL A   1      37.883  33.978  40.237  1.00  0.00    -0.200 F 
ATOM     78  C   UNL A   1      39.265  35.604  39.226  1.00  0.00     0.200 A 
ATOM     79  F   UNL A   1      40.642  37.202  38.165  1.00  0.00    -0.200 F 
ATOM     80  F   UNL A   1      39.118  36.411  40.285  1.00  0.00    -0.200 F 
ENDBRANCH  46  70
BRANCH  58  81
ATOM     81  C   UNL A   1      43.970  28.776  35.387  1.00  0.00     0.064 A 
ATOM     82  C   UNL A   1      43.838  27.693  36.268  1.00  0.00     0.173 A 
ATOM     83  C   UNL A   1      45.258  29.286  35.159  1.00  0.00     0.173 A 
ATOM     84  F   UNL A   1      42.627  27.180  36.531  1.00  0.00    -0.203 F 
ATOM     85  C   UNL A   1      44.950  27.159  36.916  1.00  0.00     0.198 A 
ATOM     86  C   UNL A   1      46.370  28.730  35.786  1.00  0.00     0.198 A 
ATOM     87  F   UNL A   1      45.438  30.316  34.319  1.00  0.00    -0.203 F 
ATOM     88  F   UNL A   1      44.794  26.155  37.791  1.00  0.00    -0.200 F 
ATOM     89  C   UNL A   1      46.213  27.673  36.669  1.00  0.00     0.200 A 
ATOM     90  F   UNL A   1      47.592  29.221  35.536  1.00  0.00    -0.200 F 
ATOM     91  F   UNL A   1      47.282  27.153  37.288  1.00  0.00    -0.200 F 
ENDBRANCH  58  81
ENDBRANCH  32  33
ENDBRANCH  24  27
ENDBRANCH  22  23
ENDBRANCH   1  22
TORSDOF 12
ENDMDL
