MODEL 1
REMARK VINA RESULT:     -12.6      0.000      0.000
REMARK SMILES O=C(COc1cccc(/C=C2/SC(=S)N(NC(=O)c3ccccc3F)C2=O)c1)NCCCNC(=O)c1ccc(-c2c3nc(c(-c4c(F)c(F)c(F)c(F)c4F)c4ccc([nH]4)c(-c4c(F)c(F)c(F)c(F)c4F)c4nc(c(-c5c(F)c(F)c(F)c(F)c5F)c5ccc2[nH]5)C=C4)C=C3)cc1
REMARK SMILES IDX 1 1 2 2 29 3 3 5 4 6 5 7 6 8 28 9 7 10 9 11 8 12 10 13 11 14
REMARK SMILES IDX 12 15 26 16 13 17 15 18 27 19 14 20 16 21 17 22 18 24 19 25
REMARK SMILES IDX 20 26 24 27 21 28 23 29 25 30 22 31 30 32 31 33 32 34 33 35
REMARK SMILES IDX 34 36 35 38 36 39 37 40 98 41 38 42 97 43 39 44 40 45 41 46
REMARK SMILES IDX 91 47 42 48 96 49 90 50 92 51 43 52 95 53 89 54 88 55 44 57
REMARK SMILES IDX 76 58 56 59 75 60 57 61 60 62 74 63 93 64 58 65 59 66 73 68
REMARK SMILES IDX 94 69 61 70 45 71 46 72 54 73 47 74 48 75 52 76 55 77 49 78
REMARK SMILES IDX 50 79 53 80 51 81 77 82 78 83 86 84 79 85 80 86 84 87 87 88
REMARK SMILES IDX 81 89 82 90 85 91 83 92 62 93 63 94 71 95 64 96 65 97 69 98
REMARK SMILES IDX 72 99 66 100 67 101 70 102 68 103
REMARK H PARENT 29 4 16 23 33 37 92 56 60 67
REMARK Flexibility Score: inf
ROOT
ATOM      1  O   UNL A   1      36.833  32.648  28.089  1.00  0.00    -0.271 OA
ATOM      2  C   UNL A   1      35.830  31.934  28.105  1.00  0.00     0.257 C 
ATOM      3  N   UNL A   1      34.613  32.383  28.569  1.00  0.00    -0.353 N 
ATOM      4  H   UNL A   1      33.805  31.842  28.414  1.00  0.00     0.163 HD
ENDROOT
BRANCH   2   5
ATOM      5  C   UNL A   1      35.880  30.483  27.582  1.00  0.00     0.329 C 
BRANCH   5   6
ATOM      6  O   UNL A   1      34.833  29.551  27.775  1.00  0.00    -0.484 OA
BRANCH   6   7
ATOM      7  C   UNL A   1      33.859  29.466  26.817  1.00  0.00     0.120 A 
ATOM      8  C   UNL A   1      32.556  29.733  27.240  1.00  0.00     0.046 A 
ATOM      9  C   UNL A   1      34.065  28.916  25.556  1.00  0.00     0.054 A 
ATOM     10  C   UNL A   1      31.466  29.412  26.425  1.00  0.00     0.004 A 
ATOM     11  C   UNL A   1      32.980  28.443  24.810  1.00  0.00    -0.021 A 
ATOM     12  C   UNL A   1      31.677  28.738  25.223  1.00  0.00     0.008 A 
BRANCH  11  13
ATOM     13  C   UNL A   1      33.186  27.507  23.695  1.00  0.00     0.029 C 
ATOM     14  C   UNL A   1      33.215  26.167  23.832  1.00  0.00     0.082 C 
ATOM     15  S   UNL A   1      33.208  25.089  22.479  1.00  0.00    -0.052 SA
ATOM     16  C   UNL A   1      33.170  25.357  25.090  1.00  0.00     0.285 C 
ATOM     17  C   UNL A   1      32.880  23.671  23.478  1.00  0.00     0.168 C 
ATOM     18  N   UNL A   1      32.830  24.052  24.809  1.00  0.00    -0.198 N 
ATOM     19  O   UNL A   1      33.497  25.773  26.199  1.00  0.00    -0.266 OA
ATOM     20  S   UNL A   1      32.724  22.136  22.852  1.00  0.00    -0.050 S 
BRANCH  18  21
ATOM     21  N   UNL A   1      32.687  23.080  25.829  1.00  0.00    -0.254 N 
ATOM     22  C   UNL A   1      33.678  22.333  26.437  1.00  0.00     0.273 C 
ATOM     23  H   UNL A   1      31.768  22.917  26.144  1.00  0.00     0.192 HD
ATOM     24  O   UNL A   1      33.408  21.596  27.386  1.00  0.00    -0.267 OA
BRANCH  22  25
ATOM     25  C   UNL A   1      35.054  22.260  25.924  1.00  0.00     0.077 A 
ATOM     26  C   UNL A   1      35.904  23.341  26.205  1.00  0.00     0.017 A 
ATOM     27  C   UNL A   1      35.530  21.173  25.200  1.00  0.00     0.136 A 
ATOM     28  C   UNL A   1      37.236  23.306  25.796  1.00  0.00     0.001 A 
ATOM     29  C   UNL A   1      36.859  21.140  24.781  1.00  0.00     0.040 A 
ATOM     30  F   UNL A   1      34.738  20.126  24.929  1.00  0.00    -0.206 F 
ATOM     31  C   UNL A   1      37.712  22.204  25.085  1.00  0.00     0.003 A 
ENDBRANCH  22  25
ENDBRANCH  18  21
ENDBRANCH  11  13
ENDBRANCH   6   7
ENDBRANCH   5   6
ENDBRANCH   2   5
BRANCH   3  32
ATOM     32  C   UNL A   1      34.501  33.643  29.283  1.00  0.00     0.117 C 
BRANCH  32  33
ATOM     33  C   UNL A   1      33.293  34.483  28.894  1.00  0.00     0.042 C 
BRANCH  33  34
ATOM     34  C   UNL A   1      33.275  35.895  29.474  1.00  0.00     0.118 C 
BRANCH  34  35
ATOM     35  N   UNL A   1      32.435  36.019  30.658  1.00  0.00    -0.352 N 
ATOM     36  C   UNL A   1      32.556  35.529  31.936  1.00  0.00     0.251 C 
ATOM     37  H   UNL A   1      31.624  36.559  30.515  1.00  0.00     0.163 HD
ATOM     38  O   UNL A   1      31.556  35.564  32.655  1.00  0.00    -0.269 OA
BRANCH  36  39
ATOM     39  C   UNL A   1      33.822  34.927  32.447  1.00  0.00     0.039 A 
ATOM     40  C   UNL A   1      33.773  33.635  32.988  1.00  0.00     0.014 A 
ATOM     41  C   UNL A   1      35.046  35.600  32.441  1.00  0.00     0.014 A 
ATOM     42  C   UNL A   1      34.942  32.999  33.426  1.00  0.00     0.010 A 
ATOM     43  C   UNL A   1      36.226  34.935  32.793  1.00  0.00     0.010 A 
ATOM     44  C   UNL A   1      36.191  33.624  33.284  1.00  0.00    -0.014 A 
BRANCH  44  45
ATOM     45  C   UNL A   1      37.454  32.906  33.619  1.00  0.00     0.031 A 
ATOM     46  C   UNL A   1      38.202  33.199  34.893  1.00  0.00     0.074 A 
ATOM     47  C   UNL A   1      37.969  32.024  32.739  1.00  0.00     0.049 A 
ATOM     48  N   UNL A   1      39.329  32.690  35.329  1.00  0.00    -0.248 NA
ATOM     49  C   UNL A   1      37.624  34.217  35.782  1.00  0.00     0.031 C 
ATOM     50  C   UNL A   1      37.392  31.697  31.434  1.00  0.00     0.029 A 
ATOM     51  N   UNL A   1      39.097  31.243  32.805  1.00  0.00    -0.354 N 
ATOM     52  C   UNL A   1      39.603  33.339  36.526  1.00  0.00     0.074 A 
ATOM     53  C   UNL A   1      38.549  34.311  36.726  1.00  0.00     0.031 C 
ATOM     54  C   UNL A   1      38.148  30.762  30.839  1.00  0.00     0.029 A 
ATOM     55  C   UNL A   1      39.277  30.439  31.706  1.00  0.00     0.049 A 
ATOM     56  H   UNL A   1      39.717  31.256  33.570  1.00  0.00     0.167 HD
ATOM     57  C   UNL A   1      40.626  33.130  37.392  1.00  0.00     0.037 A 
ATOM     58  C   UNL A   1      40.237  29.536  31.428  1.00  0.00     0.037 A 
ATOM     59  C   UNL A   1      41.657  32.140  37.217  1.00  0.00     0.049 A 
ATOM     60  C   UNL A   1      41.325  29.279  32.433  1.00  0.00     0.074 A 
ATOM     61  C   UNL A   1      42.703  31.820  38.066  1.00  0.00     0.029 A 
ATOM     62  N   UNL A   1      41.767  31.302  36.118  1.00  0.00    -0.354 N 
ATOM     63  N   UNL A   1      41.531  29.851  33.594  1.00  0.00    -0.248 NA
ATOM     64  C   UNL A   1      42.304  28.235  32.097  1.00  0.00     0.031 C 
ATOM     65  C   UNL A   1      43.460  30.805  37.469  1.00  0.00     0.029 A 
ATOM     66  C   UNL A   1      42.864  30.467  36.266  1.00  0.00     0.049 A 
ATOM     67  H   UNL A   1      41.156  31.300  35.345  1.00  0.00     0.167 HD
ATOM     68  C   UNL A   1      42.640  29.218  34.138  1.00  0.00     0.074 A 
ATOM     69  C   UNL A   1      43.056  28.209  33.187  1.00  0.00     0.031 C 
ATOM     70  C   UNL A   1      43.257  29.454  35.322  1.00  0.00     0.037 A 
BRANCH  57  71
ATOM     71  C   UNL A   1      40.672  33.987  38.624  1.00  0.00     0.064 A 
ATOM     72  C   UNL A   1      41.396  35.189  38.653  1.00  0.00     0.173 A 
ATOM     73  C   UNL A   1      39.959  33.623  39.776  1.00  0.00     0.173 A 
ATOM     74  F   UNL A   1      42.102  35.577  37.580  1.00  0.00    -0.203 F 
ATOM     75  C   UNL A   1      41.431  35.978  39.799  1.00  0.00     0.198 A 
ATOM     76  C   UNL A   1      39.973  34.428  40.912  1.00  0.00     0.198 A 
ATOM     77  F   UNL A   1      39.243  32.489  39.798  1.00  0.00    -0.203 F 
ATOM     78  F   UNL A   1      42.169  37.096  39.819  1.00  0.00    -0.200 F 
ATOM     79  C   UNL A   1      40.715  35.600  40.926  1.00  0.00     0.200 A 
ATOM     80  F   UNL A   1      39.272  34.070  41.996  1.00  0.00    -0.200 F 
ATOM     81  F   UNL A   1      40.747  36.362  42.028  1.00  0.00    -0.200 F 
ENDBRANCH  57  71
BRANCH  58  82
ATOM     82  C   UNL A   1      40.180  28.763  30.161  1.00  0.00     0.064 A 
ATOM     83  C   UNL A   1      39.508  27.534  30.104  1.00  0.00     0.173 A 
ATOM     84  C   UNL A   1      40.793  29.229  28.990  1.00  0.00     0.173 A 
ATOM     85  F   UNL A   1      38.924  27.038  31.206  1.00  0.00    -0.203 F 
ATOM     86  C   UNL A   1      39.468  26.790  28.928  1.00  0.00     0.198 A 
ATOM     87  C   UNL A   1      40.732  28.495  27.808  1.00  0.00     0.198 A 
ATOM     88  F   UNL A   1      41.445  30.400  28.995  1.00  0.00    -0.203 F 
ATOM     89  F   UNL A   1      38.856  25.598  28.911  1.00  0.00    -0.200 F 
ATOM     90  C   UNL A   1      40.076  27.273  27.779  1.00  0.00     0.200 A 
ATOM     91  F   UNL A   1      41.312  28.969  26.697  1.00  0.00    -0.200 F 
ATOM     92  F   UNL A   1      40.036  26.558  26.647  1.00  0.00    -0.200 F 
ENDBRANCH  58  82
BRANCH  70  93
ATOM     93  C   UNL A   1      44.419  28.574  35.676  1.00  0.00     0.064 A 
ATOM     94  C   UNL A   1      45.728  28.890  35.286  1.00  0.00     0.173 A 
ATOM     95  C   UNL A   1      44.219  27.407  36.428  1.00  0.00     0.173 A 
ATOM     96  F   UNL A   1      45.968  29.986  34.551  1.00  0.00    -0.203 F 
ATOM     97  C   UNL A   1      46.792  28.053  35.613  1.00  0.00     0.198 A 
ATOM     98  C   UNL A   1      45.288  26.586  36.774  1.00  0.00     0.198 A 
ATOM     99  F   UNL A   1      42.986  27.064  36.828  1.00  0.00    -0.203 F 
ATOM    100  F   UNL A   1      48.030  28.348  35.187  1.00  0.00    -0.200 F 
ATOM    101  C   UNL A   1      46.573  26.905  36.359  1.00  0.00     0.200 A 
ATOM    102  F   UNL A   1      45.075  25.482  37.503  1.00  0.00    -0.200 F 
ATOM    103  F   UNL A   1      47.598  26.100  36.671  1.00  0.00    -0.200 F 
ENDBRANCH  70  93
ENDBRANCH  44  45
ENDBRANCH  36  39
ENDBRANCH  34  35
ENDBRANCH  33  34
ENDBRANCH  32  33
ENDBRANCH   3  32
TORSDOF 15
ENDMDL
MODEL 2
REMARK VINA RESULT:     -12.2      1.056      2.251
REMARK SMILES O=C(COc1cccc(/C=C2/SC(=S)N(NC(=O)c3ccccc3F)C2=O)c1)NCCCNC(=O)c1ccc(-c2c3nc(c(-c4c(F)c(F)c(F)c(F)c4F)c4ccc([nH]4)c(-c4c(F)c(F)c(F)c(F)c4F)c4nc(c(-c5c(F)c(F)c(F)c(F)c5F)c5ccc2[nH]5)C=C4)C=C3)cc1
REMARK SMILES IDX 1 1 2 2 29 3 3 5 4 6 5 7 6 8 28 9 7 10 9 11 8 12 10 13 11 14
REMARK SMILES IDX 12 15 26 16 13 17 15 18 27 19 14 20 16 21 17 22 18 24 19 25
REMARK SMILES IDX 20 26 24 27 21 28 23 29 25 30 22 31 30 32 31 33 32 34 33 35
REMARK SMILES IDX 34 36 35 38 36 39 37 40 98 41 38 42 97 43 39 44 40 45 41 46
REMARK SMILES IDX 91 47 42 48 96 49 90 50 92 51 43 52 95 53 89 54 88 55 44 57
REMARK SMILES IDX 76 58 56 59 75 60 57 61 60 62 74 63 93 64 58 65 59 66 73 68
REMARK SMILES IDX 94 69 61 70 45 71 46 72 54 73 47 74 48 75 52 76 55 77 49 78
REMARK SMILES IDX 50 79 53 80 51 81 77 82 78 83 86 84 79 85 80 86 84 87 87 88
REMARK SMILES IDX 81 89 82 90 85 91 83 92 62 93 63 94 71 95 64 96 65 97 69 98
REMARK SMILES IDX 72 99 66 100 67 101 70 102 68 103
REMARK H PARENT 29 4 16 23 33 37 92 56 60 67
REMARK Flexibility Score: inf
ROOT
ATOM      1  O   UNL A   1      35.652  31.693  28.016  1.00  0.00    -0.271 OA
ATOM      2  C   UNL A   1      34.455  31.580  27.748  1.00  0.00     0.257 C 
ATOM      3  N   UNL A   1      33.537  32.564  28.041  1.00  0.00    -0.353 N 
ATOM      4  H   UNL A   1      32.629  32.507  27.666  1.00  0.00     0.163 HD
ENDROOT
BRANCH   2   5
ATOM      5  C   UNL A   1      33.916  30.316  27.044  1.00  0.00     0.329 C 
BRANCH   5   6
ATOM      6  O   UNL A   1      32.548  30.122  26.738  1.00  0.00    -0.484 OA
BRANCH   6   7
ATOM      7  C   UNL A   1      32.208  29.861  25.438  1.00  0.00     0.120 A 
ATOM      8  C   UNL A   1      30.920  30.236  25.052  1.00  0.00     0.046 A 
ATOM      9  C   UNL A   1      32.963  29.058  24.590  1.00  0.00     0.054 A 
ATOM     10  C   UNL A   1      30.378  29.777  23.848  1.00  0.00     0.004 A 
ATOM     11  C   UNL A   1      32.370  28.463  23.471  1.00  0.00    -0.021 A 
ATOM     12  C   UNL A   1      31.092  28.864  23.073  1.00  0.00     0.008 A 
BRANCH  11  13
ATOM     13  C   UNL A   1      33.003  27.313  22.808  1.00  0.00     0.029 C 
ATOM     14  C   UNL A   1      32.690  26.028  23.069  1.00  0.00     0.082 C 
ATOM     15  S   UNL A   1      33.264  24.713  22.103  1.00  0.00    -0.052 SA
ATOM     16  C   UNL A   1      31.770  25.488  24.118  1.00  0.00     0.285 C 
ATOM     17  C   UNL A   1      32.154  23.554  22.838  1.00  0.00     0.168 C 
ATOM     18  N   UNL A   1      31.415  24.190  23.822  1.00  0.00    -0.198 N 
ATOM     19  O   UNL A   1      31.464  26.079  25.151  1.00  0.00    -0.266 OA
ATOM     20  S   UNL A   1      32.101  21.947  22.404  1.00  0.00    -0.050 S 
BRANCH  18  21
ATOM     21  N   UNL A   1      30.525  23.452  24.640  1.00  0.00    -0.254 N 
ATOM     22  C   UNL A   1      30.824  22.695  25.756  1.00  0.00     0.273 C 
ATOM     23  H   UNL A   1      29.574  23.484  24.382  1.00  0.00     0.192 HD
ATOM     24  O   UNL A   1      29.922  22.192  26.427  1.00  0.00    -0.267 OA
BRANCH  22  25
ATOM     25  C   UNL A   1      32.198  22.331  26.132  1.00  0.00     0.077 A 
ATOM     26  C   UNL A   1      32.941  23.280  26.851  1.00  0.00     0.017 A 
ATOM     27  C   UNL A   1      32.764  21.102  25.815  1.00  0.00     0.136 A 
ATOM     28  C   UNL A   1      34.229  22.973  27.286  1.00  0.00     0.001 A 
ATOM     29  C   UNL A   1      34.055  20.797  26.241  1.00  0.00     0.040 A 
ATOM     30  F   UNL A   1      32.068  20.178  25.137  1.00  0.00    -0.206 F 
ATOM     31  C   UNL A   1      34.785  21.731  26.981  1.00  0.00     0.003 A 
ENDBRANCH  22  25
ENDBRANCH  18  21
ENDBRANCH  11  13
ENDBRANCH   6   7
ENDBRANCH   5   6
ENDBRANCH   2   5
BRANCH   3  32
ATOM     32  C   UNL A   1      33.889  33.688  28.892  1.00  0.00     0.117 C 
BRANCH  32  33
ATOM     33  C   UNL A   1      33.134  34.972  28.584  1.00  0.00     0.042 C 
BRANCH  33  34
ATOM     34  C   UNL A   1      33.385  36.118  29.561  1.00  0.00     0.118 C 
BRANCH  34  35
ATOM     35  N   UNL A   1      32.495  36.097  30.714  1.00  0.00    -0.352 N 
ATOM     36  C   UNL A   1      32.587  35.493  31.945  1.00  0.00     0.251 C 
ATOM     37  H   UNL A   1      31.667  36.616  30.587  1.00  0.00     0.163 HD
ATOM     38  O   UNL A   1      31.559  35.421  32.620  1.00  0.00    -0.269 OA
BRANCH  36  39
ATOM     39  C   UNL A   1      33.857  34.896  32.451  1.00  0.00     0.039 A 
ATOM     40  C   UNL A   1      33.816  33.598  32.982  1.00  0.00     0.014 A 
ATOM     41  C   UNL A   1      35.076  35.577  32.453  1.00  0.00     0.014 A 
ATOM     42  C   UNL A   1      34.990  32.967  33.415  1.00  0.00     0.010 A 
ATOM     43  C   UNL A   1      36.260  34.918  32.800  1.00  0.00     0.010 A 
ATOM     44  C   UNL A   1      36.234  33.602  33.279  1.00  0.00    -0.014 A 
BRANCH  44  45
ATOM     45  C   UNL A   1      37.502  32.890  33.609  1.00  0.00     0.031 A 
ATOM     46  C   UNL A   1      38.242  33.171  34.890  1.00  0.00     0.074 A 
ATOM     47  C   UNL A   1      38.029  32.026  32.718  1.00  0.00     0.049 A 
ATOM     48  N   UNL A   1      39.372  32.665  35.323  1.00  0.00    -0.248 NA
ATOM     49  C   UNL A   1      37.652  34.170  35.792  1.00  0.00     0.031 C 
ATOM     50  C   UNL A   1      37.460  31.713  31.406  1.00  0.00     0.029 A 
ATOM     51  N   UNL A   1      39.163  31.253  32.778  1.00  0.00    -0.354 N 
ATOM     52  C   UNL A   1      39.636  33.299  36.531  1.00  0.00     0.074 A 
ATOM     53  C   UNL A   1      38.572  34.259  36.741  1.00  0.00     0.031 C 
ATOM     54  C   UNL A   1      38.227  30.794  30.800  1.00  0.00     0.029 A 
ATOM     55  C   UNL A   1      39.355  30.468  31.667  1.00  0.00     0.049 A 
ATOM     56  H   UNL A   1      39.780  31.261  33.545  1.00  0.00     0.167 HD
ATOM     57  C   UNL A   1      40.656  33.086  37.398  1.00  0.00     0.037 A 
ATOM     58  C   UNL A   1      40.324  29.578  31.380  1.00  0.00     0.037 A 
ATOM     59  C   UNL A   1      41.696  32.107  37.213  1.00  0.00     0.049 A 
ATOM     60  C   UNL A   1      41.410  29.315  32.386  1.00  0.00     0.074 A 
ATOM     61  C   UNL A   1      42.742  31.784  38.062  1.00  0.00     0.029 A 
ATOM     62  N   UNL A   1      41.818  31.287  36.102  1.00  0.00    -0.354 N 
ATOM     63  N   UNL A   1      41.606  29.872  33.556  1.00  0.00    -0.248 NA
ATOM     64  C   UNL A   1      42.399  28.285  32.038  1.00  0.00     0.031 C 
ATOM     65  C   UNL A   1      43.511  30.785  37.454  1.00  0.00     0.029 A 
ATOM     66  C   UNL A   1      42.922  30.459  36.243  1.00  0.00     0.049 A 
ATOM     67  H   UNL A   1      41.210  31.291  35.327  1.00  0.00     0.167 HD
ATOM     68  C   UNL A   1      42.718  29.241  34.096  1.00  0.00     0.074 A 
ATOM     69  C   UNL A   1      43.147  28.249  33.131  1.00  0.00     0.031 C 
ATOM     70  C   UNL A   1      43.328  29.464  35.286  1.00  0.00     0.037 A 
BRANCH  57  71
ATOM     71  C   UNL A   1      40.690  33.925  38.643  1.00  0.00     0.064 A 
ATOM     72  C   UNL A   1      40.000  33.541  39.804  1.00  0.00     0.173 A 
ATOM     73  C   UNL A   1      41.446  35.106  38.689  1.00  0.00     0.173 A 
ATOM     74  F   UNL A   1      39.256  32.425  39.807  1.00  0.00    -0.203 F 
ATOM     75  C   UNL A   1      40.040  34.325  40.954  1.00  0.00     0.198 A 
ATOM     76  C   UNL A   1      41.506  35.873  39.850  1.00  0.00     0.198 A 
ATOM     77  F   UNL A   1      42.131  35.513  37.610  1.00  0.00    -0.203 F 
ATOM     78  F   UNL A   1      39.335  33.963  42.034  1.00  0.00    -0.200 F 
ATOM     79  C   UNL A   1      40.797  35.487  40.977  1.00  0.00     0.200 A 
ATOM     80  F   UNL A   1      42.247  36.989  39.877  1.00  0.00    -0.200 F 
ATOM     81  F   UNL A   1      40.838  36.238  42.087  1.00  0.00    -0.200 F 
ENDBRANCH  57  71
BRANCH  58  82
ATOM     82  C   UNL A   1      40.279  28.822  30.102  1.00  0.00     0.064 A 
ATOM     83  C   UNL A   1      40.895  29.330  28.950  1.00  0.00     0.173 A 
ATOM     84  C   UNL A   1      39.622  27.588  30.004  1.00  0.00     0.173 A 
ATOM     85  F   UNL A   1      41.517  30.519  28.992  1.00  0.00    -0.203 F 
ATOM     86  C   UNL A   1      40.839  28.642  27.741  1.00  0.00     0.198 A 
ATOM     87  C   UNL A   1      39.587  26.889  28.799  1.00  0.00     0.198 A 
ATOM     88  F   UNL A   1      39.021  27.061  31.079  1.00  0.00    -0.203 F 
ATOM     89  F   UNL A   1      41.398  29.170  26.644  1.00  0.00    -0.200 F 
ATOM     90  C   UNL A   1      40.189  27.419  27.667  1.00  0.00     0.200 A 
ATOM     91  F   UNL A   1      38.967  25.703  28.734  1.00  0.00    -0.200 F 
ATOM     92  F   UNL A   1      40.136  26.755  26.505  1.00  0.00    -0.200 F 
ENDBRANCH  58  82
BRANCH  70  93
ATOM     93  C   UNL A   1      44.496  28.589  35.631  1.00  0.00     0.064 A 
ATOM     94  C   UNL A   1      44.333  27.383  36.328  1.00  0.00     0.173 A 
ATOM     95  C   UNL A   1      45.794  28.956  35.244  1.00  0.00     0.173 A 
ATOM     96  F   UNL A   1      43.115  26.997  36.734  1.00  0.00    -0.203 F 
ATOM     97  C   UNL A   1      45.432  26.591  36.651  1.00  0.00     0.198 A 
ATOM     98  C   UNL A   1      46.887  28.149  35.547  1.00  0.00     0.198 A 
ATOM     99  F   UNL A   1      46.001  30.098  34.572  1.00  0.00    -0.203 F 
ATOM    100  F   UNL A   1      45.260  25.467  37.362  1.00  0.00    -0.200 F 
ATOM    101  C   UNL A   1      46.706  26.971  36.258  1.00  0.00     0.200 A 
ATOM    102  F   UNL A   1      48.116  28.514  35.158  1.00  0.00    -0.200 F 
ATOM    103  F   UNL A   1      47.762  26.209  36.571  1.00  0.00    -0.200 F 
ENDBRANCH  70  93
ENDBRANCH  44  45
ENDBRANCH  36  39
ENDBRANCH  34  35
ENDBRANCH  33  34
ENDBRANCH  32  33
ENDBRANCH   3  32
TORSDOF 15
ENDMDL
MODEL 3
REMARK VINA RESULT:     -12.2      9.077     16.307
REMARK SMILES O=C(COc1cccc(/C=C2/SC(=S)N(NC(=O)c3ccccc3F)C2=O)c1)NCCCNC(=O)c1ccc(-c2c3nc(c(-c4c(F)c(F)c(F)c(F)c4F)c4ccc([nH]4)c(-c4c(F)c(F)c(F)c(F)c4F)c4nc(c(-c5c(F)c(F)c(F)c(F)c5F)c5ccc2[nH]5)C=C4)C=C3)cc1
REMARK SMILES IDX 1 1 2 2 29 3 3 5 4 6 5 7 6 8 28 9 7 10 9 11 8 12 10 13 11 14
REMARK SMILES IDX 12 15 26 16 13 17 15 18 27 19 14 20 16 21 17 22 18 24 19 25
REMARK SMILES IDX 20 26 24 27 21 28 23 29 25 30 22 31 30 32 31 33 32 34 33 35
REMARK SMILES IDX 34 36 35 38 36 39 37 40 98 41 38 42 97 43 39 44 40 45 41 46
REMARK SMILES IDX 91 47 42 48 96 49 90 50 92 51 43 52 95 53 89 54 88 55 44 57
REMARK SMILES IDX 76 58 56 59 75 60 57 61 60 62 74 63 93 64 58 65 59 66 73 68
REMARK SMILES IDX 94 69 61 70 45 71 46 72 54 73 47 74 48 75 52 76 55 77 49 78
REMARK SMILES IDX 50 79 53 80 51 81 77 82 78 83 86 84 79 85 80 86 84 87 87 88
REMARK SMILES IDX 81 89 82 90 85 91 83 92 62 93 63 94 71 95 64 96 65 97 69 98
REMARK SMILES IDX 72 99 66 100 67 101 70 102 68 103
REMARK H PARENT 29 4 16 23 33 37 92 56 60 67
REMARK Flexibility Score: inf
ROOT
ATOM      1  O   UNL A   1      45.408  18.840  37.258  1.00  0.00    -0.271 OA
ATOM      2  C   UNL A   1      46.430  19.390  37.668  1.00  0.00     0.257 C 
ATOM      3  N   UNL A   1      47.137  20.296  36.908  1.00  0.00    -0.353 N 
ATOM      4  H   UNL A   1      47.848  20.832  37.329  1.00  0.00     0.163 HD
ENDROOT
BRANCH   2   5
ATOM      5  C   UNL A   1      46.973  19.100  39.084  1.00  0.00     0.329 C 
BRANCH   5   6
ATOM      6  O   UNL A   1      47.025  17.803  39.646  1.00  0.00    -0.484 OA
BRANCH   6   7
ATOM      7  C   UNL A   1      46.872  17.679  41.001  1.00  0.00     0.120 A 
ATOM      8  C   UNL A   1      47.244  18.787  41.766  1.00  0.00     0.046 A 
ATOM      9  C   UNL A   1      46.604  16.472  41.639  1.00  0.00     0.054 A 
ATOM     10  C   UNL A   1      47.387  18.675  43.151  1.00  0.00     0.004 A 
ATOM     11  C   UNL A   1      46.906  16.313  42.996  1.00  0.00    -0.021 A 
ATOM     12  C   UNL A   1      47.249  17.429  43.763  1.00  0.00     0.008 A 
BRANCH  11  13
ATOM     13  C   UNL A   1      47.025  14.971  43.585  1.00  0.00     0.029 C 
ATOM     14  C   UNL A   1      46.008  14.317  44.181  1.00  0.00     0.082 C 
ATOM     15  S   UNL A   1      46.109  12.652  44.638  1.00  0.00    -0.052 SA
ATOM     16  C   UNL A   1      44.628  14.814  44.477  1.00  0.00     0.285 C 
ATOM     17  C   UNL A   1      44.374  12.523  44.939  1.00  0.00     0.168 C 
ATOM     18  N   UNL A   1      43.780  13.755  44.725  1.00  0.00    -0.198 N 
ATOM     19  O   UNL A   1      44.322  15.998  44.591  1.00  0.00    -0.266 OA
ATOM     20  S   UNL A   1      43.645  11.117  45.454  1.00  0.00    -0.050 S 
BRANCH  18  21
ATOM     21  N   UNL A   1      42.405  13.948  45.005  1.00  0.00    -0.254 N 
ATOM     22  C   UNL A   1      41.347  13.934  44.117  1.00  0.00     0.273 C 
ATOM     23  H   UNL A   1      42.176  14.111  45.949  1.00  0.00     0.192 HD
ATOM     24  O   UNL A   1      40.189  14.015  44.528  1.00  0.00    -0.267 OA
BRANCH  22  25
ATOM     25  C   UNL A   1      41.524  13.960  42.659  1.00  0.00     0.077 A 
ATOM     26  C   UNL A   1      41.869  15.189  42.074  1.00  0.00     0.017 A 
ATOM     27  C   UNL A   1      41.378  12.830  41.862  1.00  0.00     0.136 A 
ATOM     28  C   UNL A   1      42.107  15.266  40.702  1.00  0.00     0.001 A 
ATOM     29  C   UNL A   1      41.607  12.907  40.490  1.00  0.00     0.040 A 
ATOM     30  F   UNL A   1      41.059  11.645  42.402  1.00  0.00    -0.206 F 
ATOM     31  C   UNL A   1      41.977  14.125  39.912  1.00  0.00     0.003 A 
ENDBRANCH  22  25
ENDBRANCH  18  21
ENDBRANCH  11  13
ENDBRANCH   6   7
ENDBRANCH   5   6
ENDBRANCH   2   5
BRANCH   3  32
ATOM     32  C   UNL A   1      46.849  20.476  35.496  1.00  0.00     0.117 C 
BRANCH  32  33
ATOM     33  C   UNL A   1      47.715  21.517  34.804  1.00  0.00     0.042 C 
BRANCH  33  34
ATOM     34  C   UNL A   1      47.144  22.933  34.801  1.00  0.00     0.118 C 
BRANCH  34  35
ATOM     35  N   UNL A   1      47.528  23.711  35.971  1.00  0.00    -0.352 N 
ATOM     36  C   UNL A   1      47.194  24.974  36.395  1.00  0.00     0.251 C 
ATOM     37  H   UNL A   1      48.147  23.240  36.576  1.00  0.00     0.163 HD
ATOM     38  O   UNL A   1      47.885  25.477  37.282  1.00  0.00    -0.269 OA
BRANCH  36  39
ATOM     39  C   UNL A   1      46.074  25.752  35.790  1.00  0.00     0.039 A 
ATOM     40  C   UNL A   1      46.381  26.929  35.093  1.00  0.00     0.014 A 
ATOM     41  C   UNL A   1      44.732  25.382  35.912  1.00  0.00     0.014 A 
ATOM     42  C   UNL A   1      45.374  27.664  34.454  1.00  0.00     0.010 A 
ATOM     43  C   UNL A   1      43.738  26.063  35.201  1.00  0.00     0.010 A 
ATOM     44  C   UNL A   1      44.046  27.209  34.457  1.00  0.00    -0.014 A 
BRANCH  44  45
ATOM     45  C   UNL A   1      42.991  27.907  33.668  1.00  0.00     0.031 A 
ATOM     46  C   UNL A   1      42.817  27.642  32.196  1.00  0.00     0.074 A 
ATOM     47  C   UNL A   1      42.219  28.836  34.267  1.00  0.00     0.049 A 
ATOM     48  N   UNL A   1      41.971  28.180  31.351  1.00  0.00    -0.248 NA
ATOM     49  C   UNL A   1      43.731  26.667  31.585  1.00  0.00     0.031 C 
ATOM     50  C   UNL A   1      42.327  29.248  35.668  1.00  0.00     0.029 A 
ATOM     51  N   UNL A   1      41.194  29.606  33.775  1.00  0.00    -0.354 N 
ATOM     52  C   UNL A   1      42.265  27.626  30.111  1.00  0.00     0.074 A 
ATOM     53  C   UNL A   1      43.397  26.744  30.304  1.00  0.00     0.031 C 
ATOM     54  C   UNL A   1      41.386  30.168  35.930  1.00  0.00     0.029 A 
ATOM     55  C   UNL A   1      40.624  30.431  34.714  1.00  0.00     0.049 A 
ATOM     56  H   UNL A   1      40.895  29.569  32.838  1.00  0.00     0.167 HD
ATOM     57  C   UNL A   1      41.637  27.815  28.924  1.00  0.00     0.037 A 
ATOM     58  C   UNL A   1      39.597  31.296  34.612  1.00  0.00     0.037 A 
ATOM     59  C   UNL A   1      40.488  28.662  28.732  1.00  0.00     0.049 A 
ATOM     60  C   UNL A   1      38.877  31.440  33.300  1.00  0.00     0.074 A 
ATOM     61  C   UNL A   1      39.752  28.875  27.578  1.00  0.00     0.029 A 
ATOM     62  N   UNL A   1      39.902  29.433  29.725  1.00  0.00    -0.354 N 
ATOM     63  N   UNL A   1      39.122  30.856  32.153  1.00  0.00    -0.248 NA
ATOM     64  C   UNL A   1      37.724  32.352  33.274  1.00  0.00     0.031 C 
ATOM     65  C   UNL A   1      38.736  29.793  27.867  1.00  0.00     0.029 A 
ATOM     66  C   UNL A   1      38.815  30.123  29.210  1.00  0.00     0.049 A 
ATOM     67  H   UNL A   1      40.211  29.482  30.659  1.00  0.00     0.167 HD
ATOM     68  C   UNL A   1      38.140  31.303  31.280  1.00  0.00     0.074 A 
ATOM     69  C   UNL A   1      37.287  32.199  32.033  1.00  0.00     0.031 C 
ATOM     70  C   UNL A   1      37.963  30.997  29.972  1.00  0.00     0.037 A 
BRANCH  57  71
ATOM     71  C   UNL A   1      42.175  27.075  27.733  1.00  0.00     0.064 A 
ATOM     72  C   UNL A   1      43.106  27.665  26.865  1.00  0.00     0.173 A 
ATOM     73  C   UNL A   1      41.784  25.752  27.477  1.00  0.00     0.173 A 
ATOM     74  F   UNL A   1      43.505  28.930  27.063  1.00  0.00    -0.203 F 
ATOM     75  C   UNL A   1      43.601  26.969  25.765  1.00  0.00     0.198 A 
ATOM     76  C   UNL A   1      42.301  25.050  26.391  1.00  0.00     0.198 A 
ATOM     77  F   UNL A   1      40.903  25.139  28.281  1.00  0.00    -0.203 F 
ATOM     78  F   UNL A   1      44.452  27.570  24.922  1.00  0.00    -0.200 F 
ATOM     79  C   UNL A   1      43.203  25.662  25.532  1.00  0.00     0.200 A 
ATOM     80  F   UNL A   1      41.927  23.783  26.173  1.00  0.00    -0.200 F 
ATOM     81  F   UNL A   1      43.683  24.992  24.475  1.00  0.00    -0.200 F 
ENDBRANCH  57  71
BRANCH  58  82
ATOM     82  C   UNL A   1      39.147  32.055  35.808  1.00  0.00     0.064 A 
ATOM     83  C   UNL A   1      39.601  33.361  36.038  1.00  0.00     0.173 A 
ATOM     84  C   UNL A   1      38.265  31.494  36.741  1.00  0.00     0.173 A 
ATOM     85  F   UNL A   1      40.463  33.931  35.181  1.00  0.00    -0.203 F 
ATOM     86  C   UNL A   1      39.204  34.072  37.167  1.00  0.00     0.198 A 
ATOM     87  C   UNL A   1      37.851  32.214  37.859  1.00  0.00     0.198 A 
ATOM     88  F   UNL A   1      37.802  30.248  36.563  1.00  0.00    -0.203 F 
ATOM     89  F   UNL A   1      39.685  35.303  37.385  1.00  0.00    -0.200 F 
ATOM     90  C   UNL A   1      38.326  33.500  38.075  1.00  0.00     0.200 A 
ATOM     91  F   UNL A   1      36.993  31.663  38.729  1.00  0.00    -0.200 F 
ATOM     92  F   UNL A   1      37.942  34.184  39.161  1.00  0.00    -0.200 F 
ENDBRANCH  58  82
BRANCH  70  93
ATOM     93  C   UNL A   1      36.774  31.599  29.283  1.00  0.00     0.064 A 
ATOM     94  C   UNL A   1      36.713  32.966  28.979  1.00  0.00     0.173 A 
ATOM     95  C   UNL A   1      35.690  30.792  28.908  1.00  0.00     0.173 A 
ATOM     96  F   UNL A   1      37.718  33.782  29.332  1.00  0.00    -0.203 F 
ATOM     97  C   UNL A   1      35.596  33.509  28.351  1.00  0.00     0.198 A 
ATOM     98  C   UNL A   1      34.585  31.333  28.258  1.00  0.00     0.198 A 
ATOM     99  F   UNL A   1      35.703  29.477  29.173  1.00  0.00    -0.203 F 
ATOM    100  F   UNL A   1      35.536  34.828  28.115  1.00  0.00    -0.200 F 
ATOM    101  C   UNL A   1      34.534  32.693  27.987  1.00  0.00     0.200 A 
ATOM    102  F   UNL A   1      33.565  30.542  27.900  1.00  0.00    -0.200 F 
ATOM    103  F   UNL A   1      33.459  33.218  27.384  1.00  0.00    -0.200 F 
ENDBRANCH  70  93
ENDBRANCH  44  45
ENDBRANCH  36  39
ENDBRANCH  34  35
ENDBRANCH  33  34
ENDBRANCH  32  33
ENDBRANCH   3  32
TORSDOF 15
ENDMDL
