MODEL 1
REMARK VINA RESULT:     -10.7      0.000      0.000
REMARK SMILES Cc1cs/c(=N\S(=O)(=O)c2ccc(/C=C/C(=O)NCCCNC(=O)c3ccc(-c4c5nc(c(-c6c(F)c(F)c(F)c(F)c6F)c6ccc([nH]6)c(-c6c(F)c(F)c(F)c(F)c6F)c6nc(c(-c7c(F)c(F)c(F)c(F)c7F)c7ccc4[nH]7)C=C6)C=C5)cc3)cc2)[nH]1
REMARK SMILES IDX 19 1 18 2 16 3 17 4 15 6 14 7 13 8 10 9 11 10 89 11 12 12
REMARK SMILES IDX 88 13 7 14 8 15 9 16 6 17 1 18 2 19 3 20 90 21 4 22 5 23
REMARK SMILES IDX 20 25 21 26 22 27 23 28 24 30 25 31 26 32 87 33 27 34 86 35
REMARK SMILES IDX 28 36 29 37 30 38 80 39 31 40 85 41 79 42 81 43 32 44 84 45
REMARK SMILES IDX 78 46 77 47 33 49 65 50 45 51 64 52 46 53 49 54 63 55 82 56
REMARK SMILES IDX 47 57 48 58 62 60 83 61 50 62 34 63 35 64 43 65 36 66 37 67
REMARK SMILES IDX 41 68 44 69 38 70 39 71 42 72 40 73 66 74 67 75 75 76 68 77
REMARK SMILES IDX 69 78 73 79 76 80 70 81 71 82 74 83 72 84 51 85 52 86 60 87
REMARK SMILES IDX 53 88 54 89 58 90 61 91 55 92 56 93 59 94 57 95
REMARK H PARENT 18 5 90 24 22 29 81 48 49 59
REMARK Flexibility Score: inf
ROOT
ATOM      1  C   UNL A   1      34.026  35.137  28.906  1.00  0.00     0.118 C 
ENDROOT
BRANCH   1   2
ATOM      2  N   UNL A   1      33.086  35.514  29.945  1.00  0.00    -0.352 N 
ATOM      3  C   UNL A   1      33.188  35.423  31.299  1.00  0.00     0.244 C 
ATOM      4  O   UNL A   1      32.319  35.919  32.011  1.00  0.00    -0.270 OA
ATOM      5  H   UNL A   1      32.240  35.897  29.619  1.00  0.00     0.163 HD
BRANCH   3   6
ATOM      6  C   UNL A   1      34.378  34.808  31.921  1.00  0.00     0.072 C 
ATOM      7  C   UNL A   1      34.416  33.541  32.358  1.00  0.00     0.014 C 
BRANCH   7   8
ATOM      8  C   UNL A   1      35.594  32.949  33.004  1.00  0.00    -0.025 A 
ATOM      9  C   UNL A   1      37.795  31.725  34.228  1.00  0.00     0.089 A 
ATOM     10  C   UNL A   1      37.215  32.856  34.810  1.00  0.00     0.023 A 
ATOM     11  C   UNL A   1      37.285  31.195  33.042  1.00  0.00     0.023 A 
ATOM     12  C   UNL A   1      36.116  33.463  34.199  1.00  0.00     0.009 A 
ATOM     13  C   UNL A   1      36.182  31.807  32.438  1.00  0.00     0.009 A 
BRANCH   9  14
ATOM     14  S   UNL A   1      39.168  30.961  35.078  1.00  0.00     0.285 S 
ATOM     15  O   UNL A   1      38.555  30.095  36.069  1.00  0.00    -0.199 OA
ATOM     16  O   UNL A   1      40.032  32.059  35.458  1.00  0.00    -0.199 OA
BRANCH  14  17
ATOM     17  N   UNL A   1      39.904  30.057  33.960  1.00  0.00    -0.130 NA
ATOM     18  C   UNL A   1      43.421  26.848  33.041  1.00  0.00     0.065 C 
ATOM     19  C   UNL A   1      42.619  27.746  33.916  1.00  0.00     0.024 A 
ATOM     20  C   UNL A   1      42.790  27.915  35.239  1.00  0.00     0.089 A 
ATOM     21  N   UNL A   1      41.586  28.506  33.402  1.00  0.00    -0.334 N 
ATOM     22  S   UNL A   1      41.643  29.065  35.890  1.00  0.00    -0.104 S 
ATOM     23  C   UNL A   1      40.895  29.302  34.285  1.00  0.00     0.199 A 
ATOM     24  H   UNL A   1      41.354  28.478  32.445  1.00  0.00     0.169 HD
ENDBRANCH  14  17
ENDBRANCH   9  14
ENDBRANCH   7   8
ENDBRANCH   3   6
ENDBRANCH   1   2
BRANCH   1  25
ATOM     25  C   UNL A   1      33.638  33.814  28.247  1.00  0.00     0.042 C 
BRANCH  25  26
ATOM     26  C   UNL A   1      34.459  32.619  28.729  1.00  0.00     0.118 C 
BRANCH  26  27
ATOM     27  N   UNL A   1      33.892  31.352  28.295  1.00  0.00    -0.352 N 
ATOM     28  C   UNL A   1      34.490  30.148  28.029  1.00  0.00     0.251 C 
ATOM     29  H   UNL A   1      32.915  31.361  28.172  1.00  0.00     0.163 HD
ATOM     30  O   UNL A   1      33.832  29.268  27.479  1.00  0.00    -0.269 OA
BRANCH  28  31
ATOM     31  C   UNL A   1      35.904  29.884  28.381  1.00  0.00     0.039 A 
ATOM     32  C   UNL A   1      36.877  30.089  27.395  1.00  0.00     0.014 A 
ATOM     33  C   UNL A   1      36.279  29.362  29.623  1.00  0.00     0.014 A 
ATOM     34  C   UNL A   1      38.216  29.797  27.660  1.00  0.00     0.010 A 
ATOM     35  C   UNL A   1      37.626  29.131  29.910  1.00  0.00     0.010 A 
ATOM     36  C   UNL A   1      38.606  29.331  28.925  1.00  0.00    -0.014 A 
BRANCH  36  37
ATOM     37  C   UNL A   1      40.034  29.039  29.211  1.00  0.00     0.031 A 
ATOM     38  C   UNL A   1      40.864  29.994  30.022  1.00  0.00     0.074 A 
ATOM     39  C   UNL A   1      40.589  27.914  28.723  1.00  0.00     0.049 A 
ATOM     40  N   UNL A   1      42.116  29.894  30.394  1.00  0.00    -0.248 NA
ATOM     41  C   UNL A   1      40.210  31.238  30.455  1.00  0.00     0.031 C 
ATOM     42  C   UNL A   1      39.905  26.934  27.876  1.00  0.00     0.029 A 
ATOM     43  N   UNL A   1      41.853  27.401  28.871  1.00  0.00    -0.354 N 
ATOM     44  C   UNL A   1      42.401  31.061  31.091  1.00  0.00     0.074 A 
ATOM     45  C   UNL A   1      41.207  31.877  31.051  1.00  0.00     0.031 C 
ATOM     46  C   UNL A   1      40.747  25.925  27.606  1.00  0.00     0.029 A 
ATOM     47  C   UNL A   1      42.034  26.194  28.242  1.00  0.00     0.049 A 
ATOM     48  H   UNL A   1      42.563  27.855  29.380  1.00  0.00     0.167 HD
ATOM     49  C   UNL A   1      43.546  31.409  31.727  1.00  0.00     0.037 A 
ATOM     50  C   UNL A   1      43.112  25.389  28.194  1.00  0.00     0.037 A 
ATOM     51  C   UNL A   1      44.725  30.586  31.789  1.00  0.00     0.049 A 
ATOM     52  C   UNL A   1      44.355  25.781  28.944  1.00  0.00     0.074 A 
ATOM     53  C   UNL A   1      45.918  30.830  32.449  1.00  0.00     0.029 A 
ATOM     54  N   UNL A   1      44.859  29.354  31.167  1.00  0.00    -0.354 N 
ATOM     55  N   UNL A   1      44.588  26.855  29.657  1.00  0.00    -0.248 NA
ATOM     56  C   UNL A   1      45.480  24.836  28.893  1.00  0.00     0.031 C 
ATOM     57  C   UNL A   1      46.784  29.758  32.200  1.00  0.00     0.029 A 
ATOM     58  C   UNL A   1      46.117  28.828  31.419  1.00  0.00     0.049 A 
ATOM     59  H   UNL A   1      44.163  28.916  30.625  1.00  0.00     0.167 HD
ATOM     60  C   UNL A   1      45.873  26.706  30.160  1.00  0.00     0.074 A 
ATOM     61  C   UNL A   1      46.361  25.427  29.687  1.00  0.00     0.031 C 
ATOM     62  C   UNL A   1      46.586  27.554  30.943  1.00  0.00     0.037 A 
BRANCH  49  63
ATOM     63  C   UNL A   1      43.575  32.744  32.417  1.00  0.00     0.064 A 
ATOM     64  C   UNL A   1      43.850  33.926  31.713  1.00  0.00     0.173 A 
ATOM     65  C   UNL A   1      43.293  32.847  33.787  1.00  0.00     0.173 A 
ATOM     66  F   UNL A   1      44.138  33.881  30.403  1.00  0.00    -0.203 F 
ATOM     67  C   UNL A   1      43.872  35.158  32.361  1.00  0.00     0.198 A 
ATOM     68  C   UNL A   1      43.287  34.084  34.426  1.00  0.00     0.198 A 
ATOM     69  F   UNL A   1      43.017  31.748  34.505  1.00  0.00    -0.203 F 
ATOM     70  F   UNL A   1      44.183  36.268  31.678  1.00  0.00    -0.200 F 
ATOM     71  C   UNL A   1      43.584  35.237  33.715  1.00  0.00     0.200 A 
ATOM     72  F   UNL A   1      42.999  34.160  35.733  1.00  0.00    -0.200 F 
ATOM     73  F   UNL A   1      43.600  36.425  34.337  1.00  0.00    -0.200 F 
ENDBRANCH  49  63
BRANCH  50  74
ATOM     74  C   UNL A   1      43.042  24.105  27.453  1.00  0.00     0.064 A 
ATOM     75  C   UNL A   1      43.416  24.034  26.103  1.00  0.00     0.173 A 
ATOM     76  C   UNL A   1      42.606  22.926  28.074  1.00  0.00     0.173 A 
ATOM     77  F   UNL A   1      43.821  25.140  25.463  1.00  0.00    -0.203 F 
ATOM     78  C   UNL A   1      43.337  22.836  25.397  1.00  0.00     0.198 A 
ATOM     79  C   UNL A   1      42.552  21.723  27.373  1.00  0.00     0.198 A 
ATOM     80  F   UNL A   1      42.245  22.941  29.365  1.00  0.00    -0.203 F 
ATOM     81  F   UNL A   1      43.662  22.804  24.098  1.00  0.00    -0.200 F 
ATOM     82  C   UNL A   1      42.911  21.680  26.034  1.00  0.00     0.200 A 
ATOM     83  F   UNL A   1      42.154  20.605  27.996  1.00  0.00    -0.200 F 
ATOM     84  F   UNL A   1      42.840  20.527  25.356  1.00  0.00    -0.200 F 
ENDBRANCH  50  74
BRANCH  62  85
ATOM     85  C   UNL A   1      47.957  27.107  31.355  1.00  0.00     0.064 A 
ATOM     86  C   UNL A   1      49.087  27.387  30.572  1.00  0.00     0.173 A 
ATOM     87  C   UNL A   1      48.144  26.397  32.550  1.00  0.00     0.173 A 
ATOM     88  F   UNL A   1      48.957  28.049  29.412  1.00  0.00    -0.203 F 
ATOM     89  C   UNL A   1      50.350  26.941  30.954  1.00  0.00     0.198 A 
ATOM     90  C   UNL A   1      49.411  25.976  32.943  1.00  0.00     0.198 A 
ATOM     91  F   UNL A   1      47.096  26.109  33.336  1.00  0.00    -0.203 F 
ATOM     92  F   UNL A   1      51.407  27.170  30.163  1.00  0.00    -0.200 F 
ATOM     93  C   UNL A   1      50.511  26.240  32.140  1.00  0.00     0.200 A 
ATOM     94  F   UNL A   1      49.568  25.308  34.093  1.00  0.00    -0.200 F 
ATOM     95  F   UNL A   1      51.726  25.808  32.504  1.00  0.00    -0.200 F 
ENDBRANCH  62  85
ENDBRANCH  36  37
ENDBRANCH  28  31
ENDBRANCH  26  27
ENDBRANCH  25  26
ENDBRANCH   1  25
TORSDOF 13
ENDMDL
MODEL 2
REMARK VINA RESULT:     -10.5      4.276     10.765
REMARK SMILES Cc1cs/c(=N\S(=O)(=O)c2ccc(/C=C/C(=O)NCCCNC(=O)c3ccc(-c4c5nc(c(-c6c(F)c(F)c(F)c(F)c6F)c6ccc([nH]6)c(-c6c(F)c(F)c(F)c(F)c6F)c6nc(c(-c7c(F)c(F)c(F)c(F)c7F)c7ccc4[nH]7)C=C6)C=C5)cc3)cc2)[nH]1
REMARK SMILES IDX 19 1 18 2 16 3 17 4 15 6 14 7 13 8 10 9 11 10 89 11 12 12
REMARK SMILES IDX 88 13 7 14 8 15 9 16 6 17 1 18 2 19 3 20 90 21 4 22 5 23
REMARK SMILES IDX 20 25 21 26 22 27 23 28 24 30 25 31 26 32 87 33 27 34 86 35
REMARK SMILES IDX 28 36 29 37 30 38 80 39 31 40 85 41 79 42 81 43 32 44 84 45
REMARK SMILES IDX 78 46 77 47 33 49 65 50 45 51 64 52 46 53 49 54 63 55 82 56
REMARK SMILES IDX 47 57 48 58 62 60 83 61 50 62 34 63 35 64 43 65 36 66 37 67
REMARK SMILES IDX 41 68 44 69 38 70 39 71 42 72 40 73 66 74 67 75 75 76 68 77
REMARK SMILES IDX 69 78 73 79 76 80 70 81 71 82 74 83 72 84 51 85 52 86 60 87
REMARK SMILES IDX 53 88 54 89 58 90 61 91 55 92 56 93 59 94 57 95
REMARK H PARENT 18 5 90 24 22 29 81 48 49 59
REMARK Flexibility Score: inf
ROOT
ATOM      1  C   UNL A   1      42.260  19.563  26.715  1.00  0.00     0.118 C 
ENDROOT
BRANCH   1   2
ATOM      2  N   UNL A   1      43.076  18.996  25.658  1.00  0.00    -0.352 N 
ATOM      3  C   UNL A   1      44.146  19.516  24.997  1.00  0.00     0.244 C 
ATOM      4  O   UNL A   1      44.779  18.813  24.212  1.00  0.00    -0.270 OA
ATOM      5  H   UNL A   1      42.815  18.090  25.374  1.00  0.00     0.163 HD
BRANCH   3   6
ATOM      6  C   UNL A   1      44.605  20.891  25.278  1.00  0.00     0.072 C 
ATOM      7  C   UNL A   1      43.964  21.989  24.853  1.00  0.00     0.014 C 
BRANCH   7   8
ATOM      8  C   UNL A   1      44.445  23.351  25.112  1.00  0.00    -0.025 A 
ATOM      9  C   UNL A   1      45.307  25.983  25.523  1.00  0.00     0.089 A 
ATOM     10  C   UNL A   1      46.243  24.946  25.467  1.00  0.00     0.023 A 
ATOM     11  C   UNL A   1      43.944  25.722  25.371  1.00  0.00     0.023 A 
ATOM     12  C   UNL A   1      45.810  23.635  25.259  1.00  0.00     0.009 A 
ATOM     13  C   UNL A   1      43.520  24.406  25.160  1.00  0.00     0.009 A 
BRANCH   9  14
ATOM     14  S   UNL A   1      45.919  27.647  25.743  1.00  0.00     0.285 S 
ATOM     15  O   UNL A   1      45.954  28.210  24.405  1.00  0.00    -0.199 OA
ATOM     16  O   UNL A   1      47.120  27.503  26.538  1.00  0.00    -0.199 OA
BRANCH  14  17
ATOM     17  N   UNL A   1      44.784  28.402  26.610  1.00  0.00    -0.130 NA
ATOM     18  C   UNL A   1      43.380  32.560  28.670  1.00  0.00     0.065 C 
ATOM     19  C   UNL A   1      44.304  31.696  27.885  1.00  0.00     0.024 A 
ATOM     20  C   UNL A   1      45.467  32.084  27.335  1.00  0.00     0.089 A 
ATOM     21  N   UNL A   1      44.012  30.366  27.656  1.00  0.00    -0.334 N 
ATOM     22  S   UNL A   1      46.253  30.760  26.503  1.00  0.00    -0.104 S 
ATOM     23  C   UNL A   1      44.921  29.645  26.917  1.00  0.00     0.199 A 
ATOM     24  H   UNL A   1      43.190  29.952  28.005  1.00  0.00     0.169 HD
ENDBRANCH  14  17
ENDBRANCH   9  14
ENDBRANCH   7   8
ENDBRANCH   3   6
ENDBRANCH   1   2
BRANCH   1  25
ATOM     25  C   UNL A   1      40.906  20.038  26.190  1.00  0.00     0.042 C 
BRANCH  25  26
ATOM     26  C   UNL A   1      40.622  21.515  26.460  1.00  0.00     0.118 C 
BRANCH  26  27
ATOM     27  N   UNL A   1      39.433  21.981  25.764  1.00  0.00    -0.352 N 
ATOM     28  C   UNL A   1      38.729  23.151  25.881  1.00  0.00     0.251 C 
ATOM     29  H   UNL A   1      39.075  21.352  25.098  1.00  0.00     0.163 HD
ATOM     30  O   UNL A   1      37.634  23.241  25.331  1.00  0.00    -0.269 OA
BRANCH  28  31
ATOM     31  C   UNL A   1      39.249  24.301  26.655  1.00  0.00     0.039 A 
ATOM     32  C   UNL A   1      38.863  24.420  27.996  1.00  0.00     0.014 A 
ATOM     33  C   UNL A   1      40.029  25.302  26.070  1.00  0.00     0.014 A 
ATOM     34  C   UNL A   1      39.279  25.519  28.750  1.00  0.00     0.010 A 
ATOM     35  C   UNL A   1      40.499  26.368  26.841  1.00  0.00     0.010 A 
ATOM     36  C   UNL A   1      40.114  26.495  28.185  1.00  0.00    -0.014 A 
BRANCH  36  37
ATOM     37  C   UNL A   1      40.570  27.654  28.995  1.00  0.00     0.031 A 
ATOM     38  C   UNL A   1      41.982  27.722  29.508  1.00  0.00     0.074 A 
ATOM     39  C   UNL A   1      39.703  28.643  29.281  1.00  0.00     0.049 A 
ATOM     40  N   UNL A   1      42.564  28.664  30.207  1.00  0.00    -0.248 NA
ATOM     41  C   UNL A   1      42.848  26.568  29.220  1.00  0.00     0.031 C 
ATOM     42  C   UNL A   1      38.293  28.668  28.888  1.00  0.00     0.029 A 
ATOM     43  N   UNL A   1      39.879  29.819  29.965  1.00  0.00    -0.354 N 
ATOM     44  C   UNL A   1      43.856  28.214  30.449  1.00  0.00     0.074 A 
ATOM     45  C   UNL A   1      43.959  26.894  29.866  1.00  0.00     0.031 C 
ATOM     46  C   UNL A   1      37.741  29.816  29.310  1.00  0.00     0.029 A 
ATOM     47  C   UNL A   1      38.749  30.598  30.020  1.00  0.00     0.049 A 
ATOM     48  H   UNL A   1      40.734  30.080  30.378  1.00  0.00     0.167 HD
ATOM     49  C   UNL A   1      44.871  28.854  31.080  1.00  0.00     0.037 A 
ATOM     50  C   UNL A   1      38.554  31.811  30.568  1.00  0.00     0.037 A 
ATOM     51  C   UNL A   1      44.776  30.178  31.639  1.00  0.00     0.049 A 
ATOM     52  C   UNL A   1      39.707  32.516  31.226  1.00  0.00     0.074 A 
ATOM     53  C   UNL A   1      45.762  30.931  32.255  1.00  0.00     0.029 A 
ATOM     54  N   UNL A   1      43.623  30.950  31.645  1.00  0.00    -0.354 N 
ATOM     55  N   UNL A   1      40.942  32.109  31.388  1.00  0.00    -0.248 NA
ATOM     56  C   UNL A   1      39.441  33.858  31.761  1.00  0.00     0.031 C 
ATOM     57  C   UNL A   1      45.196  32.146  32.661  1.00  0.00     0.029 A 
ATOM     58  C   UNL A   1      43.870  32.166  32.262  1.00  0.00     0.049 A 
ATOM     59  H   UNL A   1      42.757  30.674  31.267  1.00  0.00     0.167 HD
ATOM     60  C   UNL A   1      41.606  33.150  32.020  1.00  0.00     0.074 A 
ATOM     61  C   UNL A   1      40.641  34.217  32.193  1.00  0.00     0.031 C 
ATOM     62  C   UNL A   1      42.900  33.217  32.424  1.00  0.00     0.037 A 
BRANCH  49  63
ATOM     63  C   UNL A   1      46.180  28.127  31.196  1.00  0.00     0.064 A 
ATOM     64  C   UNL A   1      47.222  28.344  30.281  1.00  0.00     0.173 A 
ATOM     65  C   UNL A   1      46.409  27.229  32.249  1.00  0.00     0.173 A 
ATOM     66  F   UNL A   1      47.050  29.183  29.248  1.00  0.00    -0.203 F 
ATOM     67  C   UNL A   1      48.433  27.667  30.399  1.00  0.00     0.198 A 
ATOM     68  C   UNL A   1      47.632  26.575  32.381  1.00  0.00     0.198 A 
ATOM     69  F   UNL A   1      45.449  26.990  33.155  1.00  0.00    -0.203 F 
ATOM     70  F   UNL A   1      49.396  27.855  29.486  1.00  0.00    -0.200 F 
ATOM     71  C   UNL A   1      48.639  26.789  31.452  1.00  0.00     0.200 A 
ATOM     72  F   UNL A   1      47.833  25.735  33.405  1.00  0.00    -0.200 F 
ATOM     73  F   UNL A   1      49.808  26.142  31.568  1.00  0.00    -0.200 F 
ENDBRANCH  49  63
BRANCH  50  74
ATOM     74  C   UNL A   1      37.221  32.459  30.469  1.00  0.00     0.064 A 
ATOM     75  C   UNL A   1      36.267  32.297  31.484  1.00  0.00     0.173 A 
ATOM     76  C   UNL A   1      36.876  33.254  29.367  1.00  0.00     0.173 A 
ATOM     77  F   UNL A   1      36.547  31.531  32.548  1.00  0.00    -0.203 F 
ATOM     78  C   UNL A   1      35.010  32.889  31.390  1.00  0.00     0.198 A 
ATOM     79  C   UNL A   1      35.627  33.866  29.286  1.00  0.00     0.198 A 
ATOM     80  F   UNL A   1      37.758  33.445  28.375  1.00  0.00    -0.203 F 
ATOM     81  F   UNL A   1      34.102  32.686  32.354  1.00  0.00    -0.200 F 
ATOM     82  C   UNL A   1      34.694  33.678  30.294  1.00  0.00     0.200 A 
ATOM     83  F   UNL A   1      35.330  34.640  28.233  1.00  0.00    -0.200 F 
ATOM     84  F   UNL A   1      33.486  34.252  30.206  1.00  0.00    -0.200 F 
ENDBRANCH  50  74
BRANCH  62  85
ATOM     85  C   UNL A   1      43.346  34.497  33.065  1.00  0.00     0.064 A 
ATOM     86  C   UNL A   1      43.296  34.679  34.456  1.00  0.00     0.173 A 
ATOM     87  C   UNL A   1      43.835  35.552  32.281  1.00  0.00     0.173 A 
ATOM     88  F   UNL A   1      42.819  33.705  35.246  1.00  0.00    -0.203 F 
ATOM     89  C   UNL A   1      43.687  35.884  35.034  1.00  0.00     0.198 A 
ATOM     90  C   UNL A   1      44.252  36.745  32.865  1.00  0.00     0.198 A 
ATOM     91  F   UNL A   1      43.909  35.426  30.948  1.00  0.00    -0.203 F 
ATOM     92  F   UNL A   1      43.577  36.055  36.358  1.00  0.00    -0.200 F 
ATOM     93  C   UNL A   1      44.168  36.913  34.238  1.00  0.00     0.200 A 
ATOM     94  F   UNL A   1      44.726  37.736  32.097  1.00  0.00    -0.200 F 
ATOM     95  F   UNL A   1      44.541  38.074  34.797  1.00  0.00    -0.200 F 
ENDBRANCH  62  85
ENDBRANCH  36  37
ENDBRANCH  28  31
ENDBRANCH  26  27
ENDBRANCH  25  26
ENDBRANCH   1  25
TORSDOF 13
ENDMDL
MODEL 3
REMARK VINA RESULT:     -10.4      4.247      7.446
REMARK SMILES Cc1cs/c(=N\S(=O)(=O)c2ccc(/C=C/C(=O)NCCCNC(=O)c3ccc(-c4c5nc(c(-c6c(F)c(F)c(F)c(F)c6F)c6ccc([nH]6)c(-c6c(F)c(F)c(F)c(F)c6F)c6nc(c(-c7c(F)c(F)c(F)c(F)c7F)c7ccc4[nH]7)C=C6)C=C5)cc3)cc2)[nH]1
REMARK SMILES IDX 19 1 18 2 16 3 17 4 15 6 14 7 13 8 10 9 11 10 89 11 12 12
REMARK SMILES IDX 88 13 7 14 8 15 9 16 6 17 1 18 2 19 3 20 90 21 4 22 5 23
REMARK SMILES IDX 20 25 21 26 22 27 23 28 24 30 25 31 26 32 87 33 27 34 86 35
REMARK SMILES IDX 28 36 29 37 30 38 80 39 31 40 85 41 79 42 81 43 32 44 84 45
REMARK SMILES IDX 78 46 77 47 33 49 65 50 45 51 64 52 46 53 49 54 63 55 82 56
REMARK SMILES IDX 47 57 48 58 62 60 83 61 50 62 34 63 35 64 43 65 36 66 37 67
REMARK SMILES IDX 41 68 44 69 38 70 39 71 42 72 40 73 66 74 67 75 75 76 68 77
REMARK SMILES IDX 69 78 73 79 76 80 70 81 71 82 74 83 72 84 51 85 52 86 60 87
REMARK SMILES IDX 53 88 54 89 58 90 61 91 55 92 56 93 59 94 57 95
REMARK H PARENT 18 5 90 24 22 29 81 48 49 59
REMARK Flexibility Score: inf
ROOT
ATOM      1  C   UNL A   1      34.145  35.792  27.915  1.00  0.00     0.118 C 
ENDROOT
BRANCH   1   2
ATOM      2  N   UNL A   1      35.288  35.346  28.690  1.00  0.00    -0.352 N 
ATOM      3  C   UNL A   1      35.678  34.091  29.041  1.00  0.00     0.244 C 
ATOM      4  O   UNL A   1      36.758  33.922  29.602  1.00  0.00    -0.270 OA
ATOM      5  H   UNL A   1      35.875  36.067  29.013  1.00  0.00     0.163 HD
BRANCH   3   6
ATOM      6  C   UNL A   1      34.855  32.921  28.677  1.00  0.00     0.072 C 
ATOM      7  C   UNL A   1      35.298  31.908  27.919  1.00  0.00     0.014 C 
BRANCH   7   8
ATOM      8  C   UNL A   1      34.461  30.764  27.537  1.00  0.00    -0.025 A 
ATOM      9  C   UNL A   1      32.934  28.560  26.731  1.00  0.00     0.089 A 
ATOM     10  C   UNL A   1      32.317  29.799  26.928  1.00  0.00     0.023 A 
ATOM     11  C   UNL A   1      34.308  28.409  26.928  1.00  0.00     0.023 A 
ATOM     12  C   UNL A   1      33.082  30.897  27.328  1.00  0.00     0.009 A 
ATOM     13  C   UNL A   1      35.067  29.515  27.325  1.00  0.00     0.009 A 
BRANCH   9  14
ATOM     14  S   UNL A   1      31.917  27.202  26.174  1.00  0.00     0.285 S 
ATOM     15  O   UNL A   1      31.409  27.624  24.881  1.00  0.00    -0.199 OA
ATOM     16  O   UNL A   1      31.030  26.917  27.282  1.00  0.00    -0.199 OA
BRANCH  14  17
ATOM     17  N   UNL A   1      32.938  25.967  25.970  1.00  0.00    -0.130 NA
ATOM     18  C   UNL A   1      33.408  21.192  25.273  1.00  0.00     0.065 C 
ATOM     19  C   UNL A   1      32.637  22.449  25.473  1.00  0.00     0.024 A 
ATOM     20  C   UNL A   1      31.297  22.554  25.509  1.00  0.00     0.089 A 
ATOM     21  N   UNL A   1      33.280  23.660  25.640  1.00  0.00    -0.334 N 
ATOM     22  S   UNL A   1      30.793  24.209  25.771  1.00  0.00    -0.104 S 
ATOM     23  C   UNL A   1      32.488  24.771  25.813  1.00  0.00     0.199 A 
ATOM     24  H   UNL A   1      34.262  23.726  25.637  1.00  0.00     0.169 HD
ENDBRANCH  14  17
ENDBRANCH   9  14
ENDBRANCH   7   8
ENDBRANCH   3   6
ENDBRANCH   1   2
BRANCH   1  25
ATOM     25  C   UNL A   1      32.936  36.076  28.804  1.00  0.00     0.042 C 
BRANCH  25  26
ATOM     26  C   UNL A   1      33.284  36.786  30.112  1.00  0.00     0.118 C 
BRANCH  26  27
ATOM     27  N   UNL A   1      32.395  36.404  31.198  1.00  0.00    -0.352 N 
ATOM     28  C   UNL A   1      32.551  35.484  32.201  1.00  0.00     0.251 C 
ATOM     29  H   UNL A   1      31.538  36.888  31.215  1.00  0.00     0.163 HD
ATOM     30  O   UNL A   1      31.579  35.187  32.891  1.00  0.00    -0.269 OA
BRANCH  28  31
ATOM     31  C   UNL A   1      33.856  34.836  32.470  1.00  0.00     0.039 A 
ATOM     32  C   UNL A   1      33.868  33.458  32.718  1.00  0.00     0.014 A 
ATOM     33  C   UNL A   1      35.045  35.565  32.567  1.00  0.00     0.014 A 
ATOM     34  C   UNL A   1      35.065  32.813  33.035  1.00  0.00     0.010 A 
ATOM     35  C   UNL A   1      36.252  34.910  32.820  1.00  0.00     0.010 A 
ATOM     36  C   UNL A   1      36.271  33.530  33.074  1.00  0.00    -0.014 A 
BRANCH  36  37
ATOM     37  C   UNL A   1      37.545  32.838  33.393  1.00  0.00     0.031 A 
ATOM     38  C   UNL A   1      38.283  33.139  34.669  1.00  0.00     0.074 A 
ATOM     39  C   UNL A   1      38.049  31.944  32.521  1.00  0.00     0.049 A 
ATOM     40  N   UNL A   1      39.392  32.616  35.127  1.00  0.00    -0.248 NA
ATOM     41  C   UNL A   1      37.711  34.183  35.533  1.00  0.00     0.031 C 
ATOM     42  C   UNL A   1      37.458  31.604  31.226  1.00  0.00     0.029 A 
ATOM     43  N   UNL A   1      39.169  31.154  32.594  1.00  0.00    -0.354 N 
ATOM     44  C   UNL A   1      39.656  33.271  36.323  1.00  0.00     0.074 A 
ATOM     45  C   UNL A   1      38.618  34.264  36.497  1.00  0.00     0.031 C 
ATOM     46  C   UNL A   1      38.203  30.654  30.640  1.00  0.00     0.029 A 
ATOM     47  C   UNL A   1      39.333  30.331  31.507  1.00  0.00     0.049 A 
ATOM     48  H   UNL A   1      39.795  31.174  33.354  1.00  0.00     0.167 HD
ATOM     49  C   UNL A   1      40.659  33.049  37.207  1.00  0.00     0.037 A 
ATOM     50  C   UNL A   1      40.280  29.412  31.245  1.00  0.00     0.037 A 
ATOM     51  C   UNL A   1      41.677  32.044  37.046  1.00  0.00     0.049 A 
ATOM     52  C   UNL A   1      41.357  29.157  32.262  1.00  0.00     0.074 A 
ATOM     53  C   UNL A   1      42.707  31.709  37.909  1.00  0.00     0.029 A 
ATOM     54  N   UNL A   1      41.791  31.207  35.947  1.00  0.00    -0.354 N 
ATOM     55  N   UNL A   1      41.556  29.735  33.421  1.00  0.00    -0.248 NA
ATOM     56  C   UNL A   1      42.333  28.106  31.940  1.00  0.00     0.031 C 
ATOM     57  C   UNL A   1      43.463  30.689  37.316  1.00  0.00     0.029 A 
ATOM     58  C   UNL A   1      42.879  30.362  36.104  1.00  0.00     0.049 A 
ATOM     59  H   UNL A   1      41.188  31.212  35.168  1.00  0.00     0.167 HD
ATOM     60  C   UNL A   1      42.661  29.105  33.977  1.00  0.00     0.074 A 
ATOM     61  C   UNL A   1      43.077  28.085  33.036  1.00  0.00     0.031 C 
ATOM     62  C   UNL A   1      43.278  29.351  35.159  1.00  0.00     0.037 A 
BRANCH  49  63
ATOM     63  C   UNL A   1      40.700  33.911  38.437  1.00  0.00     0.064 A 
ATOM     64  C   UNL A   1      41.459  35.089  38.481  1.00  0.00     0.173 A 
ATOM     65  C   UNL A   1      39.948  33.573  39.572  1.00  0.00     0.173 A 
ATOM     66  F   UNL A   1      42.206  35.451  37.427  1.00  0.00    -0.203 F 
ATOM     67  C   UNL A   1      41.488  35.883  39.625  1.00  0.00     0.198 A 
ATOM     68  C   UNL A   1      39.956  34.383  40.705  1.00  0.00     0.198 A 
ATOM     69  F   UNL A   1      39.200  32.459  39.581  1.00  0.00    -0.203 F 
ATOM     70  F   UNL A   1      42.257  36.979  39.660  1.00  0.00    -0.200 F 
ATOM     71  C   UNL A   1      40.731  35.532  40.733  1.00  0.00     0.200 A 
ATOM     72  F   UNL A   1      39.216  34.049  41.771  1.00  0.00    -0.200 F 
ATOM     73  F   UNL A   1      40.755  36.300  41.832  1.00  0.00    -0.200 F 
ENDBRANCH  49  63
BRANCH  50  74
ATOM     74  C   UNL A   1      40.218  28.626  29.987  1.00  0.00     0.064 A 
ATOM     75  C   UNL A   1      40.839  29.091  28.820  1.00  0.00     0.173 A 
ATOM     76  C   UNL A   1      39.545  27.398  29.926  1.00  0.00     0.173 A 
ATOM     77  F   UNL A   1      41.479  30.269  28.826  1.00  0.00    -0.203 F 
ATOM     78  C   UNL A   1      40.771  28.367  27.631  1.00  0.00     0.198 A 
ATOM     79  C   UNL A   1      39.500  26.662  28.744  1.00  0.00     0.198 A 
ATOM     80  F   UNL A   1      38.942  26.907  31.019  1.00  0.00    -0.203 F 
ATOM     81  F   UNL A   1      41.339  28.853  26.520  1.00  0.00    -0.200 F 
ATOM     82  C   UNL A   1      40.107  27.150  27.597  1.00  0.00     0.200 A 
ATOM     83  F   UNL A   1      38.869  25.480  28.717  1.00  0.00    -0.200 F 
ATOM     84  F   UNL A   1      40.046  26.451  26.455  1.00  0.00    -0.200 F 
ENDBRANCH  50  74
BRANCH  62  85
ATOM     85  C   UNL A   1      44.448  28.481  35.509  1.00  0.00     0.064 A 
ATOM     86  C   UNL A   1      45.756  28.824  35.134  1.00  0.00     0.173 A 
ATOM     87  C   UNL A   1      44.261  27.294  36.232  1.00  0.00     0.173 A 
ATOM     88  F   UNL A   1      45.984  29.941  34.426  1.00  0.00    -0.203 F 
ATOM     89  C   UNL A   1      46.830  27.991  35.441  1.00  0.00     0.198 A 
ATOM     90  C   UNL A   1      45.339  26.479  36.562  1.00  0.00     0.198 A 
ATOM     91  F   UNL A   1      43.031  26.925  36.619  1.00  0.00    -0.203 F 
ATOM     92  F   UNL A   1      48.063  28.311  35.024  1.00  0.00    -0.200 F 
ATOM     93  C   UNL A   1      46.620  26.822  36.158  1.00  0.00     0.200 A 
ATOM     94  F   UNL A   1      45.138  25.354  37.262  1.00  0.00    -0.200 F 
ATOM     95  F   UNL A   1      47.654  26.021  36.449  1.00  0.00    -0.200 F 
ENDBRANCH  62  85
ENDBRANCH  36  37
ENDBRANCH  28  31
ENDBRANCH  26  27
ENDBRANCH  25  26
ENDBRANCH   1  25
TORSDOF 13
ENDMDL
