MODEL 1
REMARK VINA RESULT:     -11.8      0.000      0.000
REMARK SMILES Cc1noc(C)c1[C@@H](C)NC(=O)N[C@H](CO)C(=O)NCCCNC(=O)c1ccc(-c2c3nc(c(-c4c(F)c(F)c(F)c(F)c4F)c4ccc([nH]4)c(-c4c(F)c(F)c(F)c(F)c4F)c4nc(c(-c5c(F)c(F)c(F)c(F)c5F)c5ccc2[nH]5)C=C4)C=C3)cc1
REMARK SMILES IDX 20 1 19 2 17 3 18 4 14 6 13 7 10 8 11 9 12 11 8 13 9 14 7 15
REMARK SMILES IDX 1 16 2 17 3 18 4 19 5 20 6 21 15 22 16 23 21 25 22 26 23 27
REMARK SMILES IDX 24 28 25 30 26 31 27 32 88 33 28 34 87 35 29 36 30 37 31 38
REMARK SMILES IDX 81 39 32 40 86 41 80 42 82 43 33 44 85 45 79 46 78 47 34 49
REMARK SMILES IDX 66 50 46 51 65 52 47 53 50 54 64 55 83 56 48 57 49 58 63 60
REMARK SMILES IDX 84 61 51 62 35 63 36 64 44 65 37 66 38 67 42 68 45 69 39 70
REMARK SMILES IDX 40 71 43 72 41 73 67 74 68 75 76 76 69 77 70 78 74 79 77 80
REMARK SMILES IDX 71 81 72 82 75 83 73 84 52 85 53 86 61 87 54 88 55 89 59 90
REMARK SMILES IDX 62 91 56 92 57 93 60 94 58 95
REMARK H PARENT 19 5 10 10 13 12 16 24 23 29 82 48 50 59
REMARK Flexibility Score: inf
ROOT
ATOM      1  C   UNL A   1      33.160  29.055  24.797  1.00  0.00     0.117 C 
ENDROOT
BRANCH   1   2
ATOM      2  N   UNL A   1      33.805  28.875  23.505  1.00  0.00    -0.354 N 
ATOM      3  C   UNL A   1      33.629  27.965  22.507  1.00  0.00     0.245 C 
ATOM      4  O   UNL A   1      34.168  28.247  21.429  1.00  0.00    -0.273 OA
ATOM      5  H   UNL A   1      34.505  29.540  23.316  1.00  0.00     0.163 HD
BRANCH   3   6
ATOM      6  C   UNL A   1      32.669  26.756  22.594  1.00  0.00     0.198 C 
BRANCH   6   7
ATOM      7  N   UNL A   1      33.074  25.479  22.014  1.00  0.00    -0.324 N 
ATOM      8  N   UNL A   1      33.639  23.968  23.751  1.00  0.00    -0.331 N 
ATOM      9  C   UNL A   1      33.476  24.297  22.473  1.00  0.00     0.315 C 
ATOM     10  H   UNL A   1      33.670  22.993  23.880  1.00  0.00     0.165 HD
ATOM     11  O   UNL A   1      33.659  23.414  21.631  1.00  0.00    -0.249 OA
ATOM     12  H   UNL A   1      33.043  25.497  21.031  1.00  0.00     0.166 HD
BRANCH   8  13
ATOM     13  C   UNL A   1      33.781  24.690  25.003  1.00  0.00     0.116 C 
ATOM     14  C   UNL A   1      35.220  24.534  25.500  1.00  0.00     0.036 C 
BRANCH  13  15
ATOM     15  C   UNL A   1      32.793  24.192  26.015  1.00  0.00     0.040 A 
ATOM     16  C   UNL A   1      33.905  22.027  27.037  1.00  0.00     0.071 C 
ATOM     17  C   UNL A   1      32.863  23.072  26.900  1.00  0.00     0.086 A 
ATOM     18  N   UNL A   1      31.792  23.014  27.698  1.00  0.00    -0.085 NA
ATOM     19  O   UNL A   1      30.991  24.068  27.345  1.00  0.00    -0.361 OA
ATOM     20  C   UNL A   1      31.587  24.781  26.359  1.00  0.00     0.139 A 
ATOM     21  C   UNL A   1      30.834  25.974  25.925  1.00  0.00     0.091 C 
ENDBRANCH  13  15
ENDBRANCH   8  13
ENDBRANCH   6   7
BRANCH   6  22
ATOM     22  C   UNL A   1      31.194  27.147  22.315  1.00  0.00     0.191 C 
BRANCH  22  23
ATOM     23  O   UNL A   1      31.036  28.493  21.863  1.00  0.00    -0.394 OA
ATOM     24  H   UNL A   1      30.093  28.717  21.834  1.00  0.00     0.210 HD
ENDBRANCH  22  23
ENDBRANCH   6  22
ENDBRANCH   3   6
ENDBRANCH   1   2
BRANCH   1  25
ATOM     25  C   UNL A   1      33.783  28.222  25.923  1.00  0.00     0.042 C 
BRANCH  25  26
ATOM     26  C   UNL A   1      33.248  28.530  27.328  1.00  0.00     0.118 C 
BRANCH  26  27
ATOM     27  N   UNL A   1      33.441  29.930  27.670  1.00  0.00    -0.352 N 
ATOM     28  C   UNL A   1      34.494  30.610  28.230  1.00  0.00     0.251 C 
ATOM     29  H   UNL A   1      32.668  30.501  27.459  1.00  0.00     0.163 HD
ATOM     30  O   UNL A   1      34.274  31.750  28.643  1.00  0.00    -0.269 OA
BRANCH  28  31
ATOM     31  C   UNL A   1      35.876  30.069  28.354  1.00  0.00     0.039 A 
ATOM     32  C   UNL A   1      36.270  29.579  29.609  1.00  0.00     0.014 A 
ATOM     33  C   UNL A   1      36.841  30.173  27.351  1.00  0.00     0.014 A 
ATOM     34  C   UNL A   1      37.598  29.205  29.857  1.00  0.00     0.010 A 
ATOM     35  C   UNL A   1      38.162  29.748  27.585  1.00  0.00     0.010 A 
ATOM     36  C   UNL A   1      38.566  29.286  28.847  1.00  0.00    -0.014 A 
BRANCH  36  37
ATOM     37  C   UNL A   1      39.993  28.945  29.134  1.00  0.00     0.031 A 
ATOM     38  C   UNL A   1      40.858  29.873  29.953  1.00  0.00     0.074 A 
ATOM     39  C   UNL A   1      40.529  27.794  28.681  1.00  0.00     0.049 A 
ATOM     40  N   UNL A   1      42.104  29.723  30.338  1.00  0.00    -0.248 NA
ATOM     41  C   UNL A   1      40.246  31.134  30.394  1.00  0.00     0.031 C 
ATOM     42  C   UNL A   1      39.833  26.803  27.863  1.00  0.00     0.029 A 
ATOM     43  N   UNL A   1      41.787  27.263  28.849  1.00  0.00    -0.354 N 
ATOM     44  C   UNL A   1      42.423  30.869  31.055  1.00  0.00     0.074 A 
ATOM     45  C   UNL A   1      41.254  31.723  31.020  1.00  0.00     0.031 C 
ATOM     46  C   UNL A   1      40.666  25.779  27.613  1.00  0.00     0.029 A 
ATOM     47  C   UNL A   1      41.961  26.047  28.235  1.00  0.00     0.049 A 
ATOM     48  H   UNL A   1      42.497  27.713  29.362  1.00  0.00     0.167 HD
ATOM     49  C   UNL A   1      43.574  31.179  31.702  1.00  0.00     0.037 A 
ATOM     50  C   UNL A   1      43.035  25.236  28.177  1.00  0.00     0.037 A 
ATOM     51  C   UNL A   1      44.738  30.334  31.773  1.00  0.00     0.049 A 
ATOM     52  C   UNL A   1      44.307  25.610  28.890  1.00  0.00     0.074 A 
ATOM     53  C   UNL A   1      45.919  30.550  32.466  1.00  0.00     0.029 A 
ATOM     54  N   UNL A   1      44.873  29.118  31.126  1.00  0.00    -0.354 N 
ATOM     55  N   UNL A   1      44.567  26.663  29.623  1.00  0.00    -0.248 NA
ATOM     56  C   UNL A   1      45.435  24.671  28.772  1.00  0.00     0.031 C 
ATOM     57  C   UNL A   1      46.784  29.482  32.206  1.00  0.00     0.029 A 
ATOM     58  C   UNL A   1      46.127  28.582  31.384  1.00  0.00     0.049 A 
ATOM     59  H   UNL A   1      44.182  28.695  30.566  1.00  0.00     0.167 HD
ATOM     60  C   UNL A   1      45.872  26.503  30.074  1.00  0.00     0.074 A 
ATOM     61  C   UNL A   1      46.349  25.246  29.542  1.00  0.00     0.031 C 
ATOM     62  C   UNL A   1      46.602  27.328  30.862  1.00  0.00     0.037 A 
BRANCH  49  63
ATOM     63  C   UNL A   1      43.636  32.503  32.406  1.00  0.00     0.064 A 
ATOM     64  C   UNL A   1      44.073  33.661  31.746  1.00  0.00     0.173 A 
ATOM     65  C   UNL A   1      43.199  32.626  33.732  1.00  0.00     0.173 A 
ATOM     66  F   UNL A   1      44.505  33.593  30.478  1.00  0.00    -0.203 F 
ATOM     67  C   UNL A   1      44.088  34.892  32.396  1.00  0.00     0.198 A 
ATOM     68  C   UNL A   1      43.193  33.862  34.372  1.00  0.00     0.198 A 
ATOM     69  F   UNL A   1      42.760  31.549  34.403  1.00  0.00    -0.203 F 
ATOM     70  F   UNL A   1      44.540  35.980  31.757  1.00  0.00    -0.200 F 
ATOM     71  C   UNL A   1      43.643  34.992  33.706  1.00  0.00     0.200 A 
ATOM     72  F   UNL A   1      42.751  33.961  35.634  1.00  0.00    -0.200 F 
ATOM     73  F   UNL A   1      43.650  36.179  34.328  1.00  0.00    -0.200 F 
ENDBRANCH  49  63
BRANCH  50  74
ATOM     74  C   UNL A   1      42.953  23.957  27.425  1.00  0.00     0.064 A 
ATOM     75  C   UNL A   1      43.316  23.895  26.072  1.00  0.00     0.173 A 
ATOM     76  C   UNL A   1      42.493  22.784  28.037  1.00  0.00     0.173 A 
ATOM     77  F   UNL A   1      43.734  25.000  25.439  1.00  0.00    -0.203 F 
ATOM     78  C   UNL A   1      43.208  22.705  25.355  1.00  0.00     0.198 A 
ATOM     79  C   UNL A   1      42.408  21.590  27.324  1.00  0.00     0.198 A 
ATOM     80  F   UNL A   1      42.131  22.796  29.328  1.00  0.00    -0.203 F 
ATOM     81  F   UNL A   1      43.521  22.681  24.053  1.00  0.00    -0.200 F 
ATOM     82  C   UNL A   1      42.759  21.553  25.983  1.00  0.00     0.200 A 
ATOM     83  F   UNL A   1      41.980  20.476  27.935  1.00  0.00    -0.200 F 
ATOM     84  F   UNL A   1      42.656  20.410  25.292  1.00  0.00    -0.200 F 
ENDBRANCH  50  74
BRANCH  62  85
ATOM     85  C   UNL A   1      47.991  26.891  31.225  1.00  0.00     0.064 A 
ATOM     86  C   UNL A   1      48.232  26.055  32.324  1.00  0.00     0.173 A 
ATOM     87  C   UNL A   1      49.088  27.283  30.444  1.00  0.00     0.173 A 
ATOM     88  F   UNL A   1      47.218  25.666  33.112  1.00  0.00    -0.203 F 
ATOM     89  C   UNL A   1      49.525  25.642  32.639  1.00  0.00     0.198 A 
ATOM     90  C   UNL A   1      50.376  26.850  30.748  1.00  0.00     0.198 A 
ATOM     91  F   UNL A   1      48.910  28.079  29.379  1.00  0.00    -0.203 F 
ATOM     92  F   UNL A   1      49.737  24.873  33.717  1.00  0.00    -0.200 F 
ATOM     93  C   UNL A   1      50.594  26.034  31.848  1.00  0.00     0.200 A 
ATOM     94  F   UNL A   1      51.408  27.223  29.977  1.00  0.00    -0.200 F 
ATOM     95  F   UNL A   1      51.836  25.631  32.150  1.00  0.00    -0.200 F 
ENDBRANCH  62  85
ENDBRANCH  36  37
ENDBRANCH  28  31
ENDBRANCH  26  27
ENDBRANCH  25  26
ENDBRANCH   1  25
TORSDOF 15
ENDMDL
MODEL 2
REMARK VINA RESULT:     -11.6      0.832      2.143
REMARK SMILES Cc1noc(C)c1[C@@H](C)NC(=O)N[C@H](CO)C(=O)NCCCNC(=O)c1ccc(-c2c3nc(c(-c4c(F)c(F)c(F)c(F)c4F)c4ccc([nH]4)c(-c4c(F)c(F)c(F)c(F)c4F)c4nc(c(-c5c(F)c(F)c(F)c(F)c5F)c5ccc2[nH]5)C=C4)C=C3)cc1
REMARK SMILES IDX 20 1 19 2 17 3 18 4 14 6 13 7 10 8 11 9 12 11 8 13 9 14 7 15
REMARK SMILES IDX 1 16 2 17 3 18 4 19 5 20 6 21 15 22 16 23 21 25 22 26 23 27
REMARK SMILES IDX 24 28 25 30 26 31 27 32 88 33 28 34 87 35 29 36 30 37 31 38
REMARK SMILES IDX 81 39 32 40 86 41 80 42 82 43 33 44 85 45 79 46 78 47 34 49
REMARK SMILES IDX 66 50 46 51 65 52 47 53 50 54 64 55 83 56 48 57 49 58 63 60
REMARK SMILES IDX 84 61 51 62 35 63 36 64 44 65 37 66 38 67 42 68 45 69 39 70
REMARK SMILES IDX 40 71 43 72 41 73 67 74 68 75 76 76 69 77 70 78 74 79 77 80
REMARK SMILES IDX 71 81 72 82 75 83 73 84 52 85 53 86 61 87 54 88 55 89 59 90
REMARK SMILES IDX 62 91 56 92 57 93 60 94 58 95
REMARK H PARENT 19 5 10 10 13 12 16 24 23 29 82 48 50 59
REMARK Flexibility Score: inf
ROOT
ATOM      1  C   UNL A   1      31.883  29.755  25.471  1.00  0.00     0.117 C 
ENDROOT
BRANCH   1   2
ATOM      2  N   UNL A   1      32.949  29.658  24.486  1.00  0.00    -0.354 N 
ATOM      3  C   UNL A   1      33.062  28.971  23.315  1.00  0.00     0.245 C 
ATOM      4  O   UNL A   1      34.006  29.308  22.589  1.00  0.00    -0.273 OA
ATOM      5  H   UNL A   1      33.744  30.193  24.709  1.00  0.00     0.163 HD
BRANCH   3   6
ATOM      6  C   UNL A   1      32.001  27.978  22.787  1.00  0.00     0.198 C 
BRANCH   6   7
ATOM      7  N   UNL A   1      32.431  26.827  21.996  1.00  0.00    -0.324 N 
ATOM      8  N   UNL A   1      32.958  25.028  23.445  1.00  0.00    -0.331 N 
ATOM      9  C   UNL A   1      32.829  25.583  22.244  1.00  0.00     0.315 C 
ATOM     10  H   UNL A   1      32.993  24.045  23.396  1.00  0.00     0.165 HD
ATOM     11  O   UNL A   1      33.040  24.868  21.262  1.00  0.00    -0.249 OA
ATOM     12  H   UNL A   1      32.426  27.024  21.032  1.00  0.00     0.166 HD
BRANCH   8  13
ATOM     13  C   UNL A   1      33.062  25.511  24.811  1.00  0.00     0.116 C 
ATOM     14  C   UNL A   1      34.478  25.240  25.322  1.00  0.00     0.036 C 
BRANCH  13  15
ATOM     15  C   UNL A   1      32.029  24.860  25.681  1.00  0.00     0.040 A 
ATOM     16  C   UNL A   1      33.341  22.990  27.004  1.00  0.00     0.071 C 
ATOM     17  C   UNL A   1      32.158  23.804  26.635  1.00  0.00     0.086 A 
ATOM     18  N   UNL A   1      30.998  23.560  27.253  1.00  0.00    -0.085 NA
ATOM     19  O   UNL A   1      30.083  24.424  26.710  1.00  0.00    -0.361 OA
ATOM     20  C   UNL A   1      30.692  25.209  25.789  1.00  0.00     0.139 A 
ATOM     21  C   UNL A   1      29.812  26.216  25.164  1.00  0.00     0.091 C 
ENDBRANCH  13  15
ENDBRANCH   8  13
ENDBRANCH   6   7
BRANCH   6  22
ATOM     22  C   UNL A   1      30.737  28.692  22.242  1.00  0.00     0.191 C 
BRANCH  22  23
ATOM     23  O   UNL A   1      31.003  29.984  21.692  1.00  0.00    -0.394 OA
ATOM     24  H   UNL A   1      31.948  30.059  21.486  1.00  0.00     0.210 HD
ENDBRANCH  22  23
ENDBRANCH   6  22
ENDBRANCH   3   6
ENDBRANCH   1   2
BRANCH   1  25
ATOM     25  C   UNL A   1      32.042  28.793  26.654  1.00  0.00     0.042 C 
BRANCH  25  26
ATOM     26  C   UNL A   1      33.394  28.872  27.377  1.00  0.00     0.118 C 
BRANCH  26  27
ATOM     27  N   UNL A   1      33.640  30.211  27.887  1.00  0.00    -0.352 N 
ATOM     28  C   UNL A   1      34.722  30.780  28.512  1.00  0.00     0.251 C 
ATOM     29  H   UNL A   1      32.885  30.829  27.759  1.00  0.00     0.163 HD
ATOM     30  O   UNL A   1      34.546  31.866  29.067  1.00  0.00    -0.269 OA
BRANCH  28  31
ATOM     31  C   UNL A   1      36.085  30.181  28.547  1.00  0.00     0.039 A 
ATOM     32  C   UNL A   1      36.540  29.679  29.777  1.00  0.00     0.014 A 
ATOM     33  C   UNL A   1      36.985  30.241  27.483  1.00  0.00     0.014 A 
ATOM     34  C   UNL A   1      37.865  29.250  29.939  1.00  0.00     0.010 A 
ATOM     35  C   UNL A   1      38.300  29.762  27.631  1.00  0.00     0.010 A 
ATOM     36  C   UNL A   1      38.767  29.287  28.867  1.00  0.00    -0.014 A 
BRANCH  36  37
ATOM     37  C   UNL A   1      40.193  28.887  29.061  1.00  0.00     0.031 A 
ATOM     38  C   UNL A   1      41.157  29.795  29.787  1.00  0.00     0.074 A 
ATOM     39  C   UNL A   1      40.643  27.700  28.608  1.00  0.00     0.049 A 
ATOM     40  N   UNL A   1      42.421  29.598  30.085  1.00  0.00    -0.248 NA
ATOM     41  C   UNL A   1      40.637  31.096  30.230  1.00  0.00     0.031 C 
ATOM     42  C   UNL A   1      39.845  26.720  27.873  1.00  0.00     0.029 A 
ATOM     43  N   UNL A   1      41.884  27.115  28.702  1.00  0.00    -0.354 N 
ATOM     44  C   UNL A   1      42.843  30.748  30.741  1.00  0.00     0.074 A 
ATOM     45  C   UNL A   1      41.714  31.655  30.763  1.00  0.00     0.031 C 
ATOM     46  C   UNL A   1      40.610  25.651  27.596  1.00  0.00     0.029 A 
ATOM     47  C   UNL A   1      41.958  25.875  28.115  1.00  0.00     0.049 A 
ATOM     48  H   UNL A   1      42.650  27.545  29.148  1.00  0.00     0.167 HD
ATOM     49  C   UNL A   1      44.050  31.020  31.294  1.00  0.00     0.037 A 
ATOM     50  C   UNL A   1      42.987  25.013  28.006  1.00  0.00     0.037 A 
ATOM     51  C   UNL A   1      45.177  30.124  31.308  1.00  0.00     0.049 A 
ATOM     52  C   UNL A   1      44.324  25.346  28.613  1.00  0.00     0.074 A 
ATOM     53  C   UNL A   1      46.414  30.303  31.907  1.00  0.00     0.029 A 
ATOM     54  N   UNL A   1      45.210  28.885  30.692  1.00  0.00    -0.354 N 
ATOM     55  N   UNL A   1      44.684  26.406  29.292  1.00  0.00    -0.248 NA
ATOM     56  C   UNL A   1      45.397  24.352  28.444  1.00  0.00     0.031 C 
ATOM     57  C   UNL A   1      47.208  29.188  31.620  1.00  0.00     0.029 A 
ATOM     58  C   UNL A   1      46.454  28.298  30.876  1.00  0.00     0.049 A 
ATOM     59  H   UNL A   1      44.461  28.479  30.196  1.00  0.00     0.167 HD
ATOM     60  C   UNL A   1      46.009  26.197  29.653  1.00  0.00     0.074 A 
ATOM     61  C   UNL A   1      46.390  24.904  29.128  1.00  0.00     0.031 C 
ATOM     62  C   UNL A   1      46.831  27.008  30.360  1.00  0.00     0.037 A 
BRANCH  49  63
ATOM     63  C   UNL A   1      44.224  32.359  31.949  1.00  0.00     0.064 A 
ATOM     64  C   UNL A   1      43.886  32.562  33.296  1.00  0.00     0.173 A 
ATOM     65  C   UNL A   1      44.789  33.430  31.243  1.00  0.00     0.173 A 
ATOM     66  F   UNL A   1      43.340  31.568  34.012  1.00  0.00    -0.203 F 
ATOM     67  C   UNL A   1      44.090  33.796  33.906  1.00  0.00     0.198 A 
ATOM     68  C   UNL A   1      45.013  34.657  31.862  1.00  0.00     0.198 A 
ATOM     69  F   UNL A   1      45.140  33.283  29.957  1.00  0.00    -0.203 F 
ATOM     70  F   UNL A   1      43.731  33.978  35.184  1.00  0.00    -0.200 F 
ATOM     71  C   UNL A   1      44.658  34.841  33.191  1.00  0.00     0.200 A 
ATOM     72  F   UNL A   1      45.574  35.662  31.174  1.00  0.00    -0.200 F 
ATOM     73  F   UNL A   1      44.862  36.026  33.782  1.00  0.00    -0.200 F 
ENDBRANCH  49  63
BRANCH  50  74
ATOM     74  C   UNL A   1      42.793  23.719  27.302  1.00  0.00     0.064 A 
ATOM     75  C   UNL A   1      42.238  22.616  27.966  1.00  0.00     0.173 A 
ATOM     76  C   UNL A   1      43.175  23.557  25.964  1.00  0.00     0.173 A 
ATOM     77  F   UNL A   1      41.886  22.718  29.255  1.00  0.00    -0.203 F 
ATOM     78  C   UNL A   1      42.086  21.392  27.319  1.00  0.00     0.198 A 
ATOM     79  C   UNL A   1      43.001  22.338  25.312  1.00  0.00     0.198 A 
ATOM     80  F   UNL A   1      43.714  24.582  25.289  1.00  0.00    -0.203 F 
ATOM     81  F   UNL A   1      41.593  20.341  27.988  1.00  0.00    -0.200 F 
ATOM     82  C   UNL A   1      42.463  21.255  25.991  1.00  0.00     0.200 A 
ATOM     83  F   UNL A   1      43.359  22.210  24.026  1.00  0.00    -0.200 F 
ATOM     84  F   UNL A   1      42.316  20.077  25.370  1.00  0.00    -0.200 F 
ENDBRANCH  50  74
BRANCH  62  85
ATOM     85  C   UNL A   1      48.222  26.517  30.637  1.00  0.00     0.064 A 
ATOM     86  C   UNL A   1      49.294  26.836  29.791  1.00  0.00     0.173 A 
ATOM     87  C   UNL A   1      48.492  25.750  31.780  1.00  0.00     0.173 A 
ATOM     88  F   UNL A   1      49.085  27.553  28.677  1.00  0.00    -0.203 F 
ATOM     89  C   UNL A   1      50.583  26.388  30.071  1.00  0.00     0.198 A 
ATOM     90  C   UNL A   1      49.786  25.324  32.068  1.00  0.00     0.198 A 
ATOM     91  F   UNL A   1      47.502  25.421  32.623  1.00  0.00    -0.203 F 
ATOM     92  F   UNL A   1      51.587  26.673  29.228  1.00  0.00    -0.200 F 
ATOM     93  C   UNL A   1      50.830  25.639  31.211  1.00  0.00     0.200 A 
ATOM     94  F   UNL A   1      50.023  24.606  33.176  1.00  0.00    -0.200 F 
ATOM     95  F   UNL A   1      52.072  25.213  31.481  1.00  0.00    -0.200 F 
ENDBRANCH  62  85
ENDBRANCH  36  37
ENDBRANCH  28  31
ENDBRANCH  26  27
ENDBRANCH  25  26
ENDBRANCH   1  25
TORSDOF 15
ENDMDL
MODEL 3
REMARK VINA RESULT:     -11.6      3.117      4.532
REMARK SMILES Cc1noc(C)c1[C@@H](C)NC(=O)N[C@H](CO)C(=O)NCCCNC(=O)c1ccc(-c2c3nc(c(-c4c(F)c(F)c(F)c(F)c4F)c4ccc([nH]4)c(-c4c(F)c(F)c(F)c(F)c4F)c4nc(c(-c5c(F)c(F)c(F)c(F)c5F)c5ccc2[nH]5)C=C4)C=C3)cc1
REMARK SMILES IDX 20 1 19 2 17 3 18 4 14 6 13 7 10 8 11 9 12 11 8 13 9 14 7 15
REMARK SMILES IDX 1 16 2 17 3 18 4 19 5 20 6 21 15 22 16 23 21 25 22 26 23 27
REMARK SMILES IDX 24 28 25 30 26 31 27 32 88 33 28 34 87 35 29 36 30 37 31 38
REMARK SMILES IDX 81 39 32 40 86 41 80 42 82 43 33 44 85 45 79 46 78 47 34 49
REMARK SMILES IDX 66 50 46 51 65 52 47 53 50 54 64 55 83 56 48 57 49 58 63 60
REMARK SMILES IDX 84 61 51 62 35 63 36 64 44 65 37 66 38 67 42 68 45 69 39 70
REMARK SMILES IDX 40 71 43 72 41 73 67 74 68 75 76 76 69 77 70 78 74 79 77 80
REMARK SMILES IDX 71 81 72 82 75 83 73 84 52 85 53 86 61 87 54 88 55 89 59 90
REMARK SMILES IDX 62 91 56 92 57 93 60 94 58 95
REMARK H PARENT 19 5 10 10 13 12 16 24 23 29 82 48 50 59
REMARK Flexibility Score: inf
ROOT
ATOM      1  C   UNL A   1      31.012  30.107  24.965  1.00  0.00     0.117 C 
ENDROOT
BRANCH   1   2
ATOM      2  N   UNL A   1      32.318  29.820  24.392  1.00  0.00    -0.354 N 
ATOM      3  C   UNL A   1      32.727  28.969  23.410  1.00  0.00     0.245 C 
ATOM      4  O   UNL A   1      33.876  29.154  22.989  1.00  0.00    -0.273 OA
ATOM      5  H   UNL A   1      33.049  30.342  24.793  1.00  0.00     0.163 HD
BRANCH   3   6
ATOM      6  C   UNL A   1      31.797  27.964  22.692  1.00  0.00     0.198 C 
BRANCH   6   7
ATOM      7  N   UNL A   1      32.377  26.981  21.780  1.00  0.00    -0.324 N 
ATOM      8  N   UNL A   1      33.436  25.271  23.032  1.00  0.00    -0.331 N 
ATOM      9  C   UNL A   1      33.059  25.846  21.894  1.00  0.00     0.315 C 
ATOM     10  H   UNL A   1      33.677  24.325  22.906  1.00  0.00     0.165 HD
ATOM     11  O   UNL A   1      33.311  25.248  20.845  1.00  0.00    -0.249 OA
ATOM     12  H   UNL A   1      32.224  27.222  20.838  1.00  0.00     0.166 HD
BRANCH   8  13
ATOM     13  C   UNL A   1      33.581  25.693  24.414  1.00  0.00     0.116 C 
ATOM     14  C   UNL A   1      34.684  24.859  25.070  1.00  0.00     0.036 C 
BRANCH  13  15
ATOM     15  C   UNL A   1      32.280  25.556  25.147  1.00  0.00     0.040 A 
ATOM     16  C   UNL A   1      31.069  23.511  23.998  1.00  0.00     0.071 C 
ATOM     17  C   UNL A   1      31.224  24.607  24.985  1.00  0.00     0.086 A 
ATOM     18  N   UNL A   1      30.259  24.792  25.891  1.00  0.00    -0.085 NA
ATOM     19  O   UNL A   1      30.641  25.869  26.647  1.00  0.00    -0.361 OA
ATOM     20  C   UNL A   1      31.847  26.316  26.222  1.00  0.00     0.139 A 
ATOM     21  C   UNL A   1      32.385  27.453  26.994  1.00  0.00     0.091 C 
ENDBRANCH  13  15
ENDBRANCH   8  13
ENDBRANCH   6   7
BRANCH   6  22
ATOM     22  C   UNL A   1      30.492  28.624  22.176  1.00  0.00     0.191 C 
BRANCH  22  23
ATOM     23  O   UNL A   1      30.712  29.835  21.452  1.00  0.00    -0.394 OA
ATOM     24  H   UNL A   1      31.364  30.379  21.922  1.00  0.00     0.210 HD
ENDBRANCH  22  23
ENDBRANCH   6  22
ENDBRANCH   3   6
ENDBRANCH   1   2
BRANCH   1  25
ATOM     25  C   UNL A   1      30.956  31.421  25.752  1.00  0.00     0.042 C 
BRANCH  25  26
ATOM     26  C   UNL A   1      32.031  31.573  26.837  1.00  0.00     0.118 C 
BRANCH  26  27
ATOM     27  N   UNL A   1      32.267  32.973  27.151  1.00  0.00    -0.352 N 
ATOM     28  C   UNL A   1      33.232  33.607  27.894  1.00  0.00     0.251 C 
ATOM     29  H   UNL A   1      31.607  33.586  26.753  1.00  0.00     0.163 HD
ATOM     30  O   UNL A   1      33.028  34.783  28.199  1.00  0.00    -0.269 OA
BRANCH  28  31
ATOM     31  C   UNL A   1      34.505  32.973  28.336  1.00  0.00     0.039 A 
ATOM     32  C   UNL A   1      34.424  31.707  28.937  1.00  0.00     0.014 A 
ATOM     33  C   UNL A   1      35.736  33.629  28.338  1.00  0.00     0.014 A 
ATOM     34  C   UNL A   1      35.546  31.111  29.529  1.00  0.00     0.010 A 
ATOM     35  C   UNL A   1      36.875  33.009  28.886  1.00  0.00     0.010 A 
ATOM     36  C   UNL A   1      36.791  31.756  29.514  1.00  0.00    -0.014 A 
BRANCH  36  37
ATOM     37  C   UNL A   1      37.970  31.146  30.200  1.00  0.00     0.031 A 
ATOM     38  C   UNL A   1      38.286  31.484  31.637  1.00  0.00     0.074 A 
ATOM     39  C   UNL A   1      38.764  30.269  29.554  1.00  0.00     0.049 A 
ATOM     40  N   UNL A   1      39.242  31.021  32.409  1.00  0.00    -0.248 NA
ATOM     41  C   UNL A   1      37.419  32.473  32.292  1.00  0.00     0.031 C 
ATOM     42  C   UNL A   1      38.604  29.853  28.162  1.00  0.00     0.029 A 
ATOM     43  N   UNL A   1      39.864  29.566  29.987  1.00  0.00    -0.354 N 
ATOM     44  C   UNL A   1      39.095  31.667  33.630  1.00  0.00     0.074 A 
ATOM     45  C   UNL A   1      37.983  32.583  33.487  1.00  0.00     0.031 C 
ATOM     46  C   UNL A   1      39.560  28.958  27.859  1.00  0.00     0.029 A 
ATOM     47  C   UNL A   1      40.413  28.750  29.028  1.00  0.00     0.049 A 
ATOM     48  H   UNL A   1      40.226  29.640  30.900  1.00  0.00     0.167 HD
ATOM     49  C   UNL A   1      39.804  31.502  34.773  1.00  0.00     0.037 A 
ATOM     50  C   UNL A   1      41.477  27.926  29.078  1.00  0.00     0.037 A 
ATOM     51  C   UNL A   1      40.895  30.578  34.947  1.00  0.00     0.049 A 
ATOM     52  C   UNL A   1      42.259  27.772  30.356  1.00  0.00     0.074 A 
ATOM     53  C   UNL A   1      41.620  30.306  36.097  1.00  0.00     0.029 A 
ATOM     54  N   UNL A   1      41.423  29.781  33.946  1.00  0.00    -0.354 N 
ATOM     55  N   UNL A   1      42.061  28.336  31.520  1.00  0.00    -0.248 NA
ATOM     56  C   UNL A   1      43.411  26.856  30.323  1.00  0.00     0.031 C 
ATOM     57  C   UNL A   1      42.613  29.372  35.781  1.00  0.00     0.029 A 
ATOM     58  C   UNL A   1      42.481  29.034  34.445  1.00  0.00     0.049 A 
ATOM     59  H   UNL A   1      41.097  29.749  33.017  1.00  0.00     0.167 HD
ATOM     60  C   UNL A   1      43.041  27.826  32.363  1.00  0.00     0.074 A 
ATOM     61  C   UNL A   1      43.828  26.899  31.582  1.00  0.00     0.031 C 
ATOM     62  C   UNL A   1      43.261  28.105  33.670  1.00  0.00     0.037 A 
BRANCH  49  63
ATOM     63  C   UNL A   1      39.416  32.342  35.955  1.00  0.00     0.064 A 
ATOM     64  C   UNL A   1      38.456  31.904  36.879  1.00  0.00     0.173 A 
ATOM     65  C   UNL A   1      40.052  33.568  36.196  1.00  0.00     0.173 A 
ATOM     66  F   UNL A   1      37.818  30.740  36.689  1.00  0.00    -0.203 F 
ATOM     67  C   UNL A   1      38.134  32.673  37.994  1.00  0.00     0.198 A 
ATOM     68  C   UNL A   1      39.744  34.324  37.324  1.00  0.00     0.198 A 
ATOM     69  F   UNL A   1      40.985  34.025  35.348  1.00  0.00    -0.203 F 
ATOM     70  F   UNL A   1      37.191  32.251  38.848  1.00  0.00    -0.200 F 
ATOM     71  C   UNL A   1      38.781  33.879  38.218  1.00  0.00     0.200 A 
ATOM     72  F   UNL A   1      40.380  35.483  37.547  1.00  0.00    -0.200 F 
ATOM     73  F   UNL A   1      38.477  34.614  39.296  1.00  0.00    -0.200 F 
ENDBRANCH  49  63
BRANCH  50  74
ATOM     74  C   UNL A   1      41.865  27.149  27.872  1.00  0.00     0.064 A 
ATOM     75  C   UNL A   1      41.354  25.862  27.651  1.00  0.00     0.173 A 
ATOM     76  C   UNL A   1      42.765  27.669  26.933  1.00  0.00     0.173 A 
ATOM     77  F   UNL A   1      40.512  25.314  28.539  1.00  0.00    -0.203 F 
ATOM     78  C   UNL A   1      41.742  25.118  26.539  1.00  0.00     0.198 A 
ATOM     79  C   UNL A   1      43.134  26.932  25.809  1.00  0.00     0.198 A 
ATOM     80  F   UNL A   1      43.284  28.894  27.104  1.00  0.00    -0.203 F 
ATOM     81  F   UNL A   1      41.272  23.875  26.372  1.00  0.00    -0.200 F 
ATOM     82  C   UNL A   1      42.628  25.656  25.617  1.00  0.00     0.200 A 
ATOM     83  F   UNL A   1      43.985  27.457  24.916  1.00  0.00    -0.200 F 
ATOM     84  F   UNL A   1      43.000  24.939  24.548  1.00  0.00    -0.200 F 
ENDBRANCH  50  74
BRANCH  62  85
ATOM     85  C   UNL A   1      44.382  27.380  34.356  1.00  0.00     0.064 A 
ATOM     86  C   UNL A   1      45.671  27.928  34.432  1.00  0.00     0.173 A 
ATOM     87  C   UNL A   1      44.156  26.143  34.976  1.00  0.00     0.173 A 
ATOM     88  F   UNL A   1      45.942  29.101  33.840  1.00  0.00    -0.203 F 
ATOM     89  C   UNL A   1      46.697  27.252  35.087  1.00  0.00     0.198 A 
ATOM     90  C   UNL A   1      45.179  25.481  35.651  1.00  0.00     0.198 A 
ATOM     91  F   UNL A   1      42.939  25.578  34.936  1.00  0.00    -0.203 F 
ATOM     92  F   UNL A   1      47.931  27.776  35.114  1.00  0.00    -0.200 F 
ATOM     93  C   UNL A   1      46.450  26.034  35.702  1.00  0.00     0.200 A 
ATOM     94  F   UNL A   1      44.935  24.307  36.251  1.00  0.00    -0.200 F 
ATOM     95  F   UNL A   1      47.438  25.388  36.336  1.00  0.00    -0.200 F 
ENDBRANCH  62  85
ENDBRANCH  36  37
ENDBRANCH  28  31
ENDBRANCH  26  27
ENDBRANCH  25  26
ENDBRANCH   1  25
TORSDOF 15
ENDMDL
