MODEL 1
REMARK VINA RESULT:     -13.1      0.000      0.000
REMARK SMILES CCc1ccnc(C(=O)c2[nH]c3ccc(OC(F)(F)F)cc3c2CC(=O)NCCCNC(=O)c2ccc(-c3c4nc(c(-c5c(F)c(F)c(F)c(F)c5F)c5ccc([nH]5)c(-c5c(F)c(F)c(F)c(F)c5F)c5nc(c(-c6c(F)c(F)c(F)c(F)c6F)c6ccc3[nH]6)C=C5)C=C4)cc2)c1
REMARK SMILES IDX 28 1 27 2 25 3 26 4 24 6 23 7 10 8 11 9 12 10 22 12 13 13
REMARK SMILES IDX 21 14 14 15 15 16 8 17 9 18 7 19 3 20 4 21 97 22 5 23 6 24
REMARK SMILES IDX 2 25 1 26 16 27 17 28 18 29 19 30 20 31 29 32 30 33 31 34
REMARK SMILES IDX 32 35 33 37 34 38 35 39 96 40 36 41 95 42 37 43 38 44 39 45
REMARK SMILES IDX 89 46 40 47 94 48 88 49 90 50 41 51 93 52 87 53 86 54 42 56
REMARK SMILES IDX 74 57 54 58 73 59 55 60 58 61 72 62 91 63 56 64 57 65 71 67
REMARK SMILES IDX 92 68 59 69 43 70 44 71 52 72 45 73 46 74 50 75 53 76 47 77
REMARK SMILES IDX 48 78 51 79 49 80 75 81 76 82 84 83 77 84 78 85 82 86 85 87
REMARK SMILES IDX 79 88 80 89 83 90 81 91 60 92 61 93 69 94 62 95 63 96 67 97
REMARK SMILES IDX 70 98 64 99 65 100 68 101 66 102
REMARK H PARENT 27 5 11 11 31 36 90 55 58 66
REMARK Flexibility Score: inf
ROOT
ATOM      1  C   UNL A   1      31.501  30.930  26.090  1.00  0.00     0.117 C 
ENDROOT
BRANCH   1   2
ATOM      2  N   UNL A   1      32.237  30.033  26.958  1.00  0.00    -0.356 N 
ATOM      3  C   UNL A   1      32.870  28.859  26.666  1.00  0.00     0.224 C 
ATOM      4  O   UNL A   1      33.547  28.333  27.551  1.00  0.00    -0.275 OA
ATOM      5  H   UNL A   1      32.290  30.312  27.900  1.00  0.00     0.163 HD
BRANCH   3   6
ATOM      6  C   UNL A   1      32.823  28.270  25.265  1.00  0.00     0.138 C 
BRANCH   6   7
ATOM      7  C   UNL A   1      31.576  27.494  24.957  1.00  0.00    -0.002 A 
ATOM      8  C   UNL A   1      31.305  26.167  25.273  1.00  0.00     0.093 A 
ATOM      9  N   UNL A   1      30.005  25.910  24.905  1.00  0.00    -0.352 N 
ATOM     10  C   UNL A   1      29.485  26.969  24.205  1.00  0.00     0.046 A 
ATOM     11  H   UNL A   1      29.517  25.082  25.113  1.00  0.00     0.167 HD
ATOM     12  C   UNL A   1      30.444  27.978  24.216  1.00  0.00     0.008 A 
ATOM     13  C   UNL A   1      28.243  27.111  23.581  1.00  0.00     0.030 A 
ATOM     14  C   UNL A   1      30.139  29.190  23.564  1.00  0.00     0.057 A 
ATOM     15  C   UNL A   1      27.970  28.325  22.939  1.00  0.00     0.049 A 
ATOM     16  C   UNL A   1      28.901  29.361  22.926  1.00  0.00     0.130 A 
BRANCH   8  17
ATOM     17  C   UNL A   1      32.140  25.176  25.934  1.00  0.00     0.227 C 
ATOM     18  O   UNL A   1      31.905  24.819  27.074  1.00  0.00    -0.285 OA
BRANCH  17  19
ATOM     19  C   UNL A   1      33.257  24.549  25.122  1.00  0.00     0.113 A 
ATOM     20  C   UNL A   1      35.565  23.904  24.801  1.00  0.00    -0.044 A 
ATOM     21  C   UNL A   1      35.218  23.506  23.509  1.00  0.00     0.024 A 
ATOM     22  C   UNL A   1      34.557  24.430  25.620  1.00  0.00     0.036 A 
ATOM     23  C   UNL A   1      33.903  23.644  23.096  1.00  0.00     0.112 A 
ATOM     24  N   UNL A   1      32.924  24.164  23.864  1.00  0.00    -0.253 NA
BRANCH  20  25
ATOM     25  C   UNL A   1      37.003  23.844  25.256  1.00  0.00     0.032 C 
ATOM     26  C   UNL A   1      37.466  22.463  25.705  1.00  0.00     0.009 C 
ENDBRANCH  20  25
ENDBRANCH  17  19
ENDBRANCH   8  17
BRANCH  16  27
ATOM     27  O   UNL A   1      28.746  30.585  22.338  1.00  0.00    -0.406 OA
BRANCH  27  28
ATOM     28  C   UNL A   1      28.209  31.635  23.124  1.00  0.00     0.573 C 
ATOM     29  F   UNL A   1      27.624  32.573  22.350  1.00  0.00    -0.132 F 
ATOM     30  F   UNL A   1      27.312  31.163  24.017  1.00  0.00    -0.132 F 
ATOM     31  F   UNL A   1      29.215  32.221  23.809  1.00  0.00    -0.132 F 
ENDBRANCH  27  28
ENDBRANCH  16  27
ENDBRANCH   6   7
ENDBRANCH   3   6
ENDBRANCH   1   2
BRANCH   1  32
ATOM     32  C   UNL A   1      31.366  32.343  26.654  1.00  0.00     0.042 C 
BRANCH  32  33
ATOM     33  C   UNL A   1      32.673  32.980  27.115  1.00  0.00     0.118 C 
BRANCH  33  34
ATOM     34  N   UNL A   1      32.487  34.308  27.679  1.00  0.00    -0.352 N 
ATOM     35  C   UNL A   1      33.080  34.916  28.756  1.00  0.00     0.251 C 
ATOM     36  H   UNL A   1      31.823  34.863  27.210  1.00  0.00     0.163 HD
ATOM     37  O   UNL A   1      32.648  35.998  29.142  1.00  0.00    -0.269 OA
BRANCH  35  38
ATOM     38  C   UNL A   1      34.219  34.296  29.477  1.00  0.00     0.039 A 
ATOM     39  C   UNL A   1      35.507  34.478  28.957  1.00  0.00     0.014 A 
ATOM     40  C   UNL A   1      34.037  33.478  30.594  1.00  0.00     0.014 A 
ATOM     41  C   UNL A   1      36.610  33.886  29.579  1.00  0.00     0.010 A 
ATOM     42  C   UNL A   1      35.143  32.923  31.243  1.00  0.00     0.010 A 
ATOM     43  C   UNL A   1      36.438  33.119  30.740  1.00  0.00    -0.014 A 
BRANCH  43  44
ATOM     44  C   UNL A   1      37.601  32.508  31.431  1.00  0.00     0.031 A 
ATOM     45  C   UNL A   1      38.347  31.367  30.799  1.00  0.00     0.074 A 
ATOM     46  C   UNL A   1      37.957  32.943  32.653  1.00  0.00     0.049 A 
ATOM     47  N   UNL A   1      39.327  30.648  31.286  1.00  0.00    -0.248 NA
ATOM     48  C   UNL A   1      37.922  30.970  29.449  1.00  0.00     0.031 C 
ATOM     49  C   UNL A   1      37.300  34.023  33.390  1.00  0.00     0.029 A 
ATOM     50  N   UNL A   1      38.953  32.520  33.496  1.00  0.00    -0.354 N 
ATOM     51  C   UNL A   1      39.614  29.696  30.320  1.00  0.00     0.074 A 
ATOM     52  C   UNL A   1      38.700  29.921  29.219  1.00  0.00     0.031 C 
ATOM     53  C   UNL A   1      37.914  34.180  34.575  1.00  0.00     0.029 A 
ATOM     54  C   UNL A   1      38.990  33.199  34.688  1.00  0.00     0.049 A 
ATOM     55  H   UNL A   1      39.582  31.798  33.268  1.00  0.00     0.167 HD
ATOM     56  C   UNL A   1      40.556  28.724  30.344  1.00  0.00     0.037 A 
ATOM     57  C   UNL A   1      39.794  33.044  35.756  1.00  0.00     0.037 A 
ATOM     58  C   UNL A   1      41.498  28.520  31.413  1.00  0.00     0.049 A 
ATOM     59  C   UNL A   1      40.863  31.989  35.740  1.00  0.00     0.074 A 
ATOM     60  C   UNL A   1      42.527  27.597  31.495  1.00  0.00     0.029 A 
ATOM     61  N   UNL A   1      41.528  29.255  32.586  1.00  0.00    -0.354 N 
ATOM     62  N   UNL A   1      41.143  31.114  34.807  1.00  0.00    -0.248 NA
ATOM     63  C   UNL A   1      41.728  31.903  36.925  1.00  0.00     0.031 C 
ATOM     64  C   UNL A   1      43.171  27.765  32.725  1.00  0.00     0.029 A 
ATOM     65  C   UNL A   1      42.553  28.804  33.402  1.00  0.00     0.049 A 
ATOM     66  H   UNL A   1      40.911  29.992  32.807  1.00  0.00     0.167 HD
ATOM     67  C   UNL A   1      42.217  30.379  35.285  1.00  0.00     0.074 A 
ATOM     68  C   UNL A   1      42.548  30.917  36.589  1.00  0.00     0.031 C 
ATOM     69  C   UNL A   1      42.869  29.349  34.695  1.00  0.00     0.037 A 
BRANCH  56  70
ATOM     70  C   UNL A   1      40.611  27.795  29.171  1.00  0.00     0.064 A 
ATOM     71  C   UNL A   1      39.753  26.694  29.070  1.00  0.00     0.173 A 
ATOM     72  C   UNL A   1      41.516  28.028  28.127  1.00  0.00     0.173 A 
ATOM     73  F   UNL A   1      38.883  26.429  30.051  1.00  0.00    -0.203 F 
ATOM     74  C   UNL A   1      39.810  25.846  27.968  1.00  0.00     0.198 A 
ATOM     75  C   UNL A   1      41.559  27.185  27.020  1.00  0.00     0.198 A 
ATOM     76  F   UNL A   1      42.354  29.069  28.181  1.00  0.00    -0.203 F 
ATOM     77  F   UNL A   1      39.004  24.782  27.903  1.00  0.00    -0.200 F 
ATOM     78  C   UNL A   1      40.710  26.094  26.944  1.00  0.00     0.200 A 
ATOM     79  F   UNL A   1      42.424  27.427  26.029  1.00  0.00    -0.200 F 
ATOM     80  F   UNL A   1      40.764  25.275  25.884  1.00  0.00    -0.200 F 
ENDBRANCH  56  70
BRANCH  57  81
ATOM     81  C   UNL A   1      39.620  33.928  36.932  1.00  0.00     0.064 A 
ATOM     82  C   UNL A   1      40.225  35.190  36.974  1.00  0.00     0.173 A 
ATOM     83  C   UNL A   1      38.829  33.538  38.020  1.00  0.00     0.173 A 
ATOM     84  F   UNL A   1      41.004  35.590  35.962  1.00  0.00    -0.203 F 
ATOM     85  C   UNL A   1      40.046  36.033  38.067  1.00  0.00     0.198 A 
ATOM     86  C   UNL A   1      38.639  34.389  39.107  1.00  0.00     0.198 A 
ATOM     87  F   UNL A   1      38.232  32.341  38.019  1.00  0.00    -0.203 F 
ATOM     88  F   UNL A   1      40.648  37.226  38.095  1.00  0.00    -0.200 F 
ATOM     89  C   UNL A   1      39.250  35.633  39.129  1.00  0.00     0.200 A 
ATOM     90  F   UNL A   1      37.866  34.004  40.127  1.00  0.00    -0.200 F 
ATOM     91  F   UNL A   1      39.072  36.448  40.179  1.00  0.00    -0.200 F 
ENDBRANCH  57  81
BRANCH  69  92
ATOM     92  C   UNL A   1      44.011  28.743  35.449  1.00  0.00     0.064 A 
ATOM     93  C   UNL A   1      45.322  29.205  35.272  1.00  0.00     0.173 A 
ATOM     94  C   UNL A   1      43.788  27.718  36.376  1.00  0.00     0.173 A 
ATOM     95  F   UNL A   1      45.581  30.172  34.383  1.00  0.00    -0.203 F 
ATOM     96  C   UNL A   1      46.375  28.652  35.996  1.00  0.00     0.198 A 
ATOM     97  C   UNL A   1      44.842  27.177  37.108  1.00  0.00     0.198 A 
ATOM     98  F   UNL A   1      42.551  27.245  36.574  1.00  0.00    -0.203 F 
ATOM     99  F   UNL A   1      47.623  29.090  35.797  1.00  0.00    -0.200 F 
ATOM    100  C   UNL A   1      46.133  27.643  36.915  1.00  0.00     0.200 A 
ATOM    101  F   UNL A   1      44.609  26.202  37.994  1.00  0.00    -0.200 F 
ATOM    102  F   UNL A   1      47.149  27.113  37.610  1.00  0.00    -0.200 F 
ENDBRANCH  69  92
ENDBRANCH  43  44
ENDBRANCH  35  38
ENDBRANCH  33  34
ENDBRANCH  32  33
ENDBRANCH   1  32
TORSDOF 16
ENDMDL
MODEL 2
REMARK VINA RESULT:     -13.0      4.578      9.393
REMARK SMILES CCc1ccnc(C(=O)c2[nH]c3ccc(OC(F)(F)F)cc3c2CC(=O)NCCCNC(=O)c2ccc(-c3c4nc(c(-c5c(F)c(F)c(F)c(F)c5F)c5ccc([nH]5)c(-c5c(F)c(F)c(F)c(F)c5F)c5nc(c(-c6c(F)c(F)c(F)c(F)c6F)c6ccc3[nH]6)C=C5)C=C4)cc2)c1
REMARK SMILES IDX 28 1 27 2 25 3 26 4 24 6 23 7 10 8 11 9 12 10 22 12 13 13
REMARK SMILES IDX 21 14 14 15 15 16 8 17 9 18 7 19 3 20 4 21 97 22 5 23 6 24
REMARK SMILES IDX 2 25 1 26 16 27 17 28 18 29 19 30 20 31 29 32 30 33 31 34
REMARK SMILES IDX 32 35 33 37 34 38 35 39 96 40 36 41 95 42 37 43 38 44 39 45
REMARK SMILES IDX 89 46 40 47 94 48 88 49 90 50 41 51 93 52 87 53 86 54 42 56
REMARK SMILES IDX 74 57 54 58 73 59 55 60 58 61 72 62 91 63 56 64 57 65 71 67
REMARK SMILES IDX 92 68 59 69 43 70 44 71 52 72 45 73 46 74 50 75 53 76 47 77
REMARK SMILES IDX 48 78 51 79 49 80 75 81 76 82 84 83 77 84 78 85 82 86 85 87
REMARK SMILES IDX 79 88 80 89 83 90 81 91 60 92 61 93 69 94 62 95 63 96 67 97
REMARK SMILES IDX 70 98 64 99 65 100 68 101 66 102
REMARK H PARENT 27 5 11 11 31 36 90 55 58 66
REMARK Flexibility Score: inf
ROOT
ATOM      1  C   UNL A   1      34.670  24.610  25.358  1.00  0.00     0.117 C 
ENDROOT
BRANCH   1   2
ATOM      2  N   UNL A   1      34.413  25.385  24.160  1.00  0.00    -0.356 N 
ATOM      3  C   UNL A   1      33.553  26.427  23.961  1.00  0.00     0.224 C 
ATOM      4  O   UNL A   1      33.603  27.018  22.881  1.00  0.00    -0.275 OA
ATOM      5  H   UNL A   1      34.938  25.121  23.371  1.00  0.00     0.163 HD
BRANCH   3   6
ATOM      6  C   UNL A   1      32.633  26.907  25.072  1.00  0.00     0.138 C 
BRANCH   6   7
ATOM      7  C   UNL A   1      31.183  26.576  24.866  1.00  0.00    -0.002 A 
ATOM      8  C   UNL A   1      30.514  25.421  25.259  1.00  0.00     0.093 A 
ATOM      9  N   UNL A   1      29.181  25.596  24.969  1.00  0.00    -0.352 N 
ATOM     10  C   UNL A   1      28.992  26.747  24.247  1.00  0.00     0.046 A 
ATOM     11  H   UNL A   1      28.463  24.981  25.241  1.00  0.00     0.167 HD
ATOM     12  C   UNL A   1      30.227  27.384  24.161  1.00  0.00     0.008 A 
ATOM     13  C   UNL A   1      27.828  27.272  23.680  1.00  0.00     0.030 A 
ATOM     14  C   UNL A   1      30.294  28.610  23.468  1.00  0.00     0.057 A 
ATOM     15  C   UNL A   1      27.926  28.490  22.996  1.00  0.00     0.049 A 
ATOM     16  C   UNL A   1      29.142  29.161  22.886  1.00  0.00     0.130 A 
BRANCH   8  17
ATOM     17  C   UNL A   1      31.020  24.230  25.922  1.00  0.00     0.227 C 
ATOM     18  O   UNL A   1      31.004  24.135  27.136  1.00  0.00    -0.285 OA
BRANCH  17  19
ATOM     19  C   UNL A   1      31.487  23.085  25.044  1.00  0.00     0.113 A 
ATOM     20  C   UNL A   1      32.317  20.836  24.726  1.00  0.00    -0.044 A 
ATOM     21  C   UNL A   1      32.435  21.130  23.366  1.00  0.00     0.024 A 
ATOM     22  C   UNL A   1      31.827  21.837  25.575  1.00  0.00     0.036 A 
ATOM     23  C   UNL A   1      32.063  22.387  22.918  1.00  0.00     0.112 A 
ATOM     24  N   UNL A   1      31.606  23.368  23.723  1.00  0.00    -0.253 NA
BRANCH  20  25
ATOM     25  C   UNL A   1      32.790  19.506  25.261  1.00  0.00     0.032 C 
ATOM     26  C   UNL A   1      34.066  18.983  24.615  1.00  0.00     0.009 C 
ENDBRANCH  20  25
ENDBRANCH  17  19
ENDBRANCH   8  17
BRANCH  16  27
ATOM     27  O   UNL A   1      29.358  30.350  22.249  1.00  0.00    -0.406 OA
BRANCH  27  28
ATOM     28  C   UNL A   1      28.852  31.528  22.855  1.00  0.00     0.573 C 
ATOM     29  F   UNL A   1      29.305  31.657  24.120  1.00  0.00    -0.132 F 
ATOM     30  F   UNL A   1      29.187  32.624  22.141  1.00  0.00    -0.132 F 
ATOM     31  F   UNL A   1      27.505  31.449  22.896  1.00  0.00    -0.132 F 
ENDBRANCH  27  28
ENDBRANCH  16  27
ENDBRANCH   6   7
ENDBRANCH   3   6
ENDBRANCH   1   2
BRANCH   1  32
ATOM     32  C   UNL A   1      35.277  23.239  25.073  1.00  0.00     0.042 C 
BRANCH  32  33
ATOM     33  C   UNL A   1      35.789  22.493  26.301  1.00  0.00     0.118 C 
BRANCH  33  34
ATOM     34  N   UNL A   1      36.761  21.462  25.972  1.00  0.00    -0.352 N 
ATOM     35  C   UNL A   1      38.129  21.518  25.872  1.00  0.00     0.251 C 
ATOM     36  H   UNL A   1      36.374  20.576  25.791  1.00  0.00     0.163 HD
ATOM     37  O   UNL A   1      38.733  20.548  25.425  1.00  0.00    -0.269 OA
BRANCH  35  38
ATOM     38  C   UNL A   1      38.895  22.723  26.272  1.00  0.00     0.039 A 
ATOM     39  C   UNL A   1      39.912  22.573  27.224  1.00  0.00     0.014 A 
ATOM     40  C   UNL A   1      38.580  23.998  25.797  1.00  0.00     0.014 A 
ATOM     41  C   UNL A   1      40.641  23.683  27.660  1.00  0.00     0.010 A 
ATOM     42  C   UNL A   1      39.337  25.102  26.198  1.00  0.00     0.010 A 
ATOM     43  C   UNL A   1      40.371  24.955  27.135  1.00  0.00    -0.014 A 
BRANCH  43  44
ATOM     44  C   UNL A   1      41.155  26.141  27.565  1.00  0.00     0.031 A 
ATOM     45  C   UNL A   1      40.499  27.243  28.347  1.00  0.00     0.074 A 
ATOM     46  C   UNL A   1      42.447  26.252  27.208  1.00  0.00     0.049 A 
ATOM     47  N   UNL A   1      40.994  28.392  28.731  1.00  0.00    -0.248 NA
ATOM     48  C   UNL A   1      39.095  27.033  28.729  1.00  0.00     0.031 C 
ATOM     49  C   UNL A   1      43.197  25.269  26.426  1.00  0.00     0.029 A 
ATOM     50  N   UNL A   1      43.355  27.254  27.445  1.00  0.00    -0.354 N 
ATOM     51  C   UNL A   1      39.958  29.055  29.372  1.00  0.00     0.074 A 
ATOM     52  C   UNL A   1      38.801  28.184  29.318  1.00  0.00     0.031 C 
ATOM     53  C   UNL A   1      44.452  25.713  26.252  1.00  0.00     0.029 A 
ATOM     54  C   UNL A   1      44.588  27.020  26.889  1.00  0.00     0.049 A 
ATOM     55  H   UNL A   1      43.143  28.062  27.965  1.00  0.00     0.167 HD
ATOM     56  C   UNL A   1      39.968  30.277  29.955  1.00  0.00     0.037 A 
ATOM     57  C   UNL A   1      45.701  27.777  26.886  1.00  0.00     0.037 A 
ATOM     58  C   UNL A   1      41.123  31.131  30.052  1.00  0.00     0.049 A 
ATOM     59  C   UNL A   1      45.701  29.108  27.580  1.00  0.00     0.074 A 
ATOM     60  C   UNL A   1      41.239  32.359  30.680  1.00  0.00     0.029 A 
ATOM     61  N   UNL A   1      42.364  30.840  29.511  1.00  0.00    -0.354 N 
ATOM     62  N   UNL A   1      44.722  29.711  28.208  1.00  0.00    -0.248 NA
ATOM     63  C   UNL A   1      46.963  29.863  27.568  1.00  0.00     0.031 C 
ATOM     64  C   UNL A   1      42.549  32.819  30.505  1.00  0.00     0.029 A 
ATOM     65  C   UNL A   1      43.252  31.868  29.783  1.00  0.00     0.049 A 
ATOM     66  H   UNL A   1      42.583  30.022  29.007  1.00  0.00     0.167 HD
ATOM     67  C   UNL A   1      45.247  30.908  28.671  1.00  0.00     0.074 A 
ATOM     68  C   UNL A   1      46.636  30.945  28.261  1.00  0.00     0.031 C 
ATOM     69  C   UNL A   1      44.629  31.889  29.370  1.00  0.00     0.037 A 
BRANCH  56  70
ATOM     70  C   UNL A   1      38.678  30.770  30.534  1.00  0.00     0.064 A 
ATOM     71  C   UNL A   1      37.696  31.361  29.731  1.00  0.00     0.173 A 
ATOM     72  C   UNL A   1      38.415  30.622  31.902  1.00  0.00     0.173 A 
ATOM     73  F   UNL A   1      37.912  31.532  28.421  1.00  0.00    -0.203 F 
ATOM     74  C   UNL A   1      36.498  31.805  30.283  1.00  0.00     0.198 A 
ATOM     75  C   UNL A   1      37.209  31.055  32.447  1.00  0.00     0.198 A 
ATOM     76  F   UNL A   1      39.324  30.061  32.706  1.00  0.00    -0.203 F 
ATOM     77  F   UNL A   1      35.584  32.395  29.506  1.00  0.00    -0.200 F 
ATOM     78  C   UNL A   1      36.255  31.648  31.638  1.00  0.00     0.200 A 
ATOM     79  F   UNL A   1      36.973  30.899  33.754  1.00  0.00    -0.200 F 
ATOM     80  F   UNL A   1      35.101  32.077  32.167  1.00  0.00    -0.200 F 
ENDBRANCH  56  70
BRANCH  57  81
ATOM     81  C   UNL A   1      46.917  27.279  26.203  1.00  0.00     0.064 A 
ATOM     82  C   UNL A   1      47.134  27.543  24.845  1.00  0.00     0.173 A 
ATOM     83  C   UNL A   1      47.892  26.553  26.899  1.00  0.00     0.173 A 
ATOM     84  F   UNL A   1      46.217  28.216  24.142  1.00  0.00    -0.203 F 
ATOM     85  C   UNL A   1      48.287  27.095  24.205  1.00  0.00     0.198 A 
ATOM     86  C   UNL A   1      49.051  26.118  26.260  1.00  0.00     0.198 A 
ATOM     87  F   UNL A   1      47.724  26.281  28.198  1.00  0.00    -0.203 F 
ATOM     88  F   UNL A   1      48.466  27.342  22.904  1.00  0.00    -0.200 F 
ATOM     89  C   UNL A   1      49.245  26.388  24.914  1.00  0.00     0.200 A 
ATOM     90  F   UNL A   1      49.977  25.442  26.948  1.00  0.00    -0.200 F 
ATOM     91  F   UNL A   1      50.358  25.963  24.299  1.00  0.00    -0.200 F 
ENDBRANCH  57  81
BRANCH  69  92
ATOM     92  C   UNL A   1      45.454  33.081  29.748  1.00  0.00     0.064 A 
ATOM     93  C   UNL A   1      46.174  33.111  30.949  1.00  0.00     0.173 A 
ATOM     94  C   UNL A   1      45.549  34.181  28.888  1.00  0.00     0.173 A 
ATOM     95  F   UNL A   1      46.097  32.087  31.807  1.00  0.00    -0.203 F 
ATOM     96  C   UNL A   1      46.958  34.213  31.279  1.00  0.00     0.198 A 
ATOM     97  C   UNL A   1      46.345  35.276  29.216  1.00  0.00     0.198 A 
ATOM     98  F   UNL A   1      44.875  34.194  27.731  1.00  0.00    -0.203 F 
ATOM     99  F   UNL A   1      47.620  34.235  32.441  1.00  0.00    -0.200 F 
ATOM    100  C   UNL A   1      47.046  35.291  30.412  1.00  0.00     0.200 A 
ATOM    101  F   UNL A   1      46.429  36.316  28.379  1.00  0.00    -0.200 F 
ATOM    102  F   UNL A   1      47.801  36.350  30.733  1.00  0.00    -0.200 F 
ENDBRANCH  69  92
ENDBRANCH  43  44
ENDBRANCH  35  38
ENDBRANCH  33  34
ENDBRANCH  32  33
ENDBRANCH   1  32
TORSDOF 16
ENDMDL
MODEL 3
REMARK VINA RESULT:     -12.8      3.612      7.214
REMARK SMILES CCc1ccnc(C(=O)c2[nH]c3ccc(OC(F)(F)F)cc3c2CC(=O)NCCCNC(=O)c2ccc(-c3c4nc(c(-c5c(F)c(F)c(F)c(F)c5F)c5ccc([nH]5)c(-c5c(F)c(F)c(F)c(F)c5F)c5nc(c(-c6c(F)c(F)c(F)c(F)c6F)c6ccc3[nH]6)C=C5)C=C4)cc2)c1
REMARK SMILES IDX 28 1 27 2 25 3 26 4 24 6 23 7 10 8 11 9 12 10 22 12 13 13
REMARK SMILES IDX 21 14 14 15 15 16 8 17 9 18 7 19 3 20 4 21 97 22 5 23 6 24
REMARK SMILES IDX 2 25 1 26 16 27 17 28 18 29 19 30 20 31 29 32 30 33 31 34
REMARK SMILES IDX 32 35 33 37 34 38 35 39 96 40 36 41 95 42 37 43 38 44 39 45
REMARK SMILES IDX 89 46 40 47 94 48 88 49 90 50 41 51 93 52 87 53 86 54 42 56
REMARK SMILES IDX 74 57 54 58 73 59 55 60 58 61 72 62 91 63 56 64 57 65 71 67
REMARK SMILES IDX 92 68 59 69 43 70 44 71 52 72 45 73 46 74 50 75 53 76 47 77
REMARK SMILES IDX 48 78 51 79 49 80 75 81 76 82 84 83 77 84 78 85 82 86 85 87
REMARK SMILES IDX 79 88 80 89 83 90 81 91 60 92 61 93 69 94 62 95 63 96 67 97
REMARK SMILES IDX 70 98 64 99 65 100 68 101 66 102
REMARK H PARENT 27 5 11 11 31 36 90 55 58 66
REMARK Flexibility Score: inf
ROOT
ATOM      1  C   UNL A   1      34.571  24.602  25.661  1.00  0.00     0.117 C 
ENDROOT
BRANCH   1   2
ATOM      2  N   UNL A   1      34.384  25.329  24.421  1.00  0.00    -0.356 N 
ATOM      3  C   UNL A   1      33.547  26.370  24.137  1.00  0.00     0.224 C 
ATOM      4  O   UNL A   1      33.658  26.916  23.037  1.00  0.00    -0.275 OA
ATOM      5  H   UNL A   1      34.945  25.028  23.671  1.00  0.00     0.163 HD
BRANCH   3   6
ATOM      6  C   UNL A   1      32.577  26.904  25.179  1.00  0.00     0.138 C 
BRANCH   6   7
ATOM      7  C   UNL A   1      31.133  26.613  24.891  1.00  0.00    -0.002 A 
ATOM      8  C   UNL A   1      30.417  25.468  25.225  1.00  0.00     0.093 A 
ATOM      9  N   UNL A   1      29.106  25.681  24.871  1.00  0.00    -0.352 N 
ATOM     10  C   UNL A   1      28.982  26.850  24.164  1.00  0.00     0.046 A 
ATOM     11  H   UNL A   1      28.360  25.079  25.094  1.00  0.00     0.167 HD
ATOM     12  C   UNL A   1      30.234  27.458  24.155  1.00  0.00     0.008 A 
ATOM     13  C   UNL A   1      27.861  27.415  23.550  1.00  0.00     0.030 A 
ATOM     14  C   UNL A   1      30.366  28.696  23.492  1.00  0.00     0.057 A 
ATOM     15  C   UNL A   1      28.023  28.643  22.896  1.00  0.00     0.049 A 
ATOM     16  C   UNL A   1      29.259  29.285  22.863  1.00  0.00     0.130 A 
BRANCH   8  17
ATOM     17  C   UNL A   1      30.859  24.252  25.889  1.00  0.00     0.227 C 
ATOM     18  O   UNL A   1      30.755  24.124  27.096  1.00  0.00    -0.285 OA
BRANCH  17  19
ATOM     19  C   UNL A   1      31.374  23.125  25.015  1.00  0.00     0.113 A 
ATOM     20  C   UNL A   1      32.252  20.894  24.700  1.00  0.00    -0.044 A 
ATOM     21  C   UNL A   1      32.411  21.205  23.348  1.00  0.00     0.024 A 
ATOM     22  C   UNL A   1      31.717  21.877  25.542  1.00  0.00     0.036 A 
ATOM     23  C   UNL A   1      32.033  22.462  22.902  1.00  0.00     0.112 A 
ATOM     24  N   UNL A   1      31.533  23.425  23.701  1.00  0.00    -0.253 NA
BRANCH  20  25
ATOM     25  C   UNL A   1      32.728  19.565  25.235  1.00  0.00     0.032 C 
ATOM     26  C   UNL A   1      32.812  18.458  24.193  1.00  0.00     0.009 C 
ENDBRANCH  20  25
ENDBRANCH  17  19
ENDBRANCH   8  17
BRANCH  16  27
ATOM     27  O   UNL A   1      29.536  30.481  22.263  1.00  0.00    -0.406 OA
BRANCH  27  28
ATOM     28  C   UNL A   1      28.617  31.545  22.448  1.00  0.00     0.573 C 
ATOM     29  F   UNL A   1      29.233  32.742  22.353  1.00  0.00    -0.132 F 
ATOM     30  F   UNL A   1      27.613  31.481  21.547  1.00  0.00    -0.132 F 
ATOM     31  F   UNL A   1      28.081  31.443  23.683  1.00  0.00    -0.132 F 
ENDBRANCH  27  28
ENDBRANCH  16  27
ENDBRANCH   6   7
ENDBRANCH   3   6
ENDBRANCH   1   2
BRANCH   1  32
ATOM     32  C   UNL A   1      35.547  23.435  25.537  1.00  0.00     0.042 C 
BRANCH  32  33
ATOM     33  C   UNL A   1      36.968  23.823  25.139  1.00  0.00     0.118 C 
BRANCH  33  34
ATOM     34  N   UNL A   1      37.952  22.815  25.500  1.00  0.00    -0.352 N 
ATOM     35  C   UNL A   1      39.149  22.925  26.162  1.00  0.00     0.251 C 
ATOM     36  H   UNL A   1      37.721  21.899  25.223  1.00  0.00     0.163 HD
ATOM     37  O   UNL A   1      39.891  21.949  26.218  1.00  0.00    -0.269 OA
BRANCH  35  38
ATOM     38  C   UNL A   1      39.578  24.195  26.798  1.00  0.00     0.039 A 
ATOM     39  C   UNL A   1      39.188  24.435  28.122  1.00  0.00     0.014 A 
ATOM     40  C   UNL A   1      40.278  25.179  26.097  1.00  0.00     0.014 A 
ATOM     41  C   UNL A   1      39.538  25.631  28.755  1.00  0.00     0.010 A 
ATOM     42  C   UNL A   1      40.667  26.356  26.742  1.00  0.00     0.010 A 
ATOM     43  C   UNL A   1      40.298  26.594  28.075  1.00  0.00    -0.014 A 
BRANCH  43  44
ATOM     44  C   UNL A   1      40.703  27.857  28.742  1.00  0.00     0.031 A 
ATOM     45  C   UNL A   1      42.105  28.031  29.251  1.00  0.00     0.074 A 
ATOM     46  C   UNL A   1      39.795  28.830  28.938  1.00  0.00     0.049 A 
ATOM     47  N   UNL A   1      42.620  29.021  29.937  1.00  0.00    -0.248 NA
ATOM     48  C   UNL A   1      43.049  26.939  28.970  1.00  0.00     0.031 C 
ATOM     49  C   UNL A   1      38.395  28.777  28.519  1.00  0.00     0.029 A 
ATOM     50  N   UNL A   1      39.914  30.051  29.554  1.00  0.00    -0.354 N 
ATOM     51  C   UNL A   1      43.934  28.660  30.195  1.00  0.00     0.074 A 
ATOM     52  C   UNL A   1      44.138  27.354  29.601  1.00  0.00     0.031 C 
ATOM     53  C   UNL A   1      37.785  29.916  28.885  1.00  0.00     0.029 A 
ATOM     54  C   UNL A   1      38.744  30.767  29.584  1.00  0.00     0.049 A 
ATOM     55  H   UNL A   1      40.759  30.381  29.937  1.00  0.00     0.167 HD
ATOM     56  C   UNL A   1      44.885  29.352  30.864  1.00  0.00     0.037 A 
ATOM     57  C   UNL A   1      38.472  31.971  30.121  1.00  0.00     0.037 A 
ATOM     58  C   UNL A   1      44.705  30.668  31.420  1.00  0.00     0.049 A 
ATOM     59  C   UNL A   1      39.557  32.741  30.817  1.00  0.00     0.074 A 
ATOM     60  C   UNL A   1      45.634  31.470  32.061  1.00  0.00     0.029 A 
ATOM     61  N   UNL A   1      43.516  31.376  31.394  1.00  0.00    -0.354 N 
ATOM     62  N   UNL A   1      40.804  32.400  31.029  1.00  0.00    -0.248 NA
ATOM     63  C   UNL A   1      39.197  34.065  31.346  1.00  0.00     0.031 C 
ATOM     64  C   UNL A   1      45.001  32.660  32.437  1.00  0.00     0.029 A 
ATOM     65  C   UNL A   1      43.682  32.604  32.014  1.00  0.00     0.049 A 
ATOM     66  H   UNL A   1      42.675  31.055  30.993  1.00  0.00     0.167 HD
ATOM     67  C   UNL A   1      41.379  33.464  31.707  1.00  0.00     0.074 A 
ATOM     68  C   UNL A   1      40.348  34.470  31.863  1.00  0.00     0.031 C 
ATOM     69  C   UNL A   1      42.648  33.593  32.161  1.00  0.00     0.037 A 
BRANCH  56  70
ATOM     70  C   UNL A   1      46.217  28.692  31.038  1.00  0.00     0.064 A 
ATOM     71  C   UNL A   1      46.464  27.810  32.096  1.00  0.00     0.173 A 
ATOM     72  C   UNL A   1      47.248  28.926  30.118  1.00  0.00     0.173 A 
ATOM     73  F   UNL A   1      45.510  27.568  33.004  1.00  0.00    -0.203 F 
ATOM     74  C   UNL A   1      47.705  27.196  32.238  1.00  0.00     0.198 A 
ATOM     75  C   UNL A   1      48.483  28.298  30.255  1.00  0.00     0.198 A 
ATOM     76  F   UNL A   1      47.057  29.760  29.090  1.00  0.00    -0.203 F 
ATOM     77  F   UNL A   1      47.930  26.380  33.272  1.00  0.00    -0.200 F 
ATOM     78  C   UNL A   1      48.711  27.438  31.316  1.00  0.00     0.200 A 
ATOM     79  F   UNL A   1      49.453  28.529  29.364  1.00  0.00    -0.200 F 
ATOM     80  F   UNL A   1      49.905  26.847  31.455  1.00  0.00    -0.200 F 
ENDBRANCH  56  70
BRANCH  57  81
ATOM     81  C   UNL A   1      37.103  32.525  30.008  1.00  0.00     0.064 A 
ATOM     82  C   UNL A   1      36.721  33.259  28.878  1.00  0.00     0.173 A 
ATOM     83  C   UNL A   1      36.150  32.311  31.011  1.00  0.00     0.173 A 
ATOM     84  F   UNL A   1      37.609  33.500  27.907  1.00  0.00    -0.203 F 
ATOM     85  C   UNL A   1      35.428  33.762  28.757  1.00  0.00     0.198 A 
ATOM     86  C   UNL A   1      34.854  32.805  30.881  1.00  0.00     0.198 A 
ATOM     87  F   UNL A   1      36.475  31.614  32.106  1.00  0.00    -0.203 F 
ATOM     88  F   UNL A   1      35.089  34.476  27.679  1.00  0.00    -0.200 F 
ATOM     89  C   UNL A   1      34.496  33.531  29.756  1.00  0.00     0.200 A 
ATOM     90  F   UNL A   1      33.954  32.575  31.843  1.00  0.00    -0.200 F 
ATOM     91  F   UNL A   1      33.250  34.011  29.636  1.00  0.00    -0.200 F 
ENDBRANCH  57  81
BRANCH  69  92
ATOM     92  C   UNL A   1      42.997  34.870  32.859  1.00  0.00     0.064 A 
ATOM     93  C   UNL A   1      43.470  35.980  32.146  1.00  0.00     0.173 A 
ATOM     94  C   UNL A   1      42.825  34.995  34.243  1.00  0.00     0.173 A 
ATOM     95  F   UNL A   1      43.665  35.898  30.824  1.00  0.00    -0.203 F 
ATOM     96  C   UNL A   1      43.768  37.172  32.801  1.00  0.00     0.198 A 
ATOM     97  C   UNL A   1      43.112  36.193  34.892  1.00  0.00     0.198 A 
ATOM     98  F   UNL A   1      42.377  33.958  34.963  1.00  0.00    -0.203 F 
ATOM     99  F   UNL A   1      44.241  38.213  32.108  1.00  0.00    -0.200 F 
ATOM    100  C   UNL A   1      43.584  37.278  34.171  1.00  0.00     0.200 A 
ATOM    101  F   UNL A   1      42.935  36.295  36.214  1.00  0.00    -0.200 F 
ATOM    102  F   UNL A   1      43.872  38.427  34.799  1.00  0.00    -0.200 F 
ENDBRANCH  69  92
ENDBRANCH  43  44
ENDBRANCH  35  38
ENDBRANCH  33  34
ENDBRANCH  32  33
ENDBRANCH   1  32
TORSDOF 16
ENDMDL
