MODEL 1
REMARK VINA RESULT:     -11.7      0.000      0.000
REMARK SMILES O=C(Cc1ccc(S(=O)(=O)C[C@H]2CCCO2)cc1)NCCCNC(=O)c1ccc(-c2c3nc(c(-c4c(F)c(F)c(F)c(F)c4F)c4ccc([nH]4)c(-c4c(F)c(F)c(F)c(F)c4F)c4nc(c(-c5c(F)c(F)c(F)c(F)c5F)c5ccc2[nH]5)C=C4)C=C3)cc1
REMARK SMILES IDX 20 1 19 2 1 3 2 4 3 6 4 7 5 8 18 9 6 10 17 11 7 12 8 13 9 14
REMARK SMILES IDX 10 15 11 16 12 17 13 18 16 19 14 20 15 21 21 22 22 23 23 24
REMARK SMILES IDX 24 25 25 27 26 28 27 29 88 30 28 31 87 32 29 33 30 34 31 35
REMARK SMILES IDX 81 36 32 37 86 38 80 39 82 40 33 41 85 42 79 43 78 44 34 46
REMARK SMILES IDX 66 47 46 48 65 49 47 50 50 51 64 52 83 53 48 54 49 55 63 57
REMARK SMILES IDX 84 58 51 59 35 60 36 61 44 62 37 63 38 64 42 65 45 66 39 67
REMARK SMILES IDX 40 68 43 69 41 70 67 71 68 72 76 73 69 74 70 75 74 76 77 77
REMARK SMILES IDX 71 78 72 79 75 80 73 81 52 82 53 83 61 84 54 85 55 86 59 87
REMARK SMILES IDX 62 88 56 89 57 90 60 91 58 92
REMARK H PARENT 19 5 23 26 82 45 50 56
REMARK Flexibility Score: inf
ROOT
ATOM      1  C   UNL A   1      34.456  33.312  29.347  1.00  0.00     0.117 C 
ENDROOT
BRANCH   1   2
ATOM      2  N   UNL A   1      34.213  31.930  28.990  1.00  0.00    -0.356 N 
ATOM      3  O   UNL A   1      36.050  31.707  27.623  1.00  0.00    -0.275 OA
ATOM      4  C   UNL A   1      35.092  31.207  28.204  1.00  0.00     0.224 C 
ATOM      5  H   UNL A   1      33.396  31.489  29.318  1.00  0.00     0.163 HD
BRANCH   4   6
ATOM      6  C   UNL A   1      34.776  29.724  28.137  1.00  0.00     0.135 C 
BRANCH   6   7
ATOM      7  C   UNL A   1      33.949  29.288  26.942  1.00  0.00    -0.039 A 
ATOM      8  C   UNL A   1      34.050  28.016  26.359  1.00  0.00     0.005 A 
ATOM      9  C   UNL A   1      32.981  30.173  26.442  1.00  0.00     0.005 A 
ATOM     10  C   UNL A   1      33.191  27.628  25.328  1.00  0.00     0.020 A 
ATOM     11  C   UNL A   1      32.139  29.803  25.389  1.00  0.00     0.020 A 
ATOM     12  C   UNL A   1      32.227  28.518  24.853  1.00  0.00     0.067 A 
BRANCH  12  13
ATOM     13  S   UNL A   1      31.131  27.959  23.571  1.00  0.00     0.180 S 
ATOM     14  O   UNL A   1      31.926  27.070  22.747  1.00  0.00    -0.224 OA
ATOM     15  O   UNL A   1      29.932  27.454  24.221  1.00  0.00    -0.224 OA
BRANCH  13  16
ATOM     16  C   UNL A   1      30.666  29.326  22.554  1.00  0.00     0.174 C 
BRANCH  16  17
ATOM     17  C   UNL A   1      29.205  29.747  22.560  1.00  0.00     0.133 C 
ATOM     18  C   UNL A   1      28.805  30.874  23.499  1.00  0.00     0.035 C 
ATOM     19  O   UNL A   1      28.738  30.077  21.251  1.00  0.00    -0.377 OA
ATOM     20  C   UNL A   1      28.423  32.011  22.585  1.00  0.00     0.031 C 
ATOM     21  C   UNL A   1      28.029  31.320  21.302  1.00  0.00     0.160 C 
ENDBRANCH  16  17
ENDBRANCH  13  16
ENDBRANCH  12  13
ENDBRANCH   6   7
ENDBRANCH   4   6
ENDBRANCH   1   2
BRANCH   1  22
ATOM     22  C   UNL A   1      33.340  34.243  28.894  1.00  0.00     0.042 C 
BRANCH  22  23
ATOM     23  C   UNL A   1      33.473  35.685  29.369  1.00  0.00     0.118 C 
BRANCH  23  24
ATOM     24  N   UNL A   1      32.534  36.046  30.422  1.00  0.00    -0.352 N 
ATOM     25  C   UNL A   1      32.581  35.771  31.769  1.00  0.00     0.251 C 
ATOM     26  H   UNL A   1      31.749  36.561  30.126  1.00  0.00     0.163 HD
ATOM     27  O   UNL A   1      31.635  36.071  32.492  1.00  0.00    -0.269 OA
BRANCH  25  28
ATOM     28  C   UNL A   1      33.754  35.079  32.348  1.00  0.00     0.039 A 
ATOM     29  C   UNL A   1      33.586  33.791  32.866  1.00  0.00     0.014 A 
ATOM     30  C   UNL A   1      35.012  35.685  32.372  1.00  0.00     0.014 A 
ATOM     31  C   UNL A   1      34.694  33.078  33.329  1.00  0.00     0.010 A 
ATOM     32  C   UNL A   1      36.125  34.951  32.772  1.00  0.00     0.010 A 
ATOM     33  C   UNL A   1      35.979  33.637  33.244  1.00  0.00    -0.014 A 
BRANCH  33  34
ATOM     34  C   UNL A   1      37.188  32.861  33.620  1.00  0.00     0.031 A 
ATOM     35  C   UNL A   1      37.896  33.145  34.914  1.00  0.00     0.074 A 
ATOM     36  C   UNL A   1      37.700  31.963  32.756  1.00  0.00     0.049 A 
ATOM     37  N   UNL A   1      39.030  32.667  35.361  1.00  0.00    -0.248 NA
ATOM     38  C   UNL A   1      37.257  34.118  35.814  1.00  0.00     0.031 C 
ATOM     39  C   UNL A   1      37.131  31.625  31.451  1.00  0.00     0.029 A 
ATOM     40  N   UNL A   1      38.827  31.183  32.838  1.00  0.00    -0.354 N 
ATOM     41  C   UNL A   1      39.251  33.296  36.578  1.00  0.00     0.074 A 
ATOM     42  C   UNL A   1      38.154  34.218  36.784  1.00  0.00     0.031 C 
ATOM     43  C   UNL A   1      37.903  30.699  30.860  1.00  0.00     0.029 A 
ATOM     44  C   UNL A   1      39.043  30.408  31.725  1.00  0.00     0.049 A 
ATOM     45  H   UNL A   1      39.425  31.180  33.621  1.00  0.00     0.167 HD
ATOM     46  C   UNL A   1      40.268  33.110  37.452  1.00  0.00     0.037 A 
ATOM     47  C   UNL A   1      40.052  29.566  31.430  1.00  0.00     0.037 A 
ATOM     48  C   UNL A   1      41.339  32.166  37.265  1.00  0.00     0.049 A 
ATOM     49  C   UNL A   1      41.167  29.374  32.420  1.00  0.00     0.074 A 
ATOM     50  C   UNL A   1      42.377  31.857  38.126  1.00  0.00     0.029 A 
ATOM     51  N   UNL A   1      41.506  31.377  36.136  1.00  0.00    -0.354 N 
ATOM     52  N   UNL A   1      41.337  29.934  33.593  1.00  0.00    -0.248 NA
ATOM     53  C   UNL A   1      42.230  28.431  32.046  1.00  0.00     0.031 C 
ATOM     54  C   UNL A   1      43.193  30.906  37.504  1.00  0.00     0.029 A 
ATOM     55  C   UNL A   1      42.641  30.594  36.272  1.00  0.00     0.049 A 
ATOM     56  H   UNL A   1      40.908  31.374  35.355  1.00  0.00     0.167 HD
ATOM     57  C   UNL A   1      42.508  29.395  34.106  1.00  0.00     0.074 A 
ATOM     58  C   UNL A   1      43.004  28.455  33.123  1.00  0.00     0.031 C 
ATOM     59  C   UNL A   1      43.116  29.655  35.288  1.00  0.00     0.037 A 
BRANCH  46  60
ATOM     60  C   UNL A   1      40.271  33.941  38.700  1.00  0.00     0.064 A 
ATOM     61  C   UNL A   1      39.571  33.543  39.849  1.00  0.00     0.173 A 
ATOM     62  C   UNL A   1      41.012  35.131  38.760  1.00  0.00     0.173 A 
ATOM     63  F   UNL A   1      38.838  32.420  39.837  1.00  0.00    -0.203 F 
ATOM     64  C   UNL A   1      39.593  34.318  41.004  1.00  0.00     0.198 A 
ATOM     65  C   UNL A   1      41.053  35.889  39.926  1.00  0.00     0.198 A 
ATOM     66  F   UNL A   1      41.703  35.553  37.691  1.00  0.00    -0.203 F 
ATOM     67  F   UNL A   1      38.882  33.941  42.076  1.00  0.00    -0.200 F 
ATOM     68  C   UNL A   1      40.339  35.487  41.045  1.00  0.00     0.200 A 
ATOM     69  F   UNL A   1      41.782  37.013  39.968  1.00  0.00    -0.200 F 
ATOM     70  F   UNL A   1      40.363  36.230  42.161  1.00  0.00    -0.200 F 
ENDBRANCH  46  60
BRANCH  47  71
ATOM     71  C   UNL A   1      40.045  28.827  30.142  1.00  0.00     0.064 A 
ATOM     72  C   UNL A   1      40.638  29.377  28.997  1.00  0.00     0.173 A 
ATOM     73  C   UNL A   1      39.452  27.562  30.028  1.00  0.00     0.173 A 
ATOM     74  F   UNL A   1      41.198  30.595  29.054  1.00  0.00    -0.203 F 
ATOM     75  C   UNL A   1      40.623  28.696  27.782  1.00  0.00     0.198 A 
ATOM     76  C   UNL A   1      39.458  26.872  28.818  1.00  0.00     0.198 A 
ATOM     77  F   UNL A   1      38.874  26.992  31.097  1.00  0.00    -0.203 F 
ATOM     78  F   UNL A   1      41.162  29.262  26.693  1.00  0.00    -0.200 F 
ATOM     79  C   UNL A   1      40.037  27.442  27.695  1.00  0.00     0.200 A 
ATOM     80  F   UNL A   1      38.901  25.655  28.740  1.00  0.00    -0.200 F 
ATOM     81  F   UNL A   1      40.027  26.786  26.526  1.00  0.00    -0.200 F 
ENDBRANCH  47  71
BRANCH  59  82
ATOM     82  C   UNL A   1      44.367  28.892  35.603  1.00  0.00     0.064 A 
ATOM     83  C   UNL A   1      45.631  29.375  35.239  1.00  0.00     0.173 A 
ATOM     84  C   UNL A   1      44.301  27.689  36.320  1.00  0.00     0.173 A 
ATOM     85  F   UNL A   1      45.742  30.514  34.536  1.00  0.00    -0.203 F 
ATOM     86  C   UNL A   1      46.786  28.672  35.569  1.00  0.00     0.198 A 
ATOM     87  C   UNL A   1      45.460  27.001  36.671  1.00  0.00     0.198 A 
ATOM     88  F   UNL A   1      43.115  27.188  36.694  1.00  0.00    -0.203 F 
ATOM     89  F   UNL A   1      47.983  29.135  35.182  1.00  0.00    -0.200 F 
ATOM     90  C   UNL A   1      46.700  27.490  36.291  1.00  0.00     0.200 A 
ATOM     91  F   UNL A   1      45.377  25.864  37.376  1.00  0.00    -0.200 F 
ATOM     92  F   UNL A   1      47.815  26.821  36.617  1.00  0.00    -0.200 F 
ENDBRANCH  59  82
ENDBRANCH  33  34
ENDBRANCH  25  28
ENDBRANCH  23  24
ENDBRANCH  22  23
ENDBRANCH   1  22
TORSDOF 14
ENDMDL
MODEL 2
REMARK VINA RESULT:     -11.6      6.396     12.424
REMARK SMILES O=C(Cc1ccc(S(=O)(=O)C[C@H]2CCCO2)cc1)NCCCNC(=O)c1ccc(-c2c3nc(c(-c4c(F)c(F)c(F)c(F)c4F)c4ccc([nH]4)c(-c4c(F)c(F)c(F)c(F)c4F)c4nc(c(-c5c(F)c(F)c(F)c(F)c5F)c5ccc2[nH]5)C=C4)C=C3)cc1
REMARK SMILES IDX 20 1 19 2 1 3 2 4 3 6 4 7 5 8 18 9 6 10 17 11 7 12 8 13 9 14
REMARK SMILES IDX 10 15 11 16 12 17 13 18 16 19 14 20 15 21 21 22 22 23 23 24
REMARK SMILES IDX 24 25 25 27 26 28 27 29 88 30 28 31 87 32 29 33 30 34 31 35
REMARK SMILES IDX 81 36 32 37 86 38 80 39 82 40 33 41 85 42 79 43 78 44 34 46
REMARK SMILES IDX 66 47 46 48 65 49 47 50 50 51 64 52 83 53 48 54 49 55 63 57
REMARK SMILES IDX 84 58 51 59 35 60 36 61 44 62 37 63 38 64 42 65 45 66 39 67
REMARK SMILES IDX 40 68 43 69 41 70 67 71 68 72 76 73 69 74 70 75 74 76 77 77
REMARK SMILES IDX 71 78 72 79 75 80 73 81 52 82 53 83 61 84 54 85 55 86 59 87
REMARK SMILES IDX 62 88 56 89 57 90 60 91 58 92
REMARK H PARENT 19 5 23 26 82 45 50 56
REMARK Flexibility Score: inf
ROOT
ATOM      1  C   UNL A   1      45.941  19.577  25.056  1.00  0.00     0.117 C 
ENDROOT
BRANCH   1   2
ATOM      2  N   UNL A   1      46.018  20.835  24.342  1.00  0.00    -0.356 N 
ATOM      3  O   UNL A   1      46.037  22.174  26.212  1.00  0.00    -0.275 OA
ATOM      4  C   UNL A   1      46.140  22.047  24.996  1.00  0.00     0.224 C 
ATOM      5  H   UNL A   1      45.982  20.828  23.358  1.00  0.00     0.163 HD
BRANCH   4   6
ATOM      6  C   UNL A   1      46.435  23.214  24.073  1.00  0.00     0.135 C 
BRANCH   6   7
ATOM      7  C   UNL A   1      46.389  24.585  24.720  1.00  0.00    -0.039 A 
ATOM      8  C   UNL A   1      47.538  25.308  25.077  1.00  0.00     0.005 A 
ATOM      9  C   UNL A   1      45.137  25.195  24.903  1.00  0.00     0.005 A 
ATOM     10  C   UNL A   1      47.442  26.610  25.573  1.00  0.00     0.020 A 
ATOM     11  C   UNL A   1      45.033  26.486  25.429  1.00  0.00     0.020 A 
ATOM     12  C   UNL A   1      46.190  27.203  25.736  1.00  0.00     0.067 A 
BRANCH  12  13
ATOM     13  S   UNL A   1      46.127  28.877  26.328  1.00  0.00     0.180 S 
ATOM     14  O   UNL A   1      47.035  28.918  27.458  1.00  0.00    -0.224 OA
ATOM     15  O   UNL A   1      46.362  29.746  25.186  1.00  0.00    -0.224 OA
BRANCH  13  16
ATOM     16  C   UNL A   1      44.512  29.222  26.953  1.00  0.00     0.174 C 
BRANCH  16  17
ATOM     17  C   UNL A   1      44.150  30.676  27.213  1.00  0.00     0.133 C 
ATOM     18  C   UNL A   1      45.221  31.566  27.825  1.00  0.00     0.035 C 
ATOM     19  O   UNL A   1      43.657  31.323  26.038  1.00  0.00    -0.377 OA
ATOM     20  C   UNL A   1      45.560  32.553  26.737  1.00  0.00     0.031 C 
ATOM     21  C   UNL A   1      44.314  32.586  25.884  1.00  0.00     0.160 C 
ENDBRANCH  16  17
ENDBRANCH  13  16
ENDBRANCH  12  13
ENDBRANCH   6   7
ENDBRANCH   4   6
ENDBRANCH   1   2
BRANCH   1  22
ATOM     22  C   UNL A   1      44.615  18.860  24.847  1.00  0.00     0.042 C 
BRANCH  22  23
ATOM     23  C   UNL A   1      43.751  18.729  26.097  1.00  0.00     0.118 C 
BRANCH  23  24
ATOM     24  N   UNL A   1      42.321  18.824  25.834  1.00  0.00    -0.352 N 
ATOM     25  C   UNL A   1      41.447  19.851  26.106  1.00  0.00     0.251 C 
ATOM     26  H   UNL A   1      41.921  18.036  25.400  1.00  0.00     0.163 HD
ATOM     27  O   UNL A   1      40.246  19.705  25.903  1.00  0.00    -0.269 OA
BRANCH  25  28
ATOM     28  C   UNL A   1      41.945  21.121  26.678  1.00  0.00     0.039 A 
ATOM     29  C   UNL A   1      42.329  22.145  25.807  1.00  0.00     0.014 A 
ATOM     30  C   UNL A   1      42.023  21.310  28.060  1.00  0.00     0.014 A 
ATOM     31  C   UNL A   1      42.710  23.388  26.321  1.00  0.00     0.010 A 
ATOM     32  C   UNL A   1      42.340  22.567  28.569  1.00  0.00     0.010 A 
ATOM     33  C   UNL A   1      42.675  23.621  27.704  1.00  0.00    -0.014 A 
BRANCH  33  34
ATOM     34  C   UNL A   1      42.962  24.963  28.272  1.00  0.00     0.031 A 
ATOM     35  C   UNL A   1      44.340  25.291  28.773  1.00  0.00     0.074 A 
ATOM     36  C   UNL A   1      41.962  25.853  28.418  1.00  0.00     0.049 A 
ATOM     37  N   UNL A   1      44.756  26.356  29.413  1.00  0.00    -0.248 NA
ATOM     38  C   UNL A   1      45.381  24.278  28.550  1.00  0.00     0.031 C 
ATOM     39  C   UNL A   1      40.573  25.640  28.009  1.00  0.00     0.029 A 
ATOM     40  N   UNL A   1      41.956  27.111  28.969  1.00  0.00    -0.354 N 
ATOM     41  C   UNL A   1      46.098  26.128  29.688  1.00  0.00     0.074 A 
ATOM     42  C   UNL A   1      46.417  24.811  29.180  1.00  0.00     0.031 C 
ATOM     43  C   UNL A   1      39.853  26.732  28.312  1.00  0.00     0.029 A 
ATOM     44  C   UNL A   1      40.718  27.705  28.971  1.00  0.00     0.049 A 
ATOM     45  H   UNL A   1      42.763  27.545  29.329  1.00  0.00     0.167 HD
ATOM     46  C   UNL A   1      46.985  26.951  30.294  1.00  0.00     0.037 A 
ATOM     47  C   UNL A   1      40.323  28.896  29.462  1.00  0.00     0.037 A 
ATOM     48  C   UNL A   1      46.677  28.276  30.766  1.00  0.00     0.049 A 
ATOM     49  C   UNL A   1      41.330  29.792  30.127  1.00  0.00     0.074 A 
ATOM     50  C   UNL A   1      47.526  29.210  31.331  1.00  0.00     0.029 A 
ATOM     51  N   UNL A   1      45.417  28.854  30.723  1.00  0.00    -0.354 N 
ATOM     52  N   UNL A   1      42.609  29.589  30.332  1.00  0.00    -0.248 NA
ATOM     53  C   UNL A   1      40.840  31.085  30.626  1.00  0.00     0.031 C 
ATOM     54  C   UNL A   1      46.774  30.342  31.664  1.00  0.00     0.029 A 
ATOM     55  C   UNL A   1      45.463  30.127  31.269  1.00  0.00     0.049 A 
ATOM     56  H   UNL A   1      44.610  28.424  30.360  1.00  0.00     0.167 HD
ATOM     57  C   UNL A   1      43.080  30.734  30.960  1.00  0.00     0.074 A 
ATOM     58  C   UNL A   1      41.953  31.633  31.095  1.00  0.00     0.031 C 
ATOM     59  C   UNL A   1      44.335  31.014  31.385  1.00  0.00     0.037 A 
BRANCH  46  60
ATOM     60  C   UNL A   1      48.385  26.445  30.480  1.00  0.00     0.064 A 
ATOM     61  C   UNL A   1      49.379  26.665  29.515  1.00  0.00     0.173 A 
ATOM     62  C   UNL A   1      48.745  25.763  31.652  1.00  0.00     0.173 A 
ATOM     63  F   UNL A   1      49.081  27.300  28.372  1.00  0.00    -0.203 F 
ATOM     64  C   UNL A   1      50.677  26.200  29.707  1.00  0.00     0.198 A 
ATOM     65  C   UNL A   1      50.050  25.324  31.852  1.00  0.00     0.198 A 
ATOM     66  F   UNL A   1      47.833  25.532  32.607  1.00  0.00    -0.203 F 
ATOM     67  F   UNL A   1      51.600  26.384  28.752  1.00  0.00    -0.200 F 
ATOM     68  C   UNL A   1      51.013  25.536  30.876  1.00  0.00     0.200 A 
ATOM     69  F   UNL A   1      50.377  24.691  32.987  1.00  0.00    -0.200 F 
ATOM     70  F   UNL A   1      52.266  25.094  31.062  1.00  0.00    -0.200 F 
ENDBRANCH  46  60
BRANCH  47  71
ATOM     71  C   UNL A   1      38.905  29.317  29.326  1.00  0.00     0.064 A 
ATOM     72  C   UNL A   1      38.062  29.367  30.445  1.00  0.00     0.173 A 
ATOM     73  C   UNL A   1      38.366  29.678  28.083  1.00  0.00     0.173 A 
ATOM     74  F   UNL A   1      38.530  29.010  31.650  1.00  0.00    -0.203 F 
ATOM     75  C   UNL A   1      36.728  29.748  30.323  1.00  0.00     0.198 A 
ATOM     76  C   UNL A   1      37.037  30.081  27.967  1.00  0.00     0.198 A 
ATOM     77  F   UNL A   1      39.133  29.649  26.983  1.00  0.00    -0.203 F 
ATOM     78  F   UNL A   1      35.934  29.749  31.403  1.00  0.00    -0.200 F 
ATOM     79  C   UNL A   1      36.218  30.109  29.085  1.00  0.00     0.200 A 
ATOM     80  F   UNL A   1      36.550  30.440  26.771  1.00  0.00    -0.200 F 
ATOM     81  F   UNL A   1      34.934  30.478  28.970  1.00  0.00    -0.200 F 
ENDBRANCH  47  71
BRANCH  59  82
ATOM     82  C   UNL A   1      44.568  32.358  32.007  1.00  0.00     0.064 A 
ATOM     83  C   UNL A   1      44.989  33.456  31.243  1.00  0.00     0.173 A 
ATOM     84  C   UNL A   1      44.320  32.560  33.372  1.00  0.00     0.173 A 
ATOM     85  F   UNL A   1      45.256  33.306  29.936  1.00  0.00    -0.203 F 
ATOM     86  C   UNL A   1      45.167  34.706  31.828  1.00  0.00     0.198 A 
ATOM     87  C   UNL A   1      44.475  33.817  33.950  1.00  0.00     0.198 A 
ATOM     88  F   UNL A   1      43.912  31.541  34.143  1.00  0.00    -0.203 F 
ATOM     89  F   UNL A   1      45.603  35.734  31.087  1.00  0.00    -0.200 F 
ATOM     90  C   UNL A   1      44.903  34.887  33.179  1.00  0.00     0.200 A 
ATOM     91  F   UNL A   1      44.211  33.994  35.251  1.00  0.00    -0.200 F 
ATOM     92  F   UNL A   1      45.066  36.094  33.737  1.00  0.00    -0.200 F 
ENDBRANCH  59  82
ENDBRANCH  33  34
ENDBRANCH  25  28
ENDBRANCH  23  24
ENDBRANCH  22  23
ENDBRANCH   1  22
TORSDOF 14
ENDMDL
MODEL 3
REMARK VINA RESULT:     -11.4      2.550      8.355
REMARK SMILES O=C(Cc1ccc(S(=O)(=O)C[C@H]2CCCO2)cc1)NCCCNC(=O)c1ccc(-c2c3nc(c(-c4c(F)c(F)c(F)c(F)c4F)c4ccc([nH]4)c(-c4c(F)c(F)c(F)c(F)c4F)c4nc(c(-c5c(F)c(F)c(F)c(F)c5F)c5ccc2[nH]5)C=C4)C=C3)cc1
REMARK SMILES IDX 20 1 19 2 1 3 2 4 3 6 4 7 5 8 18 9 6 10 17 11 7 12 8 13 9 14
REMARK SMILES IDX 10 15 11 16 12 17 13 18 16 19 14 20 15 21 21 22 22 23 23 24
REMARK SMILES IDX 24 25 25 27 26 28 27 29 88 30 28 31 87 32 29 33 30 34 31 35
REMARK SMILES IDX 81 36 32 37 86 38 80 39 82 40 33 41 85 42 79 43 78 44 34 46
REMARK SMILES IDX 66 47 46 48 65 49 47 50 50 51 64 52 83 53 48 54 49 55 63 57
REMARK SMILES IDX 84 58 51 59 35 60 36 61 44 62 37 63 38 64 42 65 45 66 39 67
REMARK SMILES IDX 40 68 43 69 41 70 67 71 68 72 76 73 69 74 70 75 74 76 77 77
REMARK SMILES IDX 71 78 72 79 75 80 73 81 52 82 53 83 61 84 54 85 55 86 59 87
REMARK SMILES IDX 62 88 56 89 57 90 60 91 58 92
REMARK H PARENT 19 5 23 26 82 45 50 56
REMARK Flexibility Score: inf
ROOT
ATOM      1  C   UNL A   1      31.762  30.434  26.876  1.00  0.00     0.117 C 
ENDROOT
BRANCH   1   2
ATOM      2  N   UNL A   1      32.232  29.747  25.691  1.00  0.00    -0.356 N 
ATOM      3  O   UNL A   1      34.346  29.311  26.488  1.00  0.00    -0.275 OA
ATOM      4  C   UNL A   1      33.484  29.164  25.627  1.00  0.00     0.224 C 
ATOM      5  H   UNL A   1      31.642  29.693  24.905  1.00  0.00     0.163 HD
BRANCH   4   6
ATOM      6  C   UNL A   1      33.696  28.303  24.396  1.00  0.00     0.135 C 
BRANCH   6   7
ATOM      7  C   UNL A   1      33.625  26.806  24.627  1.00  0.00    -0.039 A 
ATOM      8  C   UNL A   1      33.457  26.229  25.895  1.00  0.00     0.005 A 
ATOM      9  C   UNL A   1      33.653  25.957  23.509  1.00  0.00     0.005 A 
ATOM     10  C   UNL A   1      33.291  24.849  26.041  1.00  0.00     0.020 A 
ATOM     11  C   UNL A   1      33.519  24.572  23.650  1.00  0.00     0.020 A 
ATOM     12  C   UNL A   1      33.310  24.024  24.916  1.00  0.00     0.067 A 
BRANCH  12  13
ATOM     13  S   UNL A   1      33.050  22.282  25.153  1.00  0.00     0.180 S 
ATOM     14  O   UNL A   1      33.231  22.057  26.574  1.00  0.00    -0.224 OA
ATOM     15  O   UNL A   1      31.780  21.948  24.529  1.00  0.00    -0.224 OA
BRANCH  13  16
ATOM     16  C   UNL A   1      34.320  21.377  24.323  1.00  0.00     0.174 C 
BRANCH  16  17
ATOM     17  C   UNL A   1      35.756  21.603  24.770  1.00  0.00     0.133 C 
ATOM     18  C   UNL A   1      36.639  22.465  23.882  1.00  0.00     0.035 C 
ATOM     19  O   UNL A   1      35.827  22.121  26.100  1.00  0.00    -0.377 OA
ATOM     20  C   UNL A   1      36.907  23.702  24.701  1.00  0.00     0.031 C 
ATOM     21  C   UNL A   1      36.731  23.231  26.126  1.00  0.00     0.160 C 
ENDBRANCH  16  17
ENDBRANCH  13  16
ENDBRANCH  12  13
ENDBRANCH   6   7
ENDBRANCH   4   6
ENDBRANCH   1   2
BRANCH   1  22
ATOM     22  C   UNL A   1      31.658  31.940  26.683  1.00  0.00     0.042 C 
BRANCH  22  23
ATOM     23  C   UNL A   1      32.828  32.742  27.243  1.00  0.00     0.118 C 
BRANCH  23  24
ATOM     24  N   UNL A   1      32.476  34.103  27.626  1.00  0.00    -0.352 N 
ATOM     25  C   UNL A   1      33.031  34.912  28.591  1.00  0.00     0.251 C 
ATOM     26  H   UNL A   1      31.732  34.502  27.121  1.00  0.00     0.163 HD
ATOM     27  O   UNL A   1      32.528  36.003  28.841  1.00  0.00    -0.269 OA
BRANCH  25  28
ATOM     28  C   UNL A   1      34.212  34.457  29.356  1.00  0.00     0.039 A 
ATOM     29  C   UNL A   1      34.016  33.885  30.617  1.00  0.00     0.014 A 
ATOM     30  C   UNL A   1      35.503  34.579  28.835  1.00  0.00     0.014 A 
ATOM     31  C   UNL A   1      35.104  33.359  31.319  1.00  0.00     0.010 A 
ATOM     32  C   UNL A   1      36.576  33.996  29.504  1.00  0.00     0.010 A 
ATOM     33  C   UNL A   1      36.385  33.371  30.746  1.00  0.00    -0.014 A 
BRANCH  33  34
ATOM     34  C   UNL A   1      37.539  32.717  31.416  1.00  0.00     0.031 A 
ATOM     35  C   UNL A   1      38.234  31.557  30.762  1.00  0.00     0.074 A 
ATOM     36  C   UNL A   1      37.903  33.111  32.651  1.00  0.00     0.049 A 
ATOM     37  N   UNL A   1      39.173  30.779  31.238  1.00  0.00    -0.248 NA
ATOM     38  C   UNL A   1      37.796  31.209  29.402  1.00  0.00     0.031 C 
ATOM     39  C   UNL A   1      37.283  34.197  33.411  1.00  0.00     0.029 A 
ATOM     40  N   UNL A   1      38.874  32.629  33.495  1.00  0.00    -0.354 N 
ATOM     41  C   UNL A   1      39.419  29.837  30.248  1.00  0.00     0.074 A 
ATOM     42  C   UNL A   1      38.507  30.118  29.160  1.00  0.00     0.031 C 
ATOM     43  C   UNL A   1      37.894  34.307  34.601  1.00  0.00     0.029 A 
ATOM     44  C   UNL A   1      38.921  33.275  34.706  1.00  0.00     0.049 A 
ATOM     45  H   UNL A   1      39.478  31.890  33.254  1.00  0.00     0.167 HD
ATOM     46  C   UNL A   1      40.335  28.840  30.241  1.00  0.00     0.037 A 
ATOM     47  C   UNL A   1      39.696  33.051  35.785  1.00  0.00     0.037 A 
ATOM     48  C   UNL A   1      41.268  28.584  31.308  1.00  0.00     0.049 A 
ATOM     49  C   UNL A   1      40.708  31.940  35.749  1.00  0.00     0.074 A 
ATOM     50  C   UNL A   1      42.278  27.641  31.363  1.00  0.00     0.029 A 
ATOM     51  N   UNL A   1      41.304  29.281  32.507  1.00  0.00    -0.354 N 
ATOM     52  N   UNL A   1      40.970  31.091  34.786  1.00  0.00    -0.248 NA
ATOM     53  C   UNL A   1      41.535  31.758  36.951  1.00  0.00     0.031 C 
ATOM     54  C   UNL A   1      42.904  27.742  32.610  1.00  0.00     0.029 A 
ATOM     55  C   UNL A   1      42.309  28.775  33.316  1.00  0.00     0.049 A 
ATOM     56  H   UNL A   1      40.704  30.023  32.748  1.00  0.00     0.167 HD
ATOM     57  C   UNL A   1      42.004  30.292  35.253  1.00  0.00     0.074 A 
ATOM     58  C   UNL A   1      42.331  30.763  36.583  1.00  0.00     0.031 C 
ATOM     59  C   UNL A   1      42.628  29.262  34.633  1.00  0.00     0.037 A 
BRANCH  46  60
ATOM     60  C   UNL A   1      40.380  27.948  29.037  1.00  0.00     0.064 A 
ATOM     61  C   UNL A   1      41.162  28.266  27.917  1.00  0.00     0.173 A 
ATOM     62  C   UNL A   1      39.662  26.743  29.017  1.00  0.00     0.173 A 
ATOM     63  F   UNL A   1      41.857  29.413  27.882  1.00  0.00    -0.203 F 
ATOM     64  C   UNL A   1      41.204  27.422  26.811  1.00  0.00     0.198 A 
ATOM     65  C   UNL A   1      39.727  25.889  27.920  1.00  0.00     0.198 A 
ATOM     66  F   UNL A   1      38.903  26.391  30.065  1.00  0.00    -0.203 F 
ATOM     67  F   UNL A   1      41.924  27.768  25.734  1.00  0.00    -0.200 F 
ATOM     68  C   UNL A   1      40.492  26.232  26.815  1.00  0.00     0.200 A 
ATOM     69  F   UNL A   1      39.048  24.734  27.930  1.00  0.00    -0.200 F 
ATOM     70  F   UNL A   1      40.539  25.418  25.751  1.00  0.00    -0.200 F 
ENDBRANCH  46  60
BRANCH  47  71
ATOM     71  C   UNL A   1      39.556  33.912  36.986  1.00  0.00     0.064 A 
ATOM     72  C   UNL A   1      38.769  33.504  38.072  1.00  0.00     0.173 A 
ATOM     73  C   UNL A   1      40.203  35.153  37.076  1.00  0.00     0.173 A 
ATOM     74  F   UNL A   1      38.115  32.334  38.021  1.00  0.00    -0.203 F 
ATOM     75  C   UNL A   1      38.622  34.312  39.197  1.00  0.00     0.198 A 
ATOM     76  C   UNL A   1      40.073  35.950  38.212  1.00  0.00     0.198 A 
ATOM     77  F   UNL A   1      40.969  35.586  36.064  1.00  0.00    -0.203 F 
ATOM     78  F   UNL A   1      37.832  33.915  40.204  1.00  0.00    -0.200 F 
ATOM     79  C   UNL A   1      39.278  35.532  39.268  1.00  0.00     0.200 A 
ATOM     80  F   UNL A   1      40.717  37.123  38.282  1.00  0.00    -0.200 F 
ATOM     81  F   UNL A   1      39.138  36.307  40.353  1.00  0.00    -0.200 F 
ENDBRANCH  47  71
BRANCH  59  82
ATOM     82  C   UNL A   1      43.749  28.592  35.369  1.00  0.00     0.064 A 
ATOM     83  C   UNL A   1      45.079  29.005  35.213  1.00  0.00     0.173 A 
ATOM     84  C   UNL A   1      43.481  27.557  36.277  1.00  0.00     0.173 A 
ATOM     85  F   UNL A   1      45.385  29.980  34.343  1.00  0.00    -0.203 F 
ATOM     86  C   UNL A   1      46.105  28.396  35.931  1.00  0.00     0.198 A 
ATOM     87  C   UNL A   1      44.507  26.967  37.012  1.00  0.00     0.198 A 
ATOM     88  F   UNL A   1      42.224  27.129  36.464  1.00  0.00    -0.203 F 
ATOM     89  F   UNL A   1      47.374  28.784  35.742  1.00  0.00    -0.200 F 
ATOM     90  C   UNL A   1      45.817  27.383  36.834  1.00  0.00     0.200 A 
ATOM     91  F   UNL A   1      44.226  25.995  37.891  1.00  0.00    -0.200 F 
ATOM     92  F   UNL A   1      46.805  26.805  37.531  1.00  0.00    -0.200 F 
ENDBRANCH  59  82
ENDBRANCH  33  34
ENDBRANCH  25  28
ENDBRANCH  23  24
ENDBRANCH  22  23
ENDBRANCH   1  22
TORSDOF 14
ENDMDL
