MODEL 1
REMARK VINA RESULT:     -12.8      0.000      0.000
REMARK SMILES O=C(NCCCNC(=O)[C@@H]1CC[C@@H](CNC(=O)c2ccc(Cl)cc2)O1)c1ccc(-c2c3nc(c(-c4c(F)c(F)c(F)c(F)c4F)c4ccc([nH]4)c(-c4c(F)c(F)c(F)c(F)c4F)c4nc(c(-c5c(F)c(F)c(F)c(F)c5F)c5ccc2[nH]5)C=C4)C=C3)cc1
REMARK SMILES IDX 5 1 4 2 3 3 1 4 2 5 26 7 27 8 88 9 28 10 87 11 29 12 30 13
REMARK SMILES IDX 31 14 81 15 32 16 86 17 80 18 82 19 33 20 85 21 79 22 78 23
REMARK SMILES IDX 34 25 66 26 46 27 65 28 47 29 50 30 64 31 83 32 48 33 49 34
REMARK SMILES IDX 63 36 84 37 51 38 35 39 36 40 44 41 37 42 38 43 42 44 45 45
REMARK SMILES IDX 39 46 40 47 43 48 41 49 67 50 68 51 76 52 69 53 70 54 74 55
REMARK SMILES IDX 77 56 71 57 72 58 75 59 73 60 52 61 53 62 61 63 54 64 55 65
REMARK SMILES IDX 59 66 62 67 56 68 57 69 60 70 58 71 6 72 7 73 8 74 9 76
REMARK SMILES IDX 10 77 11 78 25 79 12 80 13 81 14 82 15 83 16 84 17 86 18 87
REMARK SMILES IDX 19 88 24 89 20 90 23 91 21 92 22 93
REMARK H PARENT 3 6 82 24 50 35 7 75 15 85
REMARK Flexibility Score: inf
ROOT
ATOM      1  C   UNL A   1      31.402  32.282  26.516  1.00  0.00     0.042 C 
ENDROOT
BRANCH   1   2
ATOM      2  C   UNL A   1      32.628  32.804  27.261  1.00  0.00     0.118 C 
BRANCH   2   3
ATOM      3  N   UNL A   1      32.472  34.202  27.626  1.00  0.00    -0.352 N 
ATOM      4  O   UNL A   1      32.532  35.989  28.981  1.00  0.00    -0.269 OA
ATOM      5  C   UNL A   1      33.017  34.905  28.668  1.00  0.00     0.251 C 
ATOM      6  H   UNL A   1      31.883  34.724  27.034  1.00  0.00     0.163 HD
BRANCH   5   7
ATOM      7  C   UNL A   1      34.185  34.384  29.414  1.00  0.00     0.039 A 
ATOM      8  C   UNL A   1      34.028  33.660  30.601  1.00  0.00     0.014 A 
ATOM      9  C   UNL A   1      35.456  34.527  28.849  1.00  0.00     0.014 A 
ATOM     10  C   UNL A   1      35.143  33.147  31.260  1.00  0.00     0.010 A 
ATOM     11  C   UNL A   1      36.567  33.961  29.477  1.00  0.00     0.010 A 
ATOM     12  C   UNL A   1      36.419  33.271  30.691  1.00  0.00    -0.014 A 
BRANCH  12  13
ATOM     13  C   UNL A   1      37.587  32.606  31.316  1.00  0.00     0.031 A 
ATOM     14  C   UNL A   1      38.268  31.457  30.636  1.00  0.00     0.074 A 
ATOM     15  C   UNL A   1      37.994  33.015  32.532  1.00  0.00     0.049 A 
ATOM     16  N   UNL A   1      39.243  30.699  31.072  1.00  0.00    -0.248 NA
ATOM     17  C   UNL A   1      37.784  31.105  29.294  1.00  0.00     0.031 C 
ATOM     18  C   UNL A   1      37.392  34.108  33.296  1.00  0.00     0.029 A 
ATOM     19  N   UNL A   1      38.995  32.549  33.347  1.00  0.00    -0.354 N 
ATOM     20  C   UNL A   1      39.473  29.766  30.071  1.00  0.00     0.074 A 
ATOM     21  C   UNL A   1      38.524  30.042  29.012  1.00  0.00     0.031 C 
ATOM     22  C   UNL A   1      38.033  34.231  34.467  1.00  0.00     0.029 A 
ATOM     23  C   UNL A   1      39.058  33.195  34.557  1.00  0.00     0.049 A 
ATOM     24  H   UNL A   1      39.609  31.825  33.089  1.00  0.00     0.167 HD
ATOM     25  C   UNL A   1      40.396  28.775  30.041  1.00  0.00     0.037 A 
ATOM     26  C   UNL A   1      39.830  32.960  35.633  1.00  0.00     0.037 A 
ATOM     27  C   UNL A   1      41.344  28.519  31.094  1.00  0.00     0.049 A 
ATOM     28  C   UNL A   1      40.835  31.847  35.584  1.00  0.00     0.074 A 
ATOM     29  C   UNL A   1      42.357  27.577  31.135  1.00  0.00     0.029 A 
ATOM     30  N   UNL A   1      41.385  29.204  32.302  1.00  0.00    -0.354 N 
ATOM     31  N   UNL A   1      41.080  31.003  34.612  1.00  0.00    -0.248 NA
ATOM     32  C   UNL A   1      41.671  31.651  36.776  1.00  0.00     0.031 C 
ATOM     33  C   UNL A   1      42.983  27.663  32.383  1.00  0.00     0.029 A 
ATOM     34  C   UNL A   1      42.391  28.687  33.104  1.00  0.00     0.049 A 
ATOM     35  H   UNL A   1      40.789  29.947  32.550  1.00  0.00     0.167 HD
ATOM     36  C   UNL A   1      42.106  30.186  35.064  1.00  0.00     0.074 A 
ATOM     37  C   UNL A   1      42.445  30.642  36.397  1.00  0.00     0.031 C 
ATOM     38  C   UNL A   1      42.713  29.155  34.428  1.00  0.00     0.037 A 
BRANCH  25  39
ATOM     39  C   UNL A   1      40.407  27.877  28.839  1.00  0.00     0.064 A 
ATOM     40  C   UNL A   1      39.657  26.691  28.796  1.00  0.00     0.173 A 
ATOM     41  C   UNL A   1      41.164  28.215  27.708  1.00  0.00     0.173 A 
ATOM     42  F   UNL A   1      38.926  26.317  29.857  1.00  0.00    -0.203 F 
ATOM     43  C   UNL A   1      39.691  25.862  27.678  1.00  0.00     0.198 A 
ATOM     44  C   UNL A   1      41.175  27.397  26.581  1.00  0.00     0.198 A 
ATOM     45  F   UNL A   1      41.895  29.341  27.695  1.00  0.00    -0.203 F 
ATOM     46  F   UNL A   1      39.009  24.709  27.680  1.00  0.00    -0.200 F 
ATOM     47  C   UNL A   1      40.447  26.218  26.570  1.00  0.00     0.200 A 
ATOM     48  F   UNL A   1      41.900  27.746  25.508  1.00  0.00    -0.200 F 
ATOM     49  F   UNL A   1      40.482  25.418  25.496  1.00  0.00    -0.200 F 
ENDBRANCH  25  39
BRANCH  26  50
ATOM     50  C   UNL A   1      39.657  33.802  36.842  1.00  0.00     0.064 A 
ATOM     51  C   UNL A   1      40.263  35.062  36.936  1.00  0.00     0.173 A 
ATOM     52  C   UNL A   1      38.830  33.391  37.897  1.00  0.00     0.173 A 
ATOM     53  F   UNL A   1      41.075  35.488  35.958  1.00  0.00    -0.203 F 
ATOM     54  C   UNL A   1      40.043  35.882  38.041  1.00  0.00     0.198 A 
ATOM     55  C   UNL A   1      38.592  34.222  38.990  1.00  0.00     0.198 A 
ATOM     56  F   UNL A   1      38.221  32.197  37.848  1.00  0.00    -0.203 F 
ATOM     57  F   UNL A   1      40.646  37.075  38.116  1.00  0.00    -0.200 F 
ATOM     58  C   UNL A   1      39.200  35.466  39.061  1.00  0.00     0.200 A 
ATOM     59  F   UNL A   1      37.764  33.824  39.965  1.00  0.00    -0.200 F 
ATOM     60  F   UNL A   1      38.973  36.265  40.112  1.00  0.00    -0.200 F 
ENDBRANCH  26  50
BRANCH  38  61
ATOM     61  C   UNL A   1      43.825  28.460  35.155  1.00  0.00     0.064 A 
ATOM     62  C   UNL A   1      45.148  28.913  35.074  1.00  0.00     0.173 A 
ATOM     63  C   UNL A   1      43.549  27.369  35.993  1.00  0.00     0.173 A 
ATOM     64  F   UNL A   1      45.461  29.943  34.274  1.00  0.00    -0.203 F 
ATOM     65  C   UNL A   1      46.160  28.293  35.803  1.00  0.00     0.198 A 
ATOM     66  C   UNL A   1      44.559  26.766  36.736  1.00  0.00     0.198 A 
ATOM     67  F   UNL A   1      42.297  26.901  36.104  1.00  0.00    -0.203 F 
ATOM     68  F   UNL A   1      47.424  28.726  35.693  1.00  0.00    -0.200 F 
ATOM     69  C   UNL A   1      45.864  27.227  36.639  1.00  0.00     0.200 A 
ATOM     70  F   UNL A   1      44.269  25.742  37.551  1.00  0.00    -0.200 F 
ATOM     71  F   UNL A   1      46.836  26.641  37.350  1.00  0.00    -0.200 F 
ENDBRANCH  38  61
ENDBRANCH  12  13
ENDBRANCH   5   7
ENDBRANCH   2   3
ENDBRANCH   1   2
BRANCH   1  72
ATOM     72  C   UNL A   1      31.589  30.867  25.967  1.00  0.00     0.117 C 
BRANCH  72  73
ATOM     73  N   UNL A   1      30.693  30.621  24.854  1.00  0.00    -0.354 N 
ATOM     74  C   UNL A   1      30.648  29.628  23.923  1.00  0.00     0.249 C 
ATOM     75  H   UNL A   1      29.985  31.297  24.753  1.00  0.00     0.163 HD
ATOM     76  O   UNL A   1      29.861  29.819  22.988  1.00  0.00    -0.272 OA
BRANCH  74  77
ATOM     77  C   UNL A   1      31.439  28.302  24.051  1.00  0.00     0.207 C 
ATOM     78  C   UNL A   1      32.306  27.834  22.893  1.00  0.00     0.045 C 
ATOM     79  O   UNL A   1      30.526  27.205  24.317  1.00  0.00    -0.363 OA
ATOM     80  C   UNL A   1      32.198  26.332  22.963  1.00  0.00     0.037 C 
ATOM     81  C   UNL A   1      30.737  26.179  23.330  1.00  0.00     0.138 C 
BRANCH  81  82
ATOM     82  C   UNL A   1      30.283  24.808  23.858  1.00  0.00     0.148 C 
BRANCH  82  83
ATOM     83  N   UNL A   1      30.340  24.676  25.309  1.00  0.00    -0.349 N 
ATOM     84  C   UNL A   1      31.287  24.065  26.088  1.00  0.00     0.251 C 
ATOM     85  H   UNL A   1      29.590  25.084  25.799  1.00  0.00     0.163 HD
ATOM     86  O   UNL A   1      31.027  23.775  27.251  1.00  0.00    -0.269 OA
BRANCH  84  87
ATOM     87  C   UNL A   1      32.616  23.736  25.534  1.00  0.00     0.039 A 
ATOM     88  C   UNL A   1      32.797  22.606  24.729  1.00  0.00     0.015 A 
ATOM     89  C   UNL A   1      33.674  24.628  25.744  1.00  0.00     0.015 A 
ATOM     90  C   UNL A   1      34.052  22.339  24.178  1.00  0.00     0.021 A 
ATOM     91  C   UNL A   1      34.926  24.362  25.185  1.00  0.00     0.021 A 
ATOM     92  C   UNL A   1      35.111  23.217  24.411  1.00  0.00     0.041 A 
ATOM     93  Cl  UNL A   1      36.653  22.891  23.721  1.00  0.00    -0.084 Cl
ENDBRANCH  84  87
ENDBRANCH  82  83
ENDBRANCH  81  82
ENDBRANCH  74  77
ENDBRANCH  72  73
ENDBRANCH   1  72
TORSDOF 13
ENDMDL
MODEL 2
REMARK VINA RESULT:     -12.8      0.193      1.693
REMARK SMILES O=C(NCCCNC(=O)[C@@H]1CC[C@@H](CNC(=O)c2ccc(Cl)cc2)O1)c1ccc(-c2c3nc(c(-c4c(F)c(F)c(F)c(F)c4F)c4ccc([nH]4)c(-c4c(F)c(F)c(F)c(F)c4F)c4nc(c(-c5c(F)c(F)c(F)c(F)c5F)c5ccc2[nH]5)C=C4)C=C3)cc1
REMARK SMILES IDX 5 1 4 2 3 3 1 4 2 5 26 7 27 8 88 9 28 10 87 11 29 12 30 13
REMARK SMILES IDX 31 14 81 15 32 16 86 17 80 18 82 19 33 20 85 21 79 22 78 23
REMARK SMILES IDX 34 25 66 26 46 27 65 28 47 29 50 30 64 31 83 32 48 33 49 34
REMARK SMILES IDX 63 36 84 37 51 38 35 39 36 40 44 41 37 42 38 43 42 44 45 45
REMARK SMILES IDX 39 46 40 47 43 48 41 49 67 50 68 51 76 52 69 53 70 54 74 55
REMARK SMILES IDX 77 56 71 57 72 58 75 59 73 60 52 61 53 62 61 63 54 64 55 65
REMARK SMILES IDX 59 66 62 67 56 68 57 69 60 70 58 71 6 72 7 73 8 74 9 76
REMARK SMILES IDX 10 77 11 78 25 79 12 80 13 81 14 82 15 83 16 84 17 86 18 87
REMARK SMILES IDX 19 88 24 89 20 90 23 91 21 92 22 93
REMARK H PARENT 3 6 82 24 50 35 7 75 15 85
REMARK Flexibility Score: inf
ROOT
ATOM      1  C   UNL A   1      31.403  32.089  26.505  1.00  0.00     0.042 C 
ENDROOT
BRANCH   1   2
ATOM      2  C   UNL A   1      32.628  32.618  27.246  1.00  0.00     0.118 C 
BRANCH   2   3
ATOM      3  N   UNL A   1      32.469  34.018  27.602  1.00  0.00    -0.352 N 
ATOM      4  O   UNL A   1      32.528  35.815  28.944  1.00  0.00    -0.269 OA
ATOM      5  C   UNL A   1      33.014  34.731  28.638  1.00  0.00     0.251 C 
ATOM      6  H   UNL A   1      31.878  34.535  27.008  1.00  0.00     0.163 HD
BRANCH   5   7
ATOM      7  C   UNL A   1      34.185  34.218  29.385  1.00  0.00     0.039 A 
ATOM      8  C   UNL A   1      34.031  33.443  30.540  1.00  0.00     0.014 A 
ATOM      9  C   UNL A   1      35.461  34.422  28.850  1.00  0.00     0.014 A 
ATOM     10  C   UNL A   1      35.150  32.940  31.199  1.00  0.00     0.010 A 
ATOM     11  C   UNL A   1      36.579  33.867  29.476  1.00  0.00     0.010 A 
ATOM     12  C   UNL A   1      36.431  33.126  30.659  1.00  0.00    -0.014 A 
BRANCH  12  13
ATOM     13  C   UNL A   1      37.609  32.474  31.280  1.00  0.00     0.031 A 
ATOM     14  C   UNL A   1      38.292  31.323  30.605  1.00  0.00     0.074 A 
ATOM     15  C   UNL A   1      38.024  32.897  32.488  1.00  0.00     0.049 A 
ATOM     16  N   UNL A   1      39.274  30.575  31.038  1.00  0.00    -0.248 NA
ATOM     17  C   UNL A   1      37.797  30.955  29.270  1.00  0.00     0.031 C 
ATOM     18  C   UNL A   1      37.422  33.993  33.248  1.00  0.00     0.029 A 
ATOM     19  N   UNL A   1      39.036  32.445  33.299  1.00  0.00    -0.354 N 
ATOM     20  C   UNL A   1      39.502  29.635  30.044  1.00  0.00     0.074 A 
ATOM     21  C   UNL A   1      38.542  29.894  28.991  1.00  0.00     0.031 C 
ATOM     22  C   UNL A   1      38.073  34.131  34.412  1.00  0.00     0.029 A 
ATOM     23  C   UNL A   1      39.105  33.103  34.502  1.00  0.00     0.049 A 
ATOM     24  H   UNL A   1      39.651  31.722  33.042  1.00  0.00     0.167 HD
ATOM     25  C   UNL A   1      40.430  28.649  30.015  1.00  0.00     0.037 A 
ATOM     26  C   UNL A   1      39.888  32.882  35.574  1.00  0.00     0.037 A 
ATOM     27  C   UNL A   1      41.389  28.408  31.063  1.00  0.00     0.049 A 
ATOM     28  C   UNL A   1      40.900  31.774  35.525  1.00  0.00     0.074 A 
ATOM     29  C   UNL A   1      42.408  27.473  31.103  1.00  0.00     0.029 A 
ATOM     30  N   UNL A   1      41.437  29.105  32.263  1.00  0.00    -0.354 N 
ATOM     31  N   UNL A   1      41.142  30.923  34.559  1.00  0.00    -0.248 NA
ATOM     32  C   UNL A   1      41.748  31.596  36.712  1.00  0.00     0.031 C 
ATOM     33  C   UNL A   1      43.045  27.575  32.344  1.00  0.00     0.029 A 
ATOM     34  C   UNL A   1      42.453  28.602  33.061  1.00  0.00     0.049 A 
ATOM     35  H   UNL A   1      40.839  29.846  32.510  1.00  0.00     0.167 HD
ATOM     36  C   UNL A   1      42.177  30.117  35.010  1.00  0.00     0.074 A 
ATOM     37  C   UNL A   1      42.524  30.587  36.335  1.00  0.00     0.031 C 
ATOM     38  C   UNL A   1      42.784  29.084  34.378  1.00  0.00     0.037 A 
BRANCH  25  39
ATOM     39  C   UNL A   1      40.436  27.740  28.822  1.00  0.00     0.064 A 
ATOM     40  C   UNL A   1      41.216  28.014  27.688  1.00  0.00     0.173 A 
ATOM     41  C   UNL A   1      39.664  26.569  28.819  1.00  0.00     0.173 A 
ATOM     42  F   UNL A   1      41.963  29.128  27.635  1.00  0.00    -0.203 F 
ATOM     43  C   UNL A   1      41.197  27.166  26.583  1.00  0.00     0.198 A 
ATOM     44  C   UNL A   1      39.667  25.709  27.723  1.00  0.00     0.198 A 
ATOM     45  F   UNL A   1      38.904  26.257  29.880  1.00  0.00    -0.203 F 
ATOM     46  F   UNL A   1      41.909  27.475  25.491  1.00  0.00    -0.200 F 
ATOM     47  C   UNL A   1      40.426  26.013  26.603  1.00  0.00     0.200 A 
ATOM     48  F   UNL A   1      38.928  24.592  27.748  1.00  0.00    -0.200 F 
ATOM     49  F   UNL A   1      40.406  25.200  25.539  1.00  0.00    -0.200 F 
ENDBRANCH  25  39
BRANCH  26  50
ATOM     50  C   UNL A   1      39.721  33.735  36.776  1.00  0.00     0.064 A 
ATOM     51  C   UNL A   1      40.362  34.976  36.875  1.00  0.00     0.173 A 
ATOM     52  C   UNL A   1      38.865  33.353  37.820  1.00  0.00     0.173 A 
ATOM     53  F   UNL A   1      41.202  35.374  35.908  1.00  0.00    -0.203 F 
ATOM     54  C   UNL A   1      40.149  35.807  37.972  1.00  0.00     0.198 A 
ATOM     55  C   UNL A   1      38.634  34.195  38.905  1.00  0.00     0.198 A 
ATOM     56  F   UNL A   1      38.222  32.177  37.765  1.00  0.00    -0.203 F 
ATOM     57  F   UNL A   1      40.785  36.983  38.052  1.00  0.00    -0.200 F 
ATOM     58  C   UNL A   1      39.278  35.421  38.981  1.00  0.00     0.200 A 
ATOM     59  F   UNL A   1      37.779  33.826  39.868  1.00  0.00    -0.200 F 
ATOM     60  F   UNL A   1      39.057  36.231  40.025  1.00  0.00    -0.200 F 
ENDBRANCH  26  50
BRANCH  38  61
ATOM     61  C   UNL A   1      43.907  28.402  35.101  1.00  0.00     0.064 A 
ATOM     62  C   UNL A   1      43.682  27.279  35.908  1.00  0.00     0.173 A 
ATOM     63  C   UNL A   1      45.228  28.839  34.928  1.00  0.00     0.173 A 
ATOM     64  F   UNL A   1      42.433  26.835  36.115  1.00  0.00    -0.203 F 
ATOM     65  C   UNL A   1      44.743  26.620  36.525  1.00  0.00     0.198 A 
ATOM     66  C   UNL A   1      46.288  28.165  35.528  1.00  0.00     0.198 A 
ATOM     67  F   UNL A   1      45.492  29.908  34.161  1.00  0.00    -0.203 F 
ATOM     68  F   UNL A   1      44.505  25.564  37.314  1.00  0.00    -0.200 F 
ATOM     69  C   UNL A   1      46.045  27.058  36.327  1.00  0.00     0.200 A 
ATOM     70  F   UNL A   1      47.545  28.584  35.327  1.00  0.00    -0.200 F 
ATOM     71  F   UNL A   1      47.065  26.415  36.909  1.00  0.00    -0.200 F 
ENDBRANCH  38  61
ENDBRANCH  12  13
ENDBRANCH   5   7
ENDBRANCH   2   3
ENDBRANCH   1   2
BRANCH   1  72
ATOM     72  C   UNL A   1      31.615  30.697  25.907  1.00  0.00     0.117 C 
BRANCH  72  73
ATOM     73  N   UNL A   1      30.705  30.462  24.805  1.00  0.00    -0.354 N 
ATOM     74  C   UNL A   1      30.651  29.483  23.860  1.00  0.00     0.249 C 
ATOM     75  H   UNL A   1      29.992  31.135  24.724  1.00  0.00     0.163 HD
ATOM     76  O   UNL A   1      29.850  29.683  22.940  1.00  0.00    -0.272 OA
BRANCH  74  77
ATOM     77  C   UNL A   1      31.452  28.160  23.957  1.00  0.00     0.207 C 
ATOM     78  C   UNL A   1      32.271  27.692  22.764  1.00  0.00     0.045 C 
ATOM     79  O   UNL A   1      30.555  27.060  24.264  1.00  0.00    -0.363 OA
ATOM     80  C   UNL A   1      32.170  26.190  22.843  1.00  0.00     0.037 C 
ATOM     81  C   UNL A   1      30.726  26.033  23.271  1.00  0.00     0.138 C 
BRANCH  81  82
ATOM     82  C   UNL A   1      30.300  24.662  23.821  1.00  0.00     0.148 C 
BRANCH  82  83
ATOM     83  N   UNL A   1      30.331  24.562  25.275  1.00  0.00    -0.349 N 
ATOM     84  C   UNL A   1      31.297  24.028  26.087  1.00  0.00     0.251 C 
ATOM     85  H   UNL A   1      29.547  24.933  25.740  1.00  0.00     0.163 HD
ATOM     86  O   UNL A   1      31.028  23.746  27.251  1.00  0.00    -0.269 OA
BRANCH  84  87
ATOM     87  C   UNL A   1      32.656  23.771  25.570  1.00  0.00     0.039 A 
ATOM     88  C   UNL A   1      33.681  24.704  25.755  1.00  0.00     0.015 A 
ATOM     89  C   UNL A   1      32.929  22.531  24.980  1.00  0.00     0.015 A 
ATOM     90  C   UNL A   1      34.970  24.420  25.299  1.00  0.00     0.021 A 
ATOM     91  C   UNL A   1      34.221  22.247  24.531  1.00  0.00     0.021 A 
ATOM     92  C   UNL A   1      35.233  23.195  24.687  1.00  0.00     0.041 A 
ATOM     93  Cl  UNL A   1      36.825  22.843  24.136  1.00  0.00    -0.084 Cl
ENDBRANCH  84  87
ENDBRANCH  82  83
ENDBRANCH  81  82
ENDBRANCH  74  77
ENDBRANCH  72  73
ENDBRANCH   1  72
TORSDOF 13
ENDMDL
MODEL 3
REMARK VINA RESULT:     -12.8      5.452     10.157
REMARK SMILES O=C(NCCCNC(=O)[C@@H]1CC[C@@H](CNC(=O)c2ccc(Cl)cc2)O1)c1ccc(-c2c3nc(c(-c4c(F)c(F)c(F)c(F)c4F)c4ccc([nH]4)c(-c4c(F)c(F)c(F)c(F)c4F)c4nc(c(-c5c(F)c(F)c(F)c(F)c5F)c5ccc2[nH]5)C=C4)C=C3)cc1
REMARK SMILES IDX 5 1 4 2 3 3 1 4 2 5 26 7 27 8 88 9 28 10 87 11 29 12 30 13
REMARK SMILES IDX 31 14 81 15 32 16 86 17 80 18 82 19 33 20 85 21 79 22 78 23
REMARK SMILES IDX 34 25 66 26 46 27 65 28 47 29 50 30 64 31 83 32 48 33 49 34
REMARK SMILES IDX 63 36 84 37 51 38 35 39 36 40 44 41 37 42 38 43 42 44 45 45
REMARK SMILES IDX 39 46 40 47 43 48 41 49 67 50 68 51 76 52 69 53 70 54 74 55
REMARK SMILES IDX 77 56 71 57 72 58 75 59 73 60 52 61 53 62 61 63 54 64 55 65
REMARK SMILES IDX 59 66 62 67 56 68 57 69 60 70 58 71 6 72 7 73 8 74 9 76
REMARK SMILES IDX 10 77 11 78 25 79 12 80 13 81 14 82 15 83 16 84 17 86 18 87
REMARK SMILES IDX 19 88 24 89 20 90 23 91 21 92 22 93
REMARK H PARENT 3 6 82 24 50 35 7 75 15 85
REMARK Flexibility Score: inf
ROOT
ATOM      1  C   UNL A   1      41.595  21.513  26.137  1.00  0.00     0.042 C 
ENDROOT
BRANCH   1   2
ATOM      2  C   UNL A   1      40.359  21.876  26.956  1.00  0.00     0.118 C 
BRANCH   2   3
ATOM      3  N   UNL A   1      39.305  22.416  26.114  1.00  0.00    -0.352 N 
ATOM      4  O   UNL A   1      37.625  23.796  25.558  1.00  0.00    -0.269 OA
ATOM      5  C   UNL A   1      38.689  23.640  26.151  1.00  0.00     0.251 C 
ATOM      6  H   UNL A   1      38.983  21.809  25.409  1.00  0.00     0.163 HD
BRANCH   5   7
ATOM      7  C   UNL A   1      39.290  24.776  26.886  1.00  0.00     0.039 A 
ATOM      8  C   UNL A   1      40.046  25.752  26.227  1.00  0.00     0.014 A 
ATOM      9  C   UNL A   1      38.992  24.926  28.244  1.00  0.00     0.014 A 
ATOM     10  C   UNL A   1      40.565  26.831  26.937  1.00  0.00     0.010 A 
ATOM     11  C   UNL A   1      39.461  26.040  28.943  1.00  0.00     0.010 A 
ATOM     12  C   UNL A   1      40.256  26.998  28.295  1.00  0.00    -0.014 A 
BRANCH  12  13
ATOM     13  C   UNL A   1      40.689  28.218  29.018  1.00  0.00     0.031 A 
ATOM     14  C   UNL A   1      42.083  28.333  29.559  1.00  0.00     0.074 A 
ATOM     15  C   UNL A   1      39.795  29.201  29.229  1.00  0.00     0.049 A 
ATOM     16  N   UNL A   1      42.609  29.281  30.292  1.00  0.00    -0.248 NA
ATOM     17  C   UNL A   1      43.003  27.231  29.247  1.00  0.00     0.031 C 
ATOM     18  C   UNL A   1      38.407  29.187  28.767  1.00  0.00     0.029 A 
ATOM     19  N   UNL A   1      39.912  30.392  29.901  1.00  0.00    -0.354 N 
ATOM     20  C   UNL A   1      43.912  28.882  30.549  1.00  0.00     0.074 A 
ATOM     21  C   UNL A   1      44.093  27.596  29.908  1.00  0.00     0.031 C 
ATOM     22  C   UNL A   1      37.799  30.314  29.167  1.00  0.00     0.029 A 
ATOM     23  C   UNL A   1      38.740  31.105  29.954  1.00  0.00     0.049 A 
ATOM     24  H   UNL A   1      40.753  30.705  30.304  1.00  0.00     0.167 HD
ATOM     25  C   UNL A   1      44.869  29.534  31.251  1.00  0.00     0.037 A 
ATOM     26  C   UNL A   1      38.443  32.251  30.594  1.00  0.00     0.037 A 
ATOM     27  C   UNL A   1      44.683  30.820  31.873  1.00  0.00     0.049 A 
ATOM     28  C   UNL A   1      39.515  32.950  31.379  1.00  0.00     0.074 A 
ATOM     29  C   UNL A   1      45.606  31.591  32.557  1.00  0.00     0.029 A 
ATOM     30  N   UNL A   1      43.483  31.519  31.895  1.00  0.00    -0.354 N 
ATOM     31  N   UNL A   1      40.759  32.589  31.573  1.00  0.00    -0.248 NA
ATOM     32  C   UNL A   1      39.144  34.211  32.034  1.00  0.00     0.031 C 
ATOM     33  C   UNL A   1      44.955  32.736  33.029  1.00  0.00     0.029 A 
ATOM     34  C   UNL A   1      43.636  32.701  32.603  1.00  0.00     0.049 A 
ATOM     35  H   UNL A   1      42.647  31.219  31.469  1.00  0.00     0.167 HD
ATOM     36  C   UNL A   1      41.328  33.583  32.356  1.00  0.00     0.074 A 
ATOM     37  C   UNL A   1      40.292  34.567  32.596  1.00  0.00     0.031 C 
ATOM     38  C   UNL A   1      42.594  33.669  32.830  1.00  0.00     0.037 A 
BRANCH  25  39
ATOM     39  C   UNL A   1      46.197  28.854  31.407  1.00  0.00     0.064 A 
ATOM     40  C   UNL A   1      47.231  29.030  30.474  1.00  0.00     0.173 A 
ATOM     41  C   UNL A   1      46.445  28.028  32.513  1.00  0.00     0.173 A 
ATOM     42  F   UNL A   1      47.041  29.800  29.392  1.00  0.00    -0.203 F 
ATOM     43  C   UNL A   1      48.453  28.379  30.628  1.00  0.00     0.198 A 
ATOM     44  C   UNL A   1      47.677  27.399  32.677  1.00  0.00     0.198 A 
ATOM     45  F   UNL A   1      45.493  27.830  33.437  1.00  0.00    -0.203 F 
ATOM     46  F   UNL A   1      49.407  28.519  29.698  1.00  0.00    -0.200 F 
ATOM     47  C   UNL A   1      48.676  27.567  31.731  1.00  0.00     0.200 A 
ATOM     48  F   UNL A   1      47.893  26.622  33.747  1.00  0.00    -0.200 F 
ATOM     49  F   UNL A   1      49.850  26.938  31.875  1.00  0.00    -0.200 F 
ENDBRANCH  25  39
BRANCH  26  50
ATOM     50  C   UNL A   1      37.062  32.786  30.511  1.00  0.00     0.064 A 
ATOM     51  C   UNL A   1      36.128  32.533  31.524  1.00  0.00     0.173 A 
ATOM     52  C   UNL A   1      36.671  33.616  29.450  1.00  0.00     0.173 A 
ATOM     53  F   UNL A   1      36.453  31.732  32.548  1.00  0.00    -0.203 F 
ATOM     54  C   UNL A   1      34.854  33.094  31.480  1.00  0.00     0.198 A 
ATOM     55  C   UNL A   1      35.405  34.196  29.419  1.00  0.00     0.198 A 
ATOM     56  F   UNL A   1      37.534  33.894  28.462  1.00  0.00    -0.203 F 
ATOM     57  F   UNL A   1      33.972  32.825  32.451  1.00  0.00    -0.200 F 
ATOM     58  C   UNL A   1      34.497  33.933  30.434  1.00  0.00     0.200 A 
ATOM     59  F   UNL A   1      35.071  35.019  28.416  1.00  0.00    -0.200 F 
ATOM     60  F   UNL A   1      33.279  34.490  30.404  1.00  0.00    -0.200 F 
ENDBRANCH  26  50
BRANCH  38  61
ATOM     61  C   UNL A   1      42.943  34.883  33.638  1.00  0.00     0.064 A 
ATOM     62  C   UNL A   1      43.318  36.087  33.026  1.00  0.00     0.173 A 
ATOM     63  C   UNL A   1      42.836  34.857  35.036  1.00  0.00     0.173 A 
ATOM     64  F   UNL A   1      43.450  36.153  31.692  1.00  0.00    -0.203 F 
ATOM     65  C   UNL A   1      43.581  37.222  33.787  1.00  0.00     0.198 A 
ATOM     66  C   UNL A   1      43.077  36.000  35.793  1.00  0.00     0.198 A 
ATOM     67  F   UNL A   1      42.477  33.728  35.666  1.00  0.00    -0.203 F 
ATOM     68  F   UNL A   1      43.963  38.357  33.185  1.00  0.00    -0.200 F 
ATOM     69  C   UNL A   1      43.452  37.181  35.168  1.00  0.00     0.200 A 
ATOM     70  F   UNL A   1      42.942  35.961  37.125  1.00  0.00    -0.200 F 
ATOM     71  F   UNL A   1      43.691  38.279  35.898  1.00  0.00    -0.200 F 
ENDBRANCH  38  61
ENDBRANCH  12  13
ENDBRANCH   5   7
ENDBRANCH   2   3
ENDBRANCH   1   2
BRANCH   1  72
ATOM     72  C   UNL A   1      42.658  20.770  26.948  1.00  0.00     0.117 C 
BRANCH  72  73
ATOM     73  N   UNL A   1      42.520  19.336  26.793  1.00  0.00    -0.354 N 
ATOM     74  C   UNL A   1      43.035  18.465  25.882  1.00  0.00     0.249 C 
ATOM     75  H   UNL A   1      41.947  18.914  27.472  1.00  0.00     0.163 HD
ATOM     76  O   UNL A   1      42.563  17.322  25.922  1.00  0.00    -0.272 OA
BRANCH  74  77
ATOM     77  C   UNL A   1      44.196  18.823  24.921  1.00  0.00     0.207 C 
ATOM     78  C   UNL A   1      45.624  18.827  25.443  1.00  0.00     0.045 C 
ATOM     79  O   UNL A   1      43.986  20.147  24.364  1.00  0.00    -0.363 OA
ATOM     80  C   UNL A   1      46.279  19.933  24.654  1.00  0.00     0.037 C 
ATOM     81  C   UNL A   1      45.155  20.947  24.617  1.00  0.00     0.138 C 
BRANCH  81  82
ATOM     82  C   UNL A   1      45.271  22.090  23.596  1.00  0.00     0.148 C 
BRANCH  82  83
ATOM     83  N   UNL A   1      46.360  23.022  23.860  1.00  0.00    -0.349 N 
ATOM     84  C   UNL A   1      46.445  24.011  24.805  1.00  0.00     0.251 C 
ATOM     85  H   UNL A   1      47.147  22.928  23.276  1.00  0.00     0.163 HD
ATOM     86  O   UNL A   1      47.288  24.895  24.689  1.00  0.00    -0.269 OA
BRANCH  84  87
ATOM     87  C   UNL A   1      45.520  24.033  25.956  1.00  0.00     0.039 A 
ATOM     88  C   UNL A   1      44.229  24.556  25.826  1.00  0.00     0.015 A 
ATOM     89  C   UNL A   1      45.918  23.429  27.154  1.00  0.00     0.015 A 
ATOM     90  C   UNL A   1      43.354  24.524  26.914  1.00  0.00     0.021 A 
ATOM     91  C   UNL A   1      45.039  23.392  28.238  1.00  0.00     0.021 A 
ATOM     92  C   UNL A   1      43.763  23.945  28.115  1.00  0.00     0.041 A 
ATOM     93  Cl  UNL A   1      42.679  23.897  29.450  1.00  0.00    -0.084 Cl
ENDBRANCH  84  87
ENDBRANCH  82  83
ENDBRANCH  81  82
ENDBRANCH  74  77
ENDBRANCH  72  73
ENDBRANCH   1  72
TORSDOF 13
ENDMDL
