MODEL 1
REMARK VINA RESULT:     -11.9      0.000      0.000
REMARK SMILES Cc1ncccc1C(=O)N1CC[C@H](C(=O)NCCCNC(=O)c2ccc(-c3c4nc(c(-c5c(F)c(F)c(F)c(F)c5F)c5ccc([nH]5)c(-c5c(F)c(F)c(F)c(F)c5F)c5nc(c(-c6c(F)c(F)c(F)c(F)c6F)c6ccc3[nH]6)C=C5)C=C4)cc2)C1
REMARK SMILES IDX 18 1 17 2 16 3 14 4 15 5 13 7 10 8 11 9 86 10 12 11 8 12
REMARK SMILES IDX 9 13 7 14 1 15 2 16 3 17 4 18 6 19 5 20 19 21 20 22 21 23
REMARK SMILES IDX 22 25 23 26 24 27 85 28 25 29 84 30 26 31 27 32 28 33 78 34
REMARK SMILES IDX 29 35 83 36 77 37 79 38 30 39 82 40 76 41 75 42 31 44 63 45
REMARK SMILES IDX 43 46 62 47 44 48 47 49 61 50 80 51 45 52 46 53 60 55 81 56
REMARK SMILES IDX 48 57 32 58 33 59 41 60 34 61 35 62 39 63 42 64 36 65 37 66
REMARK SMILES IDX 40 67 38 68 64 69 65 70 73 71 66 72 67 73 71 74 74 75 68 76
REMARK SMILES IDX 69 77 72 78 70 79 49 80 50 81 58 82 51 83 52 84 56 85 59 86
REMARK SMILES IDX 53 87 54 88 57 89 55 90
REMARK H PARENT 16 6 20 24 79 43 47 54
REMARK Flexibility Score: inf
ROOT
ATOM      1  C   UNL A   1      33.423  28.784  23.497  1.00  0.00     0.042 C 
ENDROOT
BRANCH   1   2
ATOM      2  C   UNL A   1      32.216  28.016  22.973  1.00  0.00     0.117 C 
BRANCH   2   3
ATOM      3  N   UNL A   1      32.568  27.066  21.932  1.00  0.00    -0.356 N 
ATOM      4  C   UNL A   1      32.880  25.744  21.951  1.00  0.00     0.224 C 
ATOM      5  O   UNL A   1      33.102  25.225  20.852  1.00  0.00    -0.275 OA
ATOM      6  H   UNL A   1      32.582  27.459  21.029  1.00  0.00     0.163 HD
BRANCH   4   7
ATOM      7  C   UNL A   1      33.028  24.902  23.212  1.00  0.00     0.099 C 
ATOM      8  N   UNL A   1      34.805  23.448  23.767  1.00  0.00    -0.338 N 
ATOM      9  C   UNL A   1      33.603  22.650  23.881  1.00  0.00     0.120 C 
ATOM     10  C   UNL A   1      34.428  24.859  23.817  1.00  0.00     0.133 C 
ATOM     11  C   UNL A   1      32.603  23.434  23.036  1.00  0.00     0.037 C 
BRANCH   8  12
ATOM     12  C   UNL A   1      36.143  23.114  23.698  1.00  0.00     0.255 C 
ATOM     13  O   UNL A   1      36.657  22.952  22.585  1.00  0.00    -0.269 OA
BRANCH  12  14
ATOM     14  C   UNL A   1      37.032  22.838  24.870  1.00  0.00     0.061 A 
ATOM     15  C   UNL A   1      37.404  20.297  24.627  1.00  0.00     0.067 C 
ATOM     16  C   UNL A   1      37.675  21.641  25.211  1.00  0.00     0.050 A 
ATOM     17  N   UNL A   1      38.677  21.583  26.142  1.00  0.00    -0.261 NA
ATOM     18  C   UNL A   1      39.098  22.725  26.716  1.00  0.00     0.111 A 
ATOM     19  C   UNL A   1      37.485  23.999  25.534  1.00  0.00     0.017 A 
ATOM     20  C   UNL A   1      38.530  23.950  26.454  1.00  0.00     0.021 A 
ENDBRANCH  12  14
ENDBRANCH   8  12
ENDBRANCH   4   7
ENDBRANCH   2   3
ENDBRANCH   1   2
BRANCH   1  21
ATOM     21  C   UNL A   1      33.532  28.840  25.013  1.00  0.00     0.118 C 
BRANCH  21  22
ATOM     22  N   UNL A   1      32.939  30.048  25.566  1.00  0.00    -0.352 N 
ATOM     23  C   UNL A   1      33.274  30.791  26.669  1.00  0.00     0.251 C 
ATOM     24  H   UNL A   1      32.167  30.392  25.062  1.00  0.00     0.163 HD
ATOM     25  O   UNL A   1      32.497  31.669  27.054  1.00  0.00    -0.269 OA
BRANCH  23  26
ATOM     26  C   UNL A   1      34.536  30.569  27.414  1.00  0.00     0.039 A 
ATOM     27  C   UNL A   1      34.757  29.316  28.000  1.00  0.00     0.014 A 
ATOM     28  C   UNL A   1      35.463  31.591  27.620  1.00  0.00     0.014 A 
ATOM     29  C   UNL A   1      35.914  29.081  28.749  1.00  0.00     0.010 A 
ATOM     30  C   UNL A   1      36.658  31.334  28.293  1.00  0.00     0.010 A 
ATOM     31  C   UNL A   1      36.886  30.083  28.884  1.00  0.00    -0.014 A 
BRANCH  31  32
ATOM     32  C   UNL A   1      38.120  29.868  29.686  1.00  0.00     0.031 A 
ATOM     33  C   UNL A   1      39.216  28.983  29.155  1.00  0.00     0.074 A 
ATOM     34  C   UNL A   1      38.234  30.413  30.912  1.00  0.00     0.049 A 
ATOM     35  N   UNL A   1      40.318  28.581  29.739  1.00  0.00    -0.248 NA
ATOM     36  C   UNL A   1      39.035  28.455  27.794  1.00  0.00     0.031 C 
ATOM     37  C   UNL A   1      37.231  31.258  31.560  1.00  0.00     0.029 A 
ATOM     38  N   UNL A   1      39.243  30.323  31.840  1.00  0.00    -0.354 N 
ATOM     39  C   UNL A   1      40.938  27.730  28.832  1.00  0.00     0.074 A 
ATOM     40  C   UNL A   1      40.072  27.640  27.677  1.00  0.00     0.031 C 
ATOM     41  C   UNL A   1      37.681  31.625  32.771  1.00  0.00     0.029 A 
ATOM     42  C   UNL A   1      38.986  31.012  33.001  1.00  0.00     0.049 A 
ATOM     43  H   UNL A   1      40.071  29.814  31.687  1.00  0.00     0.167 HD
ATOM     44  C   UNL A   1      42.132  27.100  28.942  1.00  0.00     0.037 A 
ATOM     45  C   UNL A   1      39.718  31.129  34.125  1.00  0.00     0.037 A 
ATOM     46  C   UNL A   1      43.017  27.230  30.069  1.00  0.00     0.049 A 
ATOM     47  C   UNL A   1      41.053  30.438  34.212  1.00  0.00     0.074 A 
ATOM     48  C   UNL A   1      44.275  26.682  30.247  1.00  0.00     0.029 A 
ATOM     49  N   UNL A   1      42.737  27.968  31.209  1.00  0.00    -0.354 N 
ATOM     50  N   UNL A   1      41.650  29.677  33.329  1.00  0.00    -0.248 NA
ATOM     51  C   UNL A   1      41.817  30.630  35.453  1.00  0.00     0.031 C 
ATOM     52  C   UNL A   1      44.745  27.064  31.509  1.00  0.00     0.029 A 
ATOM     53  C   UNL A   1      43.795  27.882  32.099  1.00  0.00     0.049 A 
ATOM     54  H   UNL A   1      41.909  28.478  31.363  1.00  0.00     0.167 HD
ATOM     55  C   UNL A   1      42.868  29.322  33.893  1.00  0.00     0.074 A 
ATOM     56  C   UNL A   1      42.930  29.961  35.190  1.00  0.00     0.031 C 
ATOM     57  C   UNL A   1      43.846  28.536  33.381  1.00  0.00     0.037 A 
BRANCH  44  58
ATOM     58  C   UNL A   1      42.556  26.214  27.807  1.00  0.00     0.064 A 
ATOM     59  C   UNL A   1      42.191  24.860  27.754  1.00  0.00     0.173 A 
ATOM     60  C   UNL A   1      43.312  26.732  26.744  1.00  0.00     0.173 A 
ATOM     61  F   UNL A   1      41.480  24.313  28.751  1.00  0.00    -0.203 F 
ATOM     62  C   UNL A   1      42.591  24.051  26.694  1.00  0.00     0.198 A 
ATOM     63  C   UNL A   1      43.685  25.927  25.671  1.00  0.00     0.198 A 
ATOM     64  F   UNL A   1      43.682  28.021  26.743  1.00  0.00    -0.203 F 
ATOM     65  F   UNL A   1      42.273  22.749  26.690  1.00  0.00    -0.200 F 
ATOM     66  C   UNL A   1      43.332  24.586  25.651  1.00  0.00     0.200 A 
ATOM     67  F   UNL A   1      44.391  26.448  24.659  1.00  0.00    -0.200 F 
ATOM     68  F   UNL A   1      43.713  23.807  24.630  1.00  0.00    -0.200 F 
ENDBRANCH  44  58
BRANCH  45  69
ATOM     69  C   UNL A   1      39.218  31.958  35.250  1.00  0.00     0.064 A 
ATOM     70  C   UNL A   1      38.464  31.385  36.284  1.00  0.00     0.173 A 
ATOM     71  C   UNL A   1      39.478  33.334  35.316  1.00  0.00     0.173 A 
ATOM     72  F   UNL A   1      38.171  30.076  36.250  1.00  0.00    -0.203 F 
ATOM     73  C   UNL A   1      37.973  32.159  37.332  1.00  0.00     0.198 A 
ATOM     74  C   UNL A   1      39.008  34.104  36.378  1.00  0.00     0.198 A 
ATOM     75  F   UNL A   1      40.196  33.930  34.353  1.00  0.00    -0.203 F 
ATOM     76  F   UNL A   1      37.220  31.594  38.285  1.00  0.00    -0.200 F 
ATOM     77  C   UNL A   1      38.250  33.517  37.382  1.00  0.00     0.200 A 
ATOM     78  F   UNL A   1      39.285  35.414  36.429  1.00  0.00    -0.200 F 
ATOM     79  F   UNL A   1      37.780  34.262  38.392  1.00  0.00    -0.200 F 
ENDBRANCH  45  69
BRANCH  57  80
ATOM     80  C   UNL A   1      45.086  28.355  34.207  1.00  0.00     0.064 A 
ATOM     81  C   UNL A   1      45.212  27.298  35.119  1.00  0.00     0.173 A 
ATOM     82  C   UNL A   1      46.174  29.225  34.050  1.00  0.00     0.173 A 
ATOM     83  F   UNL A   1      44.192  26.448  35.312  1.00  0.00    -0.203 F 
ATOM     84  C   UNL A   1      46.378  27.131  35.861  1.00  0.00     0.198 A 
ATOM     85  C   UNL A   1      47.347  29.040  34.776  1.00  0.00     0.198 A 
ATOM     86  F   UNL A   1      46.104  30.249  33.186  1.00  0.00    -0.203 F 
ATOM     87  F   UNL A   1      46.462  26.138  36.758  1.00  0.00    -0.200 F 
ATOM     88  C   UNL A   1      47.446  27.997  35.684  1.00  0.00     0.200 A 
ATOM     89  F   UNL A   1      48.384  29.872  34.597  1.00  0.00    -0.200 F 
ATOM     90  F   UNL A   1      48.570  27.831  36.396  1.00  0.00    -0.200 F 
ENDBRANCH  57  80
ENDBRANCH  31  32
ENDBRANCH  23  26
ENDBRANCH  21  22
ENDBRANCH   1  21
TORSDOF 12
ENDMDL
MODEL 2
REMARK VINA RESULT:     -11.8      4.608      8.253
REMARK SMILES Cc1ncccc1C(=O)N1CC[C@H](C(=O)NCCCNC(=O)c2ccc(-c3c4nc(c(-c5c(F)c(F)c(F)c(F)c5F)c5ccc([nH]5)c(-c5c(F)c(F)c(F)c(F)c5F)c5nc(c(-c6c(F)c(F)c(F)c(F)c6F)c6ccc3[nH]6)C=C5)C=C4)cc2)C1
REMARK SMILES IDX 18 1 17 2 16 3 14 4 15 5 13 7 10 8 11 9 86 10 12 11 8 12
REMARK SMILES IDX 9 13 7 14 1 15 2 16 3 17 4 18 6 19 5 20 19 21 20 22 21 23
REMARK SMILES IDX 22 25 23 26 24 27 85 28 25 29 84 30 26 31 27 32 28 33 78 34
REMARK SMILES IDX 29 35 83 36 77 37 79 38 30 39 82 40 76 41 75 42 31 44 63 45
REMARK SMILES IDX 43 46 62 47 44 48 47 49 61 50 80 51 45 52 46 53 60 55 81 56
REMARK SMILES IDX 48 57 32 58 33 59 41 60 34 61 35 62 39 63 42 64 36 65 37 66
REMARK SMILES IDX 40 67 38 68 64 69 65 70 73 71 66 72 67 73 71 74 74 75 68 76
REMARK SMILES IDX 69 77 72 78 70 79 49 80 50 81 58 82 51 83 52 84 56 85 59 86
REMARK SMILES IDX 53 87 54 88 57 89 55 90
REMARK H PARENT 16 6 20 24 79 43 47 54
REMARK Flexibility Score: inf
ROOT
ATOM      1  C   UNL A   1      41.620  20.167  27.242  1.00  0.00     0.042 C 
ENDROOT
BRANCH   1   2
ATOM      2  C   UNL A   1      42.417  20.275  25.948  1.00  0.00     0.117 C 
BRANCH   2   3
ATOM      3  N   UNL A   1      43.412  19.225  25.815  1.00  0.00    -0.356 N 
ATOM      4  C   UNL A   1      44.703  19.220  25.394  1.00  0.00     0.224 C 
ATOM      5  O   UNL A   1      45.283  18.129  25.439  1.00  0.00    -0.275 OA
ATOM      6  H   UNL A   1      43.085  18.337  26.087  1.00  0.00     0.163 HD
BRANCH   4   7
ATOM      7  C   UNL A   1      45.440  20.427  24.827  1.00  0.00     0.099 C 
ATOM      8  N   UNL A   1      44.983  22.708  25.233  1.00  0.00    -0.338 N 
ATOM      9  C   UNL A   1      44.977  22.564  23.793  1.00  0.00     0.120 C 
ATOM     10  C   UNL A   1      45.692  21.568  25.807  1.00  0.00     0.133 C 
ATOM     11  C   UNL A   1      44.748  21.066  23.611  1.00  0.00     0.037 C 
BRANCH   8  12
ATOM     12  C   UNL A   1      44.527  23.706  26.071  1.00  0.00     0.255 C 
ATOM     13  O   UNL A   1      44.060  24.735  25.568  1.00  0.00    -0.269 OA
BRANCH  12  14
ATOM     14  C   UNL A   1      44.623  23.699  27.564  1.00  0.00     0.061 A 
ATOM     15  C   UNL A   1      46.958  24.736  27.919  1.00  0.00     0.067 C 
ATOM     16  C   UNL A   1      45.626  24.250  28.374  1.00  0.00     0.050 A 
ATOM     17  N   UNL A   1      45.469  24.425  29.723  1.00  0.00    -0.261 NA
ATOM     18  C   UNL A   1      44.290  24.104  30.287  1.00  0.00     0.111 A 
ATOM     19  C   UNL A   1      43.423  23.341  28.217  1.00  0.00     0.017 A 
ATOM     20  C   UNL A   1      43.245  23.553  29.582  1.00  0.00     0.021 A 
ENDBRANCH  12  14
ENDBRANCH   8  12
ENDBRANCH   4   7
ENDBRANCH   2   3
ENDBRANCH   1   2
BRANCH   1  21
ATOM     21  C   UNL A   1      40.800  21.400  27.589  1.00  0.00     0.118 C 
BRANCH  21  22
ATOM     22  N   UNL A   1      39.732  21.641  26.631  1.00  0.00    -0.352 N 
ATOM     23  C   UNL A   1      39.015  22.776  26.348  1.00  0.00     0.251 C 
ATOM     24  H   UNL A   1      39.481  20.855  26.093  1.00  0.00     0.163 HD
ATOM     25  O   UNL A   1      38.017  22.686  25.630  1.00  0.00    -0.269 OA
BRANCH  23  26
ATOM     26  C   UNL A   1      39.402  24.103  26.882  1.00  0.00     0.039 A 
ATOM     27  C   UNL A   1      40.092  24.989  26.045  1.00  0.00     0.014 A 
ATOM     28  C   UNL A   1      39.175  24.459  28.213  1.00  0.00     0.014 A 
ATOM     29  C   UNL A   1      40.513  26.232  26.527  1.00  0.00     0.010 A 
ATOM     30  C   UNL A   1      39.517  25.732  28.670  1.00  0.00     0.010 A 
ATOM     31  C   UNL A   1      40.210  26.624  27.839  1.00  0.00    -0.014 A 
BRANCH  31  32
ATOM     32  C   UNL A   1      40.656  27.933  28.384  1.00  0.00     0.031 A 
ATOM     33  C   UNL A   1      42.113  28.164  28.686  1.00  0.00     0.074 A 
ATOM     34  C   UNL A   1      39.753  28.892  28.667  1.00  0.00     0.049 A 
ATOM     35  N   UNL A   1      42.691  29.188  29.263  1.00  0.00    -0.248 NA
ATOM     36  C   UNL A   1      43.042  27.085  28.315  1.00  0.00     0.031 C 
ATOM     37  C   UNL A   1      38.309  28.783  28.458  1.00  0.00     0.029 A 
ATOM     38  N   UNL A   1      39.918  30.144  29.206  1.00  0.00    -0.354 N 
ATOM     39  C   UNL A   1      44.039  28.860  29.353  1.00  0.00     0.074 A 
ATOM     40  C   UNL A   1      44.187  27.527  28.811  1.00  0.00     0.031 C 
ATOM     41  C   UNL A   1      37.722  29.926  28.847  1.00  0.00     0.029 A 
ATOM     42  C   UNL A   1      38.741  30.834  29.366  1.00  0.00     0.049 A 
ATOM     43  H   UNL A   1      40.797  30.512  29.454  1.00  0.00     0.167 HD
ATOM     44  C   UNL A   1      45.063  29.611  29.824  1.00  0.00     0.037 A 
ATOM     45  C   UNL A   1      38.511  32.058  29.879  1.00  0.00     0.037 A 
ATOM     46  C   UNL A   1      44.924  30.956  30.315  1.00  0.00     0.049 A 
ATOM     47  C   UNL A   1      39.670  32.882  30.372  1.00  0.00     0.074 A 
ATOM     48  C   UNL A   1      45.911  31.822  30.755  1.00  0.00     0.029 A 
ATOM     49  N   UNL A   1      43.719  31.634  30.425  1.00  0.00    -0.354 N 
ATOM     50  N   UNL A   1      40.945  32.580  30.407  1.00  0.00    -0.248 NA
ATOM     51  C   UNL A   1      39.356  34.220  30.893  1.00  0.00     0.031 C 
ATOM     52  C   UNL A   1      45.299  33.014  31.159  1.00  0.00     0.029 A 
ATOM     53  C   UNL A   1      43.936  32.903  30.935  1.00  0.00     0.049 A 
ATOM     54  H   UNL A   1      42.840  31.267  30.178  1.00  0.00     0.167 HD
ATOM     55  C   UNL A   1      41.587  33.697  30.925  1.00  0.00     0.074 A 
ATOM     56  C   UNL A   1      40.563  34.688  31.179  1.00  0.00     0.031 C 
ATOM     57  C   UNL A   1      42.907  33.883  31.169  1.00  0.00     0.037 A 
BRANCH  44  58
ATOM     58  C   UNL A   1      46.432  28.995  29.823  1.00  0.00     0.064 A 
ATOM     59  C   UNL A   1      47.279  29.086  28.709  1.00  0.00     0.173 A 
ATOM     60  C   UNL A   1      46.913  28.330  30.961  1.00  0.00     0.173 A 
ATOM     61  F   UNL A   1      46.862  29.700  27.592  1.00  0.00    -0.203 F 
ATOM     62  C   UNL A   1      48.547  28.509  28.723  1.00  0.00     0.198 A 
ATOM     63  C   UNL A   1      48.193  27.780  30.982  1.00  0.00     0.198 A 
ATOM     64  F   UNL A   1      46.146  28.219  32.056  1.00  0.00    -0.203 F 
ATOM     65  F   UNL A   1      49.319  28.566  27.629  1.00  0.00    -0.200 F 
ATOM     66  C   UNL A   1      49.004  27.863  29.861  1.00  0.00     0.200 A 
ATOM     67  F   UNL A   1      48.637  27.165  32.087  1.00  0.00    -0.200 F 
ATOM     68  F   UNL A   1      50.226  27.312  29.875  1.00  0.00    -0.200 F 
ENDBRANCH  44  58
BRANCH  45  69
ATOM     69  C   UNL A   1      37.126  32.591  29.925  1.00  0.00     0.064 A 
ATOM     70  C   UNL A   1      36.627  33.381  28.880  1.00  0.00     0.173 A 
ATOM     71  C   UNL A   1      36.277  32.328  31.009  1.00  0.00     0.173 A 
ATOM     72  F   UNL A   1      37.412  33.678  27.833  1.00  0.00    -0.203 F 
ATOM     73  C   UNL A   1      35.337  33.902  28.924  1.00  0.00     0.198 A 
ATOM     74  C   UNL A   1      34.977  32.829  31.041  1.00  0.00     0.198 A 
ATOM     75  F   UNL A   1      36.707  31.576  32.032  1.00  0.00    -0.203 F 
ATOM     76  F   UNL A   1      34.899  34.689  27.932  1.00  0.00    -0.200 F 
ATOM     77  C   UNL A   1      34.510  33.622  30.002  1.00  0.00     0.200 A 
ATOM     78  F   UNL A   1      34.178  32.548  32.079  1.00  0.00    -0.200 F 
ATOM     79  F   UNL A   1      33.267  34.121  30.044  1.00  0.00    -0.200 F 
ENDBRANCH  45  69
BRANCH  57  80
ATOM     80  C   UNL A   1      43.326  35.221  31.701  1.00  0.00     0.064 A 
ATOM     81  C   UNL A   1      43.750  36.250  30.848  1.00  0.00     0.173 A 
ATOM     82  C   UNL A   1      43.261  35.489  33.076  1.00  0.00     0.173 A 
ATOM     83  F   UNL A   1      43.841  36.037  29.526  1.00  0.00    -0.203 F 
ATOM     84  C   UNL A   1      44.114  37.494  31.356  1.00  0.00     0.198 A 
ATOM     85  C   UNL A   1      43.602  36.742  33.577  1.00  0.00     0.198 A 
ATOM     86  F   UNL A   1      42.856  34.539  33.932  1.00  0.00    -0.203 F 
ATOM     87  F   UNL A   1      44.556  38.451  30.527  1.00  0.00    -0.200 F 
ATOM     88  C   UNL A   1      44.034  37.741  32.718  1.00  0.00     0.200 A 
ATOM     89  F   UNL A   1      43.513  36.982  34.894  1.00  0.00    -0.200 F 
ATOM     90  F   UNL A   1      44.379  38.941  33.205  1.00  0.00    -0.200 F 
ENDBRANCH  57  80
ENDBRANCH  31  32
ENDBRANCH  23  26
ENDBRANCH  21  22
ENDBRANCH   1  21
TORSDOF 12
ENDMDL
MODEL 3
REMARK VINA RESULT:     -11.8      2.843      4.909
REMARK SMILES Cc1ncccc1C(=O)N1CC[C@H](C(=O)NCCCNC(=O)c2ccc(-c3c4nc(c(-c5c(F)c(F)c(F)c(F)c5F)c5ccc([nH]5)c(-c5c(F)c(F)c(F)c(F)c5F)c5nc(c(-c6c(F)c(F)c(F)c(F)c6F)c6ccc3[nH]6)C=C5)C=C4)cc2)C1
REMARK SMILES IDX 18 1 17 2 16 3 14 4 15 5 13 7 10 8 11 9 86 10 12 11 8 12
REMARK SMILES IDX 9 13 7 14 1 15 2 16 3 17 4 18 6 19 5 20 19 21 20 22 21 23
REMARK SMILES IDX 22 25 23 26 24 27 85 28 25 29 84 30 26 31 27 32 28 33 78 34
REMARK SMILES IDX 29 35 83 36 77 37 79 38 30 39 82 40 76 41 75 42 31 44 63 45
REMARK SMILES IDX 43 46 62 47 44 48 47 49 61 50 80 51 45 52 46 53 60 55 81 56
REMARK SMILES IDX 48 57 32 58 33 59 41 60 34 61 35 62 39 63 42 64 36 65 37 66
REMARK SMILES IDX 40 67 38 68 64 69 65 70 73 71 66 72 67 73 71 74 74 75 68 76
REMARK SMILES IDX 69 77 72 78 70 79 49 80 50 81 58 82 51 83 52 84 56 85 59 86
REMARK SMILES IDX 53 87 54 88 57 89 55 90
REMARK H PARENT 16 6 20 24 79 43 47 54
REMARK Flexibility Score: inf
ROOT
ATOM      1  C   UNL A   1      31.391  31.963  26.453  1.00  0.00     0.042 C 
ENDROOT
BRANCH   1   2
ATOM      2  C   UNL A   1      31.516  30.532  25.945  1.00  0.00     0.117 C 
BRANCH   2   3
ATOM      3  N   UNL A   1      32.789  29.925  26.293  1.00  0.00    -0.356 N 
ATOM      4  C   UNL A   1      33.301  28.680  26.115  1.00  0.00     0.224 C 
ATOM      5  O   UNL A   1      34.458  28.508  26.515  1.00  0.00    -0.275 OA
ATOM      6  H   UNL A   1      33.406  30.542  26.750  1.00  0.00     0.163 HD
BRANCH   4   7
ATOM      7  C   UNL A   1      32.539  27.500  25.526  1.00  0.00     0.099 C 
ATOM      8  N   UNL A   1      30.825  27.564  23.902  1.00  0.00    -0.338 N 
ATOM      9  C   UNL A   1      30.273  26.824  25.016  1.00  0.00     0.120 C 
ATOM     10  C   UNL A   1      32.280  27.563  24.024  1.00  0.00     0.133 C 
ATOM     11  C   UNL A   1      31.167  27.256  26.176  1.00  0.00     0.037 C 
BRANCH   8  12
ATOM     12  C   UNL A   1      30.244  28.157  22.798  1.00  0.00     0.255 C 
ATOM     13  O   UNL A   1      30.652  27.842  21.674  1.00  0.00    -0.269 OA
BRANCH  12  14
ATOM     14  C   UNL A   1      29.204  29.232  22.834  1.00  0.00     0.061 A 
ATOM     15  C   UNL A   1      27.111  27.879  23.501  1.00  0.00     0.067 C 
ATOM     16  C   UNL A   1      27.869  29.137  23.250  1.00  0.00     0.050 A 
ATOM     17  N   UNL A   1      27.096  30.239  23.500  1.00  0.00    -0.261 NA
ATOM     18  C   UNL A   1      27.651  31.460  23.393  1.00  0.00     0.111 A 
ATOM     19  C   UNL A   1      29.721  30.539  22.697  1.00  0.00     0.017 A 
ATOM     20  C   UNL A   1      28.950  31.661  22.987  1.00  0.00     0.021 A 
ENDBRANCH  12  14
ENDBRANCH   8  12
ENDBRANCH   4   7
ENDBRANCH   2   3
ENDBRANCH   1   2
BRANCH   1  21
ATOM     21  C   UNL A   1      32.638  32.509  27.130  1.00  0.00     0.118 C 
BRANCH  21  22
ATOM     22  N   UNL A   1      32.473  33.887  27.567  1.00  0.00    -0.352 N 
ATOM     23  C   UNL A   1      33.055  34.581  28.596  1.00  0.00     0.251 C 
ATOM     24  H   UNL A   1      31.834  34.411  27.032  1.00  0.00     0.163 HD
ATOM     25  O   UNL A   1      32.606  35.690  28.896  1.00  0.00    -0.269 OA
BRANCH  23  26
ATOM     26  C   UNL A   1      34.204  34.038  29.360  1.00  0.00     0.039 A 
ATOM     27  C   UNL A   1      35.501  34.335  28.923  1.00  0.00     0.014 A 
ATOM     28  C   UNL A   1      34.029  33.175  30.443  1.00  0.00     0.014 A 
ATOM     29  C   UNL A   1      36.609  33.804  29.590  1.00  0.00     0.010 A 
ATOM     30  C   UNL A   1      35.132  32.716  31.162  1.00  0.00     0.010 A 
ATOM     31  C   UNL A   1      36.435  33.006  30.730  1.00  0.00    -0.014 A 
BRANCH  31  32
ATOM     32  C   UNL A   1      37.593  32.416  31.453  1.00  0.00     0.031 A 
ATOM     33  C   UNL A   1      38.355  31.270  30.842  1.00  0.00     0.074 A 
ATOM     34  C   UNL A   1      37.923  32.861  32.680  1.00  0.00     0.049 A 
ATOM     35  N   UNL A   1      39.320  30.547  31.352  1.00  0.00    -0.248 NA
ATOM     36  C   UNL A   1      37.958  30.865  29.484  1.00  0.00     0.031 C 
ATOM     37  C   UNL A   1      37.244  33.938  33.402  1.00  0.00     0.029 A 
ATOM     38  N   UNL A   1      38.908  32.452  33.545  1.00  0.00    -0.354 N 
ATOM     39  C   UNL A   1      39.619  29.585  30.394  1.00  0.00     0.074 A 
ATOM     40  C   UNL A   1      38.706  29.789  29.291  1.00  0.00     0.031 C 
ATOM     41  C   UNL A   1      37.843  34.117  34.590  1.00  0.00     0.029 A 
ATOM     42  C   UNL A   1      38.923  33.144  34.731  1.00  0.00     0.049 A 
ATOM     43  H   UNL A   1      39.543  31.730  33.334  1.00  0.00     0.167 HD
ATOM     44  C   UNL A   1      40.582  28.632  30.422  1.00  0.00     0.037 A 
ATOM     45  C   UNL A   1      39.714  33.005  35.812  1.00  0.00     0.037 A 
ATOM     46  C   UNL A   1      41.523  28.462  31.496  1.00  0.00     0.049 A 
ATOM     47  C   UNL A   1      40.793  31.956  35.807  1.00  0.00     0.074 A 
ATOM     48  C   UNL A   1      42.575  27.568  31.590  1.00  0.00     0.029 A 
ATOM     49  N   UNL A   1      41.529  29.210  32.664  1.00  0.00    -0.354 N 
ATOM     50  N   UNL A   1      41.097  31.085  34.876  1.00  0.00    -0.248 NA
ATOM     51  C   UNL A   1      41.643  31.875  37.004  1.00  0.00     0.031 C 
ATOM     52  C   UNL A   1      43.200  27.753  32.828  1.00  0.00     0.029 A 
ATOM     53  C   UNL A   1      42.560  28.790  33.489  1.00  0.00     0.049 A 
ATOM     54  H   UNL A   1      40.895  29.931  32.877  1.00  0.00     0.167 HD
ATOM     55  C   UNL A   1      42.186  30.373  35.361  1.00  0.00     0.074 A 
ATOM     56  C   UNL A   1      42.498  30.922  36.663  1.00  0.00     0.031 C 
ATOM     57  C   UNL A   1      42.866  29.356  34.777  1.00  0.00     0.037 A 
BRANCH  44  58
ATOM     58  C   UNL A   1      40.671  27.702  29.248  1.00  0.00     0.064 A 
ATOM     59  C   UNL A   1      39.813  26.600  29.116  1.00  0.00     0.173 A 
ATOM     60  C   UNL A   1      41.606  27.932  28.227  1.00  0.00     0.173 A 
ATOM     61  F   UNL A   1      38.910  26.329  30.070  1.00  0.00    -0.203 F 
ATOM     62  C   UNL A   1      39.907  25.745  28.020  1.00  0.00     0.198 A 
ATOM     63  C   UNL A   1      41.677  27.092  27.118  1.00  0.00     0.198 A 
ATOM     64  F   UNL A   1      42.446  28.975  28.301  1.00  0.00    -0.203 F 
ATOM     65  F   UNL A   1      39.110  24.671  27.940  1.00  0.00    -0.200 F 
ATOM     66  C   UNL A   1      40.834  25.996  27.020  1.00  0.00     0.200 A 
ATOM     67  F   UNL A   1      42.566  27.342  26.147  1.00  0.00    -0.200 F 
ATOM     68  F   UNL A   1      40.920  25.176  25.964  1.00  0.00    -0.200 F 
ENDBRANCH  44  58
BRANCH  45  69
ATOM     69  C   UNL A   1      39.536  33.905  36.980  1.00  0.00     0.064 A 
ATOM     70  C   UNL A   1      38.754  33.511  38.075  1.00  0.00     0.173 A 
ATOM     71  C   UNL A   1      40.136  35.170  37.026  1.00  0.00     0.173 A 
ATOM     72  F   UNL A   1      38.141  32.318  38.064  1.00  0.00    -0.203 F 
ATOM     73  C   UNL A   1      38.564  34.356  39.165  1.00  0.00     0.198 A 
ATOM     74  C   UNL A   1      39.966  36.005  38.129  1.00  0.00     0.198 A 
ATOM     75  F   UNL A   1      40.895  35.592  36.005  1.00  0.00    -0.203 F 
ATOM     76  F   UNL A   1      37.778  33.972  40.180  1.00  0.00    -0.200 F 
ATOM     77  C   UNL A   1      39.175  35.601  39.194  1.00  0.00     0.200 A 
ATOM     78  F   UNL A   1      40.566  37.204  38.158  1.00  0.00    -0.200 F 
ATOM     79  F   UNL A   1      38.995  36.413  40.244  1.00  0.00    -0.200 F 
ENDBRANCH  45  69
BRANCH  57  80
ATOM     80  C   UNL A   1      44.040  28.796  35.524  1.00  0.00     0.064 A 
ATOM     81  C   UNL A   1      43.895  27.733  36.428  1.00  0.00     0.173 A 
ATOM     82  C   UNL A   1      45.329  29.300  35.299  1.00  0.00     0.173 A 
ATOM     83  F   UNL A   1      42.680  27.227  36.685  1.00  0.00    -0.203 F 
ATOM     84  C   UNL A   1      44.999  27.211  37.096  1.00  0.00     0.198 A 
ATOM     85  C   UNL A   1      46.432  28.757  35.951  1.00  0.00     0.198 A 
ATOM     86  F   UNL A   1      45.520  30.312  34.440  1.00  0.00    -0.203 F 
ATOM     87  F   UNL A   1      44.832  26.222  37.987  1.00  0.00    -0.200 F 
ATOM     88  C   UNL A   1      46.266  27.717  36.853  1.00  0.00     0.200 A 
ATOM     89  F   UNL A   1      47.659  29.242  35.707  1.00  0.00    -0.200 F 
ATOM     90  F   UNL A   1      47.327  27.208  37.493  1.00  0.00    -0.200 F 
ENDBRANCH  57  80
ENDBRANCH  31  32
ENDBRANCH  23  26
ENDBRANCH  21  22
ENDBRANCH   1  21
TORSDOF 12
ENDMDL
