MODEL 1
REMARK VINA RESULT:     -11.0      0.000      0.000
REMARK SMILES O=C(NCCCNC(=O)c1cccc2c1ccn2Cc1ccncc1)c1ccc(-c2c3nc(c(-c4c(F)c(F)c(F)c(F)c4F)c4ccc([nH]4)c(-c4c(F)c(F)c(F)c(F)c4F)c4nc(c(-c5c(F)c(F)c(F)c(F)c5F)c5ccc2[nH]5)C=C4)C=C3)cc1
REMARK SMILES IDX 5 1 4 2 3 3 1 4 2 5 26 7 27 8 88 9 28 10 87 11 29 12 30 13
REMARK SMILES IDX 31 14 81 15 32 16 86 17 80 18 82 19 33 20 85 21 79 22 78 23
REMARK SMILES IDX 34 25 66 26 46 27 65 28 47 29 50 30 64 31 83 32 48 33 49 34
REMARK SMILES IDX 63 36 84 37 51 38 35 39 36 40 44 41 37 42 38 43 42 44 45 45
REMARK SMILES IDX 39 46 40 47 43 48 41 49 67 50 68 51 76 52 69 53 70 54 74 55
REMARK SMILES IDX 77 56 71 57 72 58 75 59 73 60 52 61 53 62 61 63 54 64 55 65
REMARK SMILES IDX 59 66 62 67 56 68 57 69 60 70 58 71 6 72 7 73 8 74 9 76
REMARK SMILES IDX 10 77 11 78 15 79 12 80 14 81 16 82 13 83 18 84 17 85 19 86
REMARK SMILES IDX 20 87 21 88 25 89 22 90 24 91 23 92
REMARK H PARENT 3 6 82 24 50 35 7 75
REMARK Flexibility Score: inf
ROOT
ATOM      1  C   UNL A   1      34.133  33.295  32.922  1.00  0.00     0.042 C 
ENDROOT
BRANCH   1   2
ATOM      2  C   UNL A   1      34.785  32.410  31.886  1.00  0.00     0.118 C 
BRANCH   2   3
ATOM      3  N   UNL A   1      34.751  32.940  30.510  1.00  0.00    -0.352 N 
ATOM      4  O   UNL A   1      35.680  33.444  28.483  1.00  0.00    -0.269 OA
ATOM      5  C   UNL A   1      35.662  32.723  29.487  1.00  0.00     0.251 C 
ATOM      6  H   UNL A   1      33.986  33.519  30.291  1.00  0.00     0.163 HD
BRANCH   5   7
ATOM      7  C   UNL A   1      36.609  31.606  29.614  1.00  0.00     0.039 A 
ATOM      8  C   UNL A   1      36.281  30.257  29.486  1.00  0.00     0.014 A 
ATOM      9  C   UNL A   1      37.929  31.973  29.785  1.00  0.00     0.014 A 
ATOM     10  C   UNL A   1      37.327  29.336  29.543  1.00  0.00     0.010 A 
ATOM     11  C   UNL A   1      38.878  31.152  29.281  1.00  0.00     0.010 A 
ATOM     12  C   UNL A   1      38.644  29.819  29.470  1.00  0.00    -0.014 A 
BRANCH  12  13
ATOM     13  C   UNL A   1      39.834  28.993  29.550  1.00  0.00     0.031 A 
ATOM     14  C   UNL A   1      40.145  28.582  30.927  1.00  0.00     0.074 A 
ATOM     15  C   UNL A   1      40.495  28.515  28.467  1.00  0.00     0.049 A 
ATOM     16  N   UNL A   1      41.082  29.052  31.673  1.00  0.00    -0.248 NA
ATOM     17  C   UNL A   1      39.187  27.713  31.624  1.00  0.00     0.031 C 
ATOM     18  C   UNL A   1      40.141  28.576  27.039  1.00  0.00     0.029 A 
ATOM     19  N   UNL A   1      41.657  27.806  28.439  1.00  0.00    -0.354 N 
ATOM     20  C   UNL A   1      40.964  28.388  32.883  1.00  0.00     0.074 A 
ATOM     21  C   UNL A   1      39.680  27.735  32.864  1.00  0.00     0.031 C 
ATOM     22  C   UNL A   1      40.951  27.761  26.324  1.00  0.00     0.029 A 
ATOM     23  C   UNL A   1      41.990  27.262  27.201  1.00  0.00     0.049 A 
ATOM     24  H   UNL A   1      42.222  27.685  29.238  1.00  0.00     0.167 HD
ATOM     25  C   UNL A   1      42.052  28.238  33.686  1.00  0.00     0.037 A 
ATOM     26  C   UNL A   1      43.051  26.457  26.938  1.00  0.00     0.037 A 
ATOM     27  C   UNL A   1      43.102  29.151  33.297  1.00  0.00     0.049 A 
ATOM     28  C   UNL A   1      44.033  26.682  28.032  1.00  0.00     0.074 A 
ATOM     29  C   UNL A   1      43.216  30.529  33.259  1.00  0.00     0.029 A 
ATOM     30  N   UNL A   1      44.082  28.672  32.462  1.00  0.00    -0.354 N 
ATOM     31  N   UNL A   1      44.667  27.808  28.213  1.00  0.00    -0.248 NA
ATOM     32  C   UNL A   1      43.930  25.824  29.202  1.00  0.00     0.031 C 
ATOM     33  C   UNL A   1      43.935  30.809  32.059  1.00  0.00     0.029 A 
ATOM     34  C   UNL A   1      44.291  29.596  31.468  1.00  0.00     0.049 A 
ATOM     35  H   UNL A   1      44.555  27.813  32.560  1.00  0.00     0.167 HD
ATOM     36  C   UNL A   1      44.664  27.998  29.588  1.00  0.00     0.074 A 
ATOM     37  C   UNL A   1      44.256  26.711  30.148  1.00  0.00     0.031 C 
ATOM     38  C   UNL A   1      44.704  29.253  30.123  1.00  0.00     0.037 A 
BRANCH  25  39
ATOM     39  C   UNL A   1      42.302  27.032  34.550  1.00  0.00     0.064 A 
ATOM     40  C   UNL A   1      41.947  27.086  35.911  1.00  0.00     0.173 A 
ATOM     41  C   UNL A   1      43.125  25.946  34.178  1.00  0.00     0.173 A 
ATOM     42  F   UNL A   1      41.185  28.086  36.380  1.00  0.00    -0.203 F 
ATOM     43  C   UNL A   1      42.439  26.165  36.838  1.00  0.00     0.198 A 
ATOM     44  C   UNL A   1      43.571  24.999  35.095  1.00  0.00     0.198 A 
ATOM     45  F   UNL A   1      43.625  25.815  32.945  1.00  0.00    -0.203 F 
ATOM     46  F   UNL A   1      42.175  26.328  38.141  1.00  0.00    -0.200 F 
ATOM     47  C   UNL A   1      43.255  25.125  36.430  1.00  0.00     0.200 A 
ATOM     48  F   UNL A   1      44.377  24.011  34.682  1.00  0.00    -0.200 F 
ATOM     49  F   UNL A   1      43.776  24.275  37.325  1.00  0.00    -0.200 F 
ENDBRANCH  25  39
BRANCH  26  50
ATOM     50  C   UNL A   1      43.104  25.249  26.073  1.00  0.00     0.064 A 
ATOM     51  C   UNL A   1      44.199  25.021  25.221  1.00  0.00     0.173 A 
ATOM     52  C   UNL A   1      42.253  24.150  26.300  1.00  0.00     0.173 A 
ATOM     53  F   UNL A   1      45.081  26.003  24.981  1.00  0.00    -0.203 F 
ATOM     54  C   UNL A   1      44.457  23.759  24.673  1.00  0.00     0.198 A 
ATOM     55  C   UNL A   1      42.508  22.891  25.749  1.00  0.00     0.198 A 
ATOM     56  F   UNL A   1      41.216  24.247  27.144  1.00  0.00    -0.203 F 
ATOM     57  F   UNL A   1      45.554  23.563  23.929  1.00  0.00    -0.200 F 
ATOM     58  C   UNL A   1      43.620  22.692  24.951  1.00  0.00     0.200 A 
ATOM     59  F   UNL A   1      41.713  21.857  26.057  1.00  0.00    -0.200 F 
ATOM     60  F   UNL A   1      43.907  21.465  24.492  1.00  0.00    -0.200 F 
ENDBRANCH  26  50
BRANCH  38  61
ATOM     61  C   UNL A   1      45.001  30.403  29.194  1.00  0.00     0.064 A 
ATOM     62  C   UNL A   1      44.018  31.187  28.559  1.00  0.00     0.173 A 
ATOM     63  C   UNL A   1      46.331  30.821  29.063  1.00  0.00     0.173 A 
ATOM     64  F   UNL A   1      42.717  30.910  28.701  1.00  0.00    -0.203 F 
ATOM     65  C   UNL A   1      44.360  32.315  27.812  1.00  0.00     0.198 A 
ATOM     66  C   UNL A   1      46.666  31.966  28.347  1.00  0.00     0.198 A 
ATOM     67  F   UNL A   1      47.309  30.142  29.683  1.00  0.00    -0.203 F 
ATOM     68  F   UNL A   1      43.403  33.043  27.215  1.00  0.00    -0.200 F 
ATOM     69  C   UNL A   1      45.683  32.709  27.715  1.00  0.00     0.200 A 
ATOM     70  F   UNL A   1      47.943  32.368  28.296  1.00  0.00    -0.200 F 
ATOM     71  F   UNL A   1      46.008  33.818  27.035  1.00  0.00    -0.200 F 
ENDBRANCH  38  61
ENDBRANCH  12  13
ENDBRANCH   5   7
ENDBRANCH   2   3
ENDBRANCH   1   2
BRANCH   1  72
ATOM     72  C   UNL A   1      35.091  34.354  33.461  1.00  0.00     0.118 C 
BRANCH  72  73
ATOM     73  N   UNL A   1      35.474  34.156  34.857  1.00  0.00    -0.352 N 
ATOM     74  C   UNL A   1      36.555  33.492  35.391  1.00  0.00     0.251 C 
ATOM     75  H   UNL A   1      34.867  34.561  35.516  1.00  0.00     0.163 HD
ATOM     76  O   UNL A   1      36.648  33.363  36.608  1.00  0.00    -0.269 OA
BRANCH  74  77
ATOM     77  C   UNL A   1      37.578  32.926  34.490  1.00  0.00     0.049 A 
ATOM     78  C   UNL A   1      37.407  31.650  33.935  1.00  0.00     0.014 A 
ATOM     79  C   UNL A   1      38.748  33.663  34.204  1.00  0.00     0.012 A 
ATOM     80  C   UNL A   1      38.440  31.042  33.236  1.00  0.00     0.003 A 
ATOM     81  C   UNL A   1      39.751  33.054  33.435  1.00  0.00     0.049 A 
ATOM     82  C   UNL A   1      39.219  34.958  34.555  1.00  0.00     0.029 A 
ATOM     83  C   UNL A   1      39.631  31.727  32.982  1.00  0.00     0.027 A 
ATOM     84  N   UNL A   1      40.755  33.992  33.269  1.00  0.00    -0.343 N 
ATOM     85  C   UNL A   1      40.475  35.108  34.019  1.00  0.00     0.087 A 
BRANCH  84  86
ATOM     86  C   UNL A   1      41.963  33.829  32.463  1.00  0.00     0.157 C 
BRANCH  86  87
ATOM     87  C   UNL A   1      41.820  34.420  31.079  1.00  0.00    -0.025 A 
ATOM     88  C   UNL A   1      40.595  34.393  30.399  1.00  0.00     0.025 A 
ATOM     89  C   UNL A   1      42.903  35.036  30.444  1.00  0.00     0.025 A 
ATOM     90  C   UNL A   1      40.511  34.953  29.134  1.00  0.00     0.111 A 
ATOM     91  C   UNL A   1      42.715  35.584  29.182  1.00  0.00     0.111 A 
ATOM     92  N   UNL A   1      41.544  35.556  28.513  1.00  0.00    -0.265 NA
ENDBRANCH  86  87
ENDBRANCH  84  86
ENDBRANCH  74  77
ENDBRANCH  72  73
ENDBRANCH   1  72
TORSDOF 12
ENDMDL
MODEL 2
REMARK VINA RESULT:     -11.0      4.579      7.336
REMARK SMILES O=C(NCCCNC(=O)c1cccc2c1ccn2Cc1ccncc1)c1ccc(-c2c3nc(c(-c4c(F)c(F)c(F)c(F)c4F)c4ccc([nH]4)c(-c4c(F)c(F)c(F)c(F)c4F)c4nc(c(-c5c(F)c(F)c(F)c(F)c5F)c5ccc2[nH]5)C=C4)C=C3)cc1
REMARK SMILES IDX 5 1 4 2 3 3 1 4 2 5 26 7 27 8 88 9 28 10 87 11 29 12 30 13
REMARK SMILES IDX 31 14 81 15 32 16 86 17 80 18 82 19 33 20 85 21 79 22 78 23
REMARK SMILES IDX 34 25 66 26 46 27 65 28 47 29 50 30 64 31 83 32 48 33 49 34
REMARK SMILES IDX 63 36 84 37 51 38 35 39 36 40 44 41 37 42 38 43 42 44 45 45
REMARK SMILES IDX 39 46 40 47 43 48 41 49 67 50 68 51 76 52 69 53 70 54 74 55
REMARK SMILES IDX 77 56 71 57 72 58 75 59 73 60 52 61 53 62 61 63 54 64 55 65
REMARK SMILES IDX 59 66 62 67 56 68 57 69 60 70 58 71 6 72 7 73 8 74 9 76
REMARK SMILES IDX 10 77 11 78 15 79 12 80 14 81 16 82 13 83 18 84 17 85 19 86
REMARK SMILES IDX 20 87 21 88 25 89 22 90 24 91 23 92
REMARK H PARENT 3 6 82 24 50 35 7 75
REMARK Flexibility Score: inf
ROOT
ATOM      1  C   UNL A   1      33.920  28.978  26.221  1.00  0.00     0.042 C 
ENDROOT
BRANCH   1   2
ATOM      2  C   UNL A   1      34.431  29.666  27.465  1.00  0.00     0.118 C 
BRANCH   2   3
ATOM      3  N   UNL A   1      34.501  31.136  27.375  1.00  0.00    -0.352 N 
ATOM      4  O   UNL A   1      35.289  33.193  27.989  1.00  0.00    -0.269 OA
ATOM      5  C   UNL A   1      35.484  31.978  27.874  1.00  0.00     0.251 C 
ATOM      6  H   UNL A   1      33.758  31.574  26.903  1.00  0.00     0.163 HD
BRANCH   5   7
ATOM      7  C   UNL A   1      36.778  31.396  28.258  1.00  0.00     0.039 A 
ATOM      8  C   UNL A   1      37.616  31.891  29.256  1.00  0.00     0.014 A 
ATOM      9  C   UNL A   1      37.106  30.219  27.615  1.00  0.00     0.014 A 
ATOM     10  C   UNL A   1      38.764  31.156  29.552  1.00  0.00     0.010 A 
ATOM     11  C   UNL A   1      37.853  29.321  28.296  1.00  0.00     0.010 A 
ATOM     12  C   UNL A   1      38.878  29.858  29.024  1.00  0.00    -0.014 A 
BRANCH  12  13
ATOM     13  C   UNL A   1      40.021  28.986  29.212  1.00  0.00     0.031 A 
ATOM     14  C   UNL A   1      40.315  28.736  30.630  1.00  0.00     0.074 A 
ATOM     15  C   UNL A   1      40.650  28.339  28.200  1.00  0.00     0.049 A 
ATOM     16  N   UNL A   1      41.280  29.244  31.313  1.00  0.00    -0.248 NA
ATOM     17  C   UNL A   1      39.314  28.017  31.430  1.00  0.00     0.031 C 
ATOM     18  C   UNL A   1      40.293  28.237  26.775  1.00  0.00     0.029 A 
ATOM     19  N   UNL A   1      41.771  27.569  28.265  1.00  0.00    -0.354 N 
ATOM     20  C   UNL A   1      41.130  28.747  32.597  1.00  0.00     0.074 A 
ATOM     21  C   UNL A   1      39.813  28.168  32.658  1.00  0.00     0.031 C 
ATOM     22  C   UNL A   1      41.054  27.295  26.170  1.00  0.00     0.029 A 
ATOM     23  C   UNL A   1      42.068  26.855  27.106  1.00  0.00     0.049 A 
ATOM     24  H   UNL A   1      42.332  27.519  29.074  1.00  0.00     0.167 HD
ATOM     25  C   UNL A   1      42.212  28.641  33.415  1.00  0.00     0.037 A 
ATOM     26  C   UNL A   1      43.082  25.966  26.950  1.00  0.00     0.037 A 
ATOM     27  C   UNL A   1      43.309  29.438  32.916  1.00  0.00     0.049 A 
ATOM     28  C   UNL A   1      44.080  26.274  28.010  1.00  0.00     0.074 A 
ATOM     29  C   UNL A   1      43.498  30.791  32.704  1.00  0.00     0.029 A 
ATOM     30  N   UNL A   1      44.258  28.804  32.151  1.00  0.00    -0.354 N 
ATOM     31  N   UNL A   1      44.775  27.376  28.048  1.00  0.00    -0.248 NA
ATOM     32  C   UNL A   1      43.936  25.578  29.279  1.00  0.00     0.031 C 
ATOM     33  C   UNL A   1      44.226  30.877  31.479  1.00  0.00     0.029 A 
ATOM     34  C   UNL A   1      44.513  29.581  31.049  1.00  0.00     0.049 A 
ATOM     35  H   UNL A   1      44.683  27.940  32.359  1.00  0.00     0.167 HD
ATOM     36  C   UNL A   1      44.789  27.740  29.387  1.00  0.00     0.074 A 
ATOM     37  C   UNL A   1      44.313  26.558  30.105  1.00  0.00     0.031 C 
ATOM     38  C   UNL A   1      44.900  29.048  29.759  1.00  0.00     0.037 A 
BRANCH  25  39
ATOM     39  C   UNL A   1      42.400  27.542  34.426  1.00  0.00     0.064 A 
ATOM     40  C   UNL A   1      42.950  26.318  34.004  1.00  0.00     0.173 A 
ATOM     41  C   UNL A   1      41.808  27.534  35.708  1.00  0.00     0.173 A 
ATOM     42  F   UNL A   1      43.520  26.204  32.795  1.00  0.00    -0.203 F 
ATOM     43  C   UNL A   1      42.849  25.159  34.777  1.00  0.00     0.198 A 
ATOM     44  C   UNL A   1      41.756  26.390  36.499  1.00  0.00     0.198 A 
ATOM     45  F   UNL A   1      41.157  28.592  36.205  1.00  0.00    -0.203 F 
ATOM     46  F   UNL A   1      43.278  23.990  34.281  1.00  0.00    -0.200 F 
ATOM     47  C   UNL A   1      42.248  25.195  36.022  1.00  0.00     0.200 A 
ATOM     48  F   UNL A   1      41.150  26.442  37.693  1.00  0.00    -0.200 F 
ATOM     49  F   UNL A   1      42.097  24.074  36.740  1.00  0.00    -0.200 F 
ENDBRANCH  25  39
BRANCH  26  50
ATOM     50  C   UNL A   1      43.065  24.657  26.246  1.00  0.00     0.064 A 
ATOM     51  C   UNL A   1      43.988  24.378  25.222  1.00  0.00     0.173 A 
ATOM     52  C   UNL A   1      42.368  23.552  26.773  1.00  0.00     0.173 A 
ATOM     53  F   UNL A   1      44.721  25.366  24.689  1.00  0.00    -0.203 F 
ATOM     54  C   UNL A   1      44.237  23.070  24.790  1.00  0.00     0.198 A 
ATOM     55  C   UNL A   1      42.614  22.247  26.338  1.00  0.00     0.198 A 
ATOM     56  F   UNL A   1      41.512  23.704  27.794  1.00  0.00    -0.203 F 
ATOM     57  F   UNL A   1      45.181  22.837  23.867  1.00  0.00    -0.200 F 
ATOM     58  C   UNL A   1      43.562  22.004  25.361  1.00  0.00     0.200 A 
ATOM     59  F   UNL A   1      41.984  21.220  26.926  1.00  0.00    -0.200 F 
ATOM     60  F   UNL A   1      43.854  20.746  25.004  1.00  0.00    -0.200 F 
ENDBRANCH  26  50
BRANCH  38  61
ATOM     61  C   UNL A   1      45.255  30.053  28.692  1.00  0.00     0.064 A 
ATOM     62  C   UNL A   1      44.315  30.724  27.886  1.00  0.00     0.173 A 
ATOM     63  C   UNL A   1      46.590  30.463  28.589  1.00  0.00     0.173 A 
ATOM     64  F   UNL A   1      43.008  30.454  27.982  1.00  0.00    -0.203 F 
ATOM     65  C   UNL A   1      44.703  31.734  27.005  1.00  0.00     0.198 A 
ATOM     66  C   UNL A   1      46.969  31.495  27.735  1.00  0.00     0.198 A 
ATOM     67  F   UNL A   1      47.526  29.895  29.365  1.00  0.00    -0.203 F 
ATOM     68  F   UNL A   1      43.786  32.354  26.246  1.00  0.00    -0.200 F 
ATOM     69  C   UNL A   1      46.028  32.125  26.938  1.00  0.00     0.200 A 
ATOM     70  F   UNL A   1      48.246  31.901  27.709  1.00  0.00    -0.200 F 
ATOM     71  F   UNL A   1      46.396  33.127  26.125  1.00  0.00    -0.200 F 
ENDBRANCH  38  61
ENDBRANCH  12  13
ENDBRANCH   5   7
ENDBRANCH   2   3
ENDBRANCH   1   2
BRANCH   1  72
ATOM     72  C   UNL A   1      33.661  27.492  26.449  1.00  0.00     0.118 C 
BRANCH  72  73
ATOM     73  N   UNL A   1      34.049  26.640  25.327  1.00  0.00    -0.352 N 
ATOM     74  C   UNL A   1      33.267  25.980  24.407  1.00  0.00     0.251 C 
ATOM     75  H   UNL A   1      35.019  26.520  25.212  1.00  0.00     0.163 HD
ATOM     76  O   UNL A   1      33.793  25.234  23.586  1.00  0.00    -0.269 OA
BRANCH  74  77
ATOM     77  C   UNL A   1      31.803  26.165  24.431  1.00  0.00     0.049 A 
ATOM     78  C   UNL A   1      30.991  25.293  25.171  1.00  0.00     0.014 A 
ATOM     79  C   UNL A   1      31.213  27.208  23.686  1.00  0.00     0.012 A 
ATOM     80  C   UNL A   1      29.609  25.350  25.056  1.00  0.00     0.003 A 
ATOM     81  C   UNL A   1      29.813  27.290  23.641  1.00  0.00     0.049 A 
ATOM     82  C   UNL A   1      31.720  28.263  22.878  1.00  0.00     0.029 A 
ATOM     83  C   UNL A   1      28.997  26.341  24.283  1.00  0.00     0.027 A 
ATOM     84  N   UNL A   1      29.500  28.410  22.890  1.00  0.00    -0.343 N 
ATOM     85  C   UNL A   1      30.647  28.945  22.356  1.00  0.00     0.087 A 
BRANCH  84  86
ATOM     86  C   UNL A   1      28.160  28.938  22.648  1.00  0.00     0.157 C 
BRANCH  86  87
ATOM     87  C   UNL A   1      28.163  30.426  22.382  1.00  0.00    -0.025 A 
ATOM     88  C   UNL A   1      28.349  31.350  23.418  1.00  0.00     0.025 A 
ATOM     89  C   UNL A   1      28.004  30.926  21.085  1.00  0.00     0.025 A 
ATOM     90  C   UNL A   1      28.350  32.705  23.125  1.00  0.00     0.111 A 
ATOM     91  C   UNL A   1      28.036  32.301  20.889  1.00  0.00     0.111 A 
ATOM     92  N   UNL A   1      28.205  33.200  21.880  1.00  0.00    -0.265 NA
ENDBRANCH  86  87
ENDBRANCH  84  86
ENDBRANCH  74  77
ENDBRANCH  72  73
ENDBRANCH   1  72
TORSDOF 12
ENDMDL
MODEL 3
REMARK VINA RESULT:     -10.9      3.680     10.793
REMARK SMILES O=C(NCCCNC(=O)c1cccc2c1ccn2Cc1ccncc1)c1ccc(-c2c3nc(c(-c4c(F)c(F)c(F)c(F)c4F)c4ccc([nH]4)c(-c4c(F)c(F)c(F)c(F)c4F)c4nc(c(-c5c(F)c(F)c(F)c(F)c5F)c5ccc2[nH]5)C=C4)C=C3)cc1
REMARK SMILES IDX 5 1 4 2 3 3 1 4 2 5 26 7 27 8 88 9 28 10 87 11 29 12 30 13
REMARK SMILES IDX 31 14 81 15 32 16 86 17 80 18 82 19 33 20 85 21 79 22 78 23
REMARK SMILES IDX 34 25 66 26 46 27 65 28 47 29 50 30 64 31 83 32 48 33 49 34
REMARK SMILES IDX 63 36 84 37 51 38 35 39 36 40 44 41 37 42 38 43 42 44 45 45
REMARK SMILES IDX 39 46 40 47 43 48 41 49 67 50 68 51 76 52 69 53 70 54 74 55
REMARK SMILES IDX 77 56 71 57 72 58 75 59 73 60 52 61 53 62 61 63 54 64 55 65
REMARK SMILES IDX 59 66 62 67 56 68 57 69 60 70 58 71 6 72 7 73 8 74 9 76
REMARK SMILES IDX 10 77 11 78 15 79 12 80 14 81 16 82 13 83 18 84 17 85 19 86
REMARK SMILES IDX 20 87 21 88 25 89 22 90 24 91 23 92
REMARK H PARENT 3 6 82 24 50 35 7 75
REMARK Flexibility Score: inf
ROOT
ATOM      1  C   UNL A   1      44.189  22.739  24.133  1.00  0.00     0.042 C 
ENDROOT
BRANCH   1   2
ATOM      2  C   UNL A   1      43.169  23.439  24.999  1.00  0.00     0.118 C 
BRANCH   2   3
ATOM      3  N   UNL A   1      42.455  22.563  25.947  1.00  0.00    -0.352 N 
ATOM      4  O   UNL A   1      41.484  22.079  27.959  1.00  0.00    -0.269 OA
ATOM      5  C   UNL A   1      41.788  22.923  27.109  1.00  0.00     0.251 C 
ATOM      6  H   UNL A   1      42.452  21.604  25.727  1.00  0.00     0.163 HD
BRANCH   5   7
ATOM      7  C   UNL A   1      41.440  24.336  27.310  1.00  0.00     0.039 A 
ATOM      8  C   UNL A   1      40.325  24.973  26.767  1.00  0.00     0.014 A 
ATOM      9  C   UNL A   1      42.260  25.024  28.182  1.00  0.00     0.014 A 
ATOM     10  C   UNL A   1      40.098  26.298  27.141  1.00  0.00     0.010 A 
ATOM     11  C   UNL A   1      41.706  26.024  28.906  1.00  0.00     0.010 A 
ATOM     12  C   UNL A   1      40.838  26.822  28.214  1.00  0.00    -0.014 A 
BRANCH  12  13
ATOM     13  C   UNL A   1      40.742  28.186  28.697  1.00  0.00     0.031 A 
ATOM     14  C   UNL A   1      41.805  29.051  28.165  1.00  0.00     0.074 A 
ATOM     15  C   UNL A   1      39.700  28.656  29.426  1.00  0.00     0.049 A 
ATOM     16  N   UNL A   1      42.839  29.475  28.803  1.00  0.00    -0.248 NA
ATOM     17  C   UNL A   1      41.838  29.298  26.717  1.00  0.00     0.031 C 
ATOM     18  C   UNL A   1      38.423  28.012  29.777  1.00  0.00     0.029 A 
ATOM     19  N   UNL A   1      39.558  29.888  29.989  1.00  0.00    -0.354 N 
ATOM     20  C   UNL A   1      43.563  30.220  27.887  1.00  0.00     0.074 A 
ATOM     21  C   UNL A   1      43.014  29.915  26.591  1.00  0.00     0.031 C 
ATOM     22  C   UNL A   1      37.572  28.923  30.305  1.00  0.00     0.029 A 
ATOM     23  C   UNL A   1      38.291  30.165  30.498  1.00  0.00     0.049 A 
ATOM     24  H   UNL A   1      40.298  30.537  30.033  1.00  0.00     0.167 HD
ATOM     25  C   UNL A   1      44.387  31.212  28.318  1.00  0.00     0.037 A 
ATOM     26  C   UNL A   1      37.883  31.343  31.035  1.00  0.00     0.037 A 
ATOM     27  C   UNL A   1      44.660  31.072  29.730  1.00  0.00     0.049 A 
ATOM     28  C   UNL A   1      39.115  32.069  31.445  1.00  0.00     0.074 A 
ATOM     29  C   UNL A   1      45.282  30.107  30.500  1.00  0.00     0.029 A 
ATOM     30  N   UNL A   1      43.890  31.805  30.601  1.00  0.00    -0.354 N 
ATOM     31  N   UNL A   1      39.905  31.669  32.402  1.00  0.00    -0.248 NA
ATOM     32  C   UNL A   1      39.717  32.958  30.464  1.00  0.00     0.031 C 
ATOM     33  C   UNL A   1      44.498  30.017  31.689  1.00  0.00     0.029 A 
ATOM     34  C   UNL A   1      43.490  30.980  31.622  1.00  0.00     0.049 A 
ATOM     35  H   UNL A   1      43.665  32.759  30.508  1.00  0.00     0.167 HD
ATOM     36  C   UNL A   1      41.187  31.893  31.919  1.00  0.00     0.074 A 
ATOM     37  C   UNL A   1      41.006  32.751  30.749  1.00  0.00     0.031 C 
ATOM     38  C   UNL A   1      42.238  31.127  32.334  1.00  0.00     0.037 A 
BRANCH  25  39
ATOM     39  C   UNL A   1      44.628  32.495  27.568  1.00  0.00     0.064 A 
ATOM     40  C   UNL A   1      45.810  32.631  26.817  1.00  0.00     0.173 A 
ATOM     41  C   UNL A   1      43.900  33.686  27.780  1.00  0.00     0.173 A 
ATOM     42  F   UNL A   1      46.591  31.568  26.572  1.00  0.00    -0.203 F 
ATOM     43  C   UNL A   1      46.265  33.876  26.378  1.00  0.00     0.198 A 
ATOM     44  C   UNL A   1      44.328  34.919  27.294  1.00  0.00     0.198 A 
ATOM     45  F   UNL A   1      42.811  33.734  28.555  1.00  0.00    -0.203 F 
ATOM     46  F   UNL A   1      47.457  33.973  25.775  1.00  0.00    -0.200 F 
ATOM     47  C   UNL A   1      45.526  35.019  26.621  1.00  0.00     0.200 A 
ATOM     48  F   UNL A   1      43.607  36.016  27.559  1.00  0.00    -0.200 F 
ATOM     49  F   UNL A   1      45.987  36.222  26.252  1.00  0.00    -0.200 F 
ENDBRANCH  25  39
BRANCH  26  50
ATOM     50  C   UNL A   1      36.585  32.042  30.852  1.00  0.00     0.064 A 
ATOM     51  C   UNL A   1      35.753  32.316  31.952  1.00  0.00     0.173 A 
ATOM     52  C   UNL A   1      36.288  32.734  29.661  1.00  0.00     0.173 A 
ATOM     53  F   UNL A   1      35.987  31.730  33.136  1.00  0.00    -0.203 F 
ATOM     54  C   UNL A   1      34.722  33.261  31.881  1.00  0.00     0.198 A 
ATOM     55  C   UNL A   1      35.257  33.674  29.589  1.00  0.00     0.198 A 
ATOM     56  F   UNL A   1      37.059  32.590  28.574  1.00  0.00    -0.203 F 
ATOM     57  F   UNL A   1      34.002  33.551  32.973  1.00  0.00    -0.200 F 
ATOM     58  C   UNL A   1      34.487  33.951  30.704  1.00  0.00     0.200 A 
ATOM     59  F   UNL A   1      35.065  34.364  28.456  1.00  0.00    -0.200 F 
ATOM     60  F   UNL A   1      33.553  34.912  30.655  1.00  0.00    -0.200 F 
ENDBRANCH  26  50
BRANCH  38  61
ATOM     61  C   UNL A   1      42.013  30.204  33.506  1.00  0.00     0.064 A 
ATOM     62  C   UNL A   1      41.622  28.856  33.393  1.00  0.00     0.173 A 
ATOM     63  C   UNL A   1      42.358  30.663  34.783  1.00  0.00     0.173 A 
ATOM     64  F   UNL A   1      41.358  28.312  32.200  1.00  0.00    -0.203 F 
ATOM     65  C   UNL A   1      41.555  28.023  34.511  1.00  0.00     0.198 A 
ATOM     66  C   UNL A   1      42.324  29.821  35.891  1.00  0.00     0.198 A 
ATOM     67  F   UNL A   1      42.784  31.924  34.949  1.00  0.00    -0.203 F 
ATOM     68  F   UNL A   1      41.175  26.743  34.376  1.00  0.00    -0.200 F 
ATOM     69  C   UNL A   1      41.916  28.504  35.757  1.00  0.00     0.200 A 
ATOM     70  F   UNL A   1      42.720  30.279  37.087  1.00  0.00    -0.200 F 
ATOM     71  F   UNL A   1      41.896  27.693  36.825  1.00  0.00    -0.200 F 
ENDBRANCH  38  61
ENDBRANCH  12  13
ENDBRANCH   5   7
ENDBRANCH   2   3
ENDBRANCH   1   2
BRANCH   1  72
ATOM     72  C   UNL A   1      45.538  22.596  24.832  1.00  0.00     0.118 C 
BRANCH  72  73
ATOM     73  N   UNL A   1      46.618  23.353  24.204  1.00  0.00    -0.352 N 
ATOM     74  C   UNL A   1      47.044  24.642  24.434  1.00  0.00     0.251 C 
ATOM     75  H   UNL A   1      47.119  22.867  23.511  1.00  0.00     0.163 HD
ATOM     76  O   UNL A   1      47.923  25.126  23.727  1.00  0.00    -0.269 OA
BRANCH  74  77
ATOM     77  C   UNL A   1      46.423  25.431  25.516  1.00  0.00     0.049 A 
ATOM     78  C   UNL A   1      45.251  26.162  25.277  1.00  0.00     0.014 A 
ATOM     79  C   UNL A   1      47.026  25.470  26.791  1.00  0.00     0.012 A 
ATOM     80  C   UNL A   1      44.764  27.044  26.232  1.00  0.00     0.003 A 
ATOM     81  C   UNL A   1      46.474  26.316  27.766  1.00  0.00     0.049 A 
ATOM     82  C   UNL A   1      48.161  24.845  27.376  1.00  0.00     0.029 A 
ATOM     83  C   UNL A   1      45.371  27.143  27.487  1.00  0.00     0.027 A 
ATOM     84  N   UNL A   1      47.216  26.137  28.920  1.00  0.00    -0.343 N 
ATOM     85  C   UNL A   1      48.288  25.317  28.659  1.00  0.00     0.087 A 
BRANCH  84  86
ATOM     86  C   UNL A   1      46.951  26.749  30.220  1.00  0.00     0.157 C 
BRANCH  86  87
ATOM     87  C   UNL A   1      46.058  25.895  31.091  1.00  0.00    -0.025 A 
ATOM     88  C   UNL A   1      45.165  24.971  30.534  1.00  0.00     0.025 A 
ATOM     89  C   UNL A   1      46.116  25.985  32.486  1.00  0.00     0.025 A 
ATOM     90  C   UNL A   1      44.370  24.207  31.373  1.00  0.00     0.111 A 
ATOM     91  C   UNL A   1      45.291  25.163  33.244  1.00  0.00     0.111 A 
ATOM     92  N   UNL A   1      44.420  24.277  32.718  1.00  0.00    -0.265 NA
ENDBRANCH  86  87
ENDBRANCH  84  86
ENDBRANCH  74  77
ENDBRANCH  72  73
ENDBRANCH   1  72
TORSDOF 12
ENDMDL
