MODEL 1
REMARK VINA RESULT:     -13.4      0.000      0.000
REMARK SMILES O=C(NCCCNC(=O)c1c(/C=C2/SC(=S)N=C2O)cnc2ccccc12)c1ccc(-c2c3nc(c(-c4c(F)c(F)c(F)c(F)c4F)c4ccc([nH]4)c(-c4c(F)c(F)c(F)c(F)c4F)c4nc(c(-c5c(F)c(F)c(F)c(F)c5F)c5ccc2[nH]5)C=C4)C=C3)cc1
REMARK SMILES IDX 5 1 4 2 3 3 1 4 2 5 28 7 29 8 90 9 30 10 89 11 31 12 32 13
REMARK SMILES IDX 33 14 83 15 34 16 88 17 82 18 84 19 35 20 87 21 81 22 80 23
REMARK SMILES IDX 36 25 68 26 48 27 67 28 49 29 52 30 66 31 85 32 50 33 51 34
REMARK SMILES IDX 65 36 86 37 53 38 37 39 38 40 46 41 39 42 40 43 44 44 47 45
REMARK SMILES IDX 41 46 42 47 45 48 43 49 69 50 70 51 78 52 71 53 72 54 76 55
REMARK SMILES IDX 79 56 73 57 74 58 77 59 75 60 54 61 55 62 63 63 56 64 57 65
REMARK SMILES IDX 61 66 64 67 58 68 59 69 62 70 60 71 6 72 7 73 8 74 9 76
REMARK SMILES IDX 10 77 11 78 27 79 20 80 22 81 26 82 21 83 23 84 25 85 24 86
REMARK SMILES IDX 12 87 13 88 14 89 18 90 15 91 17 92 16 93 19 94
REMARK H PARENT 3 6 84 24 52 35 7 75 19 95
REMARK Flexibility Score: inf
ROOT
ATOM      1  C   UNL A   1      31.498  31.550  26.521  1.00  0.00     0.042 C 
ENDROOT
BRANCH   1   2
ATOM      2  C   UNL A   1      32.759  32.295  26.926  1.00  0.00     0.118 C 
BRANCH   2   3
ATOM      3  N   UNL A   1      32.502  33.640  27.427  1.00  0.00    -0.352 N 
ATOM      4  O   UNL A   1      32.582  35.437  28.775  1.00  0.00    -0.269 OA
ATOM      5  C   UNL A   1      33.085  34.369  28.436  1.00  0.00     0.251 C 
ATOM      6  H   UNL A   1      31.778  34.113  26.955  1.00  0.00     0.163 HD
BRANCH   5   7
ATOM      7  C   UNL A   1      34.285  33.869  29.142  1.00  0.00     0.039 A 
ATOM      8  C   UNL A   1      35.546  34.391  28.871  1.00  0.00     0.014 A 
ATOM      9  C   UNL A   1      34.146  32.874  30.116  1.00  0.00     0.014 A 
ATOM     10  C   UNL A   1      36.674  33.778  29.395  1.00  0.00     0.010 A 
ATOM     11  C   UNL A   1      35.280  32.349  30.750  1.00  0.00     0.010 A 
ATOM     12  C   UNL A   1      36.560  32.763  30.359  1.00  0.00    -0.014 A 
BRANCH  12  13
ATOM     13  C   UNL A   1      37.805  32.218  30.962  1.00  0.00     0.031 A 
ATOM     14  C   UNL A   1      38.236  32.597  32.352  1.00  0.00     0.074 A 
ATOM     15  C   UNL A   1      38.500  31.296  30.266  1.00  0.00     0.049 A 
ATOM     16  N   UNL A   1      39.244  32.139  33.053  1.00  0.00    -0.248 NA
ATOM     17  C   UNL A   1      37.450  33.629  33.043  1.00  0.00     0.031 C 
ATOM     18  C   UNL A   1      38.191  30.869  28.899  1.00  0.00     0.029 A 
ATOM     19  N   UNL A   1      39.575  30.521  30.619  1.00  0.00    -0.354 N 
ATOM     20  C   UNL A   1      39.221  32.832  34.255  1.00  0.00     0.074 A 
ATOM     21  C   UNL A   1      38.119  33.767  34.181  1.00  0.00     0.031 C 
ATOM     22  C   UNL A   1      39.000  29.856  28.560  1.00  0.00     0.029 A 
ATOM     23  C   UNL A   1      39.931  29.610  29.654  1.00  0.00     0.049 A 
ATOM     24  H   UNL A   1      40.045  30.609  31.479  1.00  0.00     0.167 HD
ATOM     25  C   UNL A   1      40.039  32.691  35.327  1.00  0.00     0.037 A 
ATOM     26  C   UNL A   1      40.903  28.680  29.645  1.00  0.00     0.037 A 
ATOM     27  C   UNL A   1      41.125  31.747  35.403  1.00  0.00     0.049 A 
ATOM     28  C   UNL A   1      41.780  28.538  30.853  1.00  0.00     0.074 A 
ATOM     29  C   UNL A   1      42.011  31.530  36.445  1.00  0.00     0.029 A 
ATOM     30  N   UNL A   1      41.469  30.858  34.396  1.00  0.00    -0.354 N 
ATOM     31  N   UNL A   1      41.739  29.197  31.986  1.00  0.00    -0.248 NA
ATOM     32  C   UNL A   1      42.841  27.525  30.782  1.00  0.00     0.031 C 
ATOM     33  C   UNL A   1      42.910  30.531  36.057  1.00  0.00     0.029 A 
ATOM     34  C   UNL A   1      42.559  30.095  34.790  1.00  0.00     0.049 A 
ATOM     35  H   UNL A   1      41.008  30.778  33.531  1.00  0.00     0.167 HD
ATOM     36  C   UNL A   1      42.766  28.682  32.760  1.00  0.00     0.074 A 
ATOM     37  C   UNL A   1      43.387  27.629  31.985  1.00  0.00     0.031 C 
ATOM     38  C   UNL A   1      43.168  29.058  33.999  1.00  0.00     0.037 A 
BRANCH  25  39
ATOM     39  C   UNL A   1      39.797  33.583  36.511  1.00  0.00     0.064 A 
ATOM     40  C   UNL A   1      40.377  34.857  36.602  1.00  0.00     0.173 A 
ATOM     41  C   UNL A   1      38.928  33.184  37.539  1.00  0.00     0.173 A 
ATOM     42  F   UNL A   1      41.225  35.281  35.653  1.00  0.00    -0.203 F 
ATOM     43  C   UNL A   1      40.108  35.692  37.684  1.00  0.00     0.198 A 
ATOM     44  C   UNL A   1      38.643  34.030  38.607  1.00  0.00     0.198 A 
ATOM     45  F   UNL A   1      38.342  31.978  37.498  1.00  0.00    -0.203 F 
ATOM     46  F   UNL A   1      40.702  36.891  37.766  1.00  0.00    -0.200 F 
ATOM     47  C   UNL A   1      39.236  35.282  38.681  1.00  0.00     0.200 A 
ATOM     48  F   UNL A   1      37.791  33.637  39.564  1.00  0.00    -0.200 F 
ATOM     49  F   UNL A   1      38.972  36.091  39.716  1.00  0.00    -0.200 F 
ENDBRANCH  25  39
BRANCH  26  50
ATOM     50  C   UNL A   1      41.095  27.827  28.445  1.00  0.00     0.064 A 
ATOM     51  C   UNL A   1      40.447  26.591  28.320  1.00  0.00     0.173 A 
ATOM     52  C   UNL A   1      41.921  28.241  27.389  1.00  0.00     0.173 A 
ATOM     53  F   UNL A   1      39.660  26.144  29.310  1.00  0.00    -0.203 F 
ATOM     54  C   UNL A   1      40.630  25.794  27.192  1.00  0.00     0.198 A 
ATOM     55  C   UNL A   1      42.078  27.458  26.248  1.00  0.00     0.198 A 
ATOM     56  F   UNL A   1      42.559  29.418  27.457  1.00  0.00    -0.203 F 
ATOM     57  F   UNL A   1      40.034  24.597  27.116  1.00  0.00    -0.200 F 
ATOM     58  C   UNL A   1      41.439  26.232  26.153  1.00  0.00     0.200 A 
ATOM     59  F   UNL A   1      42.845  27.895  25.240  1.00  0.00    -0.200 F 
ATOM     60  F   UNL A   1      41.609  25.469  25.065  1.00  0.00    -0.200 F 
ENDBRANCH  26  50
BRANCH  38  61
ATOM     61  C   UNL A   1      44.333  28.316  34.582  1.00  0.00     0.064 A 
ATOM     62  C   UNL A   1      45.649  28.770  34.408  1.00  0.00     0.173 A 
ATOM     63  C   UNL A   1      44.132  27.145  35.326  1.00  0.00     0.173 A 
ATOM     64  F   UNL A   1      45.891  29.877  33.690  1.00  0.00    -0.203 F 
ATOM     65  C   UNL A   1      46.725  28.058  34.930  1.00  0.00     0.198 A 
ATOM     66  C   UNL A   1      45.210  26.450  35.869  1.00  0.00     0.198 A 
ATOM     67  F   UNL A   1      42.893  26.673  35.524  1.00  0.00    -0.203 F 
ATOM     68  F   UNL A   1      47.977  28.480  34.704  1.00  0.00    -0.200 F 
ATOM     69  C   UNL A   1      46.504  26.902  35.663  1.00  0.00     0.200 A 
ATOM     70  F   UNL A   1      44.995  25.338  36.585  1.00  0.00    -0.200 F 
ATOM     71  F   UNL A   1      47.542  26.216  36.162  1.00  0.00    -0.200 F 
ENDBRANCH  38  61
ENDBRANCH  12  13
ENDBRANCH   5   7
ENDBRANCH   2   3
ENDBRANCH   1   2
BRANCH   1  72
ATOM     72  C   UNL A   1      31.715  30.080  26.208  1.00  0.00     0.118 C 
BRANCH  72  73
ATOM     73  N   UNL A   1      32.552  29.858  25.036  1.00  0.00    -0.352 N 
ATOM     74  C   UNL A   1      32.290  29.086  23.936  1.00  0.00     0.252 C 
ATOM     75  H   UNL A   1      33.419  30.323  25.033  1.00  0.00     0.163 HD
ATOM     76  O   UNL A   1      33.026  29.068  22.955  1.00  0.00    -0.269 OA
BRANCH  74  77
ATOM     77  C   UNL A   1      31.134  28.211  23.922  1.00  0.00     0.058 A 
ATOM     78  C   UNL A   1      31.267  26.884  24.342  1.00  0.00     0.007 A 
ATOM     79  C   UNL A   1      29.908  28.775  23.450  1.00  0.00     0.014 A 
ATOM     80  C   UNL A   1      30.070  26.169  24.245  1.00  0.00     0.120 A 
ATOM     81  C   UNL A   1      28.786  27.938  23.475  1.00  0.00     0.071 A 
ATOM     82  C   UNL A   1      29.742  30.115  22.997  1.00  0.00     0.011 A 
ATOM     83  N   UNL A   1      28.868  26.658  23.848  1.00  0.00    -0.256 NA
ATOM     84  C   UNL A   1      27.547  28.458  23.123  1.00  0.00     0.029 A 
ATOM     85  C   UNL A   1      28.489  30.620  22.661  1.00  0.00     0.001 A 
ATOM     86  C   UNL A   1      27.384  29.790  22.735  1.00  0.00     0.002 A 
BRANCH  78  87
ATOM     87  C   UNL A   1      32.409  26.134  24.955  1.00  0.00     0.031 C 
ATOM     88  C   UNL A   1      32.711  25.084  25.748  1.00  0.00     0.077 C 
ATOM     89  S   UNL A   1      34.410  24.552  25.711  1.00  0.00    -0.053 SA
ATOM     90  C   UNL A   1      32.072  24.026  26.569  1.00  0.00     0.227 C 
ATOM     91  C   UNL A   1      33.959  22.944  26.301  1.00  0.00     0.168 C 
ATOM     92  N   UNL A   1      32.687  22.912  26.809  1.00  0.00    -0.194 NA
ATOM     93  S   UNL A   1      35.009  21.647  26.224  1.00  0.00    -0.050 S 
BRANCH  90  94
ATOM     94  O   UNL A   1      30.911  24.211  27.181  1.00  0.00    -0.492 OA
ATOM     95  H   UNL A   1      30.708  25.045  27.558  1.00  0.00     0.295 HD
ENDBRANCH  90  94
ENDBRANCH  78  87
ENDBRANCH  74  77
ENDBRANCH  72  73
ENDBRANCH   1  72
TORSDOF 12
ENDMDL
MODEL 2
REMARK VINA RESULT:     -13.3      0.298      1.688
REMARK SMILES O=C(NCCCNC(=O)c1c(/C=C2/SC(=S)N=C2O)cnc2ccccc12)c1ccc(-c2c3nc(c(-c4c(F)c(F)c(F)c(F)c4F)c4ccc([nH]4)c(-c4c(F)c(F)c(F)c(F)c4F)c4nc(c(-c5c(F)c(F)c(F)c(F)c5F)c5ccc2[nH]5)C=C4)C=C3)cc1
REMARK SMILES IDX 5 1 4 2 3 3 1 4 2 5 28 7 29 8 90 9 30 10 89 11 31 12 32 13
REMARK SMILES IDX 33 14 83 15 34 16 88 17 82 18 84 19 35 20 87 21 81 22 80 23
REMARK SMILES IDX 36 25 68 26 48 27 67 28 49 29 52 30 66 31 85 32 50 33 51 34
REMARK SMILES IDX 65 36 86 37 53 38 37 39 38 40 46 41 39 42 40 43 44 44 47 45
REMARK SMILES IDX 41 46 42 47 45 48 43 49 69 50 70 51 78 52 71 53 72 54 76 55
REMARK SMILES IDX 79 56 73 57 74 58 77 59 75 60 54 61 55 62 63 63 56 64 57 65
REMARK SMILES IDX 61 66 64 67 58 68 59 69 62 70 60 71 6 72 7 73 8 74 9 76
REMARK SMILES IDX 10 77 11 78 27 79 20 80 22 81 26 82 21 83 23 84 25 85 24 86
REMARK SMILES IDX 12 87 13 88 14 89 18 90 15 91 17 92 16 93 19 94
REMARK H PARENT 3 6 84 24 52 35 7 75 19 95
REMARK Flexibility Score: inf
ROOT
ATOM      1  C   UNL A   1      31.403  31.430  26.503  1.00  0.00     0.042 C 
ENDROOT
BRANCH   1   2
ATOM      2  C   UNL A   1      32.619  32.342  26.543  1.00  0.00     0.118 C 
BRANCH   2   3
ATOM      3  N   UNL A   1      32.380  33.595  27.251  1.00  0.00    -0.352 N 
ATOM      4  O   UNL A   1      32.528  35.175  28.842  1.00  0.00    -0.269 OA
ATOM      5  C   UNL A   1      33.019  34.179  28.319  1.00  0.00     0.251 C 
ATOM      6  H   UNL A   1      31.623  34.117  26.900  1.00  0.00     0.163 HD
BRANCH   5   7
ATOM      7  C   UNL A   1      34.267  33.604  28.868  1.00  0.00     0.039 A 
ATOM      8  C   UNL A   1      34.262  32.375  29.521  1.00  0.00     0.014 A 
ATOM      9  C   UNL A   1      35.473  34.294  28.706  1.00  0.00     0.014 A 
ATOM     10  C   UNL A   1      35.396  31.949  30.197  1.00  0.00     0.010 A 
ATOM     11  C   UNL A   1      36.651  33.791  29.272  1.00  0.00     0.010 A 
ATOM     12  C   UNL A   1      36.613  32.637  30.066  1.00  0.00    -0.014 A 
BRANCH  12  13
ATOM     13  C   UNL A   1      37.819  32.073  30.728  1.00  0.00     0.031 A 
ATOM     14  C   UNL A   1      38.186  32.441  32.139  1.00  0.00     0.074 A 
ATOM     15  C   UNL A   1      38.536  31.144  30.064  1.00  0.00     0.049 A 
ATOM     16  N   UNL A   1      39.151  31.967  32.888  1.00  0.00    -0.248 NA
ATOM     17  C   UNL A   1      37.379  33.481  32.795  1.00  0.00     0.031 C 
ATOM     18  C   UNL A   1      38.291  30.726  28.681  1.00  0.00     0.029 A 
ATOM     19  N   UNL A   1      39.582  30.354  30.467  1.00  0.00    -0.354 N 
ATOM     20  C   UNL A   1      39.076  32.656  34.091  1.00  0.00     0.074 A 
ATOM     21  C   UNL A   1      37.992  33.605  33.965  1.00  0.00     0.031 C 
ATOM     22  C   UNL A   1      39.102  29.703  28.379  1.00  0.00     0.029 A 
ATOM     23  C   UNL A   1      39.974  29.441  29.517  1.00  0.00     0.049 A 
ATOM     24  H   UNL A   1      40.009  30.432  31.350  1.00  0.00     0.167 HD
ATOM     25  C   UNL A   1      39.837  32.500  35.202  1.00  0.00     0.037 A 
ATOM     26  C   UNL A   1      40.932  28.498  29.553  1.00  0.00     0.037 A 
ATOM     27  C   UNL A   1      40.906  31.542  35.328  1.00  0.00     0.049 A 
ATOM     28  C   UNL A   1      41.746  28.340  30.803  1.00  0.00     0.074 A 
ATOM     29  C   UNL A   1      41.735  31.309  36.412  1.00  0.00     0.029 A 
ATOM     30  N   UNL A   1      41.288  30.651  34.336  1.00  0.00    -0.354 N 
ATOM     31  N   UNL A   1      41.657  28.995  31.935  1.00  0.00    -0.248 NA
ATOM     32  C   UNL A   1      42.795  27.313  30.781  1.00  0.00     0.031 C 
ATOM     33  C   UNL A   1      42.640  30.299  36.066  1.00  0.00     0.029 A 
ATOM     34  C   UNL A   1      42.347  29.873  34.781  1.00  0.00     0.049 A 
ATOM     35  H   UNL A   1      40.870  30.581  33.448  1.00  0.00     0.167 HD
ATOM     36  C   UNL A   1      42.637  28.464  32.758  1.00  0.00     0.074 A 
ATOM     37  C   UNL A   1      43.282  27.405  32.010  1.00  0.00     0.031 C 
ATOM     38  C   UNL A   1      42.981  28.830  34.017  1.00  0.00     0.037 A 
BRANCH  25  39
ATOM     39  C   UNL A   1      39.548  33.391  36.376  1.00  0.00     0.064 A 
ATOM     40  C   UNL A   1      38.699  32.982  37.416  1.00  0.00     0.173 A 
ATOM     41  C   UNL A   1      40.172  34.643  36.493  1.00  0.00     0.173 A 
ATOM     42  F   UNL A   1      38.068  31.801  37.347  1.00  0.00    -0.203 F 
ATOM     43  C   UNL A   1      38.475  33.800  38.521  1.00  0.00     0.198 A 
ATOM     44  C   UNL A   1      39.964  35.447  37.610  1.00  0.00     0.198 A 
ATOM     45  F   UNL A   1      40.997  35.079  35.529  1.00  0.00    -0.203 F 
ATOM     46  F   UNL A   1      37.633  33.404  39.485  1.00  0.00    -0.200 F 
ATOM     47  C   UNL A   1      39.113  35.027  38.621  1.00  0.00     0.200 A 
ATOM     48  F   UNL A   1      40.590  36.628  37.710  1.00  0.00    -0.200 F 
ATOM     49  F   UNL A   1      38.903  35.808  39.690  1.00  0.00    -0.200 F 
ENDBRANCH  25  39
BRANCH  26  50
ATOM     50  C   UNL A   1      41.173  27.647  28.360  1.00  0.00     0.064 A 
ATOM     51  C   UNL A   1      40.503  26.428  28.190  1.00  0.00     0.173 A 
ATOM     52  C   UNL A   1      42.069  28.045  27.357  1.00  0.00     0.173 A 
ATOM     53  F   UNL A   1      39.650  25.995  29.130  1.00  0.00    -0.203 F 
ATOM     54  C   UNL A   1      40.732  25.632  27.069  1.00  0.00     0.198 A 
ATOM     55  C   UNL A   1      42.273  27.265  26.222  1.00  0.00     0.198 A 
ATOM     56  F   UNL A   1      42.731  29.206  27.470  1.00  0.00    -0.203 F 
ATOM     57  F   UNL A   1      40.112  24.451  26.951  1.00  0.00    -0.200 F 
ATOM     58  C   UNL A   1      41.611  26.056  26.082  1.00  0.00     0.200 A 
ATOM     59  F   UNL A   1      43.108  27.687  25.263  1.00  0.00    -0.200 F 
ATOM     60  F   UNL A   1      41.825  25.294  25.001  1.00  0.00    -0.200 F 
ENDBRANCH  26  50
BRANCH  38  61
ATOM     61  C   UNL A   1      44.105  28.070  34.655  1.00  0.00     0.064 A 
ATOM     62  C   UNL A   1      43.869  26.900  35.392  1.00  0.00     0.173 A 
ATOM     63  C   UNL A   1      45.429  28.511  34.524  1.00  0.00     0.173 A 
ATOM     64  F   UNL A   1      42.616  26.448  35.558  1.00  0.00    -0.203 F 
ATOM     65  C   UNL A   1      44.916  26.218  36.004  1.00  0.00     0.198 A 
ATOM     66  C   UNL A   1      46.477  27.811  35.115  1.00  0.00     0.198 A 
ATOM     67  F   UNL A   1      45.707  29.622  33.826  1.00  0.00    -0.203 F 
ATOM     68  F   UNL A   1      44.661  25.133  36.749  1.00  0.00    -0.200 F 
ATOM     69  C   UNL A   1      46.219  26.671  35.861  1.00  0.00     0.200 A 
ATOM     70  F   UNL A   1      47.737  28.244  34.970  1.00  0.00    -0.200 F 
ATOM     71  F   UNL A   1      47.226  26.015  36.454  1.00  0.00    -0.200 F 
ENDBRANCH  38  61
ENDBRANCH  12  13
ENDBRANCH   5   7
ENDBRANCH   2   3
ENDBRANCH   1   2
BRANCH   1  72
ATOM     72  C   UNL A   1      31.730  29.965  26.278  1.00  0.00     0.118 C 
BRANCH  72  73
ATOM     73  N   UNL A   1      32.548  29.731  25.095  1.00  0.00    -0.352 N 
ATOM     74  C   UNL A   1      32.248  28.991  23.984  1.00  0.00     0.252 C 
ATOM     75  H   UNL A   1      33.434  30.162  25.095  1.00  0.00     0.163 HD
ATOM     76  O   UNL A   1      32.977  28.963  22.996  1.00  0.00    -0.269 OA
BRANCH  74  77
ATOM     77  C   UNL A   1      31.059  28.163  23.963  1.00  0.00     0.058 A 
ATOM     78  C   UNL A   1      31.135  26.833  24.384  1.00  0.00     0.007 A 
ATOM     79  C   UNL A   1      29.859  28.777  23.483  1.00  0.00     0.014 A 
ATOM     80  C   UNL A   1      29.911  26.167  24.279  1.00  0.00     0.120 A 
ATOM     81  C   UNL A   1      28.704  27.985  23.501  1.00  0.00     0.071 A 
ATOM     82  C   UNL A   1      29.750  30.121  23.029  1.00  0.00     0.011 A 
ATOM     83  N   UNL A   1      28.733  26.703  23.875  1.00  0.00    -0.256 NA
ATOM     84  C   UNL A   1      27.489  28.554  23.141  1.00  0.00     0.029 A 
ATOM     85  C   UNL A   1      28.521  30.677  22.685  1.00  0.00     0.001 A 
ATOM     86  C   UNL A   1      27.383  29.891  22.752  1.00  0.00     0.002 A 
BRANCH  78  87
ATOM     87  C   UNL A   1      32.242  26.038  25.003  1.00  0.00     0.031 C 
ATOM     88  C   UNL A   1      32.498  24.960  25.777  1.00  0.00     0.077 C 
ATOM     89  S   UNL A   1      34.183  24.385  25.766  1.00  0.00    -0.053 SA
ATOM     90  C   UNL A   1      31.812  23.900  26.555  1.00  0.00     0.227 C 
ATOM     91  C   UNL A   1      33.676  22.775  26.303  1.00  0.00     0.168 C 
ATOM     92  N   UNL A   1      32.392  22.764  26.781  1.00  0.00    -0.194 NA
ATOM     93  S   UNL A   1      34.694  21.453  26.218  1.00  0.00    -0.050 S 
BRANCH  90  94
ATOM     94  O   UNL A   1      30.642  24.100  27.144  1.00  0.00    -0.492 OA
ATOM     95  H   UNL A   1      30.384  24.967  27.391  1.00  0.00     0.295 HD
ENDBRANCH  90  94
ENDBRANCH  78  87
ENDBRANCH  74  77
ENDBRANCH  72  73
ENDBRANCH   1  72
TORSDOF 12
ENDMDL
MODEL 3
REMARK VINA RESULT:     -13.2      5.299     10.978
REMARK SMILES O=C(NCCCNC(=O)c1c(/C=C2/SC(=S)N=C2O)cnc2ccccc12)c1ccc(-c2c3nc(c(-c4c(F)c(F)c(F)c(F)c4F)c4ccc([nH]4)c(-c4c(F)c(F)c(F)c(F)c4F)c4nc(c(-c5c(F)c(F)c(F)c(F)c5F)c5ccc2[nH]5)C=C4)C=C3)cc1
REMARK SMILES IDX 5 1 4 2 3 3 1 4 2 5 28 7 29 8 90 9 30 10 89 11 31 12 32 13
REMARK SMILES IDX 33 14 83 15 34 16 88 17 82 18 84 19 35 20 87 21 81 22 80 23
REMARK SMILES IDX 36 25 68 26 48 27 67 28 49 29 52 30 66 31 85 32 50 33 51 34
REMARK SMILES IDX 65 36 86 37 53 38 37 39 38 40 46 41 39 42 40 43 44 44 47 45
REMARK SMILES IDX 41 46 42 47 45 48 43 49 69 50 70 51 78 52 71 53 72 54 76 55
REMARK SMILES IDX 79 56 73 57 74 58 77 59 75 60 54 61 55 62 63 63 56 64 57 65
REMARK SMILES IDX 61 66 64 67 58 68 59 69 62 70 60 71 6 72 7 73 8 74 9 76
REMARK SMILES IDX 10 77 11 78 27 79 20 80 22 81 26 82 21 83 23 84 25 85 24 86
REMARK SMILES IDX 12 87 13 88 14 89 18 90 15 91 17 92 16 93 19 94
REMARK H PARENT 3 6 84 24 52 35 7 75 19 95
REMARK Flexibility Score: inf
ROOT
ATOM      1  C   UNL A   1      37.801  19.919  24.869  1.00  0.00     0.042 C 
ENDROOT
BRANCH   1   2
ATOM      2  C   UNL A   1      38.895  20.285  25.860  1.00  0.00     0.118 C 
BRANCH   2   3
ATOM      3  N   UNL A   1      39.994  19.327  25.889  1.00  0.00    -0.352 N 
ATOM      4  O   UNL A   1      42.097  18.534  25.888  1.00  0.00    -0.269 OA
ATOM      5  C   UNL A   1      41.348  19.492  26.061  1.00  0.00     0.251 C 
ATOM      6  H   UNL A   1      39.715  18.391  25.763  1.00  0.00     0.163 HD
BRANCH   5   7
ATOM      7  C   UNL A   1      41.916  20.811  26.414  1.00  0.00     0.039 A 
ATOM      8  C   UNL A   1      42.266  21.112  27.726  1.00  0.00     0.014 A 
ATOM      9  C   UNL A   1      42.130  21.760  25.408  1.00  0.00     0.014 A 
ATOM     10  C   UNL A   1      42.611  22.412  28.068  1.00  0.00     0.010 A 
ATOM     11  C   UNL A   1      42.612  23.034  25.736  1.00  0.00     0.010 A 
ATOM     12  C   UNL A   1      42.811  23.387  27.078  1.00  0.00    -0.014 A 
BRANCH  12  13
ATOM     13  C   UNL A   1      43.282  24.733  27.497  1.00  0.00     0.031 A 
ATOM     14  C   UNL A   1      44.684  25.198  27.216  1.00  0.00     0.074 A 
ATOM     15  C   UNL A   1      42.391  25.574  28.061  1.00  0.00     0.049 A 
ATOM     16  N   UNL A   1      45.219  26.374  27.435  1.00  0.00    -0.248 NA
ATOM     17  C   UNL A   1      45.612  24.222  26.627  1.00  0.00     0.031 C 
ATOM     18  C   UNL A   1      41.010  25.225  28.405  1.00  0.00     0.029 A 
ATOM     19  N   UNL A   1      42.491  26.899  28.401  1.00  0.00    -0.354 N 
ATOM     20  C   UNL A   1      46.541  26.276  27.025  1.00  0.00     0.074 A 
ATOM     21  C   UNL A   1      46.741  24.916  26.573  1.00  0.00     0.031 C 
ATOM     22  C   UNL A   1      40.370  26.324  28.829  1.00  0.00     0.029 A 
ATOM     23  C   UNL A   1      41.311  27.436  28.856  1.00  0.00     0.049 A 
ATOM     24  H   UNL A   1      43.326  27.414  28.327  1.00  0.00     0.167 HD
ATOM     25  C   UNL A   1      47.497  27.237  27.017  1.00  0.00     0.037 A 
ATOM     26  C   UNL A   1      41.016  28.685  29.256  1.00  0.00     0.037 A 
ATOM     27  C   UNL A   1      47.289  28.595  27.453  1.00  0.00     0.049 A 
ATOM     28  C   UNL A   1      42.091  29.731  29.219  1.00  0.00     0.074 A 
ATOM     29  C   UNL A   1      48.195  29.641  27.485  1.00  0.00     0.029 A 
ATOM     30  N   UNL A   1      46.086  29.095  27.929  1.00  0.00    -0.354 N 
ATOM     31  N   UNL A   1      43.335  29.622  28.821  1.00  0.00    -0.248 NA
ATOM     32  C   UNL A   1      41.723  31.072  29.690  1.00  0.00     0.031 C 
ATOM     33  C   UNL A   1      47.549  30.766  28.009  1.00  0.00     0.029 A 
ATOM     34  C   UNL A   1      46.230  30.433  28.264  1.00  0.00     0.049 A 
ATOM     35  H   UNL A   1      45.254  28.577  28.016  1.00  0.00     0.167 HD
ATOM     36  C   UNL A   1      43.899  30.876  28.994  1.00  0.00     0.074 A 
ATOM     37  C   UNL A   1      42.851  31.740  29.495  1.00  0.00     0.031 C 
ATOM     38  C   UNL A   1      45.176  31.273  28.771  1.00  0.00     0.037 A 
BRANCH  25  39
ATOM     39  C   UNL A   1      48.864  26.857  26.524  1.00  0.00     0.064 A 
ATOM     40  C   UNL A   1      49.824  26.296  27.380  1.00  0.00     0.173 A 
ATOM     41  C   UNL A   1      49.199  27.001  25.168  1.00  0.00     0.173 A 
ATOM     42  F   UNL A   1      49.559  26.148  28.686  1.00  0.00    -0.203 F 
ATOM     43  C   UNL A   1      51.073  25.907  26.900  1.00  0.00     0.198 A 
ATOM     44  C   UNL A   1      50.439  26.590  24.688  1.00  0.00     0.198 A 
ATOM     45  F   UNL A   1      48.316  27.528  24.307  1.00  0.00    -0.203 F 
ATOM     46  F   UNL A   1      51.986  25.405  27.743  1.00  0.00    -0.200 F 
ATOM     47  C   UNL A   1      51.376  26.047  25.554  1.00  0.00     0.200 A 
ATOM     48  F   UNL A   1      50.727  26.715  23.384  1.00  0.00    -0.200 F 
ATOM     49  F   UNL A   1      52.575  25.663  25.093  1.00  0.00    -0.200 F 
ENDBRANCH  25  39
BRANCH  26  50
ATOM     50  C   UNL A   1      39.646  29.002  29.734  1.00  0.00     0.064 A 
ATOM     51  C   UNL A   1      38.672  29.509  28.864  1.00  0.00     0.173 A 
ATOM     52  C   UNL A   1      39.280  28.787  31.071  1.00  0.00     0.173 A 
ATOM     53  F   UNL A   1      38.978  29.749  27.581  1.00  0.00    -0.203 F 
ATOM     54  C   UNL A   1      37.387  29.804  29.318  1.00  0.00     0.198 A 
ATOM     55  C   UNL A   1      37.987  29.051  31.516  1.00  0.00     0.198 A 
ATOM     56  F   UNL A   1      40.174  28.296  31.942  1.00  0.00    -0.203 F 
ATOM     57  F   UNL A   1      36.486  30.329  28.477  1.00  0.00    -0.200 F 
ATOM     58  C   UNL A   1      37.044  29.567  30.641  1.00  0.00     0.200 A 
ATOM     59  F   UNL A   1      37.655  28.803  32.790  1.00  0.00    -0.200 F 
ATOM     60  F   UNL A   1      35.807  29.844  31.075  1.00  0.00    -0.200 F 
ENDBRANCH  26  50
BRANCH  38  61
ATOM     61  C   UNL A   1      45.496  32.707  29.068  1.00  0.00     0.064 A 
ATOM     62  C   UNL A   1      45.973  33.103  30.326  1.00  0.00     0.173 A 
ATOM     63  C   UNL A   1      45.329  33.694  28.085  1.00  0.00     0.173 A 
ATOM     64  F   UNL A   1      46.133  32.197  31.303  1.00  0.00    -0.203 F 
ATOM     65  C   UNL A   1      46.240  34.441  30.600  1.00  0.00     0.198 A 
ATOM     66  C   UNL A   1      45.623  35.028  28.355  1.00  0.00     0.198 A 
ATOM     67  F   UNL A   1      44.879  33.365  26.865  1.00  0.00    -0.203 F 
ATOM     68  F   UNL A   1      46.643  34.804  31.826  1.00  0.00    -0.200 F 
ATOM     69  C   UNL A   1      46.069  35.401  29.614  1.00  0.00     0.200 A 
ATOM     70  F   UNL A   1      45.466  35.953  27.399  1.00  0.00    -0.200 F 
ATOM     71  F   UNL A   1      46.324  36.689  29.880  1.00  0.00    -0.200 F 
ENDBRANCH  38  61
ENDBRANCH  12  13
ENDBRANCH   5   7
ENDBRANCH   2   3
ENDBRANCH   1   2
BRANCH   1  72
ATOM     72  C   UNL A   1      36.723  20.976  24.713  1.00  0.00     0.118 C 
BRANCH  72  73
ATOM     73  N   UNL A   1      35.929  21.174  25.919  1.00  0.00    -0.352 N 
ATOM     74  C   UNL A   1      34.567  21.216  26.045  1.00  0.00     0.252 C 
ATOM     75  H   UNL A   1      36.439  21.292  26.753  1.00  0.00     0.163 HD
ATOM     76  O   UNL A   1      34.009  21.273  27.137  1.00  0.00    -0.269 OA
BRANCH  74  77
ATOM     77  C   UNL A   1      33.729  21.246  24.863  1.00  0.00     0.058 A 
ATOM     78  C   UNL A   1      33.307  22.473  24.345  1.00  0.00     0.007 A 
ATOM     79  C   UNL A   1      33.367  19.981  24.303  1.00  0.00     0.014 A 
ATOM     80  C   UNL A   1      32.488  22.328  23.222  1.00  0.00     0.120 A 
ATOM     81  C   UNL A   1      32.590  20.014  23.138  1.00  0.00     0.071 A 
ATOM     82  C   UNL A   1      33.762  18.712  24.814  1.00  0.00     0.011 A 
ATOM     83  N   UNL A   1      32.145  21.162  22.618  1.00  0.00    -0.256 NA
ATOM     84  C   UNL A   1      32.289  18.823  22.491  1.00  0.00     0.029 A 
ATOM     85  C   UNL A   1      33.461  17.530  24.144  1.00  0.00     0.001 A 
ATOM     86  C   UNL A   1      32.730  17.587  22.970  1.00  0.00     0.002 A 
BRANCH  78  87
ATOM     87  C   UNL A   1      33.645  23.886  24.709  1.00  0.00     0.031 C 
ATOM     88  C   UNL A   1      33.723  25.140  24.214  1.00  0.00     0.077 C 
ATOM     89  S   UNL A   1      33.837  26.441  25.425  1.00  0.00    -0.053 SA
ATOM     90  C   UNL A   1      33.568  25.904  22.952  1.00  0.00     0.227 C 
ATOM     91  C   UNL A   1      33.234  27.630  24.259  1.00  0.00     0.168 C 
ATOM     92  N   UNL A   1      33.267  27.162  22.972  1.00  0.00    -0.194 NA
ATOM     93  S   UNL A   1      32.698  29.140  24.733  1.00  0.00    -0.050 S 
BRANCH  90  94
ATOM     94  O   UNL A   1      33.837  25.372  21.768  1.00  0.00    -0.492 OA
ATOM     95  H   UNL A   1      34.576  24.806  21.666  1.00  0.00     0.295 HD
ENDBRANCH  90  94
ENDBRANCH  78  87
ENDBRANCH  74  77
ENDBRANCH  72  73
ENDBRANCH   1  72
TORSDOF 12
ENDMDL
