MODEL 1
REMARK VINA RESULT:     -13.4      0.000      0.000
REMARK SMILES O=C(NCCCNC(=O)c1nn2cc(Br)cnc2c1Br)c1ccc(-c2c3nc(c(-c4c(F)c(F)c(F)c(F)c4F)c4ccc([nH]4)c(-c4c(F)c(F)c(F)c(F)c4F)c4nc(c(-c5c(F)c(F)c(F)c(F)c5F)c5ccc2[nH]5)C=C4)C=C3)cc1
REMARK SMILES IDX 4 1 3 2 1 3 2 4 21 6 22 7 83 8 23 9 82 10 24 11 25 12 26 13
REMARK SMILES IDX 76 14 27 15 81 16 75 17 77 18 28 19 80 20 74 21 73 22 29 24
REMARK SMILES IDX 61 25 41 26 60 27 42 28 45 29 59 30 78 31 43 32 44 33 58 35
REMARK SMILES IDX 79 36 46 37 30 38 31 39 39 40 32 41 33 42 37 43 40 44 34 45
REMARK SMILES IDX 35 46 38 47 36 48 62 49 63 50 71 51 64 52 65 53 69 54 72 55
REMARK SMILES IDX 66 56 67 57 70 58 68 59 47 60 48 61 56 62 49 63 50 64 54 65
REMARK SMILES IDX 57 66 51 67 52 68 55 69 53 70 5 71 6 72 7 73 8 74 9 76 10 77
REMARK SMILES IDX 11 78 19 79 12 80 18 81 20 82 13 83 17 84 14 85 16 86 15 87
REMARK H PARENT 3 5 77 23 45 34 7 75
REMARK Flexibility Score: inf
ROOT
ATOM      1  C   UNL A   1      33.328  30.458  26.696  1.00  0.00     0.118 C 
ENDROOT
BRANCH   1   2
ATOM      2  N   UNL A   1      33.678  31.454  27.689  1.00  0.00    -0.352 N 
ATOM      3  O   UNL A   1      34.793  32.913  28.908  1.00  0.00    -0.269 OA
ATOM      4  C   UNL A   1      34.830  31.826  28.326  1.00  0.00     0.251 C 
ATOM      5  H   UNL A   1      32.903  31.989  27.974  1.00  0.00     0.163 HD
BRANCH   4   6
ATOM      6  C   UNL A   1      36.066  31.003  28.442  1.00  0.00     0.039 A 
ATOM      7  C   UNL A   1      36.158  29.624  28.259  1.00  0.00     0.014 A 
ATOM      8  C   UNL A   1      37.225  31.705  28.835  1.00  0.00     0.014 A 
ATOM      9  C   UNL A   1      37.347  28.955  28.559  1.00  0.00     0.010 A 
ATOM     10  C   UNL A   1      38.414  31.045  29.126  1.00  0.00     0.010 A 
ATOM     11  C   UNL A   1      38.463  29.660  29.026  1.00  0.00    -0.014 A 
BRANCH  11  12
ATOM     12  C   UNL A   1      39.716  28.935  29.236  1.00  0.00     0.031 A 
ATOM     13  C   UNL A   1      40.095  28.777  30.669  1.00  0.00     0.074 A 
ATOM     14  C   UNL A   1      40.422  28.327  28.259  1.00  0.00     0.049 A 
ATOM     15  N   UNL A   1      41.147  29.228  31.271  1.00  0.00    -0.248 NA
ATOM     16  C   UNL A   1      39.128  28.125  31.567  1.00  0.00     0.031 C 
ATOM     17  C   UNL A   1      40.044  28.136  26.857  1.00  0.00     0.029 A 
ATOM     18  N   UNL A   1      41.620  27.670  28.342  1.00  0.00    -0.354 N 
ATOM     19  C   UNL A   1      41.061  28.783  32.590  1.00  0.00     0.074 A 
ATOM     20  C   UNL A   1      39.743  28.230  32.747  1.00  0.00     0.031 C 
ATOM     21  C   UNL A   1      40.884  27.244  26.281  1.00  0.00     0.029 A 
ATOM     22  C   UNL A   1      41.938  26.907  27.223  1.00  0.00     0.049 A 
ATOM     23  H   UNL A   1      42.207  27.733  29.129  1.00  0.00     0.167 HD
ATOM     24  C   UNL A   1      42.164  28.719  33.386  1.00  0.00     0.037 A 
ATOM     25  C   UNL A   1      42.969  26.033  27.100  1.00  0.00     0.037 A 
ATOM     26  C   UNL A   1      43.221  29.548  32.868  1.00  0.00     0.049 A 
ATOM     27  C   UNL A   1      43.971  26.385  28.130  1.00  0.00     0.074 A 
ATOM     28  C   UNL A   1      43.403  30.899  32.659  1.00  0.00     0.029 A 
ATOM     29  N   UNL A   1      44.216  28.923  32.163  1.00  0.00    -0.354 N 
ATOM     30  N   UNL A   1      44.688  27.472  28.116  1.00  0.00    -0.248 NA
ATOM     31  C   UNL A   1      43.910  25.689  29.406  1.00  0.00     0.031 C 
ATOM     32  C   UNL A   1      44.209  30.991  31.487  1.00  0.00     0.029 A 
ATOM     33  C   UNL A   1      44.514  29.694  31.074  1.00  0.00     0.049 A 
ATOM     34  H   UNL A   1      44.641  28.067  32.398  1.00  0.00     0.167 HD
ATOM     35  C   UNL A   1      44.796  27.833  29.448  1.00  0.00     0.074 A 
ATOM     36  C   UNL A   1      44.409  26.642  30.197  1.00  0.00     0.031 C 
ATOM     37  C   UNL A   1      44.915  29.145  29.802  1.00  0.00     0.037 A 
BRANCH  24  38
ATOM     38  C   UNL A   1      42.443  27.614  34.387  1.00  0.00     0.064 A 
ATOM     39  C   UNL A   1      42.990  26.397  33.921  1.00  0.00     0.173 A 
ATOM     40  C   UNL A   1      41.904  27.569  35.691  1.00  0.00     0.173 A 
ATOM     41  F   UNL A   1      43.532  26.313  32.697  1.00  0.00    -0.203 F 
ATOM     42  C   UNL A   1      42.894  25.211  34.654  1.00  0.00     0.198 A 
ATOM     43  C   UNL A   1      41.856  26.394  36.439  1.00  0.00     0.198 A 
ATOM     44  F   UNL A   1      41.301  28.622  36.252  1.00  0.00    -0.203 F 
ATOM     45  F   UNL A   1      43.293  24.056  34.105  1.00  0.00    -0.200 F 
ATOM     46  C   UNL A   1      42.315  25.208  35.908  1.00  0.00     0.200 A 
ATOM     47  F   UNL A   1      41.279  26.408  37.649  1.00  0.00    -0.200 F 
ATOM     48  F   UNL A   1      42.154  24.062  36.583  1.00  0.00    -0.200 F 
ENDBRANCH  24  38
BRANCH  25  49
ATOM     49  C   UNL A   1      43.040  24.740  26.369  1.00  0.00     0.064 A 
ATOM     50  C   UNL A   1      43.949  24.556  25.309  1.00  0.00     0.173 A 
ATOM     51  C   UNL A   1      42.457  23.574  26.896  1.00  0.00     0.173 A 
ATOM     52  F   UNL A   1      44.583  25.609  24.772  1.00  0.00    -0.203 F 
ATOM     53  C   UNL A   1      44.288  23.282  24.841  1.00  0.00     0.198 A 
ATOM     54  C   UNL A   1      42.791  22.302  26.424  1.00  0.00     0.198 A 
ATOM     55  F   UNL A   1      41.630  23.637  27.949  1.00  0.00    -0.203 F 
ATOM     56  F   UNL A   1      45.218  23.144  23.885  1.00  0.00    -0.200 F 
ATOM     57  C   UNL A   1      43.719  22.155  25.410  1.00  0.00     0.200 A 
ATOM     58  F   UNL A   1      42.261  21.218  27.007  1.00  0.00    -0.200 F 
ATOM     59  F   UNL A   1      44.097  20.931  25.015  1.00  0.00    -0.200 F 
ENDBRANCH  25  49
BRANCH  37  60
ATOM     60  C   UNL A   1      45.261  30.130  28.722  1.00  0.00     0.064 A 
ATOM     61  C   UNL A   1      44.318  30.748  27.884  1.00  0.00     0.173 A 
ATOM     62  C   UNL A   1      46.587  30.575  28.643  1.00  0.00     0.173 A 
ATOM     63  F   UNL A   1      43.017  30.443  27.962  1.00  0.00    -0.203 F 
ATOM     64  C   UNL A   1      44.696  31.746  26.987  1.00  0.00     0.198 A 
ATOM     65  C   UNL A   1      46.955  31.598  27.775  1.00  0.00     0.198 A 
ATOM     66  F   UNL A   1      47.520  30.054  29.455  1.00  0.00    -0.203 F 
ATOM     67  F   UNL A   1      43.780  32.322  26.194  1.00  0.00    -0.200 F 
ATOM     68  C   UNL A   1      46.012  32.178  26.943  1.00  0.00     0.200 A 
ATOM     69  F   UNL A   1      48.218  32.046  27.771  1.00  0.00    -0.200 F 
ATOM     70  F   UNL A   1      46.365  33.176  26.119  1.00  0.00    -0.200 F 
ENDBRANCH  37  60
ENDBRANCH  11  12
ENDBRANCH   4   6
ENDBRANCH   1   2
BRANCH   1  71
ATOM     71  C   UNL A   1      31.911  30.560  26.133  1.00  0.00     0.042 C 
BRANCH  71  72
ATOM     72  C   UNL A   1      31.402  29.325  25.396  1.00  0.00     0.118 C 
BRANCH  72  73
ATOM     73  N   UNL A   1      30.704  29.631  24.159  1.00  0.00    -0.351 N 
ATOM     74  C   UNL A   1      30.615  28.908  22.992  1.00  0.00     0.273 C 
ATOM     75  H   UNL A   1      30.220  30.488  24.154  1.00  0.00     0.163 HD
ATOM     76  O   UNL A   1      29.980  29.407  22.054  1.00  0.00    -0.267 OA
BRANCH  74  77
ATOM     77  C   UNL A   1      31.282  27.609  22.875  1.00  0.00     0.167 A 
ATOM     78  N   UNL A   1      30.593  26.469  23.082  1.00  0.00    -0.160 NA
ATOM     79  C   UNL A   1      32.639  27.322  22.605  1.00  0.00     0.095 A 
ATOM     80  N   UNL A   1      31.497  25.474  22.941  1.00  0.00    -0.219 N 
ATOM     81  C   UNL A   1      32.755  25.954  22.568  1.00  0.00     0.170 A 
ATOM     82  Br  UNL A   1      34.029  28.561  22.377  1.00  0.00    -0.044 Br
ATOM     83  C   UNL A   1      31.285  24.112  23.126  1.00  0.00     0.132 A 
ATOM     84  N   UNL A   1      33.802  25.114  22.294  1.00  0.00    -0.235 NA
ATOM     85  C   UNL A   1      32.276  23.239  22.909  1.00  0.00     0.054 A 
ATOM     86  C   UNL A   1      33.564  23.843  22.448  1.00  0.00     0.131 A 
ATOM     87  Br  UNL A   1      32.153  21.409  23.126  1.00  0.00    -0.047 Br
ENDBRANCH  74  77
ENDBRANCH  72  73
ENDBRANCH  71  72
ENDBRANCH   1  71
TORSDOF 10
ENDMDL
MODEL 2
REMARK VINA RESULT:     -13.4      5.407     11.124
REMARK SMILES O=C(NCCCNC(=O)c1nn2cc(Br)cnc2c1Br)c1ccc(-c2c3nc(c(-c4c(F)c(F)c(F)c(F)c4F)c4ccc([nH]4)c(-c4c(F)c(F)c(F)c(F)c4F)c4nc(c(-c5c(F)c(F)c(F)c(F)c5F)c5ccc2[nH]5)C=C4)C=C3)cc1
REMARK SMILES IDX 4 1 3 2 1 3 2 4 21 6 22 7 83 8 23 9 82 10 24 11 25 12 26 13
REMARK SMILES IDX 76 14 27 15 81 16 75 17 77 18 28 19 80 20 74 21 73 22 29 24
REMARK SMILES IDX 61 25 41 26 60 27 42 28 45 29 59 30 78 31 43 32 44 33 58 35
REMARK SMILES IDX 79 36 46 37 30 38 31 39 39 40 32 41 33 42 37 43 40 44 34 45
REMARK SMILES IDX 35 46 38 47 36 48 62 49 63 50 71 51 64 52 65 53 69 54 72 55
REMARK SMILES IDX 66 56 67 57 70 58 68 59 47 60 48 61 56 62 49 63 50 64 54 65
REMARK SMILES IDX 57 66 51 67 52 68 55 69 53 70 5 71 6 72 7 73 8 74 9 76 10 77
REMARK SMILES IDX 11 78 19 79 12 80 18 81 20 82 13 83 17 84 14 85 16 86 15 87
REMARK H PARENT 3 5 77 23 45 34 7 75
REMARK Flexibility Score: inf
ROOT
ATOM      1  C   UNL A   1      43.051  22.450  25.151  1.00  0.00     0.118 C 
ENDROOT
BRANCH   1   2
ATOM      2  N   UNL A   1      41.820  21.935  25.718  1.00  0.00    -0.352 N 
ATOM      3  O   UNL A   1      39.745  21.754  26.437  1.00  0.00    -0.269 OA
ATOM      4  C   UNL A   1      40.736  22.484  26.343  1.00  0.00     0.251 C 
ATOM      5  H   UNL A   1      41.750  20.957  25.634  1.00  0.00     0.163 HD
BRANCH   4   6
ATOM      6  C   UNL A   1      40.686  23.830  26.980  1.00  0.00     0.039 A 
ATOM      7  C   UNL A   1      39.864  24.890  26.603  1.00  0.00     0.014 A 
ATOM      8  C   UNL A   1      41.614  24.041  28.022  1.00  0.00     0.014 A 
ATOM      9  C   UNL A   1      40.034  26.150  27.180  1.00  0.00     0.010 A 
ATOM     10  C   UNL A   1      41.782  25.290  28.607  1.00  0.00     0.010 A 
ATOM     11  C   UNL A   1      41.017  26.359  28.156  1.00  0.00    -0.014 A 
BRANCH  11  12
ATOM     12  C   UNL A   1      41.098  27.668  28.804  1.00  0.00     0.031 A 
ATOM     13  C   UNL A   1      42.265  28.489  28.373  1.00  0.00     0.074 A 
ATOM     14  C   UNL A   1      40.149  28.181  29.617  1.00  0.00     0.049 A 
ATOM     15  N   UNL A   1      43.245  28.924  29.096  1.00  0.00    -0.248 NA
ATOM     16  C   UNL A   1      42.414  28.770  26.936  1.00  0.00     0.031 C 
ATOM     17  C   UNL A   1      38.820  27.639  29.908  1.00  0.00     0.029 A 
ATOM     18  N   UNL A   1      40.151  29.364  30.304  1.00  0.00    -0.354 N 
ATOM     19  C   UNL A   1      44.056  29.672  28.242  1.00  0.00     0.074 A 
ATOM     20  C   UNL A   1      43.573  29.431  26.909  1.00  0.00     0.031 C 
ATOM     21  C   UNL A   1      38.077  28.580  30.536  1.00  0.00     0.029 A 
ATOM     22  C   UNL A   1      38.912  29.736  30.815  1.00  0.00     0.049 A 
ATOM     23  H   UNL A   1      40.962  29.907  30.426  1.00  0.00     0.167 HD
ATOM     24  C   UNL A   1      44.931  30.596  28.729  1.00  0.00     0.037 A 
ATOM     25  C   UNL A   1      38.590  30.924  31.389  1.00  0.00     0.037 A 
ATOM     26  C   UNL A   1      45.206  30.359  30.122  1.00  0.00     0.049 A 
ATOM     27  C   UNL A   1      39.853  31.555  31.833  1.00  0.00     0.074 A 
ATOM     28  C   UNL A   1      45.803  29.353  30.852  1.00  0.00     0.029 A 
ATOM     29  N   UNL A   1      44.537  31.136  31.031  1.00  0.00    -0.354 N 
ATOM     30  N   UNL A   1      40.594  31.109  32.807  1.00  0.00    -0.248 NA
ATOM     31  C   UNL A   1      40.500  32.493  30.930  1.00  0.00     0.031 C 
ATOM     32  C   UNL A   1      45.094  29.318  32.089  1.00  0.00     0.029 A 
ATOM     33  C   UNL A   1      44.138  30.333  32.064  1.00  0.00     0.049 A 
ATOM     34  H   UNL A   1      44.372  32.103  30.954  1.00  0.00     0.167 HD
ATOM     35  C   UNL A   1      41.892  31.351  32.392  1.00  0.00     0.074 A 
ATOM     36  C   UNL A   1      41.769  32.309  31.298  1.00  0.00     0.031 C 
ATOM     37  C   UNL A   1      42.909  30.534  32.792  1.00  0.00     0.037 A 
BRANCH  24  38
ATOM     38  C   UNL A   1      45.217  31.937  28.082  1.00  0.00     0.064 A 
ATOM     39  C   UNL A   1      44.141  32.824  27.849  1.00  0.00     0.173 A 
ATOM     40  C   UNL A   1      46.410  32.248  27.394  1.00  0.00     0.173 A 
ATOM     41  F   UNL A   1      42.954  32.634  28.446  1.00  0.00    -0.203 F 
ATOM     42  C   UNL A   1      44.221  33.860  26.914  1.00  0.00     0.198 A 
ATOM     43  C   UNL A   1      46.500  33.315  26.500  1.00  0.00     0.198 A 
ATOM     44  F   UNL A   1      47.499  31.476  27.465  1.00  0.00    -0.203 F 
ATOM     45  F   UNL A   1      43.128  34.577  26.621  1.00  0.00    -0.200 F 
ATOM     46  C   UNL A   1      45.398  34.096  26.231  1.00  0.00     0.200 A 
ATOM     47  F   UNL A   1      47.646  33.520  25.836  1.00  0.00    -0.200 F 
ATOM     48  F   UNL A   1      45.458  35.040  25.282  1.00  0.00    -0.200 F 
ENDBRANCH  24  38
BRANCH  25  49
ATOM     49  C   UNL A   1      37.323  31.699  31.328  1.00  0.00     0.064 A 
ATOM     50  C   UNL A   1      36.572  31.952  32.492  1.00  0.00     0.173 A 
ATOM     51  C   UNL A   1      36.997  32.471  30.199  1.00  0.00     0.173 A 
ATOM     52  F   UNL A   1      36.841  31.291  33.628  1.00  0.00    -0.203 F 
ATOM     53  C   UNL A   1      35.591  32.949  32.534  1.00  0.00     0.198 A 
ATOM     54  C   UNL A   1      36.013  33.462  30.240  1.00  0.00     0.198 A 
ATOM     55  F   UNL A   1      37.698  32.353  29.062  1.00  0.00    -0.203 F 
ATOM     56  F   UNL A   1      34.953  33.214  33.684  1.00  0.00    -0.200 F 
ATOM     57  C   UNL A   1      35.324  33.713  31.411  1.00  0.00     0.200 A 
ATOM     58  F   UNL A   1      35.788  34.220  29.157  1.00  0.00    -0.200 F 
ATOM     59  F   UNL A   1      34.437  34.718  31.470  1.00  0.00    -0.200 F 
ENDBRANCH  25  49
BRANCH  37  60
ATOM     60  C   UNL A   1      42.643  29.597  33.935  1.00  0.00     0.064 A 
ATOM     61  C   UNL A   1      42.004  28.352  33.806  1.00  0.00     0.173 A 
ATOM     62  C   UNL A   1      43.199  29.913  35.182  1.00  0.00     0.173 A 
ATOM     63  F   UNL A   1      41.527  27.939  32.625  1.00  0.00    -0.203 F 
ATOM     64  C   UNL A   1      41.902  27.479  34.888  1.00  0.00     0.198 A 
ATOM     65  C   UNL A   1      43.130  29.023  36.250  1.00  0.00     0.198 A 
ATOM     66  F   UNL A   1      43.863  31.067  35.349  1.00  0.00    -0.203 F 
ATOM     67  F   UNL A   1      41.286  26.297  34.743  1.00  0.00    -0.200 F 
ATOM     68  C   UNL A   1      42.477  27.811  36.105  1.00  0.00     0.200 A 
ATOM     69  F   UNL A   1      43.729  29.327  37.409  1.00  0.00    -0.200 F 
ATOM     70  F   UNL A   1      42.426  26.947  37.130  1.00  0.00    -0.200 F 
ENDBRANCH  37  60
ENDBRANCH  11  12
ENDBRANCH   4   6
ENDBRANCH   1   2
BRANCH   1  71
ATOM     71  C   UNL A   1      44.181  21.434  24.999  1.00  0.00     0.042 C 
BRANCH  71  72
ATOM     72  C   UNL A   1      45.481  21.776  25.723  1.00  0.00     0.118 C 
BRANCH  72  73
ATOM     73  N   UNL A   1      45.279  22.419  27.011  1.00  0.00    -0.351 N 
ATOM     74  C   UNL A   1      45.652  23.672  27.441  1.00  0.00     0.273 C 
ATOM     75  H   UNL A   1      44.803  21.875  27.678  1.00  0.00     0.163 HD
ATOM     76  O   UNL A   1      45.392  23.977  28.612  1.00  0.00    -0.267 OA
BRANCH  74  77
ATOM     77  C   UNL A   1      46.358  24.584  26.538  1.00  0.00     0.167 A 
ATOM     78  N   UNL A   1      47.705  24.624  26.529  1.00  0.00    -0.160 NA
ATOM     79  C   UNL A   1      45.830  25.535  25.637  1.00  0.00     0.095 A 
ATOM     80  N   UNL A   1      48.029  25.583  25.633  1.00  0.00    -0.219 N 
ATOM     81  C   UNL A   1      46.901  26.114  25.001  1.00  0.00     0.170 A 
ATOM     82  Br  UNL A   1      44.023  25.960  25.376  1.00  0.00    -0.044 Br
ATOM     83  C   UNL A   1      49.302  26.043  25.316  1.00  0.00     0.132 A 
ATOM     84  N   UNL A   1      47.001  27.044  23.999  1.00  0.00    -0.235 NA
ATOM     85  C   UNL A   1      49.466  26.977  24.370  1.00  0.00     0.054 A 
ATOM     86  C   UNL A   1      48.207  27.434  23.706  1.00  0.00     0.131 A 
ATOM     87  Br  UNL A   1      51.086  27.698  23.853  1.00  0.00    -0.047 Br
ENDBRANCH  74  77
ENDBRANCH  72  73
ENDBRANCH  71  72
ENDBRANCH   1  71
TORSDOF 10
ENDMDL
MODEL 3
REMARK VINA RESULT:     -13.4      4.192      6.790
REMARK SMILES O=C(NCCCNC(=O)c1nn2cc(Br)cnc2c1Br)c1ccc(-c2c3nc(c(-c4c(F)c(F)c(F)c(F)c4F)c4ccc([nH]4)c(-c4c(F)c(F)c(F)c(F)c4F)c4nc(c(-c5c(F)c(F)c(F)c(F)c5F)c5ccc2[nH]5)C=C4)C=C3)cc1
REMARK SMILES IDX 4 1 3 2 1 3 2 4 21 6 22 7 83 8 23 9 82 10 24 11 25 12 26 13
REMARK SMILES IDX 76 14 27 15 81 16 75 17 77 18 28 19 80 20 74 21 73 22 29 24
REMARK SMILES IDX 61 25 41 26 60 27 42 28 45 29 59 30 78 31 43 32 44 33 58 35
REMARK SMILES IDX 79 36 46 37 30 38 31 39 39 40 32 41 33 42 37 43 40 44 34 45
REMARK SMILES IDX 35 46 38 47 36 48 62 49 63 50 71 51 64 52 65 53 69 54 72 55
REMARK SMILES IDX 66 56 67 57 70 58 68 59 47 60 48 61 56 62 49 63 50 64 54 65
REMARK SMILES IDX 57 66 51 67 52 68 55 69 53 70 5 71 6 72 7 73 8 74 9 76 10 77
REMARK SMILES IDX 11 78 19 79 12 80 18 81 20 82 13 83 17 84 14 85 16 86 15 87
REMARK H PARENT 3 5 77 23 45 34 7 75
REMARK Flexibility Score: inf
ROOT
ATOM      1  C   UNL A   1      34.571  32.852  31.461  1.00  0.00     0.118 C 
ENDROOT
BRANCH   1   2
ATOM      2  N   UNL A   1      34.409  32.575  30.048  1.00  0.00    -0.352 N 
ATOM      3  O   UNL A   1      34.433  31.587  28.078  1.00  0.00    -0.269 OA
ATOM      4  C   UNL A   1      35.035  31.768  29.140  1.00  0.00     0.251 C 
ATOM      5  H   UNL A   1      33.674  33.092  29.646  1.00  0.00     0.163 HD
BRANCH   4   6
ATOM      6  C   UNL A   1      36.393  31.173  29.293  1.00  0.00     0.039 A 
ATOM      7  C   UNL A   1      37.583  31.874  29.479  1.00  0.00     0.014 A 
ATOM      8  C   UNL A   1      36.455  29.769  29.173  1.00  0.00     0.014 A 
ATOM      9  C   UNL A   1      38.806  31.202  29.444  1.00  0.00     0.010 A 
ATOM     10  C   UNL A   1      37.669  29.093  29.146  1.00  0.00     0.010 A 
ATOM     11  C   UNL A   1      38.851  29.816  29.242  1.00  0.00    -0.014 A 
BRANCH  11  12
ATOM     12  C   UNL A   1      40.146  29.138  29.309  1.00  0.00     0.031 A 
ATOM     13  C   UNL A   1      40.664  28.951  30.694  1.00  0.00     0.074 A 
ATOM     14  C   UNL A   1      40.781  28.592  28.249  1.00  0.00     0.049 A 
ATOM     15  N   UNL A   1      41.749  29.426  31.212  1.00  0.00    -0.248 NA
ATOM     16  C   UNL A   1      39.811  28.230  31.653  1.00  0.00     0.031 C 
ATOM     17  C   UNL A   1      40.281  28.430  26.882  1.00  0.00     0.029 A 
ATOM     18  N   UNL A   1      42.006  27.984  28.198  1.00  0.00    -0.354 N 
ATOM     19  C   UNL A   1      41.805  28.936  32.517  1.00  0.00     0.074 A 
ATOM     20  C   UNL A   1      40.529  28.323  32.774  1.00  0.00     0.031 C 
ATOM     21  C   UNL A   1      41.097  27.594  26.200  1.00  0.00     0.029 A 
ATOM     22  C   UNL A   1      42.247  27.272  27.028  1.00  0.00     0.049 A 
ATOM     23  H   UNL A   1      42.661  28.047  28.929  1.00  0.00     0.167 HD
ATOM     24  C   UNL A   1      42.979  28.893  33.205  1.00  0.00     0.037 A 
ATOM     25  C   UNL A   1      43.295  26.446  26.778  1.00  0.00     0.037 A 
ATOM     26  C   UNL A   1      43.949  29.782  32.621  1.00  0.00     0.049 A 
ATOM     27  C   UNL A   1      44.375  26.807  27.724  1.00  0.00     0.074 A 
ATOM     28  C   UNL A   1      44.058  31.145  32.445  1.00  0.00     0.029 A 
ATOM     29  N   UNL A   1      44.897  29.222  31.805  1.00  0.00    -0.354 N 
ATOM     30  N   UNL A   1      45.045  27.923  27.683  1.00  0.00    -0.248 NA
ATOM     31  C   UNL A   1      44.461  26.069  28.974  1.00  0.00     0.031 C 
ATOM     32  C   UNL A   1      44.746  31.309  31.208  1.00  0.00     0.029 A 
ATOM     33  C   UNL A   1      45.061  30.040  30.722  1.00  0.00     0.049 A 
ATOM     34  H   UNL A   1      45.376  28.378  31.970  1.00  0.00     0.167 HD
ATOM     35  C   UNL A   1      45.263  28.245  29.011  1.00  0.00     0.074 A 
ATOM     36  C   UNL A   1      44.994  27.015  29.749  1.00  0.00     0.031 C 
ATOM     37  C   UNL A   1      45.363  29.549  29.399  1.00  0.00     0.037 A 
BRANCH  24  38
ATOM     38  C   UNL A   1      43.394  27.769  34.135  1.00  0.00     0.064 A 
ATOM     39  C   UNL A   1      43.580  26.475  33.598  1.00  0.00     0.173 A 
ATOM     40  C   UNL A   1      43.292  27.826  35.542  1.00  0.00     0.173 A 
ATOM     41  F   UNL A   1      43.689  26.292  32.273  1.00  0.00    -0.203 F 
ATOM     42  C   UNL A   1      43.546  25.328  34.395  1.00  0.00     0.198 A 
ATOM     43  C   UNL A   1      43.311  26.681  36.339  1.00  0.00     0.198 A 
ATOM     44  F   UNL A   1      43.060  28.968  36.198  1.00  0.00    -0.203 F 
ATOM     45  F   UNL A   1      43.577  24.118  33.821  1.00  0.00    -0.200 F 
ATOM     46  C   UNL A   1      43.398  25.431  35.765  1.00  0.00     0.200 A 
ATOM     47  F   UNL A   1      43.153  26.801  37.664  1.00  0.00    -0.200 F 
ATOM     48  F   UNL A   1      43.292  24.334  36.525  1.00  0.00    -0.200 F 
ENDBRANCH  24  38
BRANCH  25  49
ATOM     49  C   UNL A   1      43.348  25.182  25.998  1.00  0.00     0.064 A 
ATOM     50  C   UNL A   1      44.420  24.913  25.125  1.00  0.00     0.173 A 
ATOM     51  C   UNL A   1      42.529  24.088  26.331  1.00  0.00     0.173 A 
ATOM     52  F   UNL A   1      45.276  25.888  24.786  1.00  0.00    -0.203 F 
ATOM     53  C   UNL A   1      44.683  23.621  24.656  1.00  0.00     0.198 A 
ATOM     54  C   UNL A   1      42.788  22.799  25.856  1.00  0.00     0.198 A 
ATOM     55  F   UNL A   1      41.523  24.225  27.206  1.00  0.00    -0.203 F 
ATOM     56  F   UNL A   1      45.760  23.392  23.891  1.00  0.00    -0.200 F 
ATOM     57  C   UNL A   1      43.875  22.563  25.035  1.00  0.00     0.200 A 
ATOM     58  F   UNL A   1      42.021  21.777  26.259  1.00  0.00    -0.200 F 
ATOM     59  F   UNL A   1      44.167  21.313  24.647  1.00  0.00    -0.200 F 
ENDBRANCH  25  49
BRANCH  37  60
ATOM     60  C   UNL A   1      45.568  30.582  28.328  1.00  0.00     0.064 A 
ATOM     61  C   UNL A   1      44.526  31.200  27.616  1.00  0.00     0.173 A 
ATOM     62  C   UNL A   1      46.866  31.070  28.129  1.00  0.00     0.173 A 
ATOM     63  F   UNL A   1      43.249  30.852  27.817  1.00  0.00    -0.203 F 
ATOM     64  C   UNL A   1      44.781  32.241  26.724  1.00  0.00     0.198 A 
ATOM     65  C   UNL A   1      47.113  32.135  27.268  1.00  0.00     0.198 A 
ATOM     66  F   UNL A   1      47.892  30.549  28.819  1.00  0.00    -0.203 F 
ATOM     67  F   UNL A   1      43.771  32.816  26.053  1.00  0.00    -0.200 F 
ATOM     68  C   UNL A   1      46.073  32.714  26.561  1.00  0.00     0.200 A 
ATOM     69  F   UNL A   1      48.356  32.621  27.151  1.00  0.00    -0.200 F 
ATOM     70  F   UNL A   1      46.311  33.751  25.744  1.00  0.00    -0.200 F 
ENDBRANCH  37  60
ENDBRANCH  11  12
ENDBRANCH   4   6
ENDBRANCH   1   2
BRANCH   1  71
ATOM     71  C   UNL A   1      34.185  34.263  31.904  1.00  0.00     0.042 C 
BRANCH  71  72
ATOM     72  C   UNL A   1      35.293  35.074  32.570  1.00  0.00     0.118 C 
BRANCH  72  73
ATOM     73  N   UNL A   1      36.589  34.927  31.929  1.00  0.00    -0.351 N 
ATOM     74  C   UNL A   1      37.761  34.396  32.416  1.00  0.00     0.273 C 
ATOM     75  H   UNL A   1      36.636  35.259  31.004  1.00  0.00     0.163 HD
ATOM     76  O   UNL A   1      38.752  34.418  31.675  1.00  0.00    -0.267 OA
BRANCH  74  77
ATOM     77  C   UNL A   1      37.819  33.858  33.777  1.00  0.00     0.167 A 
ATOM     78  N   UNL A   1      38.106  34.666  34.817  1.00  0.00    -0.160 NA
ATOM     79  C   UNL A   1      37.659  32.525  34.219  1.00  0.00     0.095 A 
ATOM     80  N   UNL A   1      38.123  33.861  35.902  1.00  0.00    -0.219 N 
ATOM     81  C   UNL A   1      37.773  32.545  35.588  1.00  0.00     0.170 A 
ATOM     82  Br  UNL A   1      37.381  31.009  33.151  1.00  0.00    -0.044 Br
ATOM     83  C   UNL A   1      38.437  34.217  37.209  1.00  0.00     0.132 A 
ATOM     84  N   UNL A   1      37.649  31.577  36.549  1.00  0.00    -0.235 NA
ATOM     85  C   UNL A   1      38.370  33.309  38.191  1.00  0.00     0.054 A 
ATOM     86  C   UNL A   1      37.922  31.948  37.766  1.00  0.00     0.131 A 
ATOM     87  Br  UNL A   1      38.772  33.626  39.966  1.00  0.00    -0.047 Br
ENDBRANCH  74  77
ENDBRANCH  72  73
ENDBRANCH  71  72
ENDBRANCH   1  71
TORSDOF 10
ENDMDL
