MODEL 1
REMARK VINA RESULT:     -11.6      0.000      0.000
REMARK SMILES CC(C)C[C@@H](CNC(=O)[C@@H]1CCOC1)C(=O)NCCCNC(=O)c1ccc(-c2c3nc(c(-c4c(F)c(F)c(F)c(F)c4F)c4ccc([nH]4)c(-c4c(F)c(F)c(F)c(F)c4F)c4nc(c(-c5c(F)c(F)c(F)c(F)c5F)c5ccc2[nH]5)C=C4)C=C3)cc1
REMARK SMILES IDX 18 1 17 2 15 3 16 4 5 6 4 7 2 8 1 9 3 10 6 11 7 12 8 13 9 15
REMARK SMILES IDX 10 16 11 17 14 18 12 19 13 20 19 21 20 22 21 23 22 24 23 26
REMARK SMILES IDX 24 27 25 28 86 29 26 30 85 31 27 32 28 33 29 34 79 35 30 36
REMARK SMILES IDX 84 37 78 38 80 39 31 40 83 41 77 42 76 43 32 45 64 46 44 47
REMARK SMILES IDX 63 48 45 49 48 50 62 51 81 52 46 53 47 54 61 56 82 57 49 58
REMARK SMILES IDX 33 59 34 60 42 61 35 62 36 63 40 64 43 65 37 66 38 67 41 68
REMARK SMILES IDX 39 69 65 70 66 71 74 72 67 73 68 74 72 75 75 76 69 77 70 78
REMARK SMILES IDX 73 79 71 80 50 81 51 82 59 83 52 84 53 85 57 86 60 87 54 88
REMARK SMILES IDX 55 89 58 90 56 91
REMARK H PARENT 17 5 7 14 21 25 80 44 48 55
REMARK Flexibility Score: inf
ROOT
ATOM      1  C   UNL A   1      31.967  30.026  26.374  1.00  0.00     0.117 C 
ENDROOT
BRANCH   1   2
ATOM      2  N   UNL A   1      32.714  29.714  25.167  1.00  0.00    -0.356 N 
ATOM      3  C   UNL A   1      32.324  29.227  23.961  1.00  0.00     0.224 C 
ATOM      4  O   UNL A   1      33.181  29.195  23.072  1.00  0.00    -0.275 OA
ATOM      5  H   UNL A   1      33.680  29.890  25.236  1.00  0.00     0.163 HD
BRANCH   3   6
ATOM      6  C   UNL A   1      30.904  28.757  23.661  1.00  0.00     0.098 C 
BRANCH   6   7
ATOM      7  C   UNL A   1      30.066  29.819  22.922  1.00  0.00     0.018 C 
BRANCH   7   8
ATOM      8  C   UNL A   1      28.796  29.315  22.211  1.00  0.00    -0.017 C 
ATOM      9  C   UNL A   1      27.727  28.829  23.190  1.00  0.00     0.007 C 
ATOM     10  C   UNL A   1      28.220  30.438  21.340  1.00  0.00     0.007 C 
ENDBRANCH   7   8
ENDBRANCH   6   7
BRANCH   6  11
ATOM     11  C   UNL A   1      30.866  27.304  23.151  1.00  0.00     0.129 C 
BRANCH  11  12
ATOM     12  N   UNL A   1      31.692  27.021  21.992  1.00  0.00    -0.355 N 
ATOM     13  C   UNL A   1      32.468  25.928  21.725  1.00  0.00     0.225 C 
ATOM     14  H   UNL A   1      31.694  27.718  21.297  1.00  0.00     0.163 HD
ATOM     15  O   UNL A   1      33.234  25.990  20.764  1.00  0.00    -0.275 OA
BRANCH  13  16
ATOM     16  C   UNL A   1      32.378  24.708  22.630  1.00  0.00     0.106 C 
ATOM     17  C   UNL A   1      33.145  24.867  23.927  1.00  0.00     0.044 C 
ATOM     18  C   UNL A   1      33.092  23.540  21.972  1.00  0.00     0.173 C 
ATOM     19  C   UNL A   1      34.550  24.466  23.538  1.00  0.00     0.161 C 
ATOM     20  O   UNL A   1      34.413  23.456  22.530  1.00  0.00    -0.381 OA
ENDBRANCH  13  16
ENDBRANCH  11  12
ENDBRANCH   6  11
ENDBRANCH   3   6
ENDBRANCH   1   2
BRANCH   1  21
ATOM     21  C   UNL A   1      31.673  31.506  26.522  1.00  0.00     0.042 C 
BRANCH  21  22
ATOM     22  C   UNL A   1      32.784  32.263  27.233  1.00  0.00     0.118 C 
BRANCH  22  23
ATOM     23  N   UNL A   1      32.455  33.666  27.469  1.00  0.00    -0.352 N 
ATOM     24  C   UNL A   1      32.973  34.560  28.376  1.00  0.00     0.251 C 
ATOM     25  H   UNL A   1      31.751  34.029  26.886  1.00  0.00     0.163 HD
ATOM     26  O   UNL A   1      32.449  35.658  28.534  1.00  0.00    -0.269 OA
BRANCH  24  27
ATOM     27  C   UNL A   1      34.150  34.184  29.180  1.00  0.00     0.039 A 
ATOM     28  C   UNL A   1      33.979  33.407  30.329  1.00  0.00     0.014 A 
ATOM     29  C   UNL A   1      35.428  34.577  28.779  1.00  0.00     0.014 A 
ATOM     30  C   UNL A   1      35.100  32.941  31.020  1.00  0.00     0.010 A 
ATOM     31  C   UNL A   1      36.539  34.029  29.402  1.00  0.00     0.010 A 
ATOM     32  C   UNL A   1      36.388  33.205  30.529  1.00  0.00    -0.014 A 
BRANCH  32  33
ATOM     33  C   UNL A   1      37.612  32.658  31.165  1.00  0.00     0.031 A 
ATOM     34  C   UNL A   1      38.359  31.546  30.484  1.00  0.00     0.074 A 
ATOM     35  C   UNL A   1      37.970  33.065  32.399  1.00  0.00     0.049 A 
ATOM     36  N   UNL A   1      39.303  30.771  30.950  1.00  0.00    -0.248 NA
ATOM     37  C   UNL A   1      37.950  31.232  29.104  1.00  0.00     0.031 C 
ATOM     38  C   UNL A   1      37.300  34.104  33.181  1.00  0.00     0.029 A 
ATOM     39  N   UNL A   1      38.976  32.627  33.223  1.00  0.00    -0.354 N 
ATOM     40  C   UNL A   1      39.565  29.853  29.943  1.00  0.00     0.074 A 
ATOM     41  C   UNL A   1      38.653  30.137  28.857  1.00  0.00     0.031 C 
ATOM     42  C   UNL A   1      37.921  34.234  34.363  1.00  0.00     0.029 A 
ATOM     43  C   UNL A   1      39.000  33.255  34.445  1.00  0.00     0.049 A 
ATOM     44  H   UNL A   1      39.620  31.928  32.964  1.00  0.00     0.167 HD
ATOM     45  C   UNL A   1      40.498  28.871  29.919  1.00  0.00     0.037 A 
ATOM     46  C   UNL A   1      39.791  33.049  35.514  1.00  0.00     0.037 A 
ATOM     47  C   UNL A   1      41.440  28.635  30.978  1.00  0.00     0.049 A 
ATOM     48  C   UNL A   1      40.845  31.978  35.449  1.00  0.00     0.074 A 
ATOM     49  C   UNL A   1      42.470  27.713  31.027  1.00  0.00     0.029 A 
ATOM     50  N   UNL A   1      41.475  29.341  32.172  1.00  0.00    -0.354 N 
ATOM     51  N   UNL A   1      41.113  31.140  34.477  1.00  0.00    -0.248 NA
ATOM     52  C   UNL A   1      41.710  31.823  36.627  1.00  0.00     0.031 C 
ATOM     53  C   UNL A   1      43.111  27.842  32.263  1.00  0.00     0.029 A 
ATOM     54  C   UNL A   1      42.507  28.872  32.966  1.00  0.00     0.049 A 
ATOM     55  H   UNL A   1      40.857  30.067  32.418  1.00  0.00     0.167 HD
ATOM     56  C   UNL A   1      42.194  30.386  34.909  1.00  0.00     0.074 A 
ATOM     57  C   UNL A   1      42.537  30.867  36.232  1.00  0.00     0.031 C 
ATOM     58  C   UNL A   1      42.847  29.387  34.267  1.00  0.00     0.037 A 
BRANCH  45  59
ATOM     59  C   UNL A   1      40.547  27.991  28.706  1.00  0.00     0.064 A 
ATOM     60  C   UNL A   1      41.320  28.324  27.584  1.00  0.00     0.173 A 
ATOM     61  C   UNL A   1      39.829  26.784  28.673  1.00  0.00     0.173 A 
ATOM     62  F   UNL A   1      42.013  29.473  27.558  1.00  0.00    -0.203 F 
ATOM     63  C   UNL A   1      41.347  27.500  26.461  1.00  0.00     0.198 A 
ATOM     64  C   UNL A   1      39.884  25.948  27.561  1.00  0.00     0.198 A 
ATOM     65  F   UNL A   1      39.077  26.416  29.721  1.00  0.00    -0.203 F 
ATOM     66  F   UNL A   1      42.049  27.868  25.380  1.00  0.00    -0.200 F 
ATOM     67  C   UNL A   1      40.636  26.311  26.454  1.00  0.00     0.200 A 
ATOM     68  F   UNL A   1      39.205  24.792  27.560  1.00  0.00    -0.200 F 
ATOM     69  F   UNL A   1      40.667  25.517  25.375  1.00  0.00    -0.200 F 
ENDBRANCH  45  59
BRANCH  46  70
ATOM     70  C   UNL A   1      39.635  33.894  36.727  1.00  0.00     0.064 A 
ATOM     71  C   UNL A   1      38.857  33.455  37.808  1.00  0.00     0.173 A 
ATOM     72  C   UNL A   1      40.258  35.144  36.837  1.00  0.00     0.173 A 
ATOM     73  F   UNL A   1      38.226  32.274  37.742  1.00  0.00    -0.203 F 
ATOM     74  C   UNL A   1      38.693  34.244  38.944  1.00  0.00     0.198 A 
ATOM     75  C   UNL A   1      40.114  35.922  37.985  1.00  0.00     0.198 A 
ATOM     76  F   UNL A   1      41.020  35.606  35.834  1.00  0.00    -0.203 F 
ATOM     77  F   UNL A   1      37.910  33.818  39.945  1.00  0.00    -0.200 F 
ATOM     78  C   UNL A   1      39.326  35.474  39.033  1.00  0.00     0.200 A 
ATOM     79  F   UNL A   1      40.739  37.104  38.073  1.00  0.00    -0.200 F 
ATOM     80  F   UNL A   1      39.171  36.232  40.128  1.00  0.00    -0.200 F 
ENDBRANCH  46  70
BRANCH  58  81
ATOM     81  C   UNL A   1      44.036  28.785  34.954  1.00  0.00     0.064 A 
ATOM     82  C   UNL A   1      43.916  27.661  35.781  1.00  0.00     0.173 A 
ATOM     83  C   UNL A   1      45.319  29.302  34.720  1.00  0.00     0.173 A 
ATOM     84  F   UNL A   1      42.709  27.140  36.044  1.00  0.00    -0.203 F 
ATOM     85  C   UNL A   1      45.041  27.081  36.362  1.00  0.00     0.198 A 
ATOM     86  C   UNL A   1      46.443  28.705  35.283  1.00  0.00     0.198 A 
ATOM     87  F   UNL A   1      45.483  30.374  33.931  1.00  0.00    -0.203 F 
ATOM     88  F   UNL A   1      44.904  26.025  37.174  1.00  0.00    -0.200 F 
ATOM     89  C   UNL A   1      46.303  27.598  36.105  1.00  0.00     0.200 A 
ATOM     90  F   UNL A   1      47.662  29.198  35.022  1.00  0.00    -0.200 F 
ATOM     91  F   UNL A   1      47.386  27.029  36.653  1.00  0.00    -0.200 F 
ENDBRANCH  58  81
ENDBRANCH  32  33
ENDBRANCH  24  27
ENDBRANCH  22  23
ENDBRANCH  21  22
ENDBRANCH   1  21
TORSDOF 15
ENDMDL
MODEL 2
REMARK VINA RESULT:     -11.5      2.010      3.601
REMARK SMILES CC(C)C[C@@H](CNC(=O)[C@@H]1CCOC1)C(=O)NCCCNC(=O)c1ccc(-c2c3nc(c(-c4c(F)c(F)c(F)c(F)c4F)c4ccc([nH]4)c(-c4c(F)c(F)c(F)c(F)c4F)c4nc(c(-c5c(F)c(F)c(F)c(F)c5F)c5ccc2[nH]5)C=C4)C=C3)cc1
REMARK SMILES IDX 18 1 17 2 15 3 16 4 5 6 4 7 2 8 1 9 3 10 6 11 7 12 8 13 9 15
REMARK SMILES IDX 10 16 11 17 14 18 12 19 13 20 19 21 20 22 21 23 22 24 23 26
REMARK SMILES IDX 24 27 25 28 86 29 26 30 85 31 27 32 28 33 29 34 79 35 30 36
REMARK SMILES IDX 84 37 78 38 80 39 31 40 83 41 77 42 76 43 32 45 64 46 44 47
REMARK SMILES IDX 63 48 45 49 48 50 62 51 81 52 46 53 47 54 61 56 82 57 49 58
REMARK SMILES IDX 33 59 34 60 42 61 35 62 36 63 40 64 43 65 37 66 38 67 41 68
REMARK SMILES IDX 39 69 65 70 66 71 74 72 67 73 68 74 72 75 75 76 69 77 70 78
REMARK SMILES IDX 73 79 71 80 50 81 51 82 59 83 52 84 53 85 57 86 60 87 54 88
REMARK SMILES IDX 55 89 58 90 56 91
REMARK H PARENT 17 5 7 14 21 25 80 44 48 55
REMARK Flexibility Score: inf
ROOT
ATOM      1  C   UNL A   1      33.666  26.688  25.621  1.00  0.00     0.117 C 
ENDROOT
BRANCH   1   2
ATOM      2  N   UNL A   1      33.969  26.544  24.207  1.00  0.00    -0.356 N 
ATOM      3  C   UNL A   1      33.402  25.788  23.232  1.00  0.00     0.224 C 
ATOM      4  O   UNL A   1      33.797  25.984  22.078  1.00  0.00    -0.275 OA
ATOM      5  H   UNL A   1      34.723  27.097  23.900  1.00  0.00     0.163 HD
BRANCH   3   6
ATOM      6  C   UNL A   1      32.308  24.757  23.492  1.00  0.00     0.098 C 
BRANCH   6   7
ATOM      7  C   UNL A   1      30.959  25.140  22.850  1.00  0.00     0.018 C 
BRANCH   7   8
ATOM      8  C   UNL A   1      29.931  25.819  23.775  1.00  0.00    -0.017 C 
ATOM      9  C   UNL A   1      30.155  25.487  25.249  1.00  0.00     0.007 C 
ATOM     10  C   UNL A   1      29.993  27.338  23.575  1.00  0.00     0.007 C 
ENDBRANCH   7   8
ENDBRANCH   6   7
BRANCH   6  11
ATOM     11  C   UNL A   1      32.817  23.313  23.328  1.00  0.00     0.129 C 
BRANCH  11  12
ATOM     12  N   UNL A   1      34.151  23.174  22.777  1.00  0.00    -0.355 N 
ATOM     13  C   UNL A   1      35.349  23.034  23.423  1.00  0.00     0.225 C 
ATOM     14  H   UNL A   1      34.203  23.182  21.794  1.00  0.00     0.163 HD
ATOM     15  O   UNL A   1      36.376  23.126  22.752  1.00  0.00    -0.275 OA
BRANCH  13  16
ATOM     16  C   UNL A   1      35.364  22.805  24.927  1.00  0.00     0.106 C 
ATOM     17  C   UNL A   1      36.220  23.805  25.676  1.00  0.00     0.044 C 
ATOM     18  C   UNL A   1      36.062  21.490  25.227  1.00  0.00     0.173 C 
ATOM     19  C   UNL A   1      37.604  23.204  25.578  1.00  0.00     0.161 C 
ATOM     20  O   UNL A   1      37.423  21.782  25.584  1.00  0.00    -0.381 OA
ENDBRANCH  13  16
ENDBRANCH  11  12
ENDBRANCH   6  11
ENDBRANCH   3   6
ENDBRANCH   1   2
BRANCH   1  21
ATOM     21  C   UNL A   1      32.777  27.879  25.919  1.00  0.00     0.042 C 
BRANCH  21  22
ATOM     22  C   UNL A   1      33.308  29.176  25.327  1.00  0.00     0.118 C 
BRANCH  22  23
ATOM     23  N   UNL A   1      32.724  30.363  25.946  1.00  0.00    -0.352 N 
ATOM     24  C   UNL A   1      33.169  31.127  26.998  1.00  0.00     0.251 C 
ATOM     25  H   UNL A   1      31.877  30.664  25.545  1.00  0.00     0.163 HD
ATOM     26  O   UNL A   1      32.451  31.997  27.481  1.00  0.00    -0.269 OA
BRANCH  24  27
ATOM     27  C   UNL A   1      34.509  30.881  27.564  1.00  0.00     0.039 A 
ATOM     28  C   UNL A   1      35.423  31.933  27.650  1.00  0.00     0.014 A 
ATOM     29  C   UNL A   1      34.847  29.612  28.035  1.00  0.00     0.014 A 
ATOM     30  C   UNL A   1      36.642  31.736  28.301  1.00  0.00     0.010 A 
ATOM     31  C   UNL A   1      36.010  29.445  28.773  1.00  0.00     0.010 A 
ATOM     32  C   UNL A   1      36.920  30.504  28.914  1.00  0.00    -0.014 A 
BRANCH  32  33
ATOM     33  C   UNL A   1      38.155  30.265  29.701  1.00  0.00     0.031 A 
ATOM     34  C   UNL A   1      39.204  29.337  29.156  1.00  0.00     0.074 A 
ATOM     35  C   UNL A   1      38.272  30.771  30.944  1.00  0.00     0.049 A 
ATOM     36  N   UNL A   1      40.239  28.808  29.756  1.00  0.00    -0.248 NA
ATOM     37  C   UNL A   1      39.035  28.906  27.758  1.00  0.00     0.031 C 
ATOM     38  C   UNL A   1      37.303  31.648  31.601  1.00  0.00     0.029 A 
ATOM     39  N   UNL A   1      39.251  30.592  31.890  1.00  0.00    -0.354 N 
ATOM     40  C   UNL A   1      40.812  27.950  28.827  1.00  0.00     0.074 A 
ATOM     41  C   UNL A   1      39.988  27.995  27.639  1.00  0.00     0.031 C 
ATOM     42  C   UNL A   1      37.740  31.943  32.835  1.00  0.00     0.029 A 
ATOM     43  C   UNL A   1      38.994  31.237  33.076  1.00  0.00     0.049 A 
ATOM     44  H   UNL A   1      40.059  30.053  31.734  1.00  0.00     0.167 HD
ATOM     45  C   UNL A   1      41.937  27.206  28.948  1.00  0.00     0.037 A 
ATOM     46  C   UNL A   1      39.685  31.241  34.231  1.00  0.00     0.037 A 
ATOM     47  C   UNL A   1      42.783  27.215  30.110  1.00  0.00     0.049 A 
ATOM     48  C   UNL A   1      40.953  30.437  34.328  1.00  0.00     0.074 A 
ATOM     49  C   UNL A   1      43.980  26.553  30.312  1.00  0.00     0.029 A 
ATOM     50  N   UNL A   1      42.524  27.938  31.266  1.00  0.00    -0.354 N 
ATOM     51  N   UNL A   1      41.510  29.660  33.431  1.00  0.00    -0.248 NA
ATOM     52  C   UNL A   1      41.691  30.511  35.597  1.00  0.00     0.031 C 
ATOM     53  C   UNL A   1      44.432  26.853  31.601  1.00  0.00     0.029 A 
ATOM     54  C   UNL A   1      43.537  27.734  32.186  1.00  0.00     0.049 A 
ATOM     55  H   UNL A   1      41.735  28.510  31.410  1.00  0.00     0.167 HD
ATOM     56  C   UNL A   1      42.676  29.182  34.010  1.00  0.00     0.074 A 
ATOM     57  C   UNL A   1      42.751  29.759  35.337  1.00  0.00     0.031 C 
ATOM     58  C   UNL A   1      43.604  28.343  33.489  1.00  0.00     0.037 A 
BRANCH  45  59
ATOM     59  C   UNL A   1      42.319  26.333  27.790  1.00  0.00     0.064 A 
ATOM     60  C   UNL A   1      41.731  25.075  27.590  1.00  0.00     0.173 A 
ATOM     61  C   UNL A   1      43.270  26.769  26.854  1.00  0.00     0.173 A 
ATOM     62  F   UNL A   1      40.827  24.605  28.464  1.00  0.00    -0.203 F 
ATOM     63  C   UNL A   1      42.104  24.272  26.515  1.00  0.00     0.198 A 
ATOM     64  C   UNL A   1      43.617  25.976  25.763  1.00  0.00     0.198 A 
ATOM     65  F   UNL A   1      43.860  27.965  26.995  1.00  0.00    -0.203 F 
ATOM     66  F   UNL A   1      41.569  23.051  26.377  1.00  0.00    -0.200 F 
ATOM     67  C   UNL A   1      43.040  24.726  25.600  1.00  0.00     0.200 A 
ATOM     68  F   UNL A   1      44.514  26.421  24.872  1.00  0.00    -0.200 F 
ATOM     69  F   UNL A   1      43.394  23.954  24.563  1.00  0.00    -0.200 F 
ENDBRANCH  45  59
BRANCH  46  70
ATOM     70  C   UNL A   1      39.209  32.056  35.379  1.00  0.00     0.064 A 
ATOM     71  C   UNL A   1      39.530  33.418  35.471  1.00  0.00     0.173 A 
ATOM     72  C   UNL A   1      38.424  31.500  36.399  1.00  0.00     0.173 A 
ATOM     73  F   UNL A   1      40.294  33.989  34.529  1.00  0.00    -0.203 F 
ATOM     74  C   UNL A   1      39.101  34.188  36.550  1.00  0.00     0.198 A 
ATOM     75  C   UNL A   1      37.974  32.278  37.465  1.00  0.00     0.198 A 
ATOM     76  F   UNL A   1      38.083  30.204  36.354  1.00  0.00    -0.203 F 
ATOM     77  F   UNL A   1      39.458  35.477  36.633  1.00  0.00    -0.200 F 
ATOM     78  C   UNL A   1      38.319  33.618  37.543  1.00  0.00     0.200 A 
ATOM     79  F   UNL A   1      37.207  31.727  38.415  1.00  0.00    -0.200 F 
ATOM     80  F   UNL A   1      37.903  34.360  38.578  1.00  0.00    -0.200 F 
ENDBRANCH  46  70
BRANCH  58  81
ATOM     81  C   UNL A   1      44.812  28.043  34.325  1.00  0.00     0.064 A 
ATOM     82  C   UNL A   1      45.947  28.864  34.299  1.00  0.00     0.173 A 
ATOM     83  C   UNL A   1      44.799  26.958  35.214  1.00  0.00     0.173 A 
ATOM     84  F   UNL A   1      46.010  29.904  33.455  1.00  0.00    -0.203 F 
ATOM     85  C   UNL A   1      47.035  28.601  35.128  1.00  0.00     0.198 A 
ATOM     86  C   UNL A   1      45.878  26.713  36.058  1.00  0.00     0.198 A 
ATOM     87  F   UNL A   1      43.732  26.148  35.278  1.00  0.00    -0.203 F 
ATOM     88  F   UNL A   1      48.124  29.379  35.067  1.00  0.00    -0.200 F 
ATOM     89  C   UNL A   1      46.996  27.533  36.012  1.00  0.00     0.200 A 
ATOM     90  F   UNL A   1      45.832  25.689  36.920  1.00  0.00    -0.200 F 
ATOM     91  F   UNL A   1      48.038  27.291  36.819  1.00  0.00    -0.200 F 
ENDBRANCH  58  81
ENDBRANCH  32  33
ENDBRANCH  24  27
ENDBRANCH  22  23
ENDBRANCH  21  22
ENDBRANCH   1  21
TORSDOF 15
ENDMDL
MODEL 3
REMARK VINA RESULT:     -11.5      1.659      2.376
REMARK SMILES CC(C)C[C@@H](CNC(=O)[C@@H]1CCOC1)C(=O)NCCCNC(=O)c1ccc(-c2c3nc(c(-c4c(F)c(F)c(F)c(F)c4F)c4ccc([nH]4)c(-c4c(F)c(F)c(F)c(F)c4F)c4nc(c(-c5c(F)c(F)c(F)c(F)c5F)c5ccc2[nH]5)C=C4)C=C3)cc1
REMARK SMILES IDX 18 1 17 2 15 3 16 4 5 6 4 7 2 8 1 9 3 10 6 11 7 12 8 13 9 15
REMARK SMILES IDX 10 16 11 17 14 18 12 19 13 20 19 21 20 22 21 23 22 24 23 26
REMARK SMILES IDX 24 27 25 28 86 29 26 30 85 31 27 32 28 33 29 34 79 35 30 36
REMARK SMILES IDX 84 37 78 38 80 39 31 40 83 41 77 42 76 43 32 45 64 46 44 47
REMARK SMILES IDX 63 48 45 49 48 50 62 51 81 52 46 53 47 54 61 56 82 57 49 58
REMARK SMILES IDX 33 59 34 60 42 61 35 62 36 63 40 64 43 65 37 66 38 67 41 68
REMARK SMILES IDX 39 69 65 70 66 71 74 72 67 73 68 74 72 75 75 76 69 77 70 78
REMARK SMILES IDX 73 79 71 80 50 81 51 82 59 83 52 84 53 85 57 86 60 87 54 88
REMARK SMILES IDX 55 89 58 90 56 91
REMARK H PARENT 17 5 7 14 21 25 80 44 48 55
REMARK Flexibility Score: inf
ROOT
ATOM      1  C   UNL A   1      32.163  30.538  26.194  1.00  0.00     0.117 C 
ENDROOT
BRANCH   1   2
ATOM      2  N   UNL A   1      31.819  29.519  27.173  1.00  0.00    -0.356 N 
ATOM      3  C   UNL A   1      31.708  28.170  27.074  1.00  0.00     0.224 C 
ATOM      4  O   UNL A   1      31.530  27.550  28.128  1.00  0.00    -0.275 OA
ATOM      5  H   UNL A   1      31.633  29.874  28.072  1.00  0.00     0.163 HD
BRANCH   3   6
ATOM      6  C   UNL A   1      31.819  27.408  25.757  1.00  0.00     0.098 C 
BRANCH   6   7
ATOM      7  C   UNL A   1      33.280  27.151  25.336  1.00  0.00     0.018 C 
BRANCH   7   8
ATOM      8  C   UNL A   1      33.621  27.412  23.857  1.00  0.00    -0.017 C 
ATOM      9  C   UNL A   1      33.633  26.132  23.021  1.00  0.00     0.007 C 
ATOM     10  C   UNL A   1      32.606  28.399  23.268  1.00  0.00     0.007 C 
ENDBRANCH   7   8
ENDBRANCH   6   7
BRANCH   6  11
ATOM     11  C   UNL A   1      30.813  26.245  25.670  1.00  0.00     0.129 C 
BRANCH  11  12
ATOM     12  N   UNL A   1      30.911  25.247  26.717  1.00  0.00    -0.355 N 
ATOM     13  C   UNL A   1      31.593  24.061  26.725  1.00  0.00     0.225 C 
ATOM     14  H   UNL A   1      30.414  25.452  27.541  1.00  0.00     0.163 HD
ATOM     15  O   UNL A   1      31.376  23.282  27.654  1.00  0.00    -0.275 OA
BRANCH  13  16
ATOM     16  C   UNL A   1      32.553  23.743  25.590  1.00  0.00     0.106 C 
ATOM     17  C   UNL A   1      31.906  22.974  24.456  1.00  0.00     0.044 C 
ATOM     18  C   UNL A   1      33.608  22.768  26.083  1.00  0.00     0.173 C 
ATOM     19  C   UNL A   1      31.998  21.540  24.926  1.00  0.00     0.161 C 
ATOM     20  O   UNL A   1      33.210  21.446  25.685  1.00  0.00    -0.381 OA
ENDBRANCH  13  16
ENDBRANCH  11  12
ENDBRANCH   6  11
ENDBRANCH   3   6
ENDBRANCH   1   2
BRANCH   1  21
ATOM     21  C   UNL A   1      31.758  31.934  26.625  1.00  0.00     0.042 C 
BRANCH  21  22
ATOM     22  C   UNL A   1      32.841  32.645  27.422  1.00  0.00     0.118 C 
BRANCH  22  23
ATOM     23  N   UNL A   1      32.527  34.047  27.682  1.00  0.00    -0.352 N 
ATOM     24  C   UNL A   1      33.055  34.920  28.602  1.00  0.00     0.251 C 
ATOM     25  H   UNL A   1      31.824  34.427  27.106  1.00  0.00     0.163 HD
ATOM     26  O   UNL A   1      32.543  36.021  28.779  1.00  0.00    -0.269 OA
BRANCH  24  27
ATOM     27  C   UNL A   1      34.230  34.519  29.397  1.00  0.00     0.039 A 
ATOM     28  C   UNL A   1      34.044  33.918  30.644  1.00  0.00     0.014 A 
ATOM     29  C   UNL A   1      35.517  34.713  28.893  1.00  0.00     0.014 A 
ATOM     30  C   UNL A   1      35.147  33.421  31.342  1.00  0.00     0.010 A 
ATOM     31  C   UNL A   1      36.598  34.127  29.534  1.00  0.00     0.010 A 
ATOM     32  C   UNL A   1      36.425  33.474  30.765  1.00  0.00    -0.014 A 
BRANCH  32  33
ATOM     33  C   UNL A   1      37.619  32.878  31.415  1.00  0.00     0.031 A 
ATOM     34  C   UNL A   1      38.320  31.728  30.748  1.00  0.00     0.074 A 
ATOM     35  C   UNL A   1      37.987  33.278  32.647  1.00  0.00     0.049 A 
ATOM     36  N   UNL A   1      39.224  30.915  31.228  1.00  0.00    -0.248 NA
ATOM     37  C   UNL A   1      37.906  31.421  29.369  1.00  0.00     0.031 C 
ATOM     38  C   UNL A   1      37.360  34.354  33.416  1.00  0.00     0.029 A 
ATOM     39  N   UNL A   1      38.967  32.803  33.483  1.00  0.00    -0.354 N 
ATOM     40  C   UNL A   1      39.452  29.977  30.231  1.00  0.00     0.074 A 
ATOM     41  C   UNL A   1      38.561  30.293  29.136  1.00  0.00     0.031 C 
ATOM     42  C   UNL A   1      37.977  34.466  34.602  1.00  0.00     0.029 A 
ATOM     43  C   UNL A   1      39.010  33.440  34.699  1.00  0.00     0.049 A 
ATOM     44  H   UNL A   1      39.580  32.074  33.234  1.00  0.00     0.167 HD
ATOM     45  C   UNL A   1      40.339  28.954  30.221  1.00  0.00     0.037 A 
ATOM     46  C   UNL A   1      39.784  33.208  35.776  1.00  0.00     0.037 A 
ATOM     47  C   UNL A   1      41.263  28.685  31.288  1.00  0.00     0.049 A 
ATOM     48  C   UNL A   1      40.790  32.090  35.727  1.00  0.00     0.074 A 
ATOM     49  C   UNL A   1      42.250  27.718  31.353  1.00  0.00     0.029 A 
ATOM     50  N   UNL A   1      41.322  29.398  32.477  1.00  0.00    -0.354 N 
ATOM     51  N   UNL A   1      41.026  31.232  34.764  1.00  0.00    -0.248 NA
ATOM     52  C   UNL A   1      41.638  31.906  36.913  1.00  0.00     0.031 C 
ATOM     53  C   UNL A   1      42.888  27.828  32.592  1.00  0.00     0.029 A 
ATOM     54  C   UNL A   1      42.326  28.891  33.282  1.00  0.00     0.049 A 
ATOM     55  H   UNL A   1      40.736  30.154  32.712  1.00  0.00     0.167 HD
ATOM     56  C   UNL A   1      42.069  30.434  35.210  1.00  0.00     0.074 A 
ATOM     57  C   UNL A   1      42.424  30.910  36.531  1.00  0.00     0.031 C 
ATOM     58  C   UNL A   1      42.680  29.401  34.581  1.00  0.00     0.037 A 
BRANCH  45  59
ATOM     59  C   UNL A   1      40.357  28.062  29.015  1.00  0.00     0.064 A 
ATOM     60  C   UNL A   1      39.602  26.881  28.961  1.00  0.00     0.173 A 
ATOM     61  C   UNL A   1      41.122  28.405  27.889  1.00  0.00     0.173 A 
ATOM     62  F   UNL A   1      38.866  26.501  30.016  1.00  0.00    -0.203 F 
ATOM     63  C   UNL A   1      39.637  26.059  27.837  1.00  0.00     0.198 A 
ATOM     64  C   UNL A   1      41.129  27.596  26.755  1.00  0.00     0.198 A 
ATOM     65  F   UNL A   1      41.859  29.525  27.886  1.00  0.00    -0.203 F 
ATOM     66  F   UNL A   1      38.951  24.907  27.831  1.00  0.00    -0.200 F 
ATOM     67  C   UNL A   1      40.395  26.420  26.734  1.00  0.00     0.200 A 
ATOM     68  F   UNL A   1      41.853  27.953  25.684  1.00  0.00    -0.200 F 
ATOM     69  F   UNL A   1      40.423  25.630  25.652  1.00  0.00    -0.200 F 
ENDBRANCH  45  59
BRANCH  46  70
ATOM     70  C   UNL A   1      39.659  34.069  36.981  1.00  0.00     0.064 A 
ATOM     71  C   UNL A   1      38.875  33.663  38.071  1.00  0.00     0.173 A 
ATOM     72  C   UNL A   1      40.316  35.303  37.074  1.00  0.00     0.173 A 
ATOM     73  F   UNL A   1      38.212  32.499  38.020  1.00  0.00    -0.203 F 
ATOM     74  C   UNL A   1      38.739  34.468  39.199  1.00  0.00     0.198 A 
ATOM     75  C   UNL A   1      40.200  36.096  38.214  1.00  0.00     0.198 A 
ATOM     76  F   UNL A   1      41.084  35.734  36.062  1.00  0.00    -0.203 F 
ATOM     77  F   UNL A   1      37.950  34.074  40.209  1.00  0.00    -0.200 F 
ATOM     78  C   UNL A   1      39.406  35.682  39.272  1.00  0.00     0.200 A 
ATOM     79  F   UNL A   1      40.857  37.262  38.287  1.00  0.00    -0.200 F 
ATOM     80  F   UNL A   1      39.278  36.454  40.359  1.00  0.00    -0.200 F 
ENDBRANCH  46  70
BRANCH  58  81
ATOM     81  C   UNL A   1      43.836  28.752  35.281  1.00  0.00     0.064 A 
ATOM     82  C   UNL A   1      43.653  27.683  36.168  1.00  0.00     0.173 A 
ATOM     83  C   UNL A   1      45.148  29.164  35.003  1.00  0.00     0.173 A 
ATOM     84  F   UNL A   1      42.417  27.264  36.476  1.00  0.00    -0.203 F 
ATOM     85  C   UNL A   1      44.745  27.055  36.762  1.00  0.00     0.198 A 
ATOM     86  C   UNL A   1      46.237  28.518  35.579  1.00  0.00     0.198 A 
ATOM     87  F   UNL A   1      45.373  30.179  34.156  1.00  0.00    -0.203 F 
ATOM     88  F   UNL A   1      44.548  26.055  37.631  1.00  0.00    -0.200 F 
ATOM     89  C   UNL A   1      46.035  27.467  36.460  1.00  0.00     0.200 A 
ATOM     90  F   UNL A   1      47.483  28.909  35.276  1.00  0.00    -0.200 F 
ATOM     91  F   UNL A   1      47.084  26.852  37.022  1.00  0.00    -0.200 F 
ENDBRANCH  58  81
ENDBRANCH  32  33
ENDBRANCH  24  27
ENDBRANCH  22  23
ENDBRANCH  21  22
ENDBRANCH   1  21
TORSDOF 15
ENDMDL
