MODEL 1
REMARK VINA RESULT:     -13.1      0.000      0.000
REMARK SMILES CC[C@H](Oc1cccc(/C=C2\SC(=S)N(NC(=O)c3cccc(O)c3)C2=O)c1)C(=O)NCCCNC(=O)c1ccc(-c2c3nc(c(-c4c(F)c(F)c(F)c(F)c4F)c4ccc([nH]4)c(-c4c(F)c(F)c(F)c(F)c4F)c4nc(c(-c5c(F)c(F)c(F)c(F)c5F)c5ccc2[nH]5)C=C4)C=C3)cc1
REMARK SMILES IDX 29 1 30 2 31 3 3 5 2 6 1 7 4 8 5 9 6 10 28 11 7 12 9 13 8 14
REMARK SMILES IDX 10 15 11 16 12 17 26 18 13 19 15 20 27 21 14 22 16 23 17 24
REMARK SMILES IDX 18 26 19 27 20 28 25 29 21 30 23 31 22 32 24 33 32 35 33 36
REMARK SMILES IDX 34 37 35 38 36 39 37 41 38 42 39 43 100 44 40 45 99 46 41 47
REMARK SMILES IDX 42 48 43 49 93 50 44 51 98 52 92 53 94 54 45 55 97 56 91 57
REMARK SMILES IDX 90 58 46 60 78 61 58 62 77 63 59 64 62 65 76 66 95 67 60 68
REMARK SMILES IDX 61 69 75 71 96 72 63 73 47 74 48 75 56 76 49 77 50 78 54 79
REMARK SMILES IDX 57 80 51 81 52 82 55 83 53 84 79 85 80 86 88 87 81 88 82 89
REMARK SMILES IDX 86 90 89 91 83 92 84 93 87 94 85 95 64 96 65 97 73 98 66 99
REMARK SMILES IDX 67 100 71 101 74 102 68 103 69 104 72 105 70 106
REMARK H PARENT 31 4 16 25 24 34 35 40 94 59 62 70
REMARK Flexibility Score: inf
ROOT
ATOM      1  C   UNL A   1      32.075  32.099  26.894  1.00  0.00     0.261 C 
ATOM      2  O   UNL A   1      31.059  31.951  26.211  1.00  0.00    -0.271 OA
ATOM      3  N   UNL A   1      32.504  33.384  27.156  1.00  0.00    -0.353 N 
ATOM      4  H   UNL A   1      31.986  34.100  26.721  1.00  0.00     0.163 HD
ENDROOT
BRANCH   1   5
ATOM      5  C   UNL A   1      32.831  30.895  27.499  1.00  0.00     0.261 C 
BRANCH   5   6
ATOM      6  C   UNL A   1      34.328  31.188  27.246  1.00  0.00     0.052 C 
ATOM      7  C   UNL A   1      35.368  30.367  27.977  1.00  0.00     0.008 C 
ENDBRANCH   5   6
BRANCH   5   8
ATOM      8  O   UNL A   1      32.142  29.844  26.826  1.00  0.00    -0.481 OA
BRANCH   8   9
ATOM      9  C   UNL A   1      32.704  28.892  26.052  1.00  0.00     0.121 A 
ATOM     10  C   UNL A   1      33.330  29.060  24.835  1.00  0.00     0.046 A 
ATOM     11  C   UNL A   1      32.573  27.606  26.595  1.00  0.00     0.054 A 
ATOM     12  C   UNL A   1      33.669  27.935  24.084  1.00  0.00     0.004 A 
ATOM     13  C   UNL A   1      32.925  26.462  25.882  1.00  0.00    -0.021 A 
ATOM     14  C   UNL A   1      33.450  26.651  24.595  1.00  0.00     0.008 A 
BRANCH  13  15
ATOM     15  C   UNL A   1      32.766  25.076  26.370  1.00  0.00     0.029 C 
ATOM     16  C   UNL A   1      33.586  24.014  26.380  1.00  0.00     0.082 C 
ATOM     17  S   UNL A   1      35.176  23.811  25.764  1.00  0.00    -0.052 SA
ATOM     18  C   UNL A   1      33.096  22.713  26.916  1.00  0.00     0.285 C 
ATOM     19  C   UNL A   1      35.097  22.059  25.853  1.00  0.00     0.168 C 
ATOM     20  N   UNL A   1      33.886  21.697  26.408  1.00  0.00    -0.198 N 
ATOM     21  O   UNL A   1      32.161  22.607  27.704  1.00  0.00    -0.266 OA
ATOM     22  S   UNL A   1      36.333  21.060  25.356  1.00  0.00    -0.050 S 
BRANCH  20  23
ATOM     23  N   UNL A   1      33.574  20.350  26.630  1.00  0.00    -0.255 N 
ATOM     24  C   UNL A   1      32.927  19.499  25.759  1.00  0.00     0.270 C 
ATOM     25  H   UNL A   1      33.844  19.972  27.499  1.00  0.00     0.192 HD
ATOM     26  O   UNL A   1      32.541  18.405  26.169  1.00  0.00    -0.267 OA
BRANCH  24  27
ATOM     27  C   UNL A   1      32.640  19.882  24.356  1.00  0.00     0.045 A 
ATOM     28  C   UNL A   1      32.529  18.843  23.420  1.00  0.00     0.014 A 
ATOM     29  C   UNL A   1      32.459  21.212  23.953  1.00  0.00     0.060 A 
ATOM     30  C   UNL A   1      32.175  19.121  22.101  1.00  0.00     0.005 A 
ATOM     31  C   UNL A   1      32.086  21.471  22.636  1.00  0.00     0.116 A 
ATOM     32  C   UNL A   1      31.936  20.438  21.714  1.00  0.00     0.046 A 
BRANCH  31  33
ATOM     33  O   UNL A   1      31.835  22.738  22.201  1.00  0.00    -0.508 OA
ATOM     34  H   UNL A   1      32.428  23.155  21.606  1.00  0.00     0.293 HD
ENDBRANCH  31  33
ENDBRANCH  24  27
ENDBRANCH  20  23
ENDBRANCH  13  15
ENDBRANCH   8   9
ENDBRANCH   5   8
ENDBRANCH   1   5
BRANCH   3  35
ATOM     35  C   UNL A   1      33.619  33.829  27.987  1.00  0.00     0.118 C 
BRANCH  35  36
ATOM     36  C   UNL A   1      33.195  34.289  29.372  1.00  0.00     0.042 C 
BRANCH  36  37
ATOM     37  C   UNL A   1      33.238  35.799  29.551  1.00  0.00     0.118 C 
BRANCH  37  38
ATOM     38  N   UNL A   1      32.458  36.254  30.698  1.00  0.00    -0.352 N 
ATOM     39  C   UNL A   1      32.595  35.979  32.036  1.00  0.00     0.251 C 
ATOM     40  H   UNL A   1      31.713  36.858  30.475  1.00  0.00     0.163 HD
ATOM     41  O   UNL A   1      31.725  36.343  32.822  1.00  0.00    -0.269 OA
BRANCH  39  42
ATOM     42  C   UNL A   1      33.764  35.222  32.536  1.00  0.00     0.039 A 
ATOM     43  C   UNL A   1      33.567  33.934  33.043  1.00  0.00     0.014 A 
ATOM     44  C   UNL A   1      35.046  35.774  32.521  1.00  0.00     0.014 A 
ATOM     45  C   UNL A   1      34.663  33.172  33.455  1.00  0.00     0.010 A 
ATOM     46  C   UNL A   1      36.144  34.986  32.850  1.00  0.00     0.010 A 
ATOM     47  C   UNL A   1      35.966  33.675  33.318  1.00  0.00    -0.014 A 
BRANCH  47  48
ATOM     48  C   UNL A   1      37.158  32.854  33.656  1.00  0.00     0.031 A 
ATOM     49  C   UNL A   1      37.956  33.150  34.897  1.00  0.00     0.074 A 
ATOM     50  C   UNL A   1      37.578  31.899  32.803  1.00  0.00     0.049 A 
ATOM     51  N   UNL A   1      39.099  32.644  35.289  1.00  0.00    -0.248 NA
ATOM     52  C   UNL A   1      37.412  34.173  35.804  1.00  0.00     0.031 C 
ATOM     53  C   UNL A   1      36.936  31.542  31.535  1.00  0.00     0.029 A 
ATOM     54  N   UNL A   1      38.672  31.071  32.864  1.00  0.00    -0.354 N 
ATOM     55  C   UNL A   1      39.416  33.296  36.474  1.00  0.00     0.074 A 
ATOM     56  C   UNL A   1      38.372  34.271  36.711  1.00  0.00     0.031 C 
ATOM     57  C   UNL A   1      37.653  30.577  30.935  1.00  0.00     0.029 A 
ATOM     58  C   UNL A   1      38.819  30.274  31.756  1.00  0.00     0.049 A 
ATOM     59  H   UNL A   1      39.291  31.052  33.628  1.00  0.00     0.167 HD
ATOM     60  C   UNL A   1      40.464  33.083  37.304  1.00  0.00     0.037 A 
ATOM     61  C   UNL A   1      39.802  29.419  31.425  1.00  0.00     0.037 A 
ATOM     62  C   UNL A   1      41.487  32.092  37.091  1.00  0.00     0.049 A 
ATOM     63  C   UNL A   1      40.969  29.222  32.347  1.00  0.00     0.074 A 
ATOM     64  C   UNL A   1      42.535  31.741  37.923  1.00  0.00     0.029 A 
ATOM     65  N   UNL A   1      41.592  31.298  35.960  1.00  0.00    -0.354 N 
ATOM     66  N   UNL A   1      41.230  29.806  33.489  1.00  0.00    -0.248 NA
ATOM     67  C   UNL A   1      41.980  28.240  31.926  1.00  0.00     0.031 C 
ATOM     68  C   UNL A   1      43.302  30.766  37.278  1.00  0.00     0.029 A 
ATOM     69  C   UNL A   1      42.704  30.476  36.063  1.00  0.00     0.049 A 
ATOM     70  H   UNL A   1      40.970  31.315  35.196  1.00  0.00     0.167 HD
ATOM     71  C   UNL A   1      42.423  29.253  33.932  1.00  0.00     0.074 A 
ATOM     72  C   UNL A   1      42.833  28.283  32.939  1.00  0.00     0.031 C 
ATOM     73  C   UNL A   1      43.111  29.523  35.066  1.00  0.00     0.037 A 
BRANCH  60  74
ATOM     74  C   UNL A   1      40.557  33.931  38.539  1.00  0.00     0.064 A 
ATOM     75  C   UNL A   1      41.303  35.118  38.558  1.00  0.00     0.173 A 
ATOM     76  C   UNL A   1      39.850  33.581  39.698  1.00  0.00     0.173 A 
ATOM     77  F   UNL A   1      42.004  35.493  37.477  1.00  0.00    -0.203 F 
ATOM     78  C   UNL A   1      41.359  35.912  39.700  1.00  0.00     0.198 A 
ATOM     79  C   UNL A   1      39.885  34.391  40.830  1.00  0.00     0.198 A 
ATOM     80  F   UNL A   1      39.114  32.459  39.730  1.00  0.00    -0.203 F 
ATOM     81  F   UNL A   1      42.114  37.018  39.708  1.00  0.00    -0.200 F 
ATOM     82  C   UNL A   1      40.644  35.551  40.832  1.00  0.00     0.200 A 
ATOM     83  F   UNL A   1      39.182  34.050  41.919  1.00  0.00    -0.200 F 
ATOM     84  F   UNL A   1      40.691  36.322  41.929  1.00  0.00    -0.200 F 
ENDBRANCH  60  74
BRANCH  61  85
ATOM     85  C   UNL A   1      39.778  28.717  30.122  1.00  0.00     0.064 A 
ATOM     86  C   UNL A   1      39.259  27.424  29.999  1.00  0.00     0.173 A 
ATOM     87  C   UNL A   1      40.378  29.300  28.999  1.00  0.00     0.173 A 
ATOM     88  F   UNL A   1      38.717  26.816  31.064  1.00  0.00    -0.203 F 
ATOM     89  C   UNL A   1      39.358  26.728  28.796  1.00  0.00     0.198 A 
ATOM     90  C   UNL A   1      40.482  28.602  27.800  1.00  0.00     0.198 A 
ATOM     91  F   UNL A   1      40.895  30.534  29.078  1.00  0.00    -0.203 F 
ATOM     92  F   UNL A   1      38.897  25.471  28.714  1.00  0.00    -0.200 F 
ATOM     93  C   UNL A   1      39.972  27.314  27.699  1.00  0.00     0.200 A 
ATOM     94  F   UNL A   1      41.112  29.169  26.766  1.00  0.00    -0.200 F 
ATOM     95  F   UNL A   1      40.101  26.625  26.557  1.00  0.00    -0.200 F 
ENDBRANCH  61  85
BRANCH  73  96
ATOM     96  C   UNL A   1      44.360  28.731  35.311  1.00  0.00     0.064 A 
ATOM     97  C   UNL A   1      45.604  29.146  34.816  1.00  0.00     0.173 A 
ATOM     98  C   UNL A   1      44.311  27.550  36.067  1.00  0.00     0.173 A 
ATOM     99  F   UNL A   1      45.697  30.256  34.069  1.00  0.00    -0.203 F 
ATOM    100  C   UNL A   1      46.753  28.397  35.055  1.00  0.00     0.198 A 
ATOM    101  C   UNL A   1      45.465  26.817  36.325  1.00  0.00     0.198 A 
ATOM    102  F   UNL A   1      43.144  27.111  36.560  1.00  0.00    -0.203 F 
ATOM    103  F   UNL A   1      47.925  28.786  34.535  1.00  0.00    -0.200 F 
ATOM    104  C   UNL A   1      46.684  27.238  35.814  1.00  0.00     0.200 A 
ATOM    105  F   UNL A   1      45.398  25.702  37.067  1.00  0.00    -0.200 F 
ATOM    106  F   UNL A   1      47.791  26.520  36.045  1.00  0.00    -0.200 F 
ENDBRANCH  73  96
ENDBRANCH  47  48
ENDBRANCH  39  42
ENDBRANCH  37  38
ENDBRANCH  36  37
ENDBRANCH  35  36
ENDBRANCH   3  35
TORSDOF 17
ENDMDL
MODEL 2
REMARK VINA RESULT:     -13.0      5.700     12.155
REMARK SMILES CC[C@H](Oc1cccc(/C=C2\SC(=S)N(NC(=O)c3cccc(O)c3)C2=O)c1)C(=O)NCCCNC(=O)c1ccc(-c2c3nc(c(-c4c(F)c(F)c(F)c(F)c4F)c4ccc([nH]4)c(-c4c(F)c(F)c(F)c(F)c4F)c4nc(c(-c5c(F)c(F)c(F)c(F)c5F)c5ccc2[nH]5)C=C4)C=C3)cc1
REMARK SMILES IDX 29 1 30 2 31 3 3 5 2 6 1 7 4 8 5 9 6 10 28 11 7 12 9 13 8 14
REMARK SMILES IDX 10 15 11 16 12 17 26 18 13 19 15 20 27 21 14 22 16 23 17 24
REMARK SMILES IDX 18 26 19 27 20 28 25 29 21 30 23 31 22 32 24 33 32 35 33 36
REMARK SMILES IDX 34 37 35 38 36 39 37 41 38 42 39 43 100 44 40 45 99 46 41 47
REMARK SMILES IDX 42 48 43 49 93 50 44 51 98 52 92 53 94 54 45 55 97 56 91 57
REMARK SMILES IDX 90 58 46 60 78 61 58 62 77 63 59 64 62 65 76 66 95 67 60 68
REMARK SMILES IDX 61 69 75 71 96 72 63 73 47 74 48 75 56 76 49 77 50 78 54 79
REMARK SMILES IDX 57 80 51 81 52 82 55 83 53 84 79 85 80 86 88 87 81 88 82 89
REMARK SMILES IDX 86 90 89 91 83 92 84 93 87 94 85 95 64 96 65 97 73 98 66 99
REMARK SMILES IDX 67 100 71 101 74 102 68 103 69 104 72 105 70 106
REMARK H PARENT 31 4 16 25 24 34 35 40 94 59 62 70
REMARK Flexibility Score: inf
ROOT
ATOM      1  C   UNL A   1      44.847  24.011  26.990  1.00  0.00     0.261 C 
ATOM      2  O   UNL A   1      45.433  24.210  28.057  1.00  0.00    -0.271 OA
ATOM      3  N   UNL A   1      43.708  23.233  27.007  1.00  0.00    -0.353 N 
ATOM      4  H   UNL A   1      43.476  22.841  27.880  1.00  0.00     0.163 HD
ENDROOT
BRANCH   1   5
ATOM      5  C   UNL A   1      45.325  24.652  25.668  1.00  0.00     0.261 C 
BRANCH   5   6
ATOM      6  C   UNL A   1      46.579  23.847  25.256  1.00  0.00     0.052 C 
ATOM      7  C   UNL A   1      46.435  22.737  24.238  1.00  0.00     0.008 C 
ENDBRANCH   5   6
BRANCH   5   8
ATOM      8  O   UNL A   1      45.405  26.009  26.098  1.00  0.00    -0.481 OA
BRANCH   8   9
ATOM      9  C   UNL A   1      44.400  26.909  26.085  1.00  0.00     0.121 A 
ATOM     10  C   UNL A   1      43.260  26.884  25.311  1.00  0.00     0.046 A 
ATOM     11  C   UNL A   1      44.621  27.979  26.964  1.00  0.00     0.054 A 
ATOM     12  C   UNL A   1      42.431  28.005  25.285  1.00  0.00     0.004 A 
ATOM     13  C   UNL A   1      43.799  29.104  26.982  1.00  0.00    -0.021 A 
ATOM     14  C   UNL A   1      42.710  29.110  26.098  1.00  0.00     0.008 A 
BRANCH  13  15
ATOM     15  C   UNL A   1      44.002  30.289  27.841  1.00  0.00     0.029 C 
ATOM     16  C   UNL A   1      44.465  31.524  27.595  1.00  0.00     0.082 C 
ATOM     17  S   UNL A   1      45.080  32.232  26.155  1.00  0.00    -0.052 SA
ATOM     18  C   UNL A   1      44.592  32.498  28.715  1.00  0.00     0.285 C 
ATOM     19  C   UNL A   1      45.802  33.586  27.008  1.00  0.00     0.168 C 
ATOM     20  N   UNL A   1      45.495  33.481  28.350  1.00  0.00    -0.198 N 
ATOM     21  O   UNL A   1      43.954  32.423  29.761  1.00  0.00    -0.266 OA
ATOM     22  S   UNL A   1      46.681  34.781  26.252  1.00  0.00    -0.050 S 
BRANCH  20  23
ATOM     23  N   UNL A   1      45.918  34.457  29.260  1.00  0.00    -0.255 N 
ATOM     24  C   UNL A   1      45.337  35.689  29.479  1.00  0.00     0.270 C 
ATOM     25  H   UNL A   1      46.713  34.242  29.800  1.00  0.00     0.192 HD
ATOM     26  O   UNL A   1      45.936  36.519  30.159  1.00  0.00    -0.267 OA
BRANCH  24  27
ATOM     27  C   UNL A   1      44.034  36.059  28.876  1.00  0.00     0.045 A 
ATOM     28  C   UNL A   1      44.061  36.963  27.804  1.00  0.00     0.014 A 
ATOM     29  C   UNL A   1      42.814  35.531  29.319  1.00  0.00     0.060 A 
ATOM     30  C   UNL A   1      42.884  37.290  27.132  1.00  0.00     0.005 A 
ATOM     31  C   UNL A   1      41.650  35.852  28.624  1.00  0.00     0.116 A 
ATOM     32  C   UNL A   1      41.679  36.719  27.534  1.00  0.00     0.046 A 
BRANCH  31  33
ATOM     33  O   UNL A   1      40.443  35.322  28.968  1.00  0.00    -0.508 OA
ATOM     34  H   UNL A   1      39.946  34.840  28.337  1.00  0.00     0.293 HD
ENDBRANCH  31  33
ENDBRANCH  24  27
ENDBRANCH  20  23
ENDBRANCH  13  15
ENDBRANCH   8   9
ENDBRANCH   5   8
ENDBRANCH   1   5
BRANCH   3  35
ATOM     35  C   UNL A   1      42.800  22.909  25.909  1.00  0.00     0.118 C 
BRANCH  35  36
ATOM     36  C   UNL A   1      42.167  21.533  26.036  1.00  0.00     0.042 C 
BRANCH  36  37
ATOM     37  C   UNL A   1      40.883  21.528  26.851  1.00  0.00     0.118 C 
BRANCH  37  38
ATOM     38  N   UNL A   1      39.694  21.754  26.036  1.00  0.00    -0.352 N 
ATOM     39  C   UNL A   1      38.850  22.834  25.968  1.00  0.00     0.251 C 
ATOM     40  H   UNL A   1      39.459  21.008  25.436  1.00  0.00     0.163 HD
ATOM     41  O   UNL A   1      37.808  22.750  25.323  1.00  0.00    -0.269 OA
BRANCH  39  42
ATOM     42  C   UNL A   1      39.169  24.088  26.686  1.00  0.00     0.039 A 
ATOM     43  C   UNL A   1      38.698  24.255  27.992  1.00  0.00     0.014 A 
ATOM     44  C   UNL A   1      39.914  25.101  26.081  1.00  0.00     0.014 A 
ATOM     45  C   UNL A   1      39.045  25.398  28.716  1.00  0.00     0.010 A 
ATOM     46  C   UNL A   1      40.330  26.198  26.831  1.00  0.00     0.010 A 
ATOM     47  C   UNL A   1      39.903  26.358  28.157  1.00  0.00    -0.014 A 
BRANCH  47  48
ATOM     48  C   UNL A   1      40.369  27.535  28.935  1.00  0.00     0.031 A 
ATOM     49  C   UNL A   1      41.716  27.516  29.607  1.00  0.00     0.074 A 
ATOM     50  C   UNL A   1      39.548  28.588  29.114  1.00  0.00     0.049 A 
ATOM     51  N   UNL A   1      42.240  28.380  30.441  1.00  0.00    -0.248 NA
ATOM     52  C   UNL A   1      42.576  26.355  29.328  1.00  0.00     0.031 C 
ATOM     53  C   UNL A   1      38.193  28.720  28.571  1.00  0.00     0.029 A 
ATOM     54  N   UNL A   1      39.727  29.742  29.838  1.00  0.00    -0.354 N 
ATOM     55  C   UNL A   1      43.479  27.861  30.795  1.00  0.00     0.074 A 
ATOM     56  C   UNL A   1      43.607  26.582  30.129  1.00  0.00     0.031 C 
ATOM     57  C   UNL A   1      37.663  29.881  28.988  1.00  0.00     0.029 A 
ATOM     58  C   UNL A   1      38.622  30.557  29.853  1.00  0.00     0.049 A 
ATOM     59  H   UNL A   1      40.566  29.963  30.301  1.00  0.00     0.167 HD
ATOM     60  C   UNL A   1      44.434  28.411  31.581  1.00  0.00     0.037 A 
ATOM     61  C   UNL A   1      38.396  31.702  30.518  1.00  0.00     0.037 A 
ATOM     62  C   UNL A   1      44.326  29.696  32.220  1.00  0.00     0.049 A 
ATOM     63  C   UNL A   1      39.460  32.278  31.406  1.00  0.00     0.074 A 
ATOM     64  C   UNL A   1      45.279  30.376  32.958  1.00  0.00     0.029 A 
ATOM     65  N   UNL A   1      43.193  30.494  32.201  1.00  0.00    -0.354 N 
ATOM     66  N   UNL A   1      40.645  31.803  31.692  1.00  0.00    -0.248 NA
ATOM     67  C   UNL A   1      39.144  33.554  32.065  1.00  0.00     0.031 C 
ATOM     68  C   UNL A   1      44.709  31.566  33.424  1.00  0.00     0.029 A 
ATOM     69  C   UNL A   1      43.416  31.648  32.936  1.00  0.00     0.049 A 
ATOM     70  H   UNL A   1      42.354  30.274  31.735  1.00  0.00     0.167 HD
ATOM     71  C   UNL A   1      41.225  32.728  32.549  1.00  0.00     0.074 A 
ATOM     72  C   UNL A   1      40.263  33.794  32.734  1.00  0.00     0.031 C 
ATOM     73  C   UNL A   1      42.450  32.697  33.124  1.00  0.00     0.037 A 
BRANCH  60  74
ATOM     74  C   UNL A   1      45.699  27.630  31.789  1.00  0.00     0.064 A 
ATOM     75  C   UNL A   1      45.830  26.715  32.844  1.00  0.00     0.173 A 
ATOM     76  C   UNL A   1      46.771  27.758  30.893  1.00  0.00     0.173 A 
ATOM     77  F   UNL A   1      44.837  26.562  33.732  1.00  0.00    -0.203 F 
ATOM     78  C   UNL A   1      46.998  25.975  33.010  1.00  0.00     0.198 A 
ATOM     79  C   UNL A   1      47.925  26.996  31.045  1.00  0.00     0.198 A 
ATOM     80  F   UNL A   1      46.693  28.613  29.862  1.00  0.00    -0.203 F 
ATOM     81  F   UNL A   1      47.117  25.140  34.050  1.00  0.00    -0.200 F 
ATOM     82  C   UNL A   1      48.041  26.111  32.107  1.00  0.00     0.200 A 
ATOM     83  F   UNL A   1      48.928  27.116  30.163  1.00  0.00    -0.200 F 
ATOM     84  F   UNL A   1      49.161  25.390  32.262  1.00  0.00    -0.200 F 
ENDBRANCH  60  74
BRANCH  61  85
ATOM     85  C   UNL A   1      37.078  32.371  30.434  1.00  0.00     0.064 A 
ATOM     86  C   UNL A   1      36.793  33.297  29.425  1.00  0.00     0.173 A 
ATOM     87  C   UNL A   1      36.122  32.167  31.436  1.00  0.00     0.173 A 
ATOM     88  F   UNL A   1      37.702  33.552  28.473  1.00  0.00    -0.203 F 
ATOM     89  C   UNL A   1      35.597  34.012  29.431  1.00  0.00     0.198 A 
ATOM     90  C   UNL A   1      34.931  32.885  31.445  1.00  0.00     0.198 A 
ATOM     91  F   UNL A   1      36.361  31.295  32.425  1.00  0.00    -0.203 F 
ATOM     92  F   UNL A   1      35.364  34.929  28.482  1.00  0.00    -0.200 F 
ATOM     93  C   UNL A   1      34.668  33.809  30.443  1.00  0.00     0.200 A 
ATOM     94  F   UNL A   1      34.066  32.705  32.450  1.00  0.00    -0.200 F 
ATOM     95  F   UNL A   1      33.538  34.528  30.467  1.00  0.00    -0.200 F 
ENDBRANCH  61  85
BRANCH  73  96
ATOM     96  C   UNL A   1      42.833  33.868  33.978  1.00  0.00     0.064 A 
ATOM     97  C   UNL A   1      43.556  34.952  33.460  1.00  0.00     0.173 A 
ATOM     98  C   UNL A   1      42.454  33.913  35.328  1.00  0.00     0.173 A 
ATOM     99  F   UNL A   1      43.961  34.944  32.182  1.00  0.00    -0.203 F 
ATOM    100  C   UNL A   1      43.903  36.030  34.270  1.00  0.00     0.198 A 
ATOM    101  C   UNL A   1      42.779  35.004  36.128  1.00  0.00     0.198 A 
ATOM    102  F   UNL A   1      41.763  32.898  35.870  1.00  0.00    -0.203 F 
ATOM    103  F   UNL A   1      44.633  37.035  33.768  1.00  0.00    -0.200 F 
ATOM    104  C   UNL A   1      43.508  36.059  35.600  1.00  0.00     0.200 A 
ATOM    105  F   UNL A   1      42.389  35.033  37.410  1.00  0.00    -0.200 F 
ATOM    106  F   UNL A   1      43.839  37.099  36.376  1.00  0.00    -0.200 F 
ENDBRANCH  73  96
ENDBRANCH  47  48
ENDBRANCH  39  42
ENDBRANCH  37  38
ENDBRANCH  36  37
ENDBRANCH  35  36
ENDBRANCH   3  35
TORSDOF 17
ENDMDL
MODEL 3
REMARK VINA RESULT:     -13.0      5.229     11.222
REMARK SMILES CC[C@H](Oc1cccc(/C=C2\SC(=S)N(NC(=O)c3cccc(O)c3)C2=O)c1)C(=O)NCCCNC(=O)c1ccc(-c2c3nc(c(-c4c(F)c(F)c(F)c(F)c4F)c4ccc([nH]4)c(-c4c(F)c(F)c(F)c(F)c4F)c4nc(c(-c5c(F)c(F)c(F)c(F)c5F)c5ccc2[nH]5)C=C4)C=C3)cc1
REMARK SMILES IDX 29 1 30 2 31 3 3 5 2 6 1 7 4 8 5 9 6 10 28 11 7 12 9 13 8 14
REMARK SMILES IDX 10 15 11 16 12 17 26 18 13 19 15 20 27 21 14 22 16 23 17 24
REMARK SMILES IDX 18 26 19 27 20 28 25 29 21 30 23 31 22 32 24 33 32 35 33 36
REMARK SMILES IDX 34 37 35 38 36 39 37 41 38 42 39 43 100 44 40 45 99 46 41 47
REMARK SMILES IDX 42 48 43 49 93 50 44 51 98 52 92 53 94 54 45 55 97 56 91 57
REMARK SMILES IDX 90 58 46 60 78 61 58 62 77 63 59 64 62 65 76 66 95 67 60 68
REMARK SMILES IDX 61 69 75 71 96 72 63 73 47 74 48 75 56 76 49 77 50 78 54 79
REMARK SMILES IDX 57 80 51 81 52 82 55 83 53 84 79 85 80 86 88 87 81 88 82 89
REMARK SMILES IDX 86 90 89 91 83 92 84 93 87 94 85 95 64 96 65 97 73 98 66 99
REMARK SMILES IDX 67 100 71 101 74 102 68 103 69 104 72 105 70 106
REMARK H PARENT 31 4 16 25 24 34 35 40 94 59 62 70
REMARK Flexibility Score: inf
ROOT
ATOM      1  C   UNL A   1      41.700  22.701  26.135  1.00  0.00     0.261 C 
ATOM      2  O   UNL A   1      40.719  21.956  26.076  1.00  0.00    -0.271 OA
ATOM      3  N   UNL A   1      42.620  22.649  25.108  1.00  0.00    -0.353 N 
ATOM      4  H   UNL A   1      42.449  21.966  24.420  1.00  0.00     0.163 HD
ENDROOT
BRANCH   1   5
ATOM      5  C   UNL A   1      41.885  23.713  27.286  1.00  0.00     0.261 C 
BRANCH   5   6
ATOM      6  C   UNL A   1      42.240  22.858  28.525  1.00  0.00     0.052 C 
ATOM      7  C   UNL A   1      43.511  23.167  29.287  1.00  0.00     0.008 C 
ENDBRANCH   5   6
BRANCH   5   8
ATOM      8  O   UNL A   1      40.641  24.402  27.175  1.00  0.00    -0.481 OA
BRANCH   8   9
ATOM      9  C   UNL A   1      40.476  25.739  27.099  1.00  0.00     0.121 A 
ATOM     10  C   UNL A   1      41.066  26.609  26.207  1.00  0.00     0.046 A 
ATOM     11  C   UNL A   1      39.615  26.234  28.088  1.00  0.00     0.054 A 
ATOM     12  C   UNL A   1      40.934  27.982  26.410  1.00  0.00     0.004 A 
ATOM     13  C   UNL A   1      39.441  27.600  28.302  1.00  0.00    -0.021 A 
ATOM     14  C   UNL A   1      40.146  28.471  27.458  1.00  0.00     0.008 A 
BRANCH  13  15
ATOM     15  C   UNL A   1      38.593  28.192  29.357  1.00  0.00     0.029 C 
ATOM     16  C   UNL A   1      37.491  28.957  29.319  1.00  0.00     0.082 C 
ATOM     17  S   UNL A   1      36.626  29.622  27.993  1.00  0.00    -0.052 SA
ATOM     18  C   UNL A   1      36.887  29.439  30.592  1.00  0.00     0.285 C 
ATOM     19  C   UNL A   1      35.748  30.758  29.004  1.00  0.00     0.168 C 
ATOM     20  N   UNL A   1      36.100  30.545  30.321  1.00  0.00    -0.198 N 
ATOM     21  O   UNL A   1      37.057  28.894  31.680  1.00  0.00    -0.266 OA
ATOM     22  S   UNL A   1      34.661  31.867  28.404  1.00  0.00    -0.050 S 
BRANCH  20  23
ATOM     23  N   UNL A   1      35.517  31.295  31.349  1.00  0.00    -0.255 N 
ATOM     24  C   UNL A   1      36.094  32.343  32.036  1.00  0.00     0.270 C 
ATOM     25  H   UNL A   1      34.600  31.048  31.610  1.00  0.00     0.192 HD
ATOM     26  O   UNL A   1      35.541  32.770  33.048  1.00  0.00    -0.267 OA
BRANCH  24  27
ATOM     27  C   UNL A   1      37.387  32.936  31.619  1.00  0.00     0.045 A 
ATOM     28  C   UNL A   1      38.547  32.426  32.219  1.00  0.00     0.014 A 
ATOM     29  C   UNL A   1      37.483  33.948  30.654  1.00  0.00     0.060 A 
ATOM     30  C   UNL A   1      39.803  32.874  31.813  1.00  0.00     0.005 A 
ATOM     31  C   UNL A   1      38.746  34.370  30.245  1.00  0.00     0.116 A 
ATOM     32  C   UNL A   1      39.901  33.837  30.811  1.00  0.00     0.046 A 
BRANCH  31  33
ATOM     33  O   UNL A   1      38.904  35.306  29.267  1.00  0.00    -0.508 OA
ATOM     34  H   UNL A   1      38.821  35.061  28.366  1.00  0.00     0.293 HD
ENDBRANCH  31  33
ENDBRANCH  24  27
ENDBRANCH  20  23
ENDBRANCH  13  15
ENDBRANCH   8   9
ENDBRANCH   5   8
ENDBRANCH   1   5
BRANCH   3  35
ATOM     35  C   UNL A   1      43.814  23.465  24.902  1.00  0.00     0.118 C 
BRANCH  35  36
ATOM     36  C   UNL A   1      45.064  22.877  25.536  1.00  0.00     0.042 C 
BRANCH  36  37
ATOM     37  C   UNL A   1      46.012  23.926  26.097  1.00  0.00     0.118 C 
BRANCH  37  38
ATOM     38  N   UNL A   1      46.696  24.684  25.054  1.00  0.00    -0.352 N 
ATOM     39  C   UNL A   1      46.785  26.038  24.849  1.00  0.00     0.251 C 
ATOM     40  H   UNL A   1      47.171  24.134  24.390  1.00  0.00     0.163 HD
ATOM     41  O   UNL A   1      47.283  26.463  23.808  1.00  0.00    -0.269 OA
BRANCH  39  42
ATOM     42  C   UNL A   1      46.263  26.991  25.853  1.00  0.00     0.039 A 
ATOM     43  C   UNL A   1      44.910  27.343  25.809  1.00  0.00     0.014 A 
ATOM     44  C   UNL A   1      47.094  27.548  26.826  1.00  0.00     0.014 A 
ATOM     45  C   UNL A   1      44.377  28.185  26.788  1.00  0.00     0.010 A 
ATOM     46  C   UNL A   1      46.547  28.315  27.849  1.00  0.00     0.010 A 
ATOM     47  C   UNL A   1      45.182  28.641  27.844  1.00  0.00    -0.014 A 
BRANCH  47  48
ATOM     48  C   UNL A   1      44.623  29.456  28.954  1.00  0.00     0.031 A 
ATOM     49  C   UNL A   1      44.540  30.954  28.827  1.00  0.00     0.074 A 
ATOM     50  C   UNL A   1      44.271  28.863  30.111  1.00  0.00     0.049 A 
ATOM     51  N   UNL A   1      44.218  31.847  29.730  1.00  0.00    -0.248 NA
ATOM     52  C   UNL A   1      44.896  31.526  27.519  1.00  0.00     0.031 C 
ATOM     53  C   UNL A   1      44.352  27.428  30.396  1.00  0.00     0.029 A 
ATOM     54  N   UNL A   1      43.802  29.406  31.282  1.00  0.00    -0.354 N 
ATOM     55  C   UNL A   1      44.348  33.081  29.106  1.00  0.00     0.074 A 
ATOM     56  C   UNL A   1      44.828  32.827  27.764  1.00  0.00     0.031 C 
ATOM     57  C   UNL A   1      43.956  27.207  31.661  1.00  0.00     0.029 A 
ATOM     58  C   UNL A   1      43.629  28.484  32.284  1.00  0.00     0.049 A 
ATOM     59  H   UNL A   1      43.609  30.364  31.392  1.00  0.00     0.167 HD
ATOM     60  C   UNL A   1      44.066  34.311  29.596  1.00  0.00     0.037 A 
ATOM     61  C   UNL A   1      43.280  28.654  33.571  1.00  0.00     0.037 A 
ATOM     62  C   UNL A   1      43.557  34.567  30.918  1.00  0.00     0.049 A 
ATOM     63  C   UNL A   1      43.001  30.031  34.098  1.00  0.00     0.074 A 
ATOM     64  C   UNL A   1      43.155  35.771  31.469  1.00  0.00     0.029 A 
ATOM     65  N   UNL A   1      43.387  33.603  31.898  1.00  0.00    -0.354 N 
ATOM     66  N   UNL A   1      43.077  31.184  33.484  1.00  0.00    -0.248 NA
ATOM     67  C   UNL A   1      42.586  30.122  35.506  1.00  0.00     0.031 C 
ATOM     68  C   UNL A   1      42.782  35.544  32.798  1.00  0.00     0.029 A 
ATOM     69  C   UNL A   1      42.908  34.190  33.059  1.00  0.00     0.049 A 
ATOM     70  H   UNL A   1      43.577  32.643  31.787  1.00  0.00     0.167 HD
ATOM     71  C   UNL A   1      42.705  32.136  34.422  1.00  0.00     0.074 A 
ATOM     72  C   UNL A   1      42.399  31.427  35.645  1.00  0.00     0.031 C 
ATOM     73  C   UNL A   1      42.618  33.479  34.276  1.00  0.00     0.037 A 
BRANCH  60  74
ATOM     74  C   UNL A   1      44.288  35.488  28.690  1.00  0.00     0.064 A 
ATOM     75  C   UNL A   1      43.237  36.051  27.951  1.00  0.00     0.173 A 
ATOM     76  C   UNL A   1      45.551  36.091  28.601  1.00  0.00     0.173 A 
ATOM     77  F   UNL A   1      42.012  35.506  27.996  1.00  0.00    -0.203 F 
ATOM     78  C   UNL A   1      43.448  37.160  27.137  1.00  0.00     0.198 A 
ATOM     79  C   UNL A   1      45.752  37.217  27.808  1.00  0.00     0.198 A 
ATOM     80  F   UNL A   1      46.587  35.596  29.294  1.00  0.00    -0.203 F 
ATOM     81  F   UNL A   1      42.439  37.654  26.407  1.00  0.00    -0.200 F 
ATOM     82  C   UNL A   1      44.703  37.746  27.072  1.00  0.00     0.200 A 
ATOM     83  F   UNL A   1      46.962  37.792  27.757  1.00  0.00    -0.200 F 
ATOM     84  F   UNL A   1      44.902  38.820  26.294  1.00  0.00    -0.200 F 
ENDBRANCH  60  74
BRANCH  61  85
ATOM     85  C   UNL A   1      43.231  27.498  34.494  1.00  0.00     0.064 A 
ATOM     86  C   UNL A   1      42.041  26.801  34.729  1.00  0.00     0.173 A 
ATOM     87  C   UNL A   1      44.364  27.144  35.236  1.00  0.00     0.173 A 
ATOM     88  F   UNL A   1      40.924  27.141  34.069  1.00  0.00    -0.203 F 
ATOM     89  C   UNL A   1      41.982  25.797  35.694  1.00  0.00     0.198 A 
ATOM     90  C   UNL A   1      44.302  26.146  36.203  1.00  0.00     0.198 A 
ATOM     91  F   UNL A   1      45.521  27.793  35.047  1.00  0.00    -0.203 F 
ATOM     92  F   UNL A   1      40.819  25.176  35.937  1.00  0.00    -0.200 F 
ATOM     93  C   UNL A   1      43.110  25.473  36.433  1.00  0.00     0.200 A 
ATOM     94  F   UNL A   1      45.390  25.875  36.934  1.00  0.00    -0.200 F 
ATOM     95  F   UNL A   1      43.037  24.536  37.388  1.00  0.00    -0.200 F 
ENDBRANCH  61  85
BRANCH  73  96
ATOM     96  C   UNL A   1      42.139  34.265  35.459  1.00  0.00     0.064 A 
ATOM     97  C   UNL A   1      43.031  34.940  36.304  1.00  0.00     0.173 A 
ATOM     98  C   UNL A   1      40.767  34.358  35.737  1.00  0.00     0.173 A 
ATOM     99  F   UNL A   1      44.353  34.862  36.092  1.00  0.00    -0.203 F 
ATOM    100  C   UNL A   1      42.566  35.665  37.398  1.00  0.00     0.198 A 
ATOM    101  C   UNL A   1      40.305  35.104  36.816  1.00  0.00     0.198 A 
ATOM    102  F   UNL A   1      39.875  33.728  34.958  1.00  0.00    -0.203 F 
ATOM    103  F   UNL A   1      43.437  36.265  38.221  1.00  0.00    -0.200 F 
ATOM    104  C   UNL A   1      41.204  35.752  37.649  1.00  0.00     0.200 A 
ATOM    105  F   UNL A   1      38.988  35.194  37.052  1.00  0.00    -0.200 F 
ATOM    106  F   UNL A   1      40.759  36.453  38.701  1.00  0.00    -0.200 F 
ENDBRANCH  73  96
ENDBRANCH  47  48
ENDBRANCH  39  42
ENDBRANCH  37  38
ENDBRANCH  36  37
ENDBRANCH  35  36
ENDBRANCH   3  35
TORSDOF 17
ENDMDL
