MODEL 1
REMARK VINA RESULT:     -12.6      0.000      0.000
REMARK SMILES CCOC(=O)C1=NN(c2ccc(C)cc2Cl)[C@@](C)(C(=O)NCCCNC(=O)c2ccc(-c3c4nc(c(-c5c(F)c(F)c(F)c(F)c5F)c5ccc([nH]5)c(-c5c(F)c(F)c(F)c(F)c5F)c5nc(c(-c6c(F)c(F)c(F)c(F)c6F)c6ccc3[nH]6)C=C5)C=C4)cc2)C1
REMARK SMILES IDX 22 1 21 2 19 3 20 4 17 6 6 7 7 8 91 9 8 10 18 11 4 12 5 13
REMARK SMILES IDX 3 14 2 15 1 16 9 17 10 18 15 19 11 20 14 21 16 22 12 23
REMARK SMILES IDX 13 24 23 25 24 26 25 27 26 28 27 30 28 31 29 32 90 33 30 34
REMARK SMILES IDX 89 35 31 36 32 37 33 38 83 39 34 40 88 41 82 42 84 43 35 44
REMARK SMILES IDX 87 45 81 46 80 47 36 49 68 50 48 51 67 52 49 53 52 54 66 55
REMARK SMILES IDX 85 56 50 57 51 58 65 60 86 61 53 62 37 63 38 64 46 65 39 66
REMARK SMILES IDX 40 67 44 68 47 69 41 70 42 71 45 72 43 73 69 74 70 75 78 76
REMARK SMILES IDX 71 77 72 78 76 79 79 80 73 81 74 82 77 83 75 84 54 85 55 86
REMARK SMILES IDX 63 87 56 88 57 89 61 90 64 91 58 92 59 93 62 94 60 95
REMARK H PARENT 21 5 25 29 84 48 52 59
REMARK Flexibility Score: inf
ROOT
ATOM      1  C   UNL A   1      34.094  30.460  27.375  1.00  0.00     0.117 C 
ENDROOT
BRANCH   1   2
ATOM      2  N   UNL A   1      34.221  29.838  26.070  1.00  0.00    -0.354 N 
ATOM      3  C   UNL A   1      33.487  28.938  25.365  1.00  0.00     0.248 C 
ATOM      4  O   UNL A   1      34.027  28.580  24.309  1.00  0.00    -0.272 OA
ATOM      5  H   UNL A   1      35.023  30.137  25.583  1.00  0.00     0.163 HD
BRANCH   3   6
ATOM      6  C   UNL A   1      32.081  28.399  25.772  1.00  0.00     0.144 C 
ATOM      7  C   UNL A   1      30.739  28.346  23.874  1.00  0.00     0.149 C 
ATOM      8  N   UNL A   1      31.124  27.118  24.014  1.00  0.00    -0.169 NA
ATOM      9  C   UNL A   1      31.020  29.254  25.018  1.00  0.00     0.106 C 
ATOM     10  N   UNL A   1      31.816  27.056  25.196  1.00  0.00    -0.248 N 
ATOM     11  C   UNL A   1      31.779  28.550  27.261  1.00  0.00     0.048 C 
BRANCH   7  12
ATOM     12  C   UNL A   1      29.986  28.866  22.678  1.00  0.00     0.354 C 
ATOM     13  O   UNL A   1      30.554  29.160  21.645  1.00  0.00    -0.245 OA
BRANCH  12  14
ATOM     14  O   UNL A   1      28.677  28.999  22.970  1.00  0.00    -0.461 OA
BRANCH  14  15
ATOM     15  C   UNL A   1      28.036  30.152  22.410  1.00  0.00     0.230 C 
ATOM     16  C   UNL A   1      27.653  31.136  23.500  1.00  0.00     0.049 C 
ENDBRANCH  14  15
ENDBRANCH  12  14
ENDBRANCH   7  12
BRANCH  10  17
ATOM     17  C   UNL A   1      32.349  25.829  25.570  1.00  0.00     0.079 A 
ATOM     18  C   UNL A   1      33.713  25.563  25.359  1.00  0.00     0.030 A 
ATOM     19  C   UNL A   1      31.607  24.827  26.237  1.00  0.00     0.066 A 
ATOM     20  C   UNL A   1      34.307  24.356  25.752  1.00  0.00     0.006 A 
ATOM     21  C   UNL A   1      32.203  23.620  26.639  1.00  0.00     0.026 A 
ATOM     22  Cl  UNL A   1      29.893  24.946  26.486  1.00  0.00    -0.082 Cl
ATOM     23  C   UNL A   1      33.558  23.376  26.402  1.00  0.00    -0.049 A 
ATOM     24  C   UNL A   1      34.173  22.067  26.797  1.00  0.00     0.044 C 
ENDBRANCH  10  17
ENDBRANCH   3   6
ENDBRANCH   1   2
BRANCH   1  25
ATOM     25  C   UNL A   1      33.894  31.971  27.288  1.00  0.00     0.042 C 
BRANCH  25  26
ATOM     26  C   UNL A   1      32.450  32.450  27.391  1.00  0.00     0.118 C 
BRANCH  26  27
ATOM     27  N   UNL A   1      32.345  33.881  27.626  1.00  0.00    -0.352 N 
ATOM     28  C   UNL A   1      33.055  34.687  28.482  1.00  0.00     0.251 C 
ATOM     29  H   UNL A   1      31.661  34.342  27.089  1.00  0.00     0.163 HD
ATOM     30  O   UNL A   1      32.700  35.849  28.660  1.00  0.00    -0.269 OA
BRANCH  28  31
ATOM     31  C   UNL A   1      34.230  34.167  29.219  1.00  0.00     0.039 A 
ATOM     32  C   UNL A   1      34.012  33.403  30.369  1.00  0.00     0.014 A 
ATOM     33  C   UNL A   1      35.536  34.466  28.818  1.00  0.00     0.014 A 
ATOM     34  C   UNL A   1      35.098  32.879  31.077  1.00  0.00     0.010 A 
ATOM     35  C   UNL A   1      36.620  33.908  29.500  1.00  0.00     0.010 A 
ATOM     36  C   UNL A   1      36.409  33.104  30.630  1.00  0.00    -0.014 A 
BRANCH  36  37
ATOM     37  C   UNL A   1      37.572  32.505  31.329  1.00  0.00     0.031 A 
ATOM     38  C   UNL A   1      38.357  31.401  30.686  1.00  0.00     0.074 A 
ATOM     39  C   UNL A   1      37.890  32.916  32.571  1.00  0.00     0.049 A 
ATOM     40  N   UNL A   1      39.299  30.650  31.199  1.00  0.00    -0.248 NA
ATOM     41  C   UNL A   1      38.033  31.091  29.286  1.00  0.00     0.031 C 
ATOM     42  C   UNL A   1      37.205  33.970  33.320  1.00  0.00     0.029 A 
ATOM     43  N   UNL A   1      38.872  32.482  33.426  1.00  0.00    -0.354 N 
ATOM     44  C   UNL A   1      39.640  29.743  30.207  1.00  0.00     0.074 A 
ATOM     45  C   UNL A   1      38.826  30.055  29.049  1.00  0.00     0.031 C 
ATOM     46  C   UNL A   1      37.800  34.114  34.515  1.00  0.00     0.029 A 
ATOM     47  C   UNL A   1      38.884  33.143  34.628  1.00  0.00     0.049 A 
ATOM     48  H   UNL A   1      39.507  31.765  33.199  1.00  0.00     0.167 HD
ATOM     49  C   UNL A   1      40.540  28.735  30.260  1.00  0.00     0.037 A 
ATOM     50  C   UNL A   1      39.672  32.976  35.705  1.00  0.00     0.037 A 
ATOM     51  C   UNL A   1      41.395  28.451  31.380  1.00  0.00     0.049 A 
ATOM     52  C   UNL A   1      40.713  31.895  35.713  1.00  0.00     0.074 A 
ATOM     53  C   UNL A   1      42.356  27.462  31.507  1.00  0.00     0.029 A 
ATOM     54  N   UNL A   1      41.403  29.172  32.562  1.00  0.00    -0.354 N 
ATOM     55  N   UNL A   1      40.997  31.020  34.782  1.00  0.00    -0.248 NA
ATOM     56  C   UNL A   1      41.529  31.772  36.930  1.00  0.00     0.031 C 
ATOM     57  C   UNL A   1      42.951  27.589  32.769  1.00  0.00     0.029 A 
ATOM     58  C   UNL A   1      42.358  28.656  33.423  1.00  0.00     0.049 A 
ATOM     59  H   UNL A   1      40.817  29.938  32.762  1.00  0.00     0.167 HD
ATOM     60  C   UNL A   1      42.014  30.232  35.303  1.00  0.00     0.074 A 
ATOM     61  C   UNL A   1      42.308  30.742  36.626  1.00  0.00     0.031 C 
ATOM     62  C   UNL A   1      42.637  29.174  34.734  1.00  0.00     0.037 A 
BRANCH  49  63
ATOM     63  C   UNL A   1      40.629  27.844  29.065  1.00  0.00     0.064 A 
ATOM     64  C   UNL A   1      39.788  26.734  28.920  1.00  0.00     0.173 A 
ATOM     65  C   UNL A   1      41.550  28.122  28.044  1.00  0.00     0.173 A 
ATOM     66  F   UNL A   1      38.903  26.428  29.880  1.00  0.00    -0.203 F 
ATOM     67  C   UNL A   1      39.868  25.926  27.788  1.00  0.00     0.198 A 
ATOM     68  C   UNL A   1      41.624  27.314  26.913  1.00  0.00     0.198 A 
ATOM     69  F   UNL A   1      42.379  29.171  28.149  1.00  0.00    -0.203 F 
ATOM     70  F   UNL A   1      39.065  24.861  27.671  1.00  0.00    -0.200 F 
ATOM     71  C   UNL A   1      40.784  26.218  26.787  1.00  0.00     0.200 A 
ATOM     72  F   UNL A   1      42.511  27.593  25.949  1.00  0.00    -0.200 F 
ATOM     73  F   UNL A   1      40.861  25.436  25.701  1.00  0.00    -0.200 F 
ENDBRANCH  49  63
BRANCH  50  74
ATOM     74  C   UNL A   1      39.494  33.856  36.880  1.00  0.00     0.064 A 
ATOM     75  C   UNL A   1      38.698  33.453  37.958  1.00  0.00     0.173 A 
ATOM     76  C   UNL A   1      40.128  35.103  36.952  1.00  0.00     0.173 A 
ATOM     77  F   UNL A   1      38.066  32.271  37.919  1.00  0.00    -0.203 F 
ATOM     78  C   UNL A   1      38.541  34.270  39.074  1.00  0.00     0.198 A 
ATOM     79  C   UNL A   1      39.972  35.917  38.070  1.00  0.00     0.198 A 
ATOM     80  F   UNL A   1      40.893  35.525  35.936  1.00  0.00    -0.203 F 
ATOM     81  F   UNL A   1      37.769  33.868  40.093  1.00  0.00    -0.200 F 
ATOM     82  C   UNL A   1      39.180  35.500  39.131  1.00  0.00     0.200 A 
ATOM     83  F   UNL A   1      40.589  37.106  38.123  1.00  0.00    -0.200 F 
ATOM     84  F   UNL A   1      39.029  36.286  40.205  1.00  0.00    -0.200 F 
ENDBRANCH  50  74
BRANCH  62  85
ATOM     85  C   UNL A   1      43.692  28.494  35.544  1.00  0.00     0.064 A 
ATOM     86  C   UNL A   1      43.354  27.484  36.455  1.00  0.00     0.173 A 
ATOM     87  C   UNL A   1      45.043  28.829  35.391  1.00  0.00     0.173 A 
ATOM     88  F   UNL A   1      42.070  27.142  36.639  1.00  0.00    -0.203 F 
ATOM     89  C   UNL A   1      44.340  26.830  37.189  1.00  0.00     0.198 A 
ATOM     90  C   UNL A   1      46.025  28.173  36.127  1.00  0.00     0.198 A 
ATOM     91  F   UNL A   1      45.406  29.798  34.538  1.00  0.00    -0.203 F 
ATOM     92  F   UNL A   1      43.998  25.874  38.064  1.00  0.00    -0.200 F 
ATOM     93  C   UNL A   1      45.673  27.175  37.024  1.00  0.00     0.200 A 
ATOM     94  F   UNL A   1      47.314  28.512  35.975  1.00  0.00    -0.200 F 
ATOM     95  F   UNL A   1      46.621  26.549  37.736  1.00  0.00    -0.200 F 
ENDBRANCH  62  85
ENDBRANCH  36  37
ENDBRANCH  28  31
ENDBRANCH  26  27
ENDBRANCH  25  26
ENDBRANCH   1  25
TORSDOF 14
ENDMDL
MODEL 2
REMARK VINA RESULT:     -12.5      1.449      3.341
REMARK SMILES CCOC(=O)C1=NN(c2ccc(C)cc2Cl)[C@@](C)(C(=O)NCCCNC(=O)c2ccc(-c3c4nc(c(-c5c(F)c(F)c(F)c(F)c5F)c5ccc([nH]5)c(-c5c(F)c(F)c(F)c(F)c5F)c5nc(c(-c6c(F)c(F)c(F)c(F)c6F)c6ccc3[nH]6)C=C5)C=C4)cc2)C1
REMARK SMILES IDX 22 1 21 2 19 3 20 4 17 6 6 7 7 8 91 9 8 10 18 11 4 12 5 13
REMARK SMILES IDX 3 14 2 15 1 16 9 17 10 18 15 19 11 20 14 21 16 22 12 23
REMARK SMILES IDX 13 24 23 25 24 26 25 27 26 28 27 30 28 31 29 32 90 33 30 34
REMARK SMILES IDX 89 35 31 36 32 37 33 38 83 39 34 40 88 41 82 42 84 43 35 44
REMARK SMILES IDX 87 45 81 46 80 47 36 49 68 50 48 51 67 52 49 53 52 54 66 55
REMARK SMILES IDX 85 56 50 57 51 58 65 60 86 61 53 62 37 63 38 64 46 65 39 66
REMARK SMILES IDX 40 67 44 68 47 69 41 70 42 71 45 72 43 73 69 74 70 75 78 76
REMARK SMILES IDX 71 77 72 78 76 79 79 80 73 81 74 82 77 83 75 84 54 85 55 86
REMARK SMILES IDX 63 87 56 88 57 89 61 90 64 91 58 92 59 93 62 94 60 95
REMARK H PARENT 21 5 25 29 84 48 52 59
REMARK Flexibility Score: inf
ROOT
ATOM      1  C   UNL A   1      31.688  30.623  26.024  1.00  0.00     0.117 C 
ENDROOT
BRANCH   1   2
ATOM      2  N   UNL A   1      31.559  29.529  26.967  1.00  0.00    -0.354 N 
ATOM      3  C   UNL A   1      31.708  28.180  26.892  1.00  0.00     0.248 C 
ATOM      4  O   UNL A   1      31.381  27.589  27.931  1.00  0.00    -0.272 OA
ATOM      5  H   UNL A   1      31.305  29.831  27.869  1.00  0.00     0.163 HD
BRANCH   3   6
ATOM      6  C   UNL A   1      32.266  27.398  25.663  1.00  0.00     0.144 C 
ATOM      7  C   UNL A   1      31.363  25.256  25.687  1.00  0.00     0.149 C 
ATOM      8  N   UNL A   1      30.642  25.885  24.814  1.00  0.00    -0.169 NA
ATOM      9  C   UNL A   1      32.594  25.953  26.143  1.00  0.00     0.106 C 
ATOM     10  N   UNL A   1      31.209  27.123  24.656  1.00  0.00    -0.248 N 
ATOM     11  C   UNL A   1      33.567  27.977  25.112  1.00  0.00     0.048 C 
BRANCH   7  12
ATOM     12  C   UNL A   1      31.060  23.870  26.194  1.00  0.00     0.354 C 
ATOM     13  O   UNL A   1      30.770  23.665  27.355  1.00  0.00    -0.245 OA
BRANCH  12  14
ATOM     14  O   UNL A   1      31.225  22.964  25.209  1.00  0.00    -0.461 OA
BRANCH  14  15
ATOM     15  C   UNL A   1      32.562  22.476  25.042  1.00  0.00     0.230 C 
ATOM     16  C   UNL A   1      32.556  21.093  24.418  1.00  0.00     0.049 C 
ENDBRANCH  14  15
ENDBRANCH  12  14
ENDBRANCH   7  12
BRANCH  10  17
ATOM     17  C   UNL A   1      30.603  28.004  23.769  1.00  0.00     0.079 A 
ATOM     18  C   UNL A   1      29.234  28.295  23.895  1.00  0.00     0.030 A 
ATOM     19  C   UNL A   1      31.307  28.706  22.764  1.00  0.00     0.066 A 
ATOM     20  C   UNL A   1      28.584  29.205  23.049  1.00  0.00     0.006 A 
ATOM     21  C   UNL A   1      30.660  29.624  21.921  1.00  0.00     0.026 A 
ATOM     22  Cl  UNL A   1      32.977  28.393  22.404  1.00  0.00    -0.082 Cl
ATOM     23  C   UNL A   1      29.293  29.882  22.059  1.00  0.00    -0.049 A 
ATOM     24  C   UNL A   1      28.604  30.832  21.126  1.00  0.00     0.044 C 
ENDBRANCH  10  17
ENDBRANCH   3   6
ENDBRANCH   1   2
BRANCH   1  25
ATOM     25  C   UNL A   1      31.465  31.987  26.675  1.00  0.00     0.042 C 
BRANCH  25  26
ATOM     26  C   UNL A   1      32.716  32.672  27.213  1.00  0.00     0.118 C 
BRANCH  26  27
ATOM     27  N   UNL A   1      32.476  34.045  27.625  1.00  0.00    -0.352 N 
ATOM     28  C   UNL A   1      33.079  34.786  28.611  1.00  0.00     0.251 C 
ATOM     29  H   UNL A   1      31.774  34.514  27.119  1.00  0.00     0.163 HD
ATOM     30  O   UNL A   1      32.615  35.880  28.921  1.00  0.00    -0.269 OA
BRANCH  28  31
ATOM     31  C   UNL A   1      34.267  34.273  29.331  1.00  0.00     0.039 A 
ATOM     32  C   UNL A   1      34.072  33.563  30.520  1.00  0.00     0.014 A 
ATOM     33  C   UNL A   1      35.564  34.526  28.876  1.00  0.00     0.014 A 
ATOM     34  C   UNL A   1      35.171  33.046  31.214  1.00  0.00     0.010 A 
ATOM     35  C   UNL A   1      36.659  33.975  29.545  1.00  0.00     0.010 A 
ATOM     36  C   UNL A   1      36.470  33.225  30.715  1.00  0.00    -0.014 A 
BRANCH  36  37
ATOM     37  C   UNL A   1      37.643  32.631  31.401  1.00  0.00     0.031 A 
ATOM     38  C   UNL A   1      38.421  31.524  30.753  1.00  0.00     0.074 A 
ATOM     39  C   UNL A   1      37.979  33.049  32.636  1.00  0.00     0.049 A 
ATOM     40  N   UNL A   1      39.371  30.777  31.257  1.00  0.00    -0.248 NA
ATOM     41  C   UNL A   1      38.077  31.206  29.360  1.00  0.00     0.031 C 
ATOM     42  C   UNL A   1      37.303  34.106  33.389  1.00  0.00     0.029 A 
ATOM     43  N   UNL A   1      38.974  32.622  33.479  1.00  0.00    -0.354 N 
ATOM     44  C   UNL A   1      39.699  29.865  30.266  1.00  0.00     0.074 A 
ATOM     45  C   UNL A   1      38.869  30.169  29.118  1.00  0.00     0.031 C 
ATOM     46  C   UNL A   1      37.915  34.259  34.574  1.00  0.00     0.029 A 
ATOM     47  C   UNL A   1      39.002  33.290  34.677  1.00  0.00     0.049 A 
ATOM     48  H   UNL A   1      39.606  31.903  33.248  1.00  0.00     0.167 HD
ATOM     49  C   UNL A   1      40.601  28.857  30.312  1.00  0.00     0.037 A 
ATOM     50  C   UNL A   1      39.806  33.129  35.744  1.00  0.00     0.037 A 
ATOM     51  C   UNL A   1      41.472  28.581  31.421  1.00  0.00     0.049 A 
ATOM     52  C   UNL A   1      40.848  32.050  35.743  1.00  0.00     0.074 A 
ATOM     53  C   UNL A   1      42.436  27.594  31.540  1.00  0.00     0.029 A 
ATOM     54  N   UNL A   1      41.497  29.309  32.599  1.00  0.00    -0.354 N 
ATOM     55  N   UNL A   1      41.120  31.169  34.814  1.00  0.00    -0.248 NA
ATOM     56  C   UNL A   1      41.681  31.934  36.949  1.00  0.00     0.031 C 
ATOM     57  C   UNL A   1      43.049  27.729  32.792  1.00  0.00     0.029 A 
ATOM     58  C   UNL A   1      42.464  28.800  33.449  1.00  0.00     0.049 A 
ATOM     59  H   UNL A   1      40.912  30.076  32.802  1.00  0.00     0.167 HD
ATOM     60  C   UNL A   1      42.145  30.386  35.324  1.00  0.00     0.074 A 
ATOM     61  C   UNL A   1      42.457  30.904  36.640  1.00  0.00     0.031 C 
ATOM     62  C   UNL A   1      42.761  29.326  34.753  1.00  0.00     0.037 A 
BRANCH  49  63
ATOM     63  C   UNL A   1      40.675  27.960  29.120  1.00  0.00     0.064 A 
ATOM     64  C   UNL A   1      39.835  26.846  28.995  1.00  0.00     0.173 A 
ATOM     65  C   UNL A   1      41.578  28.235  28.083  1.00  0.00     0.173 A 
ATOM     66  F   UNL A   1      38.966  26.543  29.971  1.00  0.00    -0.203 F 
ATOM     67  C   UNL A   1      39.900  26.032  27.868  1.00  0.00     0.198 A 
ATOM     68  C   UNL A   1      41.637  27.420  26.956  1.00  0.00     0.198 A 
ATOM     69  F   UNL A   1      42.405  29.287  28.169  1.00  0.00    -0.203 F 
ATOM     70  F   UNL A   1      39.098  24.963  27.769  1.00  0.00    -0.200 F 
ATOM     71  C   UNL A   1      40.798  26.321  26.850  1.00  0.00     0.200 A 
ATOM     72  F   UNL A   1      42.507  27.697  25.977  1.00  0.00    -0.200 F 
ATOM     73  F   UNL A   1      40.861  25.533  25.767  1.00  0.00    -0.200 F 
ENDBRANCH  49  63
BRANCH  50  74
ATOM     74  C   UNL A   1      39.644  34.016  36.916  1.00  0.00     0.064 A 
ATOM     75  C   UNL A   1      38.829  33.636  37.989  1.00  0.00     0.173 A 
ATOM     76  C   UNL A   1      40.310  35.245  36.991  1.00  0.00     0.173 A 
ATOM     77  F   UNL A   1      38.165  32.472  37.947  1.00  0.00    -0.203 F 
ATOM     78  C   UNL A   1      38.686  34.460  39.102  1.00  0.00     0.198 A 
ATOM     79  C   UNL A   1      40.169  36.065  38.107  1.00  0.00     0.198 A 
ATOM     80  F   UNL A   1      41.094  35.645  35.979  1.00  0.00    -0.203 F 
ATOM     81  F   UNL A   1      37.896  34.081  40.116  1.00  0.00    -0.200 F 
ATOM     82  C   UNL A   1      39.358  35.672  39.162  1.00  0.00     0.200 A 
ATOM     83  F   UNL A   1      40.818  37.237  38.162  1.00  0.00    -0.200 F 
ATOM     84  F   UNL A   1      39.221  36.463  40.234  1.00  0.00    -0.200 F 
ENDBRANCH  50  74
BRANCH  62  85
ATOM     85  C   UNL A   1      43.829  28.651  35.552  1.00  0.00     0.064 A 
ATOM     86  C   UNL A   1      45.168  29.046  35.434  1.00  0.00     0.173 A 
ATOM     87  C   UNL A   1      43.512  27.631  36.457  1.00  0.00     0.173 A 
ATOM     88  F   UNL A   1      45.514  30.011  34.569  1.00  0.00    -0.203 F 
ATOM     89  C   UNL A   1      46.158  28.437  36.199  1.00  0.00     0.198 A 
ATOM     90  C   UNL A   1      44.505  27.024  37.220  1.00  0.00     0.198 A 
ATOM     91  F   UNL A   1      42.243  27.217  36.590  1.00  0.00    -0.203 F 
ATOM     92  F   UNL A   1      47.436  28.819  36.066  1.00  0.00    -0.200 F 
ATOM     93  C   UNL A   1      45.826  27.428  37.091  1.00  0.00     0.200 A 
ATOM     94  F   UNL A   1      44.185  26.043  38.076  1.00  0.00    -0.200 F 
ATOM     95  F   UNL A   1      46.782  26.838  37.822  1.00  0.00    -0.200 F 
ENDBRANCH  62  85
ENDBRANCH  36  37
ENDBRANCH  28  31
ENDBRANCH  26  27
ENDBRANCH  25  26
ENDBRANCH   1  25
TORSDOF 14
ENDMDL
MODEL 3
REMARK VINA RESULT:     -12.5      3.389      8.609
REMARK SMILES CCOC(=O)C1=NN(c2ccc(C)cc2Cl)[C@@](C)(C(=O)NCCCNC(=O)c2ccc(-c3c4nc(c(-c5c(F)c(F)c(F)c(F)c5F)c5ccc([nH]5)c(-c5c(F)c(F)c(F)c(F)c5F)c5nc(c(-c6c(F)c(F)c(F)c(F)c6F)c6ccc3[nH]6)C=C5)C=C4)cc2)C1
REMARK SMILES IDX 22 1 21 2 19 3 20 4 17 6 6 7 7 8 91 9 8 10 18 11 4 12 5 13
REMARK SMILES IDX 3 14 2 15 1 16 9 17 10 18 15 19 11 20 14 21 16 22 12 23
REMARK SMILES IDX 13 24 23 25 24 26 25 27 26 28 27 30 28 31 29 32 90 33 30 34
REMARK SMILES IDX 89 35 31 36 32 37 33 38 83 39 34 40 88 41 82 42 84 43 35 44
REMARK SMILES IDX 87 45 81 46 80 47 36 49 68 50 48 51 67 52 49 53 52 54 66 55
REMARK SMILES IDX 85 56 50 57 51 58 65 60 86 61 53 62 37 63 38 64 46 65 39 66
REMARK SMILES IDX 40 67 44 68 47 69 41 70 42 71 45 72 43 73 69 74 70 75 78 76
REMARK SMILES IDX 71 77 72 78 76 79 79 80 73 81 74 82 77 83 75 84 54 85 55 86
REMARK SMILES IDX 63 87 56 88 57 89 61 90 64 91 58 92 59 93 62 94 60 95
REMARK H PARENT 21 5 25 29 84 48 52 59
REMARK Flexibility Score: inf
ROOT
ATOM      1  C   UNL A   1      31.805  27.495  26.309  1.00  0.00     0.117 C 
ENDROOT
BRANCH   1   2
ATOM      2  N   UNL A   1      31.296  26.190  26.686  1.00  0.00    -0.354 N 
ATOM      3  C   UNL A   1      30.931  25.074  26.003  1.00  0.00     0.248 C 
ATOM      4  O   UNL A   1      30.427  24.199  26.722  1.00  0.00    -0.272 OA
ATOM      5  H   UNL A   1      31.190  26.090  27.660  1.00  0.00     0.163 HD
BRANCH   3   6
ATOM      6  C   UNL A   1      31.134  24.840  24.474  1.00  0.00     0.144 C 
ATOM      7  C   UNL A   1      31.320  26.912  23.435  1.00  0.00     0.149 C 
ATOM      8  N   UNL A   1      32.546  26.510  23.543  1.00  0.00    -0.169 NA
ATOM      9  C   UNL A   1      30.271  25.898  23.724  1.00  0.00     0.106 C 
ATOM     10  N   UNL A   1      32.497  25.230  24.031  1.00  0.00    -0.248 N 
ATOM     11  C   UNL A   1      30.651  23.473  23.998  1.00  0.00     0.048 C 
BRANCH   7  12
ATOM     12  C   UNL A   1      30.919  28.291  22.980  1.00  0.00     0.354 C 
ATOM     13  O   UNL A   1      31.579  29.271  23.259  1.00  0.00    -0.245 OA
BRANCH  12  14
ATOM     14  O   UNL A   1      29.745  28.243  22.318  1.00  0.00    -0.461 OA
BRANCH  14  15
ATOM     15  C   UNL A   1      28.832  29.308  22.608  1.00  0.00     0.230 C 
ATOM     16  C   UNL A   1      27.466  28.759  22.974  1.00  0.00     0.049 C 
ENDBRANCH  14  15
ENDBRANCH  12  14
ENDBRANCH   7  12
BRANCH  10  17
ATOM     17  C   UNL A   1      33.703  24.574  24.250  1.00  0.00     0.079 A 
ATOM     18  C   UNL A   1      34.443  24.837  25.415  1.00  0.00     0.030 A 
ATOM     19  C   UNL A   1      34.214  23.575  23.390  1.00  0.00     0.066 A 
ATOM     20  C   UNL A   1      35.646  24.175  25.701  1.00  0.00     0.006 A 
ATOM     21  C   UNL A   1      35.415  22.905  23.678  1.00  0.00     0.026 A 
ATOM     22  Cl  UNL A   1      33.484  23.199  21.861  1.00  0.00    -0.082 Cl
ATOM     23  C   UNL A   1      36.138  23.198  24.837  1.00  0.00    -0.049 A 
ATOM     24  C   UNL A   1      37.440  22.508  25.113  1.00  0.00     0.044 C 
ENDBRANCH  10  17
ENDBRANCH   3   6
ENDBRANCH   1   2
BRANCH   1  25
ATOM     25  C   UNL A   1      33.189  27.775  26.891  1.00  0.00     0.042 C 
BRANCH  25  26
ATOM     26  C   UNL A   1      34.015  28.822  26.150  1.00  0.00     0.118 C 
BRANCH  26  27
ATOM     27  N   UNL A   1      33.845  30.161  26.691  1.00  0.00    -0.352 N 
ATOM     28  C   UNL A   1      34.600  30.838  27.617  1.00  0.00     0.251 C 
ATOM     29  H   UNL A   1      33.071  30.657  26.339  1.00  0.00     0.163 HD
ATOM     30  O   UNL A   1      34.193  31.904  28.073  1.00  0.00    -0.269 OA
BRANCH  28  31
ATOM     31  C   UNL A   1      35.888  30.288  28.099  1.00  0.00     0.039 A 
ATOM     32  C   UNL A   1      37.008  30.384  27.267  1.00  0.00     0.014 A 
ATOM     33  C   UNL A   1      35.990  29.639  29.332  1.00  0.00     0.014 A 
ATOM     34  C   UNL A   1      38.244  29.894  27.699  1.00  0.00     0.010 A 
ATOM     35  C   UNL A   1      37.232  29.187  29.783  1.00  0.00     0.010 A 
ATOM     36  C   UNL A   1      38.371  29.318  28.972  1.00  0.00    -0.014 A 
BRANCH  36  37
ATOM     37  C   UNL A   1      39.685  28.850  29.475  1.00  0.00     0.031 A 
ATOM     38  C   UNL A   1      40.443  29.661  30.484  1.00  0.00     0.074 A 
ATOM     39  C   UNL A   1      40.227  27.721  28.982  1.00  0.00     0.049 A 
ATOM     40  N   UNL A   1      41.667  29.500  30.922  1.00  0.00    -0.248 NA
ATOM     41  C   UNL A   1      39.739  30.812  31.068  1.00  0.00     0.031 C 
ATOM     42  C   UNL A   1      39.606  26.844  27.989  1.00  0.00     0.029 A 
ATOM     43  N   UNL A   1      41.434  27.124  29.248  1.00  0.00    -0.354 N 
ATOM     44  C   UNL A   1      41.899  30.557  31.788  1.00  0.00     0.074 A 
ATOM     45  C   UNL A   1      40.680  31.340  31.839  1.00  0.00     0.031 C 
ATOM     46  C   UNL A   1      40.428  25.811  27.744  1.00  0.00     0.029 A 
ATOM     47  C   UNL A   1      41.644  25.971  28.536  1.00  0.00     0.049 A 
ATOM     48  H   UNL A   1      42.087  27.490  29.888  1.00  0.00     0.167 HD
ATOM     49  C   UNL A   1      43.029  30.856  32.470  1.00  0.00     0.037 A 
ATOM     50  C   UNL A   1      42.704  25.143  28.514  1.00  0.00     0.037 A 
ATOM     51  C   UNL A   1      44.224  30.058  32.475  1.00  0.00     0.049 A 
ATOM     52  C   UNL A   1      43.920  25.459  29.335  1.00  0.00     0.074 A 
ATOM     53  C   UNL A   1      45.408  30.275  33.160  1.00  0.00     0.029 A 
ATOM     54  N   UNL A   1      44.379  28.875  31.772  1.00  0.00    -0.354 N 
ATOM     55  N   UNL A   1      44.141  26.484  30.118  1.00  0.00    -0.248 NA
ATOM     56  C   UNL A   1      45.040  24.509  29.251  1.00  0.00     0.031 C 
ATOM     57  C   UNL A   1      46.280  29.218  32.874  1.00  0.00     0.029 A 
ATOM     58  C   UNL A   1      45.636  28.345  32.012  1.00  0.00     0.049 A 
ATOM     59  H   UNL A   1      43.697  28.470  31.188  1.00  0.00     0.167 HD
ATOM     60  C   UNL A   1      45.426  26.313  30.611  1.00  0.00     0.074 A 
ATOM     61  C   UNL A   1      45.933  25.077  30.051  1.00  0.00     0.031 C 
ATOM     62  C   UNL A   1      46.124  27.117  31.447  1.00  0.00     0.037 A 
BRANCH  49  63
ATOM     63  C   UNL A   1      43.029  32.125  33.257  1.00  0.00     0.064 A 
ATOM     64  C   UNL A   1      43.391  33.345  32.673  1.00  0.00     0.173 A 
ATOM     65  C   UNL A   1      42.636  32.121  34.603  1.00  0.00     0.173 A 
ATOM     66  F   UNL A   1      43.784  33.389  31.392  1.00  0.00    -0.203 F 
ATOM     67  C   UNL A   1      43.363  34.523  33.415  1.00  0.00     0.198 A 
ATOM     68  C   UNL A   1      42.606  33.301  35.341  1.00  0.00     0.198 A 
ATOM     69  F   UNL A   1      42.289  30.971  35.202  1.00  0.00    -0.203 F 
ATOM     70  F   UNL A   1      43.725  35.680  32.844  1.00  0.00    -0.200 F 
ATOM     71  C   UNL A   1      42.969  34.500  34.745  1.00  0.00     0.200 A 
ATOM     72  F   UNL A   1      42.231  33.277  36.626  1.00  0.00    -0.200 F 
ATOM     73  F   UNL A   1      42.947  35.635  35.458  1.00  0.00    -0.200 F 
ENDBRANCH  49  63
BRANCH  50  74
ATOM     74  C   UNL A   1      42.663  23.931  27.668  1.00  0.00     0.064 A 
ATOM     75  C   UNL A   1      43.005  23.997  26.313  1.00  0.00     0.173 A 
ATOM     76  C   UNL A   1      42.298  22.689  28.202  1.00  0.00     0.173 A 
ATOM     77  F   UNL A   1      43.348  25.172  25.764  1.00  0.00    -0.203 F 
ATOM     78  C   UNL A   1      42.985  22.855  25.516  1.00  0.00     0.198 A 
ATOM     79  C   UNL A   1      42.282  21.549  27.404  1.00  0.00     0.198 A 
ATOM     80  F   UNL A   1      41.958  22.589  29.494  1.00  0.00    -0.203 F 
ATOM     81  F   UNL A   1      43.310  22.941  24.219  1.00  0.00    -0.200 F 
ATOM     82  C   UNL A   1      42.625  21.632  26.062  1.00  0.00     0.200 A 
ATOM     83  F   UNL A   1      41.933  20.367  27.933  1.00  0.00    -0.200 F 
ATOM     84  F   UNL A   1      42.607  20.534  25.295  1.00  0.00    -0.200 F 
ENDBRANCH  50  74
BRANCH  62  85
ATOM     85  C   UNL A   1      47.512  26.689  31.796  1.00  0.00     0.064 A 
ATOM     86  C   UNL A   1      48.613  27.182  31.083  1.00  0.00     0.173 A 
ATOM     87  C   UNL A   1      47.746  25.810  32.861  1.00  0.00     0.173 A 
ATOM     88  F   UNL A   1      48.430  28.017  30.050  1.00  0.00    -0.203 F 
ATOM     89  C   UNL A   1      49.908  26.806  31.427  1.00  0.00     0.198 A 
ATOM     90  C   UNL A   1      49.043  25.436  33.201  1.00  0.00     0.198 A 
ATOM     91  F   UNL A   1      46.718  25.308  33.560  1.00  0.00    -0.203 F 
ATOM     92  F   UNL A   1      50.950  27.279  30.728  1.00  0.00    -0.200 F 
ATOM     93  C   UNL A   1      50.122  25.935  32.485  1.00  0.00     0.200 A 
ATOM     94  F   UNL A   1      49.249  24.587  34.218  1.00  0.00    -0.200 F 
ATOM     95  F   UNL A   1      51.369  25.568  32.811  1.00  0.00    -0.200 F 
ENDBRANCH  62  85
ENDBRANCH  36  37
ENDBRANCH  28  31
ENDBRANCH  26  27
ENDBRANCH  25  26
ENDBRANCH   1  25
TORSDOF 14
ENDMDL
