MODEL 1
REMARK VINA RESULT:     -12.4      0.000      0.000
REMARK SMILES Cn1ccc(C(=O)NCc2ccc(C(=O)NCCCNC(=O)c3ccc(-c4c5nc(c(-c6c(F)c(F)c(F)c(F)c6F)c6ccc([nH]6)c(-c6c(F)c(F)c(F)c(F)c6F)c6nc(c(-c7c(F)c(F)c(F)c(F)c7F)c7ccc4[nH]7)C=C6)C=C5)cc3)cc2)cc1=O
REMARK SMILES IDX 17 1 16 2 14 3 15 4 13 6 10 7 11 8 87 9 12 10 86 11 9 12
REMARK SMILES IDX 8 13 6 14 7 15 5 17 1 18 2 19 3 20 89 21 4 22 88 23 90 24
REMARK SMILES IDX 18 25 19 26 20 27 21 28 22 30 23 31 24 32 85 33 25 34 84 35
REMARK SMILES IDX 26 36 27 37 28 38 78 39 29 40 83 41 77 42 79 43 30 44 82 45
REMARK SMILES IDX 76 46 75 47 31 49 63 50 43 51 62 52 44 53 47 54 61 55 80 56
REMARK SMILES IDX 45 57 46 58 60 60 81 61 48 62 32 63 33 64 41 65 34 66 35 67
REMARK SMILES IDX 39 68 42 69 36 70 37 71 40 72 38 73 64 74 65 75 73 76 66 77
REMARK SMILES IDX 67 78 71 79 74 80 68 81 69 82 72 83 70 84 49 85 50 86 58 87
REMARK SMILES IDX 51 88 52 89 56 90 59 91 53 92 54 93 57 94 55 95
REMARK H PARENT 16 5 8 16 20 29 79 48 47 59
REMARK Flexibility Score: inf
ROOT
ATOM      1  C   UNL A   1      31.431  30.915  26.269  1.00  0.00     0.118 C 
ENDROOT
BRANCH   1   2
ATOM      2  N   UNL A   1      32.535  30.270  26.961  1.00  0.00    -0.352 N 
ATOM      3  C   UNL A   1      33.026  28.989  26.911  1.00  0.00     0.251 C 
ATOM      4  O   UNL A   1      34.068  28.752  27.523  1.00  0.00    -0.269 OA
ATOM      5  H   UNL A   1      33.021  30.862  27.579  1.00  0.00     0.163 HD
BRANCH   3   6
ATOM      6  C   UNL A   1      32.375  27.889  26.144  1.00  0.00     0.039 A 
ATOM      7  C   UNL A   1      31.284  25.756  24.623  1.00  0.00    -0.029 A 
ATOM      8  C   UNL A   1      32.463  26.391  24.217  1.00  0.00     0.006 A 
ATOM      9  C   UNL A   1      30.688  26.178  25.821  1.00  0.00     0.006 A 
ATOM     10  C   UNL A   1      32.999  27.449  24.967  1.00  0.00     0.014 A 
ATOM     11  C   UNL A   1      31.233  27.220  26.575  1.00  0.00     0.014 A 
BRANCH   7  12
ATOM     12  C   UNL A   1      30.725  24.585  23.841  1.00  0.00     0.152 C 
BRANCH  12  13
ATOM     13  N   UNL A   1      30.693  23.377  24.645  1.00  0.00    -0.348 N 
ATOM     14  C   UNL A   1      31.625  22.482  25.047  1.00  0.00     0.251 C 
ATOM     15  O   UNL A   1      31.205  21.450  25.578  1.00  0.00    -0.269 OA
ATOM     16  H   UNL A   1      29.789  23.160  24.971  1.00  0.00     0.164 HD
BRANCH  14  17
ATOM     17  C   UNL A   1      33.100  22.729  24.982  1.00  0.00     0.046 A 
ATOM     18  C   UNL A   1      37.229  23.704  25.235  1.00  0.00     0.153 C 
ATOM     19  N   UNL A   1      35.828  23.327  25.134  1.00  0.00    -0.319 N 
ATOM     20  C   UNL A   1      35.081  23.256  26.291  1.00  0.00     0.089 A 
ATOM     21  C   UNL A   1      35.285  23.032  23.887  1.00  0.00     0.251 A 
ATOM     22  C   UNL A   1      33.776  22.974  26.248  1.00  0.00     0.032 A 
ATOM     23  C   UNL A   1      33.839  22.674  23.863  1.00  0.00     0.085 A 
ATOM     24  O   UNL A   1      35.901  23.064  22.825  1.00  0.00    -0.269 OA
ENDBRANCH  14  17
ENDBRANCH  12  13
ENDBRANCH   7  12
ENDBRANCH   3   6
ENDBRANCH   1   2
BRANCH   1  25
ATOM     25  C   UNL A   1      31.344  32.404  26.605  1.00  0.00     0.042 C 
BRANCH  25  26
ATOM     26  C   UNL A   1      32.650  33.001  27.119  1.00  0.00     0.118 C 
BRANCH  26  27
ATOM     27  N   UNL A   1      32.467  34.336  27.668  1.00  0.00    -0.352 N 
ATOM     28  C   UNL A   1      33.069  34.939  28.742  1.00  0.00     0.251 C 
ATOM     29  H   UNL A   1      31.808  34.894  27.194  1.00  0.00     0.163 HD
ATOM     30  O   UNL A   1      32.624  36.007  29.163  1.00  0.00    -0.269 OA
BRANCH  28  31
ATOM     31  C   UNL A   1      34.239  34.325  29.409  1.00  0.00     0.039 A 
ATOM     32  C   UNL A   1      34.019  33.477  30.501  1.00  0.00     0.014 A 
ATOM     33  C   UNL A   1      35.545  34.621  29.012  1.00  0.00     0.014 A 
ATOM     34  C   UNL A   1      35.103  32.896  31.164  1.00  0.00     0.010 A 
ATOM     35  C   UNL A   1      36.623  33.987  29.629  1.00  0.00     0.010 A 
ATOM     36  C   UNL A   1      36.413  33.129  30.718  1.00  0.00    -0.014 A 
BRANCH  36  37
ATOM     37  C   UNL A   1      37.578  32.500  31.389  1.00  0.00     0.031 A 
ATOM     38  C   UNL A   1      38.314  31.370  30.725  1.00  0.00     0.074 A 
ATOM     39  C   UNL A   1      37.934  32.902  32.624  1.00  0.00     0.049 A 
ATOM     40  N   UNL A   1      39.306  30.645  31.177  1.00  0.00    -0.248 NA
ATOM     41  C   UNL A   1      37.853  30.987  29.382  1.00  0.00     0.031 C 
ATOM     42  C   UNL A   1      37.280  33.964  33.387  1.00  0.00     0.029 A 
ATOM     43  N   UNL A   1      38.930  32.457  33.457  1.00  0.00    -0.354 N 
ATOM     44  C   UNL A   1      39.571  29.708  30.186  1.00  0.00     0.074 A 
ATOM     45  C   UNL A   1      38.605  29.927  29.131  1.00  0.00     0.031 C 
ATOM     46  C   UNL A   1      37.907  34.110  34.564  1.00  0.00     0.029 A 
ATOM     47  C   UNL A   1      38.983  33.126  34.654  1.00  0.00     0.049 A 
ATOM     48  H   UNL A   1      39.547  31.729  33.218  1.00  0.00     0.167 HD
ATOM     49  C   UNL A   1      40.541  28.764  30.154  1.00  0.00     0.037 A 
ATOM     50  C   UNL A   1      39.805  32.961  35.707  1.00  0.00     0.037 A 
ATOM     51  C   UNL A   1      41.518  28.569  31.194  1.00  0.00     0.049 A 
ATOM     52  C   UNL A   1      40.868  31.899  35.652  1.00  0.00     0.074 A 
ATOM     53  C   UNL A   1      42.587  27.691  31.224  1.00  0.00     0.029 A 
ATOM     54  N   UNL A   1      41.538  29.265  32.394  1.00  0.00    -0.354 N 
ATOM     55  N   UNL A   1      41.152  31.061  34.686  1.00  0.00    -0.248 NA
ATOM     56  C   UNL A   1      41.726  31.763  36.837  1.00  0.00     0.031 C 
ATOM     57  C   UNL A   1      43.227  27.824  32.461  1.00  0.00     0.029 A 
ATOM     58  C   UNL A   1      42.586  28.817  33.183  1.00  0.00     0.049 A 
ATOM     59  H   UNL A   1      40.902  29.973  32.648  1.00  0.00     0.167 HD
ATOM     60  C   UNL A   1      42.237  30.318  35.130  1.00  0.00     0.074 A 
ATOM     61  C   UNL A   1      42.565  30.810  36.453  1.00  0.00     0.031 C 
ATOM     62  C   UNL A   1      42.902  29.321  34.497  1.00  0.00     0.037 A 
BRANCH  49  63
ATOM     63  C   UNL A   1      40.582  27.861  28.953  1.00  0.00     0.064 A 
ATOM     64  C   UNL A   1      41.391  28.146  27.842  1.00  0.00     0.173 A 
ATOM     65  C   UNL A   1      39.806  26.693  28.916  1.00  0.00     0.173 A 
ATOM     66  F   UNL A   1      42.144  29.256  27.823  1.00  0.00    -0.203 F 
ATOM     67  C   UNL A   1      41.384  27.321  26.720  1.00  0.00     0.198 A 
ATOM     68  C   UNL A   1      39.827  25.853  27.805  1.00  0.00     0.198 A 
ATOM     69  F   UNL A   1      39.021  26.367  29.954  1.00  0.00    -0.203 F 
ATOM     70  F   UNL A   1      42.115  27.649  25.646  1.00  0.00    -0.200 F 
ATOM     71  C   UNL A   1      40.606  26.174  26.704  1.00  0.00     0.200 A 
ATOM     72  F   UNL A   1      39.084  24.738  27.796  1.00  0.00    -0.200 F 
ATOM     73  F   UNL A   1      40.599  25.382  25.622  1.00  0.00    -0.200 F 
ENDBRANCH  49  63
BRANCH  50  74
ATOM     74  C   UNL A   1      39.683  33.860  36.882  1.00  0.00     0.064 A 
ATOM     75  C   UNL A   1      40.348  35.092  36.908  1.00  0.00     0.173 A 
ATOM     76  C   UNL A   1      38.883  33.525  37.985  1.00  0.00     0.173 A 
ATOM     77  F   UNL A   1      41.140  35.447  35.885  1.00  0.00    -0.203 F 
ATOM     78  C   UNL A   1      40.225  35.955  37.995  1.00  0.00     0.198 A 
ATOM     79  C   UNL A   1      38.742  34.398  39.061  1.00  0.00     0.198 A 
ATOM     80  F   UNL A   1      38.223  32.358  38.005  1.00  0.00    -0.203 F 
ATOM     81  F   UNL A   1      40.895  37.115  38.006  1.00  0.00    -0.200 F 
ATOM     82  C   UNL A   1      39.416  35.611  39.067  1.00  0.00     0.200 A 
ATOM     83  F   UNL A   1      37.949  34.068  40.089  1.00  0.00    -0.200 F 
ATOM     84  F   UNL A   1      39.289  36.445  40.107  1.00  0.00    -0.200 F 
ENDBRANCH  50  74
BRANCH  62  85
ATOM     85  C   UNL A   1      44.076  28.718  35.212  1.00  0.00     0.064 A 
ATOM     86  C   UNL A   1      43.935  27.595  36.040  1.00  0.00     0.173 A 
ATOM     87  C   UNL A   1      45.363  29.248  35.035  1.00  0.00     0.173 A 
ATOM     88  F   UNL A   1      42.722  27.063  36.255  1.00  0.00    -0.203 F 
ATOM     89  C   UNL A   1      45.037  27.037  36.683  1.00  0.00     0.198 A 
ATOM     90  C   UNL A   1      46.466  28.671  35.657  1.00  0.00     0.198 A 
ATOM     91  F   UNL A   1      45.551  30.318  34.249  1.00  0.00    -0.203 F 
ATOM     92  F   UNL A   1      44.874  25.992  37.504  1.00  0.00    -0.200 F 
ATOM     93  C   UNL A   1      46.302  27.572  36.485  1.00  0.00     0.200 A 
ATOM     94  F   UNL A   1      47.690  29.181  35.456  1.00  0.00    -0.200 F 
ATOM     95  F   UNL A   1      47.362  27.030  37.099  1.00  0.00    -0.200 F 
ENDBRANCH  62  85
ENDBRANCH  36  37
ENDBRANCH  28  31
ENDBRANCH  26  27
ENDBRANCH  25  26
ENDBRANCH   1  25
TORSDOF 13
ENDMDL
MODEL 2
REMARK VINA RESULT:     -12.4      2.062      3.431
REMARK SMILES Cn1ccc(C(=O)NCc2ccc(C(=O)NCCCNC(=O)c3ccc(-c4c5nc(c(-c6c(F)c(F)c(F)c(F)c6F)c6ccc([nH]6)c(-c6c(F)c(F)c(F)c(F)c6F)c6nc(c(-c7c(F)c(F)c(F)c(F)c7F)c7ccc4[nH]7)C=C6)C=C5)cc3)cc2)cc1=O
REMARK SMILES IDX 17 1 16 2 14 3 15 4 13 6 10 7 11 8 87 9 12 10 86 11 9 12
REMARK SMILES IDX 8 13 6 14 7 15 5 17 1 18 2 19 3 20 89 21 4 22 88 23 90 24
REMARK SMILES IDX 18 25 19 26 20 27 21 28 22 30 23 31 24 32 85 33 25 34 84 35
REMARK SMILES IDX 26 36 27 37 28 38 78 39 29 40 83 41 77 42 79 43 30 44 82 45
REMARK SMILES IDX 76 46 75 47 31 49 63 50 43 51 62 52 44 53 47 54 61 55 80 56
REMARK SMILES IDX 45 57 46 58 60 60 81 61 48 62 32 63 33 64 41 65 34 66 35 67
REMARK SMILES IDX 39 68 42 69 36 70 37 71 40 72 38 73 64 74 65 75 73 76 66 77
REMARK SMILES IDX 67 78 71 79 74 80 68 81 69 82 72 83 70 84 49 85 50 86 58 87
REMARK SMILES IDX 51 88 52 89 56 90 59 91 53 92 54 93 57 94 55 95
REMARK H PARENT 16 5 8 16 20 29 79 48 47 59
REMARK Flexibility Score: inf
ROOT
ATOM      1  C   UNL A   1      33.195  28.084  22.522  1.00  0.00     0.118 C 
ENDROOT
BRANCH   1   2
ATOM      2  N   UNL A   1      31.778  28.306  22.288  1.00  0.00    -0.352 N 
ATOM      3  C   UNL A   1      30.661  27.622  22.701  1.00  0.00     0.251 C 
ATOM      4  O   UNL A   1      29.562  28.118  22.452  1.00  0.00    -0.269 OA
ATOM      5  H   UNL A   1      31.583  29.094  21.731  1.00  0.00     0.163 HD
BRANCH   3   6
ATOM      6  C   UNL A   1      30.717  26.331  23.444  1.00  0.00     0.039 A 
ATOM      7  C   UNL A   1      30.708  23.932  24.959  1.00  0.00    -0.029 A 
ATOM      8  C   UNL A   1      30.331  25.146  25.544  1.00  0.00     0.006 A 
ATOM      9  C   UNL A   1      31.047  23.933  23.597  1.00  0.00     0.006 A 
ATOM     10  C   UNL A   1      30.341  26.333  24.795  1.00  0.00     0.014 A 
ATOM     11  C   UNL A   1      31.039  25.114  22.850  1.00  0.00     0.014 A 
BRANCH   7  12
ATOM     12  C   UNL A   1      30.657  22.642  25.751  1.00  0.00     0.152 C 
BRANCH  12  13
ATOM     13  N   UNL A   1      31.377  22.760  27.005  1.00  0.00    -0.348 N 
ATOM     14  C   UNL A   1      32.669  22.592  27.374  1.00  0.00     0.251 C 
ATOM     15  O   UNL A   1      32.900  22.593  28.587  1.00  0.00    -0.269 OA
ATOM     16  H   UNL A   1      30.795  23.019  27.757  1.00  0.00     0.164 HD
BRANCH  14  17
ATOM     17  C   UNL A   1      33.810  22.523  26.407  1.00  0.00     0.046 A 
ATOM     18  C   UNL A   1      36.822  22.725  23.416  1.00  0.00     0.153 C 
ATOM     19  N   UNL A   1      35.825  22.647  24.471  1.00  0.00    -0.319 N 
ATOM     20  C   UNL A   1      35.128  23.790  24.803  1.00  0.00     0.089 A 
ATOM     21  C   UNL A   1      35.613  21.438  25.128  1.00  0.00     0.251 A 
ATOM     22  C   UNL A   1      34.159  23.760  25.723  1.00  0.00     0.032 A 
ATOM     23  C   UNL A   1      34.561  21.434  26.183  1.00  0.00     0.085 A 
ATOM     24  O   UNL A   1      36.210  20.392  24.888  1.00  0.00    -0.269 OA
ENDBRANCH  14  17
ENDBRANCH  12  13
ENDBRANCH   7  12
ENDBRANCH   3   6
ENDBRANCH   1   2
BRANCH   1  25
ATOM     25  C   UNL A   1      33.782  29.121  23.479  1.00  0.00     0.042 C 
BRANCH  25  26
ATOM     26  C   UNL A   1      33.352  28.936  24.931  1.00  0.00     0.118 C 
BRANCH  26  27
ATOM     27  N   UNL A   1      32.731  30.133  25.478  1.00  0.00    -0.352 N 
ATOM     28  C   UNL A   1      33.021  30.835  26.619  1.00  0.00     0.251 C 
ATOM     29  H   UNL A   1      31.988  30.497  24.945  1.00  0.00     0.163 HD
ATOM     30  O   UNL A   1      32.242  31.706  27.007  1.00  0.00    -0.269 OA
BRANCH  28  31
ATOM     31  C   UNL A   1      34.248  30.558  27.399  1.00  0.00     0.039 A 
ATOM     32  C   UNL A   1      35.150  31.605  27.625  1.00  0.00     0.014 A 
ATOM     33  C   UNL A   1      34.550  29.272  27.854  1.00  0.00     0.014 A 
ATOM     34  C   UNL A   1      36.327  31.371  28.341  1.00  0.00     0.010 A 
ATOM     35  C   UNL A   1      35.689  29.054  28.627  1.00  0.00     0.010 A 
ATOM     36  C   UNL A   1      36.594  30.098  28.867  1.00  0.00    -0.014 A 
BRANCH  36  37
ATOM     37  C   UNL A   1      37.824  29.833  29.655  1.00  0.00     0.031 A 
ATOM     38  C   UNL A   1      38.888  28.920  29.113  1.00  0.00     0.074 A 
ATOM     39  C   UNL A   1      37.955  30.363  30.886  1.00  0.00     0.049 A 
ATOM     40  N   UNL A   1      39.995  28.508  29.677  1.00  0.00    -0.248 NA
ATOM     41  C   UNL A   1      38.660  28.376  27.766  1.00  0.00     0.031 C 
ATOM     42  C   UNL A   1      36.980  31.238  31.536  1.00  0.00     0.029 A 
ATOM     43  N   UNL A   1      38.959  30.235  31.812  1.00  0.00    -0.354 N 
ATOM     44  C   UNL A   1      40.582  27.640  28.764  1.00  0.00     0.074 A 
ATOM     45  C   UNL A   1      39.685  27.549  27.632  1.00  0.00     0.031 C 
ATOM     46  C   UNL A   1      37.444  31.592  32.744  1.00  0.00     0.029 A 
ATOM     47  C   UNL A   1      38.732  30.940  32.969  1.00  0.00     0.049 A 
ATOM     48  H   UNL A   1      39.766  29.693  31.661  1.00  0.00     0.167 HD
ATOM     49  C   UNL A   1      41.768  26.992  28.856  1.00  0.00     0.037 A 
ATOM     50  C   UNL A   1      39.476  31.043  34.085  1.00  0.00     0.037 A 
ATOM     51  C   UNL A   1      42.670  27.108  29.973  1.00  0.00     0.049 A 
ATOM     52  C   UNL A   1      40.784  30.306  34.169  1.00  0.00     0.074 A 
ATOM     53  C   UNL A   1      43.927  26.553  30.131  1.00  0.00     0.029 A 
ATOM     54  N   UNL A   1      42.403  27.829  31.128  1.00  0.00    -0.354 N 
ATOM     55  N   UNL A   1      41.361  29.540  33.276  1.00  0.00    -0.248 NA
ATOM     56  C   UNL A   1      41.545  30.452  35.418  1.00  0.00     0.031 C 
ATOM     57  C   UNL A   1      44.403  26.901  31.400  1.00  0.00     0.029 A 
ATOM     58  C   UNL A   1      43.462  27.711  32.015  1.00  0.00     0.049 A 
ATOM     59  H   UNL A   1      41.583  28.348  31.294  1.00  0.00     0.167 HD
ATOM     60  C   UNL A   1      42.564  29.135  33.840  1.00  0.00     0.074 A 
ATOM     61  C   UNL A   1      42.636  29.747  35.151  1.00  0.00     0.031 C 
ATOM     62  C   UNL A   1      43.521  28.331  33.316  1.00  0.00     0.037 A 
BRANCH  49  63
ATOM     63  C   UNL A   1      42.149  26.089  27.718  1.00  0.00     0.064 A 
ATOM     64  C   UNL A   1      41.644  24.784  27.610  1.00  0.00     0.173 A 
ATOM     65  C   UNL A   1      43.028  26.536  26.719  1.00  0.00     0.173 A 
ATOM     66  F   UNL A   1      40.808  24.304  28.544  1.00  0.00    -0.203 F 
ATOM     67  C   UNL A   1      42.040  23.945  26.571  1.00  0.00     0.198 A 
ATOM     68  C   UNL A   1      43.396  25.704  25.664  1.00  0.00     0.198 A 
ATOM     69  F   UNL A   1      43.534  27.776  26.768  1.00  0.00    -0.203 F 
ATOM     70  F   UNL A   1      41.595  22.682  26.525  1.00  0.00    -0.200 F 
ATOM     71  C   UNL A   1      42.913  24.407  25.598  1.00  0.00     0.200 A 
ATOM     72  F   UNL A   1      44.230  26.156  24.717  1.00  0.00    -0.200 F 
ATOM     73  F   UNL A   1      43.296  23.597  24.600  1.00  0.00    -0.200 F 
ENDBRANCH  49  63
BRANCH  50  74
ATOM     74  C   UNL A   1      39.020  31.920  35.193  1.00  0.00     0.064 A 
ATOM     75  C   UNL A   1      38.311  31.386  36.277  1.00  0.00     0.173 A 
ATOM     76  C   UNL A   1      39.302  33.294  35.208  1.00  0.00     0.173 A 
ATOM     77  F   UNL A   1      38.001  30.081  36.296  1.00  0.00    -0.203 F 
ATOM     78  C   UNL A   1      37.896  32.193  37.334  1.00  0.00     0.198 A 
ATOM     79  C   UNL A   1      38.906  34.096  36.276  1.00  0.00     0.198 A 
ATOM     80  F   UNL A   1      39.981  33.850  34.195  1.00  0.00    -0.203 F 
ATOM     81  F   UNL A   1      37.195  31.662  38.345  1.00  0.00    -0.200 F 
ATOM     82  C   UNL A   1      38.200  33.546  37.336  1.00  0.00     0.200 A 
ATOM     83  F   UNL A   1      39.214  35.400  36.281  1.00  0.00    -0.200 F 
ATOM     84  F   UNL A   1      37.810  34.320  38.357  1.00  0.00    -0.200 F 
ENDBRANCH  50  74
BRANCH  62  85
ATOM     85  C   UNL A   1      44.748  28.095  34.146  1.00  0.00     0.064 A 
ATOM     86  C   UNL A   1      44.855  26.990  35.003  1.00  0.00     0.173 A 
ATOM     87  C   UNL A   1      45.845  28.965  34.055  1.00  0.00     0.173 A 
ATOM     88  F   UNL A   1      43.826  26.138  35.139  1.00  0.00    -0.203 F 
ATOM     89  C   UNL A   1      46.007  26.776  35.754  1.00  0.00     0.198 A 
ATOM     90  C   UNL A   1      47.006  28.733  34.787  1.00  0.00     0.198 A 
ATOM     91  F   UNL A   1      45.794  30.034  33.247  1.00  0.00    -0.203 F 
ATOM     92  F   UNL A   1      46.072  25.738  36.599  1.00  0.00    -0.200 F 
ATOM     93  C   UNL A   1      47.084  27.644  35.639  1.00  0.00     0.200 A 
ATOM     94  F   UNL A   1      48.049  29.566  34.667  1.00  0.00    -0.200 F 
ATOM     95  F   UNL A   1      48.195  27.433  36.359  1.00  0.00    -0.200 F 
ENDBRANCH  62  85
ENDBRANCH  36  37
ENDBRANCH  28  31
ENDBRANCH  26  27
ENDBRANCH  25  26
ENDBRANCH   1  25
TORSDOF 13
ENDMDL
MODEL 3
REMARK VINA RESULT:     -12.3      1.435      2.950
REMARK SMILES Cn1ccc(C(=O)NCc2ccc(C(=O)NCCCNC(=O)c3ccc(-c4c5nc(c(-c6c(F)c(F)c(F)c(F)c6F)c6ccc([nH]6)c(-c6c(F)c(F)c(F)c(F)c6F)c6nc(c(-c7c(F)c(F)c(F)c(F)c7F)c7ccc4[nH]7)C=C6)C=C5)cc3)cc2)cc1=O
REMARK SMILES IDX 17 1 16 2 14 3 15 4 13 6 10 7 11 8 87 9 12 10 86 11 9 12
REMARK SMILES IDX 8 13 6 14 7 15 5 17 1 18 2 19 3 20 89 21 4 22 88 23 90 24
REMARK SMILES IDX 18 25 19 26 20 27 21 28 22 30 23 31 24 32 85 33 25 34 84 35
REMARK SMILES IDX 26 36 27 37 28 38 78 39 29 40 83 41 77 42 79 43 30 44 82 45
REMARK SMILES IDX 76 46 75 47 31 49 63 50 43 51 62 52 44 53 47 54 61 55 80 56
REMARK SMILES IDX 45 57 46 58 60 60 81 61 48 62 32 63 33 64 41 65 34 66 35 67
REMARK SMILES IDX 39 68 42 69 36 70 37 71 40 72 38 73 64 74 65 75 73 76 66 77
REMARK SMILES IDX 67 78 71 79 74 80 68 81 69 82 72 83 70 84 49 85 50 86 58 87
REMARK SMILES IDX 51 88 52 89 56 90 59 91 53 92 54 93 57 94 55 95
REMARK H PARENT 16 5 8 16 20 29 79 48 47 59
REMARK Flexibility Score: inf
ROOT
ATOM      1  C   UNL A   1      31.160  30.772  25.361  1.00  0.00     0.118 C 
ENDROOT
BRANCH   1   2
ATOM      2  N   UNL A   1      30.240  30.947  24.250  1.00  0.00    -0.352 N 
ATOM      3  C   UNL A   1      29.648  30.047  23.397  1.00  0.00     0.251 C 
ATOM      4  O   UNL A   1      28.800  30.475  22.614  1.00  0.00    -0.269 OA
ATOM      5  H   UNL A   1      29.996  31.885  24.076  1.00  0.00     0.163 HD
BRANCH   3   6
ATOM      6  C   UNL A   1      29.967  28.592  23.390  1.00  0.00     0.039 A 
ATOM      7  C   UNL A   1      30.413  25.789  23.368  1.00  0.00    -0.029 A 
ATOM      8  C   UNL A   1      29.212  26.316  23.857  1.00  0.00     0.006 A 
ATOM      9  C   UNL A   1      31.364  26.683  22.853  1.00  0.00     0.006 A 
ATOM     10  C   UNL A   1      28.995  27.703  23.872  1.00  0.00     0.014 A 
ATOM     11  C   UNL A   1      31.137  28.062  22.854  1.00  0.00     0.014 A 
BRANCH   7  12
ATOM     12  C   UNL A   1      30.634  24.292  23.308  1.00  0.00     0.152 C 
BRANCH  12  13
ATOM     13  N   UNL A   1      30.652  23.705  24.636  1.00  0.00    -0.348 N 
ATOM     14  C   UNL A   1      31.292  23.998  25.792  1.00  0.00     0.251 C 
ATOM     15  O   UNL A   1      31.215  23.157  26.693  1.00  0.00    -0.269 OA
ATOM     16  H   UNL A   1      30.067  22.916  24.712  1.00  0.00     0.164 HD
BRANCH  14  17
ATOM     17  C   UNL A   1      31.973  25.304  26.060  1.00  0.00     0.046 A 
ATOM     18  C   UNL A   1      34.352  28.751  26.780  1.00  0.00     0.153 C 
ATOM     19  N   UNL A   1      33.509  27.598  26.507  1.00  0.00    -0.319 N 
ATOM     20  C   UNL A   1      34.028  26.568  25.751  1.00  0.00     0.089 A 
ATOM     21  C   UNL A   1      32.205  27.570  26.995  1.00  0.00     0.251 A 
ATOM     22  C   UNL A   1      33.317  25.460  25.523  1.00  0.00     0.032 A 
ATOM     23  C   UNL A   1      31.412  26.346  26.691  1.00  0.00     0.085 A 
ATOM     24  O   UNL A   1      31.683  28.460  27.660  1.00  0.00    -0.269 OA
ENDBRANCH  14  17
ENDBRANCH  12  13
ENDBRANCH   7  12
ENDBRANCH   3   6
ENDBRANCH   1   2
BRANCH   1  25
ATOM     25  C   UNL A   1      31.030  31.897  26.388  1.00  0.00     0.042 C 
BRANCH  25  26
ATOM     26  C   UNL A   1      32.366  32.438  26.887  1.00  0.00     0.118 C 
BRANCH  26  27
ATOM     27  N   UNL A   1      32.275  33.827  27.310  1.00  0.00    -0.352 N 
ATOM     28  C   UNL A   1      32.952  34.496  28.297  1.00  0.00     0.251 C 
ATOM     29  H   UNL A   1      31.626  34.373  26.809  1.00  0.00     0.163 HD
ATOM     30  O   UNL A   1      32.581  35.622  28.629  1.00  0.00    -0.269 OA
BRANCH  28  31
ATOM     31  C   UNL A   1      34.116  33.884  28.976  1.00  0.00     0.039 A 
ATOM     32  C   UNL A   1      35.396  34.369  28.679  1.00  0.00     0.014 A 
ATOM     33  C   UNL A   1      33.968  32.804  29.850  1.00  0.00     0.014 A 
ATOM     34  C   UNL A   1      36.517  33.800  29.289  1.00  0.00     0.010 A 
ATOM     35  C   UNL A   1      35.080  32.284  30.510  1.00  0.00     0.010 A 
ATOM     36  C   UNL A   1      36.366  32.768  30.228  1.00  0.00    -0.014 A 
BRANCH  36  37
ATOM     37  C   UNL A   1      37.540  32.169  30.909  1.00  0.00     0.031 A 
ATOM     38  C   UNL A   1      38.348  31.101  30.225  1.00  0.00     0.074 A 
ATOM     39  C   UNL A   1      37.841  32.538  32.168  1.00  0.00     0.049 A 
ATOM     40  N   UNL A   1      39.359  30.406  30.681  1.00  0.00    -0.248 NA
ATOM     41  C   UNL A   1      37.944  30.749  28.856  1.00  0.00     0.031 C 
ATOM     42  C   UNL A   1      37.116  33.539  32.950  1.00  0.00     0.029 A 
ATOM     43  N   UNL A   1      38.832  32.108  33.014  1.00  0.00    -0.354 N 
ATOM     44  C   UNL A   1      39.696  29.521  29.664  1.00  0.00     0.074 A 
ATOM     45  C   UNL A   1      38.752  29.736  28.588  1.00  0.00     0.031 C 
ATOM     46  C   UNL A   1      37.701  33.667  34.151  1.00  0.00     0.029 A 
ATOM     47  C   UNL A   1      38.820  32.732  34.237  1.00  0.00     0.049 A 
ATOM     48  H   UNL A   1      39.490  31.419  32.766  1.00  0.00     0.167 HD
ATOM     49  C   UNL A   1      40.712  28.625  29.625  1.00  0.00     0.037 A 
ATOM     50  C   UNL A   1      39.618  32.564  35.307  1.00  0.00     0.037 A 
ATOM     51  C   UNL A   1      41.666  28.435  30.687  1.00  0.00     0.049 A 
ATOM     52  C   UNL A   1      40.732  31.556  35.245  1.00  0.00     0.074 A 
ATOM     53  C   UNL A   1      42.774  27.607  30.717  1.00  0.00     0.029 A 
ATOM     54  N   UNL A   1      41.619  29.084  31.912  1.00  0.00    -0.354 N 
ATOM     55  N   UNL A   1      41.082  30.770  34.257  1.00  0.00    -0.248 NA
ATOM     56  C   UNL A   1      41.561  31.413  36.450  1.00  0.00     0.031 C 
ATOM     57  C   UNL A   1      43.372  27.721  31.977  1.00  0.00     0.029 A 
ATOM     58  C   UNL A   1      42.664  28.655  32.716  1.00  0.00     0.049 A 
ATOM     59  H   UNL A   1      40.943  29.751  32.173  1.00  0.00     0.167 HD
ATOM     60  C   UNL A   1      42.189  30.061  34.706  1.00  0.00     0.074 A 
ATOM     61  C   UNL A   1      42.455  30.517  36.055  1.00  0.00     0.031 C 
ATOM     62  C   UNL A   1      42.918  29.122  34.056  1.00  0.00     0.037 A 
BRANCH  49  63
ATOM     63  C   UNL A   1      40.830  27.772  28.394  1.00  0.00     0.064 A 
ATOM     64  C   UNL A   1      40.163  26.542  28.280  1.00  0.00     0.173 A 
ATOM     65  C   UNL A   1      41.617  28.192  27.311  1.00  0.00     0.173 A 
ATOM     66  F   UNL A   1      39.406  26.089  29.292  1.00  0.00    -0.203 F 
ATOM     67  C   UNL A   1      40.318  25.744  27.150  1.00  0.00     0.198 A 
ATOM     68  C   UNL A   1      41.742  27.406  26.168  1.00  0.00     0.198 A 
ATOM     69  F   UNL A   1      42.269  29.363  27.361  1.00  0.00    -0.203 F 
ATOM     70  F   UNL A   1      39.723  24.544  27.092  1.00  0.00    -0.200 F 
ATOM     71  C   UNL A   1      41.103  26.178  26.093  1.00  0.00     0.200 A 
ATOM     72  F   UNL A   1      42.492  27.833  25.143  1.00  0.00    -0.200 F 
ATOM     73  F   UNL A   1      41.253  25.408  25.007  1.00  0.00    -0.200 F 
ENDBRANCH  49  63
BRANCH  50  74
ATOM     74  C   UNL A   1      39.420  33.411  36.511  1.00  0.00     0.064 A 
ATOM     75  C   UNL A   1      38.622  32.963  37.572  1.00  0.00     0.173 A 
ATOM     76  C   UNL A   1      40.038  34.663  36.639  1.00  0.00     0.173 A 
ATOM     77  F   UNL A   1      37.995  31.780  37.484  1.00  0.00    -0.203 F 
ATOM     78  C   UNL A   1      38.444  33.737  38.716  1.00  0.00     0.198 A 
ATOM     79  C   UNL A   1      39.877  35.427  37.794  1.00  0.00     0.198 A 
ATOM     80  F   UNL A   1      40.813  35.134  35.653  1.00  0.00    -0.203 F 
ATOM     81  F   UNL A   1      37.654  33.297  39.704  1.00  0.00    -0.200 F 
ATOM     82  C   UNL A   1      39.078  34.965  38.829  1.00  0.00     0.200 A 
ATOM     83  F   UNL A   1      40.502  36.607  37.905  1.00  0.00    -0.200 F 
ATOM     84  F   UNL A   1      38.916  35.705  39.934  1.00  0.00    -0.200 F 
ENDBRANCH  50  74
BRANCH  62  85
ATOM     85  C   UNL A   1      44.098  28.547  34.783  1.00  0.00     0.064 A 
ATOM     86  C   UNL A   1      45.359  29.158  34.738  1.00  0.00     0.173 A 
ATOM     87  C   UNL A   1      43.954  27.392  35.567  1.00  0.00     0.173 A 
ATOM     88  F   UNL A   1      45.552  30.254  33.988  1.00  0.00    -0.203 F 
ATOM     89  C   UNL A   1      46.440  28.621  35.432  1.00  0.00     0.198 A 
ATOM     90  C   UNL A   1      45.030  26.873  36.282  1.00  0.00     0.198 A 
ATOM     91  F   UNL A   1      42.767  26.772  35.647  1.00  0.00    -0.203 F 
ATOM     92  F   UNL A   1      47.647  29.195  35.340  1.00  0.00    -0.200 F 
ATOM     93  C   UNL A   1      46.272  27.483  36.209  1.00  0.00     0.200 A 
ATOM     94  F   UNL A   1      44.864  25.780  37.040  1.00  0.00    -0.200 F 
ATOM     95  F   UNL A   1      47.312  26.971  36.882  1.00  0.00    -0.200 F 
ENDBRANCH  62  85
ENDBRANCH  36  37
ENDBRANCH  28  31
ENDBRANCH  26  27
ENDBRANCH  25  26
ENDBRANCH   1  25
TORSDOF 13
ENDMDL
