MODEL 1
REMARK VINA RESULT:     -11.5      0.000      0.000
REMARK SMILES CC(C)Cc1ccc([C@@H](C)C(=O)NCCCNC(=O)c2ccc(-c3c4nc(c(-c5c(F)c(F)c(F)c(F)c5F)c5ccc([nH]5)c(-c5c(F)c(F)c(F)c(F)c5F)c5nc(c(-c6c(F)c(F)c(F)c(F)c6F)c6ccc3[nH]6)C=C5)C=C4)cc2)cc1
REMARK SMILES IDX 14 1 13 2 11 3 12 4 9 6 10 7 8 8 5 9 6 10 84 11 7 12 83 13
REMARK SMILES IDX 4 14 2 15 1 16 3 17 15 18 16 19 17 20 18 21 19 23 20 24
REMARK SMILES IDX 21 25 82 26 22 27 81 28 23 29 24 30 25 31 75 32 26 33 80 34
REMARK SMILES IDX 74 35 76 36 27 37 79 38 73 39 72 40 28 42 60 43 40 44 59 45
REMARK SMILES IDX 41 46 44 47 58 48 77 49 42 50 43 51 57 53 78 54 45 55 29 56
REMARK SMILES IDX 30 57 38 58 31 59 32 60 36 61 39 62 33 63 34 64 37 65 35 66
REMARK SMILES IDX 61 67 62 68 70 69 63 70 64 71 68 72 71 73 65 74 66 75 69 76
REMARK SMILES IDX 67 77 46 78 47 79 55 80 48 81 49 82 53 83 56 84 50 85 51 86
REMARK SMILES IDX 54 87 52 88
REMARK H PARENT 13 5 17 22 76 41 44 52
REMARK Flexibility Score: inf
ROOT
ATOM      1  C   UNL A   1      31.465  29.032  23.808  1.00  0.00     0.117 C 
ENDROOT
BRANCH   1   2
ATOM      2  N   UNL A   1      32.687  29.040  23.030  1.00  0.00    -0.356 N 
ATOM      3  C   UNL A   1      33.370  28.043  22.404  1.00  0.00     0.227 C 
ATOM      4  O   UNL A   1      34.437  28.369  21.868  1.00  0.00    -0.274 OA
ATOM      5  H   UNL A   1      33.097  29.929  22.936  1.00  0.00     0.163 HD
BRANCH   3   6
ATOM      6  C   UNL A   1      32.897  26.581  22.346  1.00  0.00     0.105 C 
ATOM      7  C   UNL A   1      31.386  26.398  22.217  1.00  0.00     0.023 C 
BRANCH   6   8
ATOM      8  C   UNL A   1      33.602  25.698  23.363  1.00  0.00    -0.036 A 
ATOM      9  C   UNL A   1      35.177  24.096  25.091  1.00  0.00    -0.048 A 
ATOM     10  C   UNL A   1      34.611  25.294  25.541  1.00  0.00     0.004 A 
ATOM     11  C   UNL A   1      34.872  23.662  23.799  1.00  0.00     0.004 A 
ATOM     12  C   UNL A   1      33.818  26.076  24.692  1.00  0.00     0.005 A 
ATOM     13  C   UNL A   1      34.118  24.463  22.939  1.00  0.00     0.005 A 
BRANCH   9  14
ATOM     14  C   UNL A   1      36.085  23.297  26.000  1.00  0.00     0.038 C 
BRANCH  14  15
ATOM     15  C   UNL A   1      37.589  23.367  25.650  1.00  0.00    -0.013 C 
ATOM     16  C   UNL A   1      38.369  24.276  26.605  1.00  0.00     0.008 C 
ATOM     17  C   UNL A   1      38.196  21.962  25.669  1.00  0.00     0.008 C 
ENDBRANCH  14  15
ENDBRANCH   9  14
ENDBRANCH   6   8
ENDBRANCH   3   6
ENDBRANCH   1   2
BRANCH   1  18
ATOM     18  C   UNL A   1      31.727  28.913  25.307  1.00  0.00     0.042 C 
BRANCH  18  19
ATOM     19  C   UNL A   1      33.020  29.572  25.769  1.00  0.00     0.118 C 
BRANCH  19  20
ATOM     20  N   UNL A   1      32.811  30.937  26.231  1.00  0.00    -0.352 N 
ATOM     21  C   UNL A   1      33.460  31.672  27.191  1.00  0.00     0.251 C 
ATOM     22  H   UNL A   1      32.078  31.413  25.778  1.00  0.00     0.163 HD
ATOM     23  O   UNL A   1      32.972  32.742  27.547  1.00  0.00    -0.269 OA
BRANCH  21  24
ATOM     24  C   UNL A   1      34.727  31.212  27.809  1.00  0.00     0.039 A 
ATOM     25  C   UNL A   1      34.795  29.896  28.284  1.00  0.00     0.014 A 
ATOM     26  C   UNL A   1      35.807  32.072  28.017  1.00  0.00     0.014 A 
ATOM     27  C   UNL A   1      35.946  29.439  28.936  1.00  0.00     0.010 A 
ATOM     28  C   UNL A   1      36.984  31.596  28.597  1.00  0.00     0.010 A 
ATOM     29  C   UNL A   1      37.055  30.282  29.087  1.00  0.00    -0.014 A 
BRANCH  29  30
ATOM     30  C   UNL A   1      38.272  29.836  29.815  1.00  0.00     0.031 A 
ATOM     31  C   UNL A   1      38.546  30.357  31.201  1.00  0.00     0.074 A 
ATOM     32  C   UNL A   1      39.151  29.008  29.220  1.00  0.00     0.049 A 
ATOM     33  N   UNL A   1      39.589  30.164  31.969  1.00  0.00    -0.248 NA
ATOM     34  C   UNL A   1      37.523  31.235  31.790  1.00  0.00     0.031 C 
ATOM     35  C   UNL A   1      39.020  28.463  27.869  1.00  0.00     0.029 A 
ATOM     36  N   UNL A   1      40.337  28.489  29.676  1.00  0.00    -0.354 N 
ATOM     37  C   UNL A   1      39.362  30.922  33.112  1.00  0.00     0.074 A 
ATOM     38  C   UNL A   1      38.102  31.606  32.922  1.00  0.00     0.031 C 
ATOM     39  C   UNL A   1      40.076  27.672  27.611  1.00  0.00     0.029 A 
ATOM     40  C   UNL A   1      40.970  27.680  28.765  1.00  0.00     0.049 A 
ATOM     41  H   UNL A   1      40.700  28.680  30.571  1.00  0.00     0.167 HD
ATOM     42  C   UNL A   1      40.124  31.022  34.227  1.00  0.00     0.037 A 
ATOM     43  C   UNL A   1      42.141  27.019  28.853  1.00  0.00     0.037 A 
ATOM     44  C   UNL A   1      41.351  30.301  34.437  1.00  0.00     0.049 A 
ATOM     45  C   UNL A   1      42.945  27.109  30.121  1.00  0.00     0.074 A 
ATOM     46  C   UNL A   1      42.171  30.295  35.553  1.00  0.00     0.029 A 
ATOM     47  N   UNL A   1      41.928  29.444  33.511  1.00  0.00    -0.354 N 
ATOM     48  N   UNL A   1      42.698  27.793  31.212  1.00  0.00    -0.248 NA
ATOM     49  C   UNL A   1      44.186  26.323  30.175  1.00  0.00     0.031 C 
ATOM     50  C   UNL A   1      43.257  29.451  35.293  1.00  0.00     0.029 A 
ATOM     51  C   UNL A   1      43.094  28.905  34.031  1.00  0.00     0.049 A 
ATOM     52  H   UNL A   1      41.563  29.249  32.618  1.00  0.00     0.167 HD
ATOM     53  C   UNL A   1      43.730  27.498  32.090  1.00  0.00     0.074 A 
ATOM     54  C   UNL A   1      44.603  26.564  31.411  1.00  0.00     0.031 C 
ATOM     55  C   UNL A   1      43.936  27.958  33.348  1.00  0.00     0.037 A 
BRANCH  42  56
ATOM     56  C   UNL A   1      39.647  31.941  35.313  1.00  0.00     0.064 A 
ATOM     57  C   UNL A   1      40.060  33.280  35.375  1.00  0.00     0.173 A 
ATOM     58  C   UNL A   1      38.740  31.487  36.283  1.00  0.00     0.173 A 
ATOM     59  F   UNL A   1      40.937  33.759  34.480  1.00  0.00    -0.203 F 
ATOM     60  C   UNL A   1      39.607  34.122  36.387  1.00  0.00     0.198 A 
ATOM     61  C   UNL A   1      38.267  32.341  37.275  1.00  0.00     0.198 A 
ATOM     62  F   UNL A   1      38.308  30.217  36.264  1.00  0.00    -0.203 F 
ATOM     63  F   UNL A   1      40.052  35.385  36.455  1.00  0.00    -0.200 F 
ATOM     64  C   UNL A   1      38.705  33.655  37.332  1.00  0.00     0.200 A 
ATOM     65  F   UNL A   1      37.387  31.890  38.181  1.00  0.00    -0.200 F 
ATOM     66  F   UNL A   1      38.266  34.469  38.301  1.00  0.00    -0.200 F 
ENDBRANCH  42  56
BRANCH  43  67
ATOM     67  C   UNL A   1      42.605  26.181  27.719  1.00  0.00     0.064 A 
ATOM     68  C   UNL A   1      43.556  26.667  26.810  1.00  0.00     0.173 A 
ATOM     69  C   UNL A   1      42.109  24.886  27.516  1.00  0.00     0.173 A 
ATOM     70  F   UNL A   1      44.044  27.908  26.953  1.00  0.00    -0.203 F 
ATOM     71  C   UNL A   1      43.979  25.895  25.730  1.00  0.00     0.198 A 
ATOM     72  C   UNL A   1      42.551  24.107  26.449  1.00  0.00     0.198 A 
ATOM     73  F   UNL A   1      41.201  24.375  28.360  1.00  0.00    -0.203 F 
ATOM     74  F   UNL A   1      44.857  26.401  24.853  1.00  0.00    -0.200 F 
ATOM     75  C   UNL A   1      43.480  24.614  25.553  1.00  0.00     0.200 A 
ATOM     76  F   UNL A   1      42.074  22.864  26.287  1.00  0.00    -0.200 F 
ATOM     77  F   UNL A   1      43.888  23.872  24.514  1.00  0.00    -0.200 F 
ENDBRANCH  43  67
BRANCH  55  78
ATOM     78  C   UNL A   1      45.122  27.420  34.091  1.00  0.00     0.064 A 
ATOM     79  C   UNL A   1      45.039  26.253  34.864  1.00  0.00     0.173 A 
ATOM     80  C   UNL A   1      46.367  28.060  33.993  1.00  0.00     0.173 A 
ATOM     81  F   UNL A   1      43.867  25.615  34.998  1.00  0.00    -0.203 F 
ATOM     82  C   UNL A   1      46.156  25.759  35.531  1.00  0.00     0.198 A 
ATOM     83  C   UNL A   1      47.486  27.549  34.642  1.00  0.00     0.198 A 
ATOM     84  F   UNL A   1      46.497  29.176  33.260  1.00  0.00    -0.203 F 
ATOM     85  F   UNL A   1      46.046  24.665  36.298  1.00  0.00    -0.200 F 
ATOM     86  C   UNL A   1      47.379  26.402  35.415  1.00  0.00     0.200 A 
ATOM     87  F   UNL A   1      48.670  28.167  34.521  1.00  0.00    -0.200 F 
ATOM     88  F   UNL A   1      48.454  25.922  36.055  1.00  0.00    -0.200 F 
ENDBRANCH  55  78
ENDBRANCH  29  30
ENDBRANCH  21  24
ENDBRANCH  19  20
ENDBRANCH  18  19
ENDBRANCH   1  18
TORSDOF 13
ENDMDL
MODEL 2
REMARK VINA RESULT:     -11.4      2.402      4.537
REMARK SMILES CC(C)Cc1ccc([C@@H](C)C(=O)NCCCNC(=O)c2ccc(-c3c4nc(c(-c5c(F)c(F)c(F)c(F)c5F)c5ccc([nH]5)c(-c5c(F)c(F)c(F)c(F)c5F)c5nc(c(-c6c(F)c(F)c(F)c(F)c6F)c6ccc3[nH]6)C=C5)C=C4)cc2)cc1
REMARK SMILES IDX 14 1 13 2 11 3 12 4 9 6 10 7 8 8 5 9 6 10 84 11 7 12 83 13
REMARK SMILES IDX 4 14 2 15 1 16 3 17 15 18 16 19 17 20 18 21 19 23 20 24
REMARK SMILES IDX 21 25 82 26 22 27 81 28 23 29 24 30 25 31 75 32 26 33 80 34
REMARK SMILES IDX 74 35 76 36 27 37 79 38 73 39 72 40 28 42 60 43 40 44 59 45
REMARK SMILES IDX 41 46 44 47 58 48 77 49 42 50 43 51 57 53 78 54 45 55 29 56
REMARK SMILES IDX 30 57 38 58 31 59 32 60 36 61 39 62 33 63 34 64 37 65 35 66
REMARK SMILES IDX 61 67 62 68 70 69 63 70 64 71 68 72 71 73 65 74 66 75 69 76
REMARK SMILES IDX 67 77 46 78 47 79 55 80 48 81 49 82 53 83 56 84 50 85 51 86
REMARK SMILES IDX 54 87 52 88
REMARK H PARENT 13 5 17 22 76 41 44 52
REMARK Flexibility Score: inf
ROOT
ATOM      1  C   UNL A   1      31.731  27.974  26.669  1.00  0.00     0.117 C 
ENDROOT
BRANCH   1   2
ATOM      2  N   UNL A   1      31.038  26.719  26.876  1.00  0.00    -0.356 N 
ATOM      3  C   UNL A   1      30.568  25.787  26.003  1.00  0.00     0.227 C 
ATOM      4  O   UNL A   1      29.951  24.838  26.501  1.00  0.00    -0.274 OA
ATOM      5  H   UNL A   1      30.879  26.500  27.822  1.00  0.00     0.163 HD
BRANCH   3   6
ATOM      6  C   UNL A   1      30.754  25.866  24.478  1.00  0.00     0.105 C 
ATOM      7  C   UNL A   1      32.182  25.630  23.991  1.00  0.00     0.023 C 
BRANCH   6   8
ATOM      8  C   UNL A   1      30.012  27.039  23.859  1.00  0.00    -0.036 A 
ATOM      9  C   UNL A   1      28.729  29.122  22.426  1.00  0.00    -0.048 A 
ATOM     10  C   UNL A   1      27.983  28.166  23.126  1.00  0.00     0.004 A 
ATOM     11  C   UNL A   1      30.121  29.080  22.526  1.00  0.00     0.004 A 
ATOM     12  C   UNL A   1      28.618  27.148  23.848  1.00  0.00     0.005 A 
ATOM     13  C   UNL A   1      30.754  28.040  23.211  1.00  0.00     0.005 A 
BRANCH   9  14
ATOM     14  C   UNL A   1      28.027  30.174  21.598  1.00  0.00     0.038 C 
BRANCH  14  15
ATOM     15  C   UNL A   1      28.575  31.611  21.763  1.00  0.00    -0.013 C 
ATOM     16  C   UNL A   1      28.028  32.570  20.702  1.00  0.00     0.008 C 
ATOM     17  C   UNL A   1      28.235  32.142  23.158  1.00  0.00     0.008 C 
ENDBRANCH  14  15
ENDBRANCH   9  14
ENDBRANCH   6   8
ENDBRANCH   3   6
ENDBRANCH   1   2
BRANCH   1  18
ATOM     18  C   UNL A   1      33.247  27.803  26.610  1.00  0.00     0.042 C 
BRANCH  18  19
ATOM     19  C   UNL A   1      33.969  28.905  25.846  1.00  0.00     0.118 C 
BRANCH  19  20
ATOM     20  N   UNL A   1      33.827  30.206  26.484  1.00  0.00    -0.352 N 
ATOM     21  C   UNL A   1      34.536  30.793  27.502  1.00  0.00     0.251 C 
ATOM     22  H   UNL A   1      33.095  30.759  26.125  1.00  0.00     0.163 HD
ATOM     23  O   UNL A   1      34.101  31.824  28.009  1.00  0.00    -0.269 OA
BRANCH  21  24
ATOM     24  C   UNL A   1      35.807  30.218  28.005  1.00  0.00     0.039 A 
ATOM     25  C   UNL A   1      35.835  29.703  29.307  1.00  0.00     0.014 A 
ATOM     26  C   UNL A   1      36.989  30.264  27.262  1.00  0.00     0.014 A 
ATOM     27  C   UNL A   1      37.028  29.214  29.848  1.00  0.00     0.010 A 
ATOM     28  C   UNL A   1      38.162  29.706  27.771  1.00  0.00     0.010 A 
ATOM     29  C   UNL A   1      38.200  29.200  29.079  1.00  0.00    -0.014 A 
BRANCH  29  30
ATOM     30  C   UNL A   1      39.490  28.727  29.646  1.00  0.00     0.031 A 
ATOM     31  C   UNL A   1      40.129  29.483  30.781  1.00  0.00     0.074 A 
ATOM     32  C   UNL A   1      40.112  27.657  29.116  1.00  0.00     0.049 A 
ATOM     33  N   UNL A   1      41.290  29.292  31.357  1.00  0.00    -0.248 NA
ATOM     34  C   UNL A   1      39.374  30.624  31.322  1.00  0.00     0.031 C 
ATOM     35  C   UNL A   1      39.617  26.863  27.992  1.00  0.00     0.029 A 
ATOM     36  N   UNL A   1      41.303  27.061  29.448  1.00  0.00    -0.354 N 
ATOM     37  C   UNL A   1      41.416  30.306  32.299  1.00  0.00     0.074 A 
ATOM     38  C   UNL A   1      40.232  31.131  32.194  1.00  0.00     0.031 C 
ATOM     39  C   UNL A   1      40.490  25.872  27.737  1.00  0.00     0.029 A 
ATOM     40  C   UNL A   1      41.617  25.982  28.659  1.00  0.00     0.049 A 
ATOM     41  H   UNL A   1      41.879  27.379  30.181  1.00  0.00     0.167 HD
ATOM     42  C   UNL A   1      42.416  30.518  33.187  1.00  0.00     0.037 A 
ATOM     43  C   UNL A   1      42.693  25.173  28.679  1.00  0.00     0.037 A 
ATOM     44  C   UNL A   1      43.568  29.667  33.327  1.00  0.00     0.049 A 
ATOM     45  C   UNL A   1      43.769  25.401  29.706  1.00  0.00     0.074 A 
ATOM     46  C   UNL A   1      44.613  29.768  34.230  1.00  0.00     0.029 A 
ATOM     47  N   UNL A   1      43.819  28.548  32.547  1.00  0.00    -0.354 N 
ATOM     48  N   UNL A   1      43.854  26.336  30.621  1.00  0.00    -0.248 NA
ATOM     49  C   UNL A   1      44.891  24.452  29.712  1.00  0.00     0.031 C 
ATOM     50  C   UNL A   1      45.508  28.722  33.982  1.00  0.00     0.029 A 
ATOM     51  C   UNL A   1      45.002  27.950  32.949  1.00  0.00     0.049 A 
ATOM     52  H   UNL A   1      43.242  28.227  31.817  1.00  0.00     0.167 HD
ATOM     53  C   UNL A   1      45.017  26.071  31.329  1.00  0.00     0.074 A 
ATOM     54  C   UNL A   1      45.602  24.883  30.745  1.00  0.00     0.031 C 
ATOM     55  C   UNL A   1      45.554  26.753  32.371  1.00  0.00     0.037 A 
BRANCH  42  56
ATOM     56  C   UNL A   1      42.305  31.716  34.084  1.00  0.00     0.064 A 
ATOM     57  C   UNL A   1      41.667  31.643  35.331  1.00  0.00     0.173 A 
ATOM     58  C   UNL A   1      42.872  32.942  33.707  1.00  0.00     0.173 A 
ATOM     59  F   UNL A   1      41.096  30.496  35.731  1.00  0.00    -0.203 F 
ATOM     60  C   UNL A   1      41.575  32.761  36.154  1.00  0.00     0.198 A 
ATOM     61  C   UNL A   1      42.803  34.051  34.546  1.00  0.00     0.198 A 
ATOM     62  F   UNL A   1      43.500  33.064  32.527  1.00  0.00    -0.203 F 
ATOM     63  F   UNL A   1      40.919  32.681  37.321  1.00  0.00    -0.200 F 
ATOM     64  C   UNL A   1      42.149  33.963  35.765  1.00  0.00     0.200 A 
ATOM     65  F   UNL A   1      43.368  35.209  34.172  1.00  0.00    -0.200 F 
ATOM     66  F   UNL A   1      42.064  35.037  36.561  1.00  0.00    -0.200 F 
ENDBRANCH  42  56
BRANCH  43  67
ATOM     67  C   UNL A   1      42.790  24.045  27.719  1.00  0.00     0.064 A 
ATOM     68  C   UNL A   1      43.279  24.247  26.421  1.00  0.00     0.173 A 
ATOM     69  C   UNL A   1      42.394  22.747  28.073  1.00  0.00     0.173 A 
ATOM     70  F   UNL A   1      43.650  25.476  26.030  1.00  0.00    -0.203 F 
ATOM     71  C   UNL A   1      43.350  23.199  25.506  1.00  0.00     0.198 A 
ATOM     72  C   UNL A   1      42.489  21.695  27.165  1.00  0.00     0.198 A 
ATOM     73  F   UNL A   1      41.924  22.501  29.304  1.00  0.00    -0.203 F 
ATOM     74  F   UNL A   1      43.781  23.430  24.259  1.00  0.00    -0.200 F 
ATOM     75  C   UNL A   1      42.960  21.922  25.881  1.00  0.00     0.200 A 
ATOM     76  F   UNL A   1      42.121  20.459  27.534  1.00  0.00    -0.200 F 
ATOM     77  F   UNL A   1      43.030  20.914  25.001  1.00  0.00    -0.200 F 
ENDBRANCH  43  67
BRANCH  55  78
ATOM     78  C   UNL A   1      46.808  26.200  32.981  1.00  0.00     0.064 A 
ATOM     79  C   UNL A   1      48.078  26.611  32.551  1.00  0.00     0.173 A 
ATOM     80  C   UNL A   1      46.734  25.280  34.037  1.00  0.00     0.173 A 
ATOM     81  F   UNL A   1      48.198  27.479  31.535  1.00  0.00    -0.203 F 
ATOM     82  C   UNL A   1      49.230  26.101  33.141  1.00  0.00     0.198 A 
ATOM     83  C   UNL A   1      47.888  24.790  34.641  1.00  0.00     0.198 A 
ATOM     84  F   UNL A   1      45.541  24.862  34.487  1.00  0.00    -0.203 F 
ATOM     85  F   UNL A   1      50.435  26.474  32.688  1.00  0.00    -0.200 F 
ATOM     86  C   UNL A   1      49.135  25.197  34.189  1.00  0.00     0.200 A 
ATOM     87  F   UNL A   1      47.794  23.925  35.660  1.00  0.00    -0.200 F 
ATOM     88  F   UNL A   1      50.246  24.711  34.759  1.00  0.00    -0.200 F 
ENDBRANCH  55  78
ENDBRANCH  29  30
ENDBRANCH  21  24
ENDBRANCH  19  20
ENDBRANCH  18  19
ENDBRANCH   1  18
TORSDOF 13
ENDMDL
MODEL 3
REMARK VINA RESULT:     -11.4      3.861      6.912
REMARK SMILES CC(C)Cc1ccc([C@@H](C)C(=O)NCCCNC(=O)c2ccc(-c3c4nc(c(-c5c(F)c(F)c(F)c(F)c5F)c5ccc([nH]5)c(-c5c(F)c(F)c(F)c(F)c5F)c5nc(c(-c6c(F)c(F)c(F)c(F)c6F)c6ccc3[nH]6)C=C5)C=C4)cc2)cc1
REMARK SMILES IDX 14 1 13 2 11 3 12 4 9 6 10 7 8 8 5 9 6 10 84 11 7 12 83 13
REMARK SMILES IDX 4 14 2 15 1 16 3 17 15 18 16 19 17 20 18 21 19 23 20 24
REMARK SMILES IDX 21 25 82 26 22 27 81 28 23 29 24 30 25 31 75 32 26 33 80 34
REMARK SMILES IDX 74 35 76 36 27 37 79 38 73 39 72 40 28 42 60 43 40 44 59 45
REMARK SMILES IDX 41 46 44 47 58 48 77 49 42 50 43 51 57 53 78 54 45 55 29 56
REMARK SMILES IDX 30 57 38 58 31 59 32 60 36 61 39 62 33 63 34 64 37 65 35 66
REMARK SMILES IDX 61 67 62 68 70 69 63 70 64 71 68 72 71 73 65 74 66 75 69 76
REMARK SMILES IDX 67 77 46 78 47 79 55 80 48 81 49 82 53 83 56 84 50 85 51 86
REMARK SMILES IDX 54 87 52 88
REMARK H PARENT 13 5 17 22 76 41 44 52
REMARK Flexibility Score: inf
ROOT
ATOM      1  C   UNL A   1      33.409  34.512  28.920  1.00  0.00     0.117 C 
ENDROOT
BRANCH   1   2
ATOM      2  N   UNL A   1      33.315  35.868  29.420  1.00  0.00    -0.356 N 
ATOM      3  C   UNL A   1      32.948  36.364  30.633  1.00  0.00     0.227 C 
ATOM      4  O   UNL A   1      32.907  37.597  30.727  1.00  0.00    -0.274 OA
ATOM      5  H   UNL A   1      33.563  36.557  28.763  1.00  0.00     0.163 HD
BRANCH   3   6
ATOM      6  C   UNL A   1      32.583  35.490  31.845  1.00  0.00     0.105 C 
ATOM      7  C   UNL A   1      31.498  36.068  32.751  1.00  0.00     0.023 C 
BRANCH   6   8
ATOM      8  C   UNL A   1      33.804  34.908  32.536  1.00  0.00    -0.036 A 
ATOM      9  C   UNL A   1      36.117  33.641  33.575  1.00  0.00    -0.048 A 
ATOM     10  C   UNL A   1      36.128  35.003  33.256  1.00  0.00     0.004 A 
ATOM     11  C   UNL A   1      34.914  32.941  33.458  1.00  0.00     0.004 A 
ATOM     12  C   UNL A   1      34.980  35.633  32.760  1.00  0.00     0.005 A 
ATOM     13  C   UNL A   1      33.782  33.559  32.922  1.00  0.00     0.005 A 
BRANCH   9  14
ATOM     14  C   UNL A   1      37.383  32.962  34.047  1.00  0.00     0.038 C 
BRANCH  14  15
ATOM     15  C   UNL A   1      38.128  32.142  32.969  1.00  0.00    -0.013 C 
ATOM     16  C   UNL A   1      37.874  30.637  33.100  1.00  0.00     0.008 C 
ATOM     17  C   UNL A   1      37.711  32.613  31.573  1.00  0.00     0.008 C 
ENDBRANCH  14  15
ENDBRANCH   9  14
ENDBRANCH   6   8
ENDBRANCH   3   6
ENDBRANCH   1   2
BRANCH   1  18
ATOM     18  C   UNL A   1      34.847  34.001  28.880  1.00  0.00     0.042 C 
BRANCH  18  19
ATOM     19  C   UNL A   1      35.042  32.639  29.533  1.00  0.00     0.118 C 
BRANCH  19  20
ATOM     20  N   UNL A   1      34.338  31.579  28.824  1.00  0.00    -0.352 N 
ATOM     21  C   UNL A   1      34.802  30.440  28.217  1.00  0.00     0.251 C 
ATOM     22  H   UNL A   1      33.363  31.702  28.771  1.00  0.00     0.163 HD
ATOM     23  O   UNL A   1      34.036  29.794  27.506  1.00  0.00    -0.269 OA
BRANCH  21  24
ATOM     24  C   UNL A   1      36.197  29.968  28.394  1.00  0.00     0.039 A 
ATOM     25  C   UNL A   1      36.541  29.346  29.602  1.00  0.00     0.014 A 
ATOM     26  C   UNL A   1      37.189  30.209  27.442  1.00  0.00     0.014 A 
ATOM     27  C   UNL A   1      37.860  28.946  29.840  1.00  0.00     0.010 A 
ATOM     28  C   UNL A   1      38.488  29.742  27.646  1.00  0.00     0.010 A 
ATOM     29  C   UNL A   1      38.843  29.130  28.858  1.00  0.00    -0.014 A 
BRANCH  29  30
ATOM     30  C   UNL A   1      40.260  28.755  29.104  1.00  0.00     0.031 A 
ATOM     31  C   UNL A   1      41.169  29.710  29.832  1.00  0.00     0.074 A 
ATOM     32  C   UNL A   1      40.744  27.590  28.635  1.00  0.00     0.049 A 
ATOM     33  N   UNL A   1      42.454  29.616  30.069  1.00  0.00    -0.248 NA
ATOM     34  C   UNL A   1      40.558  30.949  30.336  1.00  0.00     0.031 C 
ATOM     35  C   UNL A   1      39.977  26.597  27.883  1.00  0.00     0.029 A 
ATOM     36  N   UNL A   1      42.003  27.049  28.714  1.00  0.00    -0.354 N 
ATOM     37  C   UNL A   1      42.806  30.794  30.716  1.00  0.00     0.074 A 
ATOM     38  C   UNL A   1      41.611  31.603  30.802  1.00  0.00     0.031 C 
ATOM     39  C   UNL A   1      40.777  25.559  27.584  1.00  0.00     0.029 A 
ATOM     40  C   UNL A   1      42.118  25.829  28.096  1.00  0.00     0.049 A 
ATOM     41  H   UNL A   1      42.753  27.496  29.170  1.00  0.00     0.167 HD
ATOM     42  C   UNL A   1      44.011  31.159  31.214  1.00  0.00     0.037 A 
ATOM     43  C   UNL A   1      43.186  25.020  27.959  1.00  0.00     0.037 A 
ATOM     44  C   UNL A   1      45.188  30.332  31.175  1.00  0.00     0.049 A 
ATOM     45  C   UNL A   1      44.503  25.427  28.561  1.00  0.00     0.074 A 
ATOM     46  C   UNL A   1      46.445  30.590  31.696  1.00  0.00     0.029 A 
ATOM     47  N   UNL A   1      45.247  29.076  30.590  1.00  0.00    -0.354 N 
ATOM     48  N   UNL A   1      44.812  26.524  29.210  1.00  0.00    -0.248 NA
ATOM     49  C   UNL A   1      45.617  24.478  28.424  1.00  0.00     0.031 C 
ATOM     50  C   UNL A   1      47.271  29.499  31.406  1.00  0.00     0.029 A 
ATOM     51  C   UNL A   1      46.520  28.547  30.738  1.00  0.00     0.049 A 
ATOM     52  H   UNL A   1      44.497  28.627  30.139  1.00  0.00     0.167 HD
ATOM     53  C   UNL A   1      46.140  26.384  29.585  1.00  0.00     0.074 A 
ATOM     54  C   UNL A   1      46.578  25.092  29.100  1.00  0.00     0.031 C 
ATOM     55  C   UNL A   1      46.928  27.248  30.270  1.00  0.00     0.037 A 
BRANCH  42  56
ATOM     56  C   UNL A   1      44.117  32.513  31.852  1.00  0.00     0.064 A 
ATOM     57  C   UNL A   1      43.891  32.698  33.223  1.00  0.00     0.173 A 
ATOM     58  C   UNL A   1      44.481  33.633  31.089  1.00  0.00     0.173 A 
ATOM     59  F   UNL A   1      43.527  31.662  33.994  1.00  0.00    -0.203 F 
ATOM     60  C   UNL A   1      43.996  33.960  33.803  1.00  0.00     0.198 A 
ATOM     61  C   UNL A   1      44.614  34.888  31.677  1.00  0.00     0.198 A 
ATOM     62  F   UNL A   1      44.715  33.509  29.774  1.00  0.00    -0.203 F 
ATOM     63  F   UNL A   1      43.729  34.122  35.107  1.00  0.00    -0.200 F 
ATOM     64  C   UNL A   1      44.364  35.052  33.031  1.00  0.00     0.200 A 
ATOM     65  F   UNL A   1      44.980  35.941  30.932  1.00  0.00    -0.200 F 
ATOM     66  F   UNL A   1      44.470  36.265  33.591  1.00  0.00    -0.200 F 
ENDBRANCH  42  56
BRANCH  43  67
ATOM     67  C   UNL A   1      43.045  23.722  27.252  1.00  0.00     0.064 A 
ATOM     68  C   UNL A   1      42.496  22.607  27.902  1.00  0.00     0.173 A 
ATOM     69  C   UNL A   1      43.457  23.565  25.921  1.00  0.00     0.173 A 
ATOM     70  F   UNL A   1      42.107  22.704  29.182  1.00  0.00    -0.203 F 
ATOM     71  C   UNL A   1      42.383  21.379  27.253  1.00  0.00     0.198 A 
ATOM     72  C   UNL A   1      43.320  22.343  25.266  1.00  0.00     0.198 A 
ATOM     73  F   UNL A   1      43.983  24.602  25.255  1.00  0.00    -0.203 F 
ATOM     74  F   UNL A   1      41.895  20.320  27.912  1.00  0.00    -0.200 F 
ATOM     75  C   UNL A   1      42.791  21.250  25.934  1.00  0.00     0.200 A 
ATOM     76  F   UNL A   1      43.705  22.224  23.987  1.00  0.00    -0.200 F 
ATOM     77  F   UNL A   1      42.680  20.068  25.311  1.00  0.00    -0.200 F 
ENDBRANCH  43  67
BRANCH  55  78
ATOM     78  C   UNL A   1      48.326  26.805  30.582  1.00  0.00     0.064 A 
ATOM     79  C   UNL A   1      49.409  27.152  29.763  1.00  0.00     0.173 A 
ATOM     80  C   UNL A   1      48.588  26.057  31.740  1.00  0.00     0.173 A 
ATOM     81  F   UNL A   1      49.205  27.855  28.638  1.00  0.00    -0.203 F 
ATOM     82  C   UNL A   1      50.702  26.747  30.079  1.00  0.00     0.198 A 
ATOM     83  C   UNL A   1      49.885  25.674  32.066  1.00  0.00     0.198 A 
ATOM     84  F   UNL A   1      47.585  25.705  32.559  1.00  0.00    -0.203 F 
ATOM     85  F   UNL A   1      51.718  27.055  29.261  1.00  0.00    -0.200 F 
ATOM     86  C   UNL A   1      50.940  26.015  31.233  1.00  0.00     0.200 A 
ATOM     87  F   UNL A   1      50.115  24.974  33.186  1.00  0.00    -0.200 F 
ATOM     88  F   UNL A   1      52.187  25.630  31.537  1.00  0.00    -0.200 F 
ENDBRANCH  55  78
ENDBRANCH  29  30
ENDBRANCH  21  24
ENDBRANCH  19  20
ENDBRANCH  18  19
ENDBRANCH   1  18
TORSDOF 13
ENDMDL
