MODEL 1
REMARK VINA RESULT:     -14.1      0.000      0.000
REMARK SMILES CC(C)c1cc(N2CCC(C(=O)NCCCNC(=O)c3ccc(-c4c5nc(c(-c6c(F)c(F)c(F)c(F)c6F)c6ccc([nH]6)c(-c6c(F)c(F)c(F)c(F)c6F)c6nc(c(-c7c(F)c(F)c(F)c(F)c7F)c7ccc4[nH]7)C=C6)C=C5)cc3)CC2)nc(-c2ccc(F)cc2)n1
REMARK SMILES IDX 15 1 14 2 13 3 11 4 12 5 10 7 7 8 8 9 84 10 9 11 83 12 6 13
REMARK SMILES IDX 4 14 5 15 94 16 86 17 85 18 2 19 1 20 3 21 87 22 88 23 93 24
REMARK SMILES IDX 89 25 92 26 90 27 91 28 16 29 17 30 18 31 19 33 20 34 21 35
REMARK SMILES IDX 82 36 22 37 81 38 23 39 24 40 25 41 75 42 26 43 80 44 74 45
REMARK SMILES IDX 76 46 27 47 79 48 73 49 72 50 28 52 60 53 40 54 59 55 41 56
REMARK SMILES IDX 44 57 58 58 77 59 42 60 43 61 57 63 78 64 45 65 29 66 30 67
REMARK SMILES IDX 38 68 31 69 32 70 36 71 39 72 33 73 34 74 37 75 35 76 61 77
REMARK SMILES IDX 62 78 70 79 63 80 64 81 68 82 71 83 65 84 66 85 69 86 67 87
REMARK SMILES IDX 46 88 47 89 55 90 48 91 49 92 53 93 56 94 50 95 51 96 54 97
REMARK SMILES IDX 52 98
REMARK H PARENT 13 6 17 32 76 51 44 62
REMARK Flexibility Score: inf
ROOT
ATOM      1  C   UNL A   1      32.405  29.459  24.558  1.00  0.00     0.042 C 
ENDROOT
BRANCH   1   2
ATOM      2  C   UNL A   1      31.127  28.681  24.265  1.00  0.00     0.117 C 
BRANCH   2   3
ATOM      3  N   UNL A   1      30.756  27.776  25.347  1.00  0.00    -0.356 N 
ATOM      4  C   UNL A   1      30.901  26.428  25.476  1.00  0.00     0.223 C 
ATOM      5  O   UNL A   1      30.503  25.906  26.521  1.00  0.00    -0.275 OA
ATOM      6  H   UNL A   1      30.327  28.216  26.117  1.00  0.00     0.163 HD
BRANCH   4   7
ATOM      7  C   UNL A   1      31.522  25.577  24.378  1.00  0.00     0.082 C 
ATOM      8  N   UNL A   1      33.234  23.372  24.066  1.00  0.00    -0.356 N 
ATOM      9  C   UNL A   1      33.778  24.648  23.637  1.00  0.00     0.119 C 
ATOM     10  C   UNL A   1      31.855  23.108  23.712  1.00  0.00     0.119 C 
ATOM     11  C   UNL A   1      33.049  25.747  24.385  1.00  0.00     0.035 C 
ATOM     12  C   UNL A   1      30.972  24.135  24.418  1.00  0.00     0.035 C 
BRANCH   8  13
ATOM     13  C   UNL A   1      34.150  22.363  24.256  1.00  0.00     0.132 A 
ATOM     14  C   UNL A   1      36.324  21.562  24.713  1.00  0.00     0.049 A 
ATOM     15  C   UNL A   1      35.499  22.626  24.397  1.00  0.00     0.071 A 
ATOM     16  N   UNL A   1      35.847  20.313  24.864  1.00  0.00    -0.233 NA
ATOM     17  C   UNL A   1      34.532  20.140  24.656  1.00  0.00     0.161 A 
ATOM     18  N   UNL A   1      33.658  21.117  24.371  1.00  0.00    -0.211 NA
BRANCH  14  19
ATOM     19  C   UNL A   1      37.799  21.786  24.975  1.00  0.00     0.032 C 
ATOM     20  C   UNL A   1      37.984  22.900  26.006  1.00  0.00     0.014 C 
ATOM     21  C   UNL A   1      38.486  20.500  25.442  1.00  0.00     0.014 C 
ENDBRANCH  14  19
BRANCH  17  22
ATOM     22  C   UNL A   1      34.027  18.767  24.724  1.00  0.00     0.019 A 
ATOM     23  C   UNL A   1      32.821  18.473  25.388  1.00  0.00     0.015 A 
ATOM     24  C   UNL A   1      34.755  17.701  24.161  1.00  0.00     0.015 A 
ATOM     25  C   UNL A   1      32.357  17.158  25.485  1.00  0.00     0.040 A 
ATOM     26  C   UNL A   1      34.301  16.385  24.274  1.00  0.00     0.040 A 
ATOM     27  C   UNL A   1      33.104  16.127  24.932  1.00  0.00     0.123 A 
ATOM     28  F   UNL A   1      32.664  14.866  25.036  1.00  0.00    -0.207 F 
ENDBRANCH  17  22
ENDBRANCH   8  13
ENDBRANCH   4   7
ENDBRANCH   2   3
ENDBRANCH   1   2
BRANCH   1  29
ATOM     29  C   UNL A   1      32.660  29.705  26.039  1.00  0.00     0.118 C 
BRANCH  29  30
ATOM     30  N   UNL A   1      32.455  31.095  26.426  1.00  0.00    -0.352 N 
ATOM     31  C   UNL A   1      33.191  31.907  27.254  1.00  0.00     0.251 C 
ATOM     32  H   UNL A   1      31.661  31.521  26.028  1.00  0.00     0.163 HD
ATOM     33  O   UNL A   1      32.738  32.995  27.602  1.00  0.00    -0.269 OA
BRANCH  31  34
ATOM     34  C   UNL A   1      34.509  31.467  27.756  1.00  0.00     0.039 A 
ATOM     35  C   UNL A   1      35.523  32.417  27.911  1.00  0.00     0.014 A 
ATOM     36  C   UNL A   1      34.750  30.130  28.076  1.00  0.00     0.014 A 
ATOM     37  C   UNL A   1      36.741  32.044  28.485  1.00  0.00     0.010 A 
ATOM     38  C   UNL A   1      35.931  29.774  28.721  1.00  0.00     0.010 A 
ATOM     39  C   UNL A   1      36.931  30.732  28.949  1.00  0.00    -0.014 A 
BRANCH  39  40
ATOM     40  C   UNL A   1      38.137  30.352  29.728  1.00  0.00     0.031 A 
ATOM     41  C   UNL A   1      39.117  29.356  29.178  1.00  0.00     0.074 A 
ATOM     42  C   UNL A   1      38.294  30.837  30.975  1.00  0.00     0.049 A 
ATOM     43  N   UNL A   1      40.156  28.810  29.758  1.00  0.00    -0.248 NA
ATOM     44  C   UNL A   1      38.885  28.894  27.801  1.00  0.00     0.031 C 
ATOM     45  C   UNL A   1      37.393  31.785  31.633  1.00  0.00     0.029 A 
ATOM     46  N   UNL A   1      39.257  30.585  31.922  1.00  0.00    -0.354 N 
ATOM     47  C   UNL A   1      40.694  27.936  28.823  1.00  0.00     0.074 A 
ATOM     48  C   UNL A   1      39.840  27.986  27.656  1.00  0.00     0.031 C 
ATOM     49  C   UNL A   1      37.851  32.045  32.867  1.00  0.00     0.029 A 
ATOM     50  C   UNL A   1      39.045  31.242  33.110  1.00  0.00     0.049 A 
ATOM     51  H   UNL A   1      40.026  29.991  31.764  1.00  0.00     0.167 HD
ATOM     52  C   UNL A   1      41.809  27.174  28.926  1.00  0.00     0.037 A 
ATOM     53  C   UNL A   1      39.719  31.182  34.274  1.00  0.00     0.037 A 
ATOM     54  C   UNL A   1      42.661  27.137  30.088  1.00  0.00     0.049 A 
ATOM     55  C   UNL A   1      40.923  30.285  34.379  1.00  0.00     0.074 A 
ATOM     56  C   UNL A   1      43.848  26.448  30.264  1.00  0.00     0.029 A 
ATOM     57  N   UNL A   1      42.408  27.808  31.275  1.00  0.00    -0.354 N 
ATOM     58  N   UNL A   1      41.466  29.518  33.465  1.00  0.00    -0.248 NA
ATOM     59  C   UNL A   1      41.606  30.241  35.680  1.00  0.00     0.031 C 
ATOM     60  C   UNL A   1      44.280  26.650  31.578  1.00  0.00     0.029 A 
ATOM     61  C   UNL A   1      43.394  27.514  32.204  1.00  0.00     0.049 A 
ATOM     62  H   UNL A   1      41.641  28.405  31.434  1.00  0.00     0.167 HD
ATOM     63  C   UNL A   1      42.562  28.919  34.071  1.00  0.00     0.074 A 
ATOM     64  C   UNL A   1      42.621  29.426  35.425  1.00  0.00     0.031 C 
ATOM     65  C   UNL A   1      43.438  28.025  33.551  1.00  0.00     0.037 A 
BRANCH  52  66
ATOM     66  C   UNL A   1      42.176  26.308  27.754  1.00  0.00     0.064 A 
ATOM     67  C   UNL A   1      43.150  26.700  26.824  1.00  0.00     0.173 A 
ATOM     68  C   UNL A   1      41.580  25.049  27.586  1.00  0.00     0.173 A 
ATOM     69  F   UNL A   1      43.747  27.897  26.933  1.00  0.00    -0.203 F 
ATOM     70  C   UNL A   1      43.494  25.876  25.753  1.00  0.00     0.198 A 
ATOM     71  C   UNL A   1      41.949  24.215  26.533  1.00  0.00     0.198 A 
ATOM     72  F   UNL A   1      40.647  24.621  28.449  1.00  0.00    -0.203 F 
ATOM     73  F   UNL A   1      44.393  26.294  24.851  1.00  0.00    -0.200 F 
ATOM     74  C   UNL A   1      42.898  24.632  25.615  1.00  0.00     0.200 A 
ATOM     75  F   UNL A   1      41.384  23.006  26.410  1.00  0.00    -0.200 F 
ATOM     76  F   UNL A   1      43.237  23.837  24.590  1.00  0.00    -0.200 F 
ENDBRANCH  52  66
BRANCH  53  77
ATOM     77  C   UNL A   1      39.264  31.990  35.438  1.00  0.00     0.064 A 
ATOM     78  C   UNL A   1      39.663  33.324  35.588  1.00  0.00     0.173 A 
ATOM     79  C   UNL A   1      38.427  31.445  36.423  1.00  0.00     0.173 A 
ATOM     80  F   UNL A   1      40.484  33.883  34.686  1.00  0.00    -0.203 F 
ATOM     81  C   UNL A   1      39.259  34.077  36.689  1.00  0.00     0.198 A 
ATOM     82  C   UNL A   1      37.996  32.209  37.506  1.00  0.00     0.198 A 
ATOM     83  F   UNL A   1      38.017  30.171  36.329  1.00  0.00    -0.203 F 
ATOM     84  F   UNL A   1      39.698  35.335  36.834  1.00  0.00    -0.200 F 
ATOM     85  C   UNL A   1      38.420  33.521  37.643  1.00  0.00     0.200 A 
ATOM     86  F   UNL A   1      37.173  31.673  38.417  1.00  0.00    -0.200 F 
ATOM     87  F   UNL A   1      38.028  34.247  38.699  1.00  0.00    -0.200 F 
ENDBRANCH  53  77
BRANCH  65  88
ATOM     88  C   UNL A   1      44.548  27.545  34.442  1.00  0.00     0.064 A 
ATOM     89  C   UNL A   1      45.752  28.254  34.560  1.00  0.00     0.173 A 
ATOM     90  C   UNL A   1      44.382  26.396  35.231  1.00  0.00     0.173 A 
ATOM     91  F   UNL A   1      45.968  29.348  33.815  1.00  0.00    -0.203 F 
ATOM     92  C   UNL A   1      46.756  27.820  35.423  1.00  0.00     0.198 A 
ATOM     93  C   UNL A   1      45.374  25.984  36.116  1.00  0.00     0.198 A 
ATOM     94  F   UNL A   1      43.247  25.685  35.160  1.00  0.00    -0.203 F 
ATOM     95  F   UNL A   1      47.915  28.490  35.489  1.00  0.00    -0.200 F 
ATOM     96  C   UNL A   1      46.562  26.693  36.207  1.00  0.00     0.200 A 
ATOM     97  F   UNL A   1      45.179  24.904  36.885  1.00  0.00    -0.200 F 
ATOM     98  F   UNL A   1      47.523  26.287  37.049  1.00  0.00    -0.200 F 
ENDBRANCH  65  88
ENDBRANCH  39  40
ENDBRANCH  31  34
ENDBRANCH  29  30
ENDBRANCH   1  29
TORSDOF 13
ENDMDL
MODEL 2
REMARK VINA RESULT:     -13.9      1.215      2.574
REMARK SMILES CC(C)c1cc(N2CCC(C(=O)NCCCNC(=O)c3ccc(-c4c5nc(c(-c6c(F)c(F)c(F)c(F)c6F)c6ccc([nH]6)c(-c6c(F)c(F)c(F)c(F)c6F)c6nc(c(-c7c(F)c(F)c(F)c(F)c7F)c7ccc4[nH]7)C=C6)C=C5)cc3)CC2)nc(-c2ccc(F)cc2)n1
REMARK SMILES IDX 15 1 14 2 13 3 11 4 12 5 10 7 7 8 8 9 84 10 9 11 83 12 6 13
REMARK SMILES IDX 4 14 5 15 94 16 86 17 85 18 2 19 1 20 3 21 87 22 88 23 93 24
REMARK SMILES IDX 89 25 92 26 90 27 91 28 16 29 17 30 18 31 19 33 20 34 21 35
REMARK SMILES IDX 82 36 22 37 81 38 23 39 24 40 25 41 75 42 26 43 80 44 74 45
REMARK SMILES IDX 76 46 27 47 79 48 73 49 72 50 28 52 60 53 40 54 59 55 41 56
REMARK SMILES IDX 44 57 58 58 77 59 42 60 43 61 57 63 78 64 45 65 29 66 30 67
REMARK SMILES IDX 38 68 31 69 32 70 36 71 39 72 33 73 34 74 37 75 35 76 61 77
REMARK SMILES IDX 62 78 70 79 63 80 64 81 68 82 71 83 65 84 66 85 69 86 67 87
REMARK SMILES IDX 46 88 47 89 55 90 48 91 49 92 53 93 56 94 50 95 51 96 54 97
REMARK SMILES IDX 52 98
REMARK H PARENT 13 6 17 32 76 51 44 62
REMARK Flexibility Score: inf
ROOT
ATOM      1  C   UNL A   1      32.793  29.705  25.287  1.00  0.00     0.042 C 
ENDROOT
BRANCH   1   2
ATOM      2  C   UNL A   1      31.755  28.801  24.633  1.00  0.00     0.117 C 
BRANCH   2   3
ATOM      3  N   UNL A   1      31.090  27.921  25.587  1.00  0.00    -0.356 N 
ATOM      4  C   UNL A   1      30.982  26.564  25.629  1.00  0.00     0.223 C 
ATOM      5  O   UNL A   1      30.362  26.068  26.573  1.00  0.00    -0.275 OA
ATOM      6  H   UNL A   1      30.643  28.389  26.330  1.00  0.00     0.163 HD
BRANCH   4   7
ATOM      7  C   UNL A   1      31.590  25.675  24.554  1.00  0.00     0.082 C 
ATOM      8  N   UNL A   1      32.766  23.141  24.262  1.00  0.00    -0.356 N 
ATOM      9  C   UNL A   1      33.666  24.268  24.096  1.00  0.00     0.119 C 
ATOM     10  C   UNL A   1      31.460  23.265  23.647  1.00  0.00     0.119 C 
ATOM     11  C   UNL A   1      33.083  25.452  24.843  1.00  0.00     0.035 C 
ATOM     12  C   UNL A   1      30.721  24.421  24.317  1.00  0.00     0.035 C 
BRANCH   8  13
ATOM     13  C   UNL A   1      33.365  21.921  24.476  1.00  0.00     0.132 A 
ATOM     14  C   UNL A   1      33.367  19.560  24.495  1.00  0.00     0.049 A 
ATOM     15  C   UNL A   1      32.654  20.740  24.392  1.00  0.00     0.071 A 
ATOM     16  N   UNL A   1      34.699  19.549  24.686  1.00  0.00    -0.233 NA
ATOM     17  C   UNL A   1      35.301  20.743  24.809  1.00  0.00     0.161 A 
ATOM     18  N   UNL A   1      34.691  21.933  24.698  1.00  0.00    -0.211 NA
BRANCH  14  19
ATOM     19  C   UNL A   1      32.674  18.225  24.321  1.00  0.00     0.032 C 
ATOM     20  C   UNL A   1      33.351  17.426  23.207  1.00  0.00     0.014 C 
ATOM     21  C   UNL A   1      32.660  17.425  25.626  1.00  0.00     0.014 C 
ENDBRANCH  14  19
BRANCH  17  22
ATOM     22  C   UNL A   1      36.734  20.733  25.112  1.00  0.00     0.019 A 
ATOM     23  C   UNL A   1      37.494  19.557  24.969  1.00  0.00     0.015 A 
ATOM     24  C   UNL A   1      37.378  21.889  25.592  1.00  0.00     0.015 A 
ATOM     25  C   UNL A   1      38.854  19.537  25.294  1.00  0.00     0.040 A 
ATOM     26  C   UNL A   1      38.733  21.865  25.934  1.00  0.00     0.040 A 
ATOM     27  C   UNL A   1      39.458  20.689  25.778  1.00  0.00     0.123 A 
ATOM     28  F   UNL A   1      40.758  20.666  26.100  1.00  0.00    -0.207 F 
ENDBRANCH  17  22
ENDBRANCH   8  13
ENDBRANCH   4   7
ENDBRANCH   2   3
ENDBRANCH   1   2
BRANCH   1  29
ATOM     29  C   UNL A   1      32.428  30.157  26.695  1.00  0.00     0.118 C 
BRANCH  29  30
ATOM     30  N   UNL A   1      32.404  31.608  26.836  1.00  0.00    -0.352 N 
ATOM     31  C   UNL A   1      33.283  32.456  27.464  1.00  0.00     0.251 C 
ATOM     32  H   UNL A   1      31.633  32.050  26.412  1.00  0.00     0.163 HD
ATOM     33  O   UNL A   1      32.977  33.634  27.635  1.00  0.00    -0.269 OA
BRANCH  31  34
ATOM     34  C   UNL A   1      34.579  31.955  27.966  1.00  0.00     0.039 A 
ATOM     35  C   UNL A   1      35.657  32.841  28.050  1.00  0.00     0.014 A 
ATOM     36  C   UNL A   1      34.737  30.623  28.354  1.00  0.00     0.014 A 
ATOM     37  C   UNL A   1      36.860  32.417  28.621  1.00  0.00     0.010 A 
ATOM     38  C   UNL A   1      35.905  30.223  28.995  1.00  0.00     0.010 A 
ATOM     39  C   UNL A   1      36.972  31.122  29.153  1.00  0.00    -0.014 A 
BRANCH  39  40
ATOM     40  C   UNL A   1      38.166  30.702  29.930  1.00  0.00     0.031 A 
ATOM     41  C   UNL A   1      39.154  29.734  29.345  1.00  0.00     0.074 A 
ATOM     42  C   UNL A   1      38.306  31.125  31.201  1.00  0.00     0.049 A 
ATOM     43  N   UNL A   1      40.185  29.159  29.911  1.00  0.00    -0.248 NA
ATOM     44  C   UNL A   1      38.943  29.341  27.943  1.00  0.00     0.031 C 
ATOM     45  C   UNL A   1      37.395  32.039  31.892  1.00  0.00     0.029 A 
ATOM     46  N   UNL A   1      39.254  30.825  32.148  1.00  0.00    -0.354 N 
ATOM     47  C   UNL A   1      40.737  28.333  28.942  1.00  0.00     0.074 A 
ATOM     48  C   UNL A   1      39.899  28.442  27.767  1.00  0.00     0.031 C 
ATOM     49  C   UNL A   1      37.835  32.237  33.145  1.00  0.00     0.029 A 
ATOM     50  C   UNL A   1      39.025  31.422  33.364  1.00  0.00     0.049 A 
ATOM     51  H   UNL A   1      40.026  30.239  31.972  1.00  0.00     0.167 HD
ATOM     52  C   UNL A   1      41.850  27.566  29.023  1.00  0.00     0.037 A 
ATOM     53  C   UNL A   1      39.682  31.303  34.534  1.00  0.00     0.037 A 
ATOM     54  C   UNL A   1      42.685  27.471  30.194  1.00  0.00     0.049 A 
ATOM     55  C   UNL A   1      40.885  30.402  34.611  1.00  0.00     0.074 A 
ATOM     56  C   UNL A   1      43.869  26.774  30.353  1.00  0.00     0.029 A 
ATOM     57  N   UNL A   1      42.415  28.082  31.410  1.00  0.00    -0.354 N 
ATOM     58  N   UNL A   1      41.440  29.681  33.668  1.00  0.00    -0.248 NA
ATOM     59  C   UNL A   1      41.549  30.293  35.918  1.00  0.00     0.031 C 
ATOM     60  C   UNL A   1      44.282  26.909  31.682  1.00  0.00     0.029 A 
ATOM     61  C   UNL A   1      43.387  27.741  32.336  1.00  0.00     0.049 A 
ATOM     62  H   UNL A   1      41.646  28.671  31.587  1.00  0.00     0.167 HD
ATOM     63  C   UNL A   1      42.528  29.052  34.259  1.00  0.00     0.074 A 
ATOM     64  C   UNL A   1      42.567  29.491  35.638  1.00  0.00     0.031 C 
ATOM     65  C   UNL A   1      43.412  28.185  33.708  1.00  0.00     0.037 A 
BRANCH  52  66
ATOM     66  C   UNL A   1      42.234  26.760  27.815  1.00  0.00     0.064 A 
ATOM     67  C   UNL A   1      43.141  27.246  26.861  1.00  0.00     0.173 A 
ATOM     68  C   UNL A   1      41.725  25.464  27.633  1.00  0.00     0.173 A 
ATOM     69  F   UNL A   1      43.652  28.480  26.982  1.00  0.00    -0.203 F 
ATOM     70  C   UNL A   1      43.502  26.477  25.757  1.00  0.00     0.198 A 
ATOM     71  C   UNL A   1      42.113  24.687  26.545  1.00  0.00     0.198 A 
ATOM     72  F   UNL A   1      40.860  24.947  28.518  1.00  0.00    -0.203 F 
ATOM     73  F   UNL A   1      44.334  26.982  24.834  1.00  0.00    -0.200 F 
ATOM     74  C   UNL A   1      42.994  25.196  25.605  1.00  0.00     0.200 A 
ATOM     75  F   UNL A   1      41.635  23.443  26.408  1.00  0.00    -0.200 F 
ATOM     76  F   UNL A   1      43.351  24.454  24.547  1.00  0.00    -0.200 F 
ENDBRANCH  52  66
BRANCH  53  77
ATOM     77  C   UNL A   1      39.210  32.053  35.729  1.00  0.00     0.064 A 
ATOM     78  C   UNL A   1      39.633  33.366  35.969  1.00  0.00     0.173 A 
ATOM     79  C   UNL A   1      38.332  31.471  36.657  1.00  0.00     0.173 A 
ATOM     80  F   UNL A   1      40.492  33.958  35.125  1.00  0.00    -0.203 F 
ATOM     81  C   UNL A   1      39.213  34.064  37.101  1.00  0.00     0.198 A 
ATOM     82  C   UNL A   1      37.886  32.181  37.770  1.00  0.00     0.198 A 
ATOM     83  F   UNL A   1      37.898  30.215  36.476  1.00  0.00    -0.203 F 
ATOM     84  F   UNL A   1      39.675  35.300  37.332  1.00  0.00    -0.200 F 
ATOM     85  C   UNL A   1      38.334  33.473  37.996  1.00  0.00     0.200 A 
ATOM     86  F   UNL A   1      37.025  31.611  38.624  1.00  0.00    -0.200 F 
ATOM     87  F   UNL A   1      37.927  34.144  39.081  1.00  0.00    -0.200 F 
ENDBRANCH  53  77
BRANCH  65  88
ATOM     88  C   UNL A   1      44.508  27.660  34.590  1.00  0.00     0.064 A 
ATOM     89  C   UNL A   1      44.367  26.455  35.295  1.00  0.00     0.173 A 
ATOM     90  C   UNL A   1      45.733  28.337  34.685  1.00  0.00     0.173 A 
ATOM     91  F   UNL A   1      43.210  25.778  35.252  1.00  0.00    -0.203 F 
ATOM     92  C   UNL A   1      45.408  25.957  36.076  1.00  0.00     0.198 A 
ATOM     93  C   UNL A   1      46.782  27.820  35.441  1.00  0.00     0.198 A 
ATOM     94  F   UNL A   1      45.922  29.490  34.027  1.00  0.00    -0.203 F 
ATOM     95  F   UNL A   1      45.236  24.826  36.775  1.00  0.00    -0.200 F 
ATOM     96  C   UNL A   1      46.617  26.634  36.140  1.00  0.00     0.200 A 
ATOM     97  F   UNL A   1      47.955  28.466  35.489  1.00  0.00    -0.200 F 
ATOM     98  F   UNL A   1      47.622  26.144  36.879  1.00  0.00    -0.200 F 
ENDBRANCH  65  88
ENDBRANCH  39  40
ENDBRANCH  31  34
ENDBRANCH  29  30
ENDBRANCH   1  29
TORSDOF 13
ENDMDL
MODEL 3
REMARK VINA RESULT:     -13.9      3.083      8.028
REMARK SMILES CC(C)c1cc(N2CCC(C(=O)NCCCNC(=O)c3ccc(-c4c5nc(c(-c6c(F)c(F)c(F)c(F)c6F)c6ccc([nH]6)c(-c6c(F)c(F)c(F)c(F)c6F)c6nc(c(-c7c(F)c(F)c(F)c(F)c7F)c7ccc4[nH]7)C=C6)C=C5)cc3)CC2)nc(-c2ccc(F)cc2)n1
REMARK SMILES IDX 15 1 14 2 13 3 11 4 12 5 10 7 7 8 8 9 84 10 9 11 83 12 6 13
REMARK SMILES IDX 4 14 5 15 94 16 86 17 85 18 2 19 1 20 3 21 87 22 88 23 93 24
REMARK SMILES IDX 89 25 92 26 90 27 91 28 16 29 17 30 18 31 19 33 20 34 21 35
REMARK SMILES IDX 82 36 22 37 81 38 23 39 24 40 25 41 75 42 26 43 80 44 74 45
REMARK SMILES IDX 76 46 27 47 79 48 73 49 72 50 28 52 60 53 40 54 59 55 41 56
REMARK SMILES IDX 44 57 58 58 77 59 42 60 43 61 57 63 78 64 45 65 29 66 30 67
REMARK SMILES IDX 38 68 31 69 32 70 36 71 39 72 33 73 34 74 37 75 35 76 61 77
REMARK SMILES IDX 62 78 70 79 63 80 64 81 68 82 71 83 65 84 66 85 69 86 67 87
REMARK SMILES IDX 46 88 47 89 55 90 48 91 49 92 53 93 56 94 50 95 51 96 54 97
REMARK SMILES IDX 52 98
REMARK H PARENT 13 6 17 32 76 51 44 62
REMARK Flexibility Score: inf
ROOT
ATOM      1  C   UNL A   1      33.943  28.283  25.831  1.00  0.00     0.042 C 
ENDROOT
BRANCH   1   2
ATOM      2  C   UNL A   1      33.002  27.309  25.131  1.00  0.00     0.117 C 
BRANCH   2   3
ATOM      3  N   UNL A   1      31.833  27.965  24.560  1.00  0.00    -0.356 N 
ATOM      4  C   UNL A   1      30.608  27.476  24.219  1.00  0.00     0.223 C 
ATOM      5  O   UNL A   1      29.782  28.268  23.757  1.00  0.00    -0.275 OA
ATOM      6  H   UNL A   1      31.949  28.929  24.390  1.00  0.00     0.163 HD
BRANCH   4   7
ATOM      7  C   UNL A   1      30.253  26.006  24.389  1.00  0.00     0.082 C 
ATOM      8  N   UNL A   1      31.499  23.519  24.781  1.00  0.00    -0.356 N 
ATOM      9  C   UNL A   1      30.877  23.707  23.482  1.00  0.00     0.119 C 
ATOM     10  C   UNL A   1      30.752  23.997  25.926  1.00  0.00     0.119 C 
ATOM     11  C   UNL A   1      30.803  25.196  23.205  1.00  0.00     0.035 C 
ATOM     12  C   UNL A   1      30.608  25.513  25.808  1.00  0.00     0.035 C 
BRANCH   8  13
ATOM     13  C   UNL A   1      32.400  22.484  24.870  1.00  0.00     0.132 A 
ATOM     14  C   UNL A   1      33.026  20.220  24.625  1.00  0.00     0.049 A 
ATOM     15  C   UNL A   1      32.026  21.175  24.638  1.00  0.00     0.071 A 
ATOM     16  N   UNL A   1      34.315  20.538  24.843  1.00  0.00    -0.233 NA
ATOM     17  C   UNL A   1      34.581  21.826  25.113  1.00  0.00     0.161 A 
ATOM     18  N   UNL A   1      33.678  22.818  25.122  1.00  0.00    -0.211 NA
BRANCH  14  19
ATOM     19  C   UNL A   1      32.708  18.778  24.285  1.00  0.00     0.032 C 
ATOM     20  C   UNL A   1      32.296  18.666  22.817  1.00  0.00     0.014 C 
ATOM     21  C   UNL A   1      33.893  17.858  24.585  1.00  0.00     0.014 C 
ENDBRANCH  14  19
BRANCH  17  22
ATOM     22  C   UNL A   1      35.968  22.159  25.447  1.00  0.00     0.019 A 
ATOM     23  C   UNL A   1      36.309  23.439  25.922  1.00  0.00     0.015 A 
ATOM     24  C   UNL A   1      37.000  21.219  25.264  1.00  0.00     0.015 A 
ATOM     25  C   UNL A   1      37.637  23.770  26.206  1.00  0.00     0.040 A 
ATOM     26  C   UNL A   1      38.330  21.554  25.531  1.00  0.00     0.040 A 
ATOM     27  C   UNL A   1      38.635  22.825  26.002  1.00  0.00     0.123 A 
ATOM     28  F   UNL A   1      39.909  23.146  26.263  1.00  0.00    -0.207 F 
ENDBRANCH  17  22
ENDBRANCH   8  13
ENDBRANCH   4   7
ENDBRANCH   2   3
ENDBRANCH   1   2
BRANCH   1  29
ATOM     29  C   UNL A   1      33.549  28.610  27.265  1.00  0.00     0.118 C 
BRANCH  29  30
ATOM     30  N   UNL A   1      33.646  30.032  27.569  1.00  0.00    -0.352 N 
ATOM     31  C   UNL A   1      34.652  30.747  28.172  1.00  0.00     0.251 C 
ATOM     32  H   UNL A   1      32.864  30.565  27.298  1.00  0.00     0.163 HD
ATOM     33  O   UNL A   1      34.454  31.912  28.511  1.00  0.00    -0.269 OA
BRANCH  31  34
ATOM     34  C   UNL A   1      35.959  30.116  28.446  1.00  0.00     0.039 A 
ATOM     35  C   UNL A   1      36.950  30.161  27.461  1.00  0.00     0.014 A 
ATOM     36  C   UNL A   1      36.215  29.486  29.666  1.00  0.00     0.014 A 
ATOM     37  C   UNL A   1      38.227  29.666  27.738  1.00  0.00     0.010 A 
ATOM     38  C   UNL A   1      37.506  29.067  29.971  1.00  0.00     0.010 A 
ATOM     39  C   UNL A   1      38.530  29.171  29.017  1.00  0.00    -0.014 A 
BRANCH  39  40
ATOM     40  C   UNL A   1      39.920  28.813  29.401  1.00  0.00     0.031 A 
ATOM     41  C   UNL A   1      40.766  29.773  30.186  1.00  0.00     0.074 A 
ATOM     42  C   UNL A   1      40.448  27.656  28.955  1.00  0.00     0.049 A 
ATOM     43  N   UNL A   1      42.032  29.690  30.507  1.00  0.00    -0.248 NA
ATOM     44  C   UNL A   1      40.106  31.002  30.655  1.00  0.00     0.031 C 
ATOM     45  C   UNL A   1      39.737  26.656  28.155  1.00  0.00     0.029 A 
ATOM     46  N   UNL A   1      41.710  27.134  29.091  1.00  0.00    -0.354 N 
ATOM     47  C   UNL A   1      42.323  30.856  31.203  1.00  0.00     0.074 A 
ATOM     48  C   UNL A   1      41.115  31.652  31.217  1.00  0.00     0.031 C 
ATOM     49  C   UNL A   1      40.568  25.637  27.885  1.00  0.00     0.029 A 
ATOM     50  C   UNL A   1      41.883  25.935  28.442  1.00  0.00     0.049 A 
ATOM     51  H   UNL A   1      42.424  27.576  29.607  1.00  0.00     0.167 HD
ATOM     52  C   UNL A   1      43.488  31.218  31.790  1.00  0.00     0.037 A 
ATOM     53  C   UNL A   1      42.984  25.175  28.287  1.00  0.00     0.037 A 
ATOM     54  C   UNL A   1      44.684  30.414  31.781  1.00  0.00     0.049 A 
ATOM     55  C   UNL A   1      44.280  25.629  28.904  1.00  0.00     0.074 A 
ATOM     56  C   UNL A   1      45.895  30.664  32.402  1.00  0.00     0.029 A 
ATOM     57  N   UNL A   1      44.824  29.211  31.104  1.00  0.00    -0.354 N 
ATOM     58  N   UNL A   1      44.525  26.697  29.623  1.00  0.00    -0.248 NA
ATOM     59  C   UNL A   1      45.454  24.772  28.683  1.00  0.00     0.031 C 
ATOM     60  C   UNL A   1      46.786  29.646  32.050  1.00  0.00     0.029 A 
ATOM     61  C   UNL A   1      46.114  28.730  31.257  1.00  0.00     0.049 A 
ATOM     62  H   UNL A   1      44.111  28.766  30.591  1.00  0.00     0.167 HD
ATOM     63  C   UNL A   1      45.872  26.631  29.957  1.00  0.00     0.074 A 
ATOM     64  C   UNL A   1      46.387  25.407  29.380  1.00  0.00     0.031 C 
ATOM     65  C   UNL A   1      46.614  27.509  30.675  1.00  0.00     0.037 A 
BRANCH  52  66
ATOM     66  C   UNL A   1      43.535  32.547  32.490  1.00  0.00     0.064 A 
ATOM     67  C   UNL A   1      43.898  33.723  31.816  1.00  0.00     0.173 A 
ATOM     68  C   UNL A   1      43.166  32.653  33.840  1.00  0.00     0.173 A 
ATOM     69  F   UNL A   1      44.267  33.677  30.527  1.00  0.00    -0.203 F 
ATOM     70  C   UNL A   1      43.917  34.951  32.474  1.00  0.00     0.198 A 
ATOM     71  C   UNL A   1      43.156  33.887  34.485  1.00  0.00     0.198 A 
ATOM     72  F   UNL A   1      42.804  31.562  34.530  1.00  0.00    -0.203 F 
ATOM     73  F   UNL A   1      44.313  36.052  31.821  1.00  0.00    -0.200 F 
ATOM     74  C   UNL A   1      43.538  35.032  33.805  1.00  0.00     0.200 A 
ATOM     75  F   UNL A   1      42.773  33.967  35.767  1.00  0.00    -0.200 F 
ATOM     76  F   UNL A   1      43.547  36.216  34.434  1.00  0.00    -0.200 F 
ENDBRANCH  52  66
BRANCH  53  77
ATOM     77  C   UNL A   1      42.909  23.911  27.507  1.00  0.00     0.064 A 
ATOM     78  C   UNL A   1      42.538  22.707  28.120  1.00  0.00     0.173 A 
ATOM     79  C   UNL A   1      43.211  23.879  26.137  1.00  0.00     0.173 A 
ATOM     80  F   UNL A   1      42.264  22.681  29.433  1.00  0.00    -0.203 F 
ATOM     81  C   UNL A   1      42.490  21.516  27.398  1.00  0.00     0.198 A 
ATOM     82  C   UNL A   1      43.131  22.693  25.409  1.00  0.00     0.198 A 
ATOM     83  F   UNL A   1      43.575  25.003  25.501  1.00  0.00    -0.203 F 
ATOM     84  F   UNL A   1      42.183  20.370  28.021  1.00  0.00    -0.200 F 
ATOM     85  C   UNL A   1      42.779  21.511  26.042  1.00  0.00     0.200 A 
ATOM     86  F   UNL A   1      43.396  22.697  24.096  1.00  0.00    -0.200 F 
ATOM     87  F   UNL A   1      42.730  20.367  25.347  1.00  0.00    -0.200 F 
ENDBRANCH  53  77
BRANCH  65  88
ATOM     88  C   UNL A   1      48.062  27.176  30.891  1.00  0.00     0.064 A 
ATOM     89  C   UNL A   1      48.473  26.337  31.937  1.00  0.00     0.173 A 
ATOM     90  C   UNL A   1      49.043  27.654  30.009  1.00  0.00     0.173 A 
ATOM     91  F   UNL A   1      47.577  25.868  32.818  1.00  0.00    -0.203 F 
ATOM     92  C   UNL A   1      49.815  26.001  32.100  1.00  0.00     0.198 A 
ATOM     93  C   UNL A   1      50.378  27.290  30.156  1.00  0.00     0.198 A 
ATOM     94  F   UNL A   1      48.703  28.456  28.989  1.00  0.00    -0.203 F 
ATOM     95  F   UNL A   1      50.190  25.232  33.132  1.00  0.00    -0.200 F 
ATOM     96  C   UNL A   1      50.765  26.469  31.205  1.00  0.00     0.200 A 
ATOM     97  F   UNL A   1      51.293  27.730  29.280  1.00  0.00    -0.200 F 
ATOM     98  F   UNL A   1      52.053  26.132  31.355  1.00  0.00    -0.200 F 
ENDBRANCH  65  88
ENDBRANCH  39  40
ENDBRANCH  31  34
ENDBRANCH  29  30
ENDBRANCH   1  29
TORSDOF 13
ENDMDL
