MODEL 1
REMARK VINA RESULT:     -11.7      0.000      0.000
REMARK SMILES CCOc1cc(NC(=O)c2c(C(=O)NCCCNC(=O)c3ccc(-c4c5nc(c(-c6c(F)c(F)c(F)c(F)c6F)c6ccc([nH]6)c(-c6c(F)c(F)c(F)c(F)c6F)c6nc(c(-c7c(F)c(F)c(F)c(F)c7F)c7ccc4[nH]7)C=C6)C=C5)cc3)cnn2C)ccc1OC(F)F
REMARK SMILES IDX 15 1 14 2 12 3 13 4 11 6 10 7 86 8 84 9 85 10 87 11 8 12
REMARK SMILES IDX 7 13 9 15 6 16 4 17 5 18 90 19 89 20 88 21 3 22 2 23 1 24
REMARK SMILES IDX 91 25 92 26 93 27 94 28 16 29 17 30 18 31 19 32 20 34 21 35
REMARK SMILES IDX 22 36 83 37 23 38 82 39 24 40 25 41 26 42 76 43 27 44 81 45
REMARK SMILES IDX 75 46 77 47 28 48 80 49 74 50 73 51 29 53 61 54 41 55 60 56
REMARK SMILES IDX 42 57 45 58 59 59 78 60 43 61 44 62 58 64 79 65 46 66 30 67
REMARK SMILES IDX 31 68 39 69 32 70 33 71 37 72 40 73 34 74 35 75 38 76 36 77
REMARK SMILES IDX 62 78 63 79 71 80 64 81 65 82 69 83 72 84 66 85 67 86 70 87
REMARK SMILES IDX 68 88 47 89 48 90 56 91 49 92 50 93 54 94 57 95 51 96 52 97
REMARK SMILES IDX 55 98 53 99
REMARK H PARENT 14 5 7 14 18 33 77 52 45 63
REMARK Flexibility Score: inf
ROOT
ATOM      1  C   UNL A   1      32.492  26.034  26.124  1.00  0.00     0.118 C 
ENDROOT
BRANCH   1   2
ATOM      2  N   UNL A   1      31.552  25.101  26.701  1.00  0.00    -0.352 N 
ATOM      3  C   UNL A   1      31.583  23.755  26.941  1.00  0.00     0.255 C 
ATOM      4  O   UNL A   1      30.530  23.279  27.372  1.00  0.00    -0.269 OA
ATOM      5  H   UNL A   1      30.709  25.525  26.982  1.00  0.00     0.163 HD
BRANCH   3   6
ATOM      6  C   UNL A   1      32.721  22.880  26.698  1.00  0.00     0.090 A 
ATOM      7  C   UNL A   1      33.008  21.874  25.778  1.00  0.00     0.138 A 
ATOM      8  N   UNL A   1      34.343  21.581  25.952  1.00  0.00    -0.262 N 
ATOM      9  C   UNL A   1      33.932  22.997  27.439  1.00  0.00     0.149 A 
ATOM     10  N   UNL A   1      34.888  22.165  27.031  1.00  0.00    -0.180 NA
ATOM     11  C   UNL A   1      35.182  20.721  25.146  1.00  0.00     0.174 C 
BRANCH   7  12
ATOM     12  C   UNL A   1      32.232  21.309  24.720  1.00  0.00     0.274 C 
ATOM     13  N   UNL A   1      31.821  22.084  23.654  1.00  0.00    -0.321 N 
ATOM     14  H   UNL A   1      31.219  21.600  23.044  1.00  0.00     0.170 HD
ATOM     15  O   UNL A   1      31.906  20.123  24.713  1.00  0.00    -0.267 OA
BRANCH  13  16
ATOM     16  C   UNL A   1      32.067  23.410  23.235  1.00  0.00     0.045 A 
ATOM     17  C   UNL A   1      31.483  25.732  22.732  1.00  0.00     0.163 A 
ATOM     18  C   UNL A   1      31.138  24.451  23.207  1.00  0.00     0.076 A 
ATOM     19  C   UNL A   1      32.802  26.007  22.369  1.00  0.00     0.168 A 
ATOM     20  C   UNL A   1      33.751  24.986  22.448  1.00  0.00     0.053 A 
ATOM     21  C   UNL A   1      33.381  23.697  22.847  1.00  0.00     0.030 A 
BRANCH  17  22
ATOM     22  O   UNL A   1      30.559  26.743  22.707  1.00  0.00    -0.490 OA
BRANCH  22  23
ATOM     23  C   UNL A   1      29.595  26.684  23.767  1.00  0.00     0.226 C 
ATOM     24  C   UNL A   1      28.449  27.623  23.430  1.00  0.00     0.049 C 
ENDBRANCH  22  23
ENDBRANCH  17  22
BRANCH  19  25
ATOM     25  O   UNL A   1      33.309  27.218  21.993  1.00  0.00    -0.431 OA
BRANCH  25  26
ATOM     26  C   UNL A   1      33.749  28.095  23.026  1.00  0.00     0.542 C 
ATOM     27  F   UNL A   1      34.799  28.852  22.623  1.00  0.00    -0.167 F 
ATOM     28  F   UNL A   1      32.738  28.904  23.413  1.00  0.00    -0.167 F 
ENDBRANCH  25  26
ENDBRANCH  19  25
ENDBRANCH  13  16
ENDBRANCH   7  12
ENDBRANCH   3   6
ENDBRANCH   1   2
BRANCH   1  29
ATOM     29  C   UNL A   1      32.459  27.429  26.750  1.00  0.00     0.042 C 
BRANCH  29  30
ATOM     30  C   UNL A   1      33.765  28.214  26.745  1.00  0.00     0.118 C 
BRANCH  30  31
ATOM     31  N   UNL A   1      33.658  29.553  27.294  1.00  0.00    -0.352 N 
ATOM     32  C   UNL A   1      34.519  30.358  27.997  1.00  0.00     0.251 C 
ATOM     33  H   UNL A   1      32.784  29.973  27.126  1.00  0.00     0.163 HD
ATOM     34  O   UNL A   1      34.093  31.444  28.392  1.00  0.00    -0.269 OA
BRANCH  32  35
ATOM     35  C   UNL A   1      35.915  29.978  28.345  1.00  0.00     0.039 A 
ATOM     36  C   UNL A   1      36.890  30.132  27.346  1.00  0.00     0.014 A 
ATOM     37  C   UNL A   1      36.292  29.399  29.557  1.00  0.00     0.014 A 
ATOM     38  C   UNL A   1      38.221  29.768  27.578  1.00  0.00     0.010 A 
ATOM     39  C   UNL A   1      37.637  29.106  29.819  1.00  0.00     0.010 A 
ATOM     40  C   UNL A   1      38.617  29.282  28.832  1.00  0.00    -0.014 A 
BRANCH  40  41
ATOM     41  C   UNL A   1      40.039  28.942  29.110  1.00  0.00     0.031 A 
ATOM     42  C   UNL A   1      40.926  29.896  29.866  1.00  0.00     0.074 A 
ATOM     43  C   UNL A   1      40.561  27.793  28.637  1.00  0.00     0.049 A 
ATOM     44  N   UNL A   1      42.214  29.820  30.097  1.00  0.00    -0.248 NA
ATOM     45  C   UNL A   1      40.292  31.108  30.405  1.00  0.00     0.031 C 
ATOM     46  C   UNL A   1      39.842  26.798  27.840  1.00  0.00     0.029 A 
ATOM     47  N   UNL A   1      41.827  27.273  28.753  1.00  0.00    -0.354 N 
ATOM     48  C   UNL A   1      42.554  31.003  30.739  1.00  0.00     0.074 A 
ATOM     49  C   UNL A   1      41.336  31.771  30.882  1.00  0.00     0.031 C 
ATOM     50  C   UNL A   1      40.669  25.778  27.560  1.00  0.00     0.029 A 
ATOM     51  C   UNL A   1      41.981  26.056  28.137  1.00  0.00     0.049 A 
ATOM     52  H   UNL A   1      42.555  27.730  29.232  1.00  0.00     0.167 HD
ATOM     53  C   UNL A   1      43.772  31.416  31.162  1.00  0.00     0.037 A 
ATOM     54  C   UNL A   1      43.056  25.251  28.048  1.00  0.00     0.037 A 
ATOM     55  C   UNL A   1      44.975  30.627  31.111  1.00  0.00     0.049 A 
ATOM     56  C   UNL A   1      44.351  25.653  28.690  1.00  0.00     0.074 A 
ATOM     57  C   UNL A   1      46.242  30.951  31.567  1.00  0.00     0.029 A 
ATOM     58  N   UNL A   1      45.049  29.343  30.600  1.00  0.00    -0.354 N 
ATOM     59  N   UNL A   1      44.654  26.773  29.297  1.00  0.00    -0.248 NA
ATOM     60  C   UNL A   1      45.449  24.676  28.641  1.00  0.00     0.031 C 
ATOM     61  C   UNL A   1      47.084  29.856  31.335  1.00  0.00     0.029 A 
ATOM     62  C   UNL A   1      46.336  28.852  30.743  1.00  0.00     0.049 A 
ATOM     63  H   UNL A   1      44.299  28.852  30.192  1.00  0.00     0.167 HD
ATOM     64  C   UNL A   1      45.973  26.638  29.701  1.00  0.00     0.074 A 
ATOM     65  C   UNL A   1      46.411  25.321  29.288  1.00  0.00     0.031 C 
ATOM     66  C   UNL A   1      46.754  27.535  30.346  1.00  0.00     0.037 A 
BRANCH  53  67
ATOM     67  C   UNL A   1      43.875  32.804  31.709  1.00  0.00     0.064 A 
ATOM     68  C   UNL A   1      43.761  33.065  33.081  1.00  0.00     0.173 A 
ATOM     69  C   UNL A   1      44.128  33.881  30.847  1.00  0.00     0.173 A 
ATOM     70  F   UNL A   1      43.505  32.066  33.938  1.00  0.00    -0.203 F 
ATOM     71  C   UNL A   1      43.888  34.362  33.571  1.00  0.00     0.198 A 
ATOM     72  C   UNL A   1      44.267  35.174  31.341  1.00  0.00     0.198 A 
ATOM     73  F   UNL A   1      44.244  33.676  29.526  1.00  0.00    -0.203 F 
ATOM     74  F   UNL A   1      43.754  34.597  34.883  1.00  0.00    -0.200 F 
ATOM     75  C   UNL A   1      44.145  35.414  32.702  1.00  0.00     0.200 A 
ATOM     76  F   UNL A   1      44.518  36.189  30.503  1.00  0.00    -0.200 F 
ATOM     77  F   UNL A   1      44.269  36.661  33.177  1.00  0.00    -0.200 F 
ENDBRANCH  53  67
BRANCH  54  78
ATOM     78  C   UNL A   1      42.939  23.956  27.339  1.00  0.00     0.064 A 
ATOM     79  C   UNL A   1      42.428  22.828  27.995  1.00  0.00     0.173 A 
ATOM     80  C   UNL A   1      43.318  23.827  25.998  1.00  0.00     0.173 A 
ATOM     81  F   UNL A   1      42.071  22.909  29.284  1.00  0.00    -0.203 F 
ATOM     82  C   UNL A   1      42.306  21.610  27.331  1.00  0.00     0.198 A 
ATOM     83  C   UNL A   1      43.187  22.611  25.333  1.00  0.00     0.198 A 
ATOM     84  F   UNL A   1      43.811  24.884  25.335  1.00  0.00    -0.203 F 
ATOM     85  F   UNL A   1      41.834  20.539  27.983  1.00  0.00    -0.200 F 
ATOM     86  C   UNL A   1      42.683  21.504  26.000  1.00  0.00     0.200 A 
ATOM     87  F   UNL A   1      43.546  22.510  24.045  1.00  0.00    -0.200 F 
ATOM     88  F   UNL A   1      42.564  20.332  25.361  1.00  0.00    -0.200 F 
ENDBRANCH  54  78
BRANCH  66  89
ATOM     89  C   UNL A   1      48.155  27.120  30.661  1.00  0.00     0.064 A 
ATOM     90  C   UNL A   1      48.455  26.425  31.839  1.00  0.00     0.173 A 
ATOM     91  C   UNL A   1      49.197  27.389  29.763  1.00  0.00     0.173 A 
ATOM     92  F   UNL A   1      47.489  26.158  32.731  1.00  0.00    -0.203 F 
ATOM     93  C   UNL A   1      49.758  26.020  32.114  1.00  0.00     0.198 A 
ATOM     94  C   UNL A   1      50.497  26.977  30.038  1.00  0.00     0.198 A 
ATOM     95  F   UNL A   1      48.953  28.057  28.625  1.00  0.00    -0.203 F 
ATOM     96  F   UNL A   1      50.031  25.373  33.257  1.00  0.00    -0.200 F 
ATOM     97  C   UNL A   1      50.777  26.294  31.213  1.00  0.00     0.200 A 
ATOM     98  F   UNL A   1      51.482  27.245  29.170  1.00  0.00    -0.200 F 
ATOM     99  F   UNL A   1      52.031  25.906  31.481  1.00  0.00    -0.200 F 
ENDBRANCH  66  89
ENDBRANCH  40  41
ENDBRANCH  32  35
ENDBRANCH  30  31
ENDBRANCH  29  30
ENDBRANCH   1  29
TORSDOF 16
ENDMDL
MODEL 2
REMARK VINA RESULT:     -11.6      2.910      7.531
REMARK SMILES CCOc1cc(NC(=O)c2c(C(=O)NCCCNC(=O)c3ccc(-c4c5nc(c(-c6c(F)c(F)c(F)c(F)c6F)c6ccc([nH]6)c(-c6c(F)c(F)c(F)c(F)c6F)c6nc(c(-c7c(F)c(F)c(F)c(F)c7F)c7ccc4[nH]7)C=C6)C=C5)cc3)cnn2C)ccc1OC(F)F
REMARK SMILES IDX 15 1 14 2 12 3 13 4 11 6 10 7 86 8 84 9 85 10 87 11 8 12
REMARK SMILES IDX 7 13 9 15 6 16 4 17 5 18 90 19 89 20 88 21 3 22 2 23 1 24
REMARK SMILES IDX 91 25 92 26 93 27 94 28 16 29 17 30 18 31 19 32 20 34 21 35
REMARK SMILES IDX 22 36 83 37 23 38 82 39 24 40 25 41 26 42 76 43 27 44 81 45
REMARK SMILES IDX 75 46 77 47 28 48 80 49 74 50 73 51 29 53 61 54 41 55 60 56
REMARK SMILES IDX 42 57 45 58 59 59 78 60 43 61 44 62 58 64 79 65 46 66 30 67
REMARK SMILES IDX 31 68 39 69 32 70 33 71 37 72 40 73 34 74 35 75 38 76 36 77
REMARK SMILES IDX 62 78 63 79 71 80 64 81 65 82 69 83 72 84 66 85 67 86 70 87
REMARK SMILES IDX 68 88 47 89 48 90 56 91 49 92 50 93 54 94 57 95 51 96 52 97
REMARK SMILES IDX 55 98 53 99
REMARK H PARENT 14 5 7 14 18 33 77 52 45 63
REMARK Flexibility Score: inf
ROOT
ATOM      1  C   UNL A   1      32.322  26.140  26.227  1.00  0.00     0.118 C 
ENDROOT
BRANCH   1   2
ATOM      2  N   UNL A   1      31.373  25.163  26.711  1.00  0.00    -0.352 N 
ATOM      3  C   UNL A   1      31.426  23.810  26.903  1.00  0.00     0.255 C 
ATOM      4  O   UNL A   1      30.361  23.292  27.251  1.00  0.00    -0.269 OA
ATOM      5  H   UNL A   1      30.504  25.555  26.954  1.00  0.00     0.163 HD
BRANCH   3   6
ATOM      6  C   UNL A   1      32.599  22.973  26.699  1.00  0.00     0.090 A 
ATOM      7  C   UNL A   1      32.914  21.910  25.853  1.00  0.00     0.138 A 
ATOM      8  N   UNL A   1      34.265  21.696  26.014  1.00  0.00    -0.262 N 
ATOM      9  C   UNL A   1      33.820  23.206  27.394  1.00  0.00     0.149 A 
ATOM     10  N   UNL A   1      34.806  22.389  27.028  1.00  0.00    -0.180 NA
ATOM     11  C   UNL A   1      35.126  20.814  25.255  1.00  0.00     0.174 C 
BRANCH   7  12
ATOM     12  C   UNL A   1      32.141  21.227  24.865  1.00  0.00     0.274 C 
ATOM     13  N   UNL A   1      31.750  21.868  23.707  1.00  0.00    -0.321 N 
ATOM     14  H   UNL A   1      31.148  21.318  23.155  1.00  0.00     0.170 HD
ATOM     15  O   UNL A   1      31.803  20.053  25.001  1.00  0.00    -0.267 OA
BRANCH  13  16
ATOM     16  C   UNL A   1      32.014  23.130  23.131  1.00  0.00     0.045 A 
ATOM     17  C   UNL A   1      31.517  25.443  22.510  1.00  0.00     0.163 A 
ATOM     18  C   UNL A   1      31.168  24.240  23.153  1.00  0.00     0.076 A 
ATOM     19  C   UNL A   1      32.773  25.576  21.916  1.00  0.00     0.168 A 
ATOM     20  C   UNL A   1      33.648  24.488  21.938  1.00  0.00     0.053 A 
ATOM     21  C   UNL A   1      33.261  23.272  22.512  1.00  0.00     0.030 A 
BRANCH  17  22
ATOM     22  O   UNL A   1      30.675  26.524  22.537  1.00  0.00    -0.490 OA
BRANCH  22  23
ATOM     23  C   UNL A   1      29.738  26.510  23.623  1.00  0.00     0.226 C 
ATOM     24  C   UNL A   1      28.840  27.730  23.501  1.00  0.00     0.049 C 
ENDBRANCH  22  23
ENDBRANCH  17  22
BRANCH  19  25
ATOM     25  O   UNL A   1      33.294  26.705  21.350  1.00  0.00    -0.431 OA
BRANCH  25  26
ATOM     26  C   UNL A   1      33.653  27.771  22.224  1.00  0.00     0.542 C 
ATOM     27  F   UNL A   1      34.167  27.308  23.389  1.00  0.00    -0.167 F 
ATOM     28  F   UNL A   1      34.558  28.578  21.626  1.00  0.00    -0.167 F 
ENDBRANCH  25  26
ENDBRANCH  19  25
ENDBRANCH  13  16
ENDBRANCH   7  12
ENDBRANCH   3   6
ENDBRANCH   1   2
BRANCH   1  29
ATOM     29  C   UNL A   1      31.864  27.590  26.381  1.00  0.00     0.042 C 
BRANCH  29  30
ATOM     30  C   UNL A   1      32.675  28.648  25.641  1.00  0.00     0.118 C 
BRANCH  30  31
ATOM     31  N   UNL A   1      32.307  30.014  25.962  1.00  0.00    -0.352 N 
ATOM     32  C   UNL A   1      32.873  30.985  26.750  1.00  0.00     0.251 C 
ATOM     33  H   UNL A   1      31.477  30.307  25.522  1.00  0.00     0.163 HD
ATOM     34  O   UNL A   1      32.263  32.048  26.876  1.00  0.00    -0.269 OA
BRANCH  32  35
ATOM     35  C   UNL A   1      34.152  30.814  27.491  1.00  0.00     0.039 A 
ATOM     36  C   UNL A   1      34.400  29.555  28.062  1.00  0.00     0.014 A 
ATOM     37  C   UNL A   1      35.067  31.841  27.726  1.00  0.00     0.014 A 
ATOM     38  C   UNL A   1      35.563  29.318  28.804  1.00  0.00     0.010 A 
ATOM     39  C   UNL A   1      36.267  31.587  28.401  1.00  0.00     0.010 A 
ATOM     40  C   UNL A   1      36.528  30.324  28.952  1.00  0.00    -0.014 A 
BRANCH  40  41
ATOM     41  C   UNL A   1      37.795  30.069  29.691  1.00  0.00     0.031 A 
ATOM     42  C   UNL A   1      38.882  29.218  29.088  1.00  0.00     0.074 A 
ATOM     43  C   UNL A   1      37.957  30.558  30.936  1.00  0.00     0.049 A 
ATOM     44  N   UNL A   1      39.997  28.795  29.631  1.00  0.00    -0.248 NA
ATOM     45  C   UNL A   1      38.675  28.756  27.707  1.00  0.00     0.031 C 
ATOM     46  C   UNL A   1      36.971  31.350  31.673  1.00  0.00     0.029 A 
ATOM     47  N   UNL A   1      39.014  30.451  31.807  1.00  0.00    -0.354 N 
ATOM     48  C   UNL A   1      40.585  27.961  28.689  1.00  0.00     0.074 A 
ATOM     49  C   UNL A   1      39.716  27.953  27.532  1.00  0.00     0.031 C 
ATOM     50  C   UNL A   1      37.478  31.678  32.872  1.00  0.00     0.029 A 
ATOM     51  C   UNL A   1      38.813  31.102  32.999  1.00  0.00     0.049 A 
ATOM     52  H   UNL A   1      39.838  29.955  31.596  1.00  0.00     0.167 HD
ATOM     53  C   UNL A   1      41.737  27.257  28.784  1.00  0.00     0.037 A 
ATOM     54  C   UNL A   1      39.614  31.224  34.073  1.00  0.00     0.037 A 
ATOM     55  C   UNL A   1      42.657  27.325  29.889  1.00  0.00     0.049 A 
ATOM     56  C   UNL A   1      40.971  30.584  34.076  1.00  0.00     0.074 A 
ATOM     57  C   UNL A   1      43.875  26.684  30.042  1.00  0.00     0.029 A 
ATOM     58  N   UNL A   1      42.472  28.106  31.016  1.00  0.00    -0.354 N 
ATOM     59  N   UNL A   1      41.512  29.802  33.176  1.00  0.00    -0.248 NA
ATOM     60  C   UNL A   1      41.829  30.849  35.241  1.00  0.00     0.031 C 
ATOM     61  C   UNL A   1      44.431  27.083  31.264  1.00  0.00     0.029 A 
ATOM     62  C   UNL A   1      43.561  27.979  31.863  1.00  0.00     0.049 A 
ATOM     63  H   UNL A   1      41.682  28.669  31.192  1.00  0.00     0.167 HD
ATOM     64  C   UNL A   1      42.770  29.482  33.662  1.00  0.00     0.074 A 
ATOM     65  C   UNL A   1      42.923  30.166  34.929  1.00  0.00     0.031 C 
ATOM     66  C   UNL A   1      43.709  28.679  33.110  1.00  0.00     0.037 A 
BRANCH  53  67
ATOM     67  C   UNL A   1      42.069  26.328  27.660  1.00  0.00     0.064 A 
ATOM     68  C   UNL A   1      42.950  26.696  26.636  1.00  0.00     0.173 A 
ATOM     69  C   UNL A   1      41.522  25.036  27.634  1.00  0.00     0.173 A 
ATOM     70  F   UNL A   1      43.483  27.927  26.616  1.00  0.00    -0.203 F 
ATOM     71  C   UNL A   1      43.266  25.804  25.615  1.00  0.00     0.198 A 
ATOM     72  C   UNL A   1      41.850  24.142  26.619  1.00  0.00     0.198 A 
ATOM     73  F   UNL A   1      40.674  24.641  28.596  1.00  0.00    -0.203 F 
ATOM     74  F   UNL A   1      44.092  26.181  24.630  1.00  0.00    -0.200 F 
ATOM     75  C   UNL A   1      42.720  24.528  25.609  1.00  0.00     0.200 A 
ATOM     76  F   UNL A   1      41.326  22.910  26.616  1.00  0.00    -0.200 F 
ATOM     77  F   UNL A   1      43.028  23.671  24.626  1.00  0.00    -0.200 F 
ENDBRANCH  53  67
BRANCH  54  78
ATOM     78  C   UNL A   1      39.157  32.020  35.235  1.00  0.00     0.064 A 
ATOM     79  C   UNL A   1      39.427  33.393  35.309  1.00  0.00     0.173 A 
ATOM     80  C   UNL A   1      38.433  31.431  36.278  1.00  0.00     0.173 A 
ATOM     81  F   UNL A   1      40.133  33.989  34.339  1.00  0.00    -0.203 F 
ATOM     82  C   UNL A   1      38.992  34.149  36.395  1.00  0.00     0.198 A 
ATOM     83  C   UNL A   1      37.989  32.191  37.358  1.00  0.00     0.198 A 
ATOM     84  F   UNL A   1      38.153  30.120  36.244  1.00  0.00    -0.203 F 
ATOM     85  F   UNL A   1      39.278  35.457  36.455  1.00  0.00    -0.200 F 
ATOM     86  C   UNL A   1      38.271  33.548  37.416  1.00  0.00     0.200 A 
ATOM     87  F   UNL A   1      37.288  31.609  38.341  1.00  0.00    -0.200 F 
ATOM     88  F   UNL A   1      37.849  34.276  38.459  1.00  0.00    -0.200 F 
ENDBRANCH  54  78
BRANCH  66  89
ATOM     89  C   UNL A   1      44.990  28.509  33.861  1.00  0.00     0.064 A 
ATOM     90  C   UNL A   1      45.139  27.496  34.816  1.00  0.00     0.173 A 
ATOM     91  C   UNL A   1      46.085  29.344  33.600  1.00  0.00     0.173 A 
ATOM     92  F   UNL A   1      44.112  26.684  35.105  1.00  0.00    -0.203 F 
ATOM     93  C   UNL A   1      46.343  27.330  35.495  1.00  0.00     0.198 A 
ATOM     94  C   UNL A   1      47.289  29.170  34.275  1.00  0.00     0.198 A 
ATOM     95  F   UNL A   1      45.982  30.331  32.696  1.00  0.00    -0.203 F 
ATOM     96  F   UNL A   1      46.462  26.367  36.421  1.00  0.00    -0.200 F 
ATOM     97  C   UNL A   1      47.417  28.165  35.223  1.00  0.00     0.200 A 
ATOM     98  F   UNL A   1      48.326  29.979  34.015  1.00  0.00    -0.200 F 
ATOM     99  F   UNL A   1      48.574  28.005  35.879  1.00  0.00    -0.200 F 
ENDBRANCH  66  89
ENDBRANCH  40  41
ENDBRANCH  32  35
ENDBRANCH  30  31
ENDBRANCH  29  30
ENDBRANCH   1  29
TORSDOF 16
ENDMDL
MODEL 3
REMARK VINA RESULT:     -11.4      3.453      8.271
REMARK SMILES CCOc1cc(NC(=O)c2c(C(=O)NCCCNC(=O)c3ccc(-c4c5nc(c(-c6c(F)c(F)c(F)c(F)c6F)c6ccc([nH]6)c(-c6c(F)c(F)c(F)c(F)c6F)c6nc(c(-c7c(F)c(F)c(F)c(F)c7F)c7ccc4[nH]7)C=C6)C=C5)cc3)cnn2C)ccc1OC(F)F
REMARK SMILES IDX 15 1 14 2 12 3 13 4 11 6 10 7 86 8 84 9 85 10 87 11 8 12
REMARK SMILES IDX 7 13 9 15 6 16 4 17 5 18 90 19 89 20 88 21 3 22 2 23 1 24
REMARK SMILES IDX 91 25 92 26 93 27 94 28 16 29 17 30 18 31 19 32 20 34 21 35
REMARK SMILES IDX 22 36 83 37 23 38 82 39 24 40 25 41 26 42 76 43 27 44 81 45
REMARK SMILES IDX 75 46 77 47 28 48 80 49 74 50 73 51 29 53 61 54 41 55 60 56
REMARK SMILES IDX 42 57 45 58 59 59 78 60 43 61 44 62 58 64 79 65 46 66 30 67
REMARK SMILES IDX 31 68 39 69 32 70 33 71 37 72 40 73 34 74 35 75 38 76 36 77
REMARK SMILES IDX 62 78 63 79 71 80 64 81 65 82 69 83 72 84 66 85 67 86 70 87
REMARK SMILES IDX 68 88 47 89 48 90 56 91 49 92 50 93 54 94 57 95 51 96 52 97
REMARK SMILES IDX 55 98 53 99
REMARK H PARENT 14 5 7 14 18 33 77 52 45 63
REMARK Flexibility Score: inf
ROOT
ATOM      1  C   UNL A   1      32.780  27.378  23.548  1.00  0.00     0.118 C 
ENDROOT
BRANCH   1   2
ATOM      2  N   UNL A   1      33.859  26.512  23.967  1.00  0.00    -0.352 N 
ATOM      3  C   UNL A   1      33.931  25.426  24.795  1.00  0.00     0.255 C 
ATOM      4  O   UNL A   1      35.071  24.994  24.988  1.00  0.00    -0.269 OA
ATOM      5  H   UNL A   1      34.727  26.756  23.571  1.00  0.00     0.163 HD
BRANCH   3   6
ATOM      6  C   UNL A   1      32.801  24.795  25.461  1.00  0.00     0.090 A 
ATOM      7  C   UNL A   1      31.711  24.035  25.040  1.00  0.00     0.138 A 
ATOM      8  N   UNL A   1      31.120  23.564  26.192  1.00  0.00    -0.262 N 
ATOM      9  C   UNL A   1      32.664  24.800  26.879  1.00  0.00     0.149 A 
ATOM     10  N   UNL A   1      31.610  24.113  27.314  1.00  0.00    -0.180 NA
ATOM     11  C   UNL A   1      30.047  22.601  26.317  1.00  0.00     0.174 C 
BRANCH   7  12
ATOM     12  C   UNL A   1      31.294  23.616  23.739  1.00  0.00     0.274 C 
ATOM     13  N   UNL A   1      31.787  22.454  23.180  1.00  0.00    -0.321 N 
ATOM     14  H   UNL A   1      31.493  22.329  22.249  1.00  0.00     0.170 HD
ATOM     15  O   UNL A   1      30.487  24.263  23.075  1.00  0.00    -0.267 OA
BRANCH  13  16
ATOM     16  C   UNL A   1      32.613  21.404  23.635  1.00  0.00     0.045 A 
ATOM     17  C   UNL A   1      34.622  20.418  24.624  1.00  0.00     0.163 A 
ATOM     18  C   UNL A   1      33.863  21.541  24.241  1.00  0.00     0.076 A 
ATOM     19  C   UNL A   1      34.086  19.136  24.488  1.00  0.00     0.168 A 
ATOM     20  C   UNL A   1      32.812  18.994  23.934  1.00  0.00     0.053 A 
ATOM     21  C   UNL A   1      32.099  20.111  23.486  1.00  0.00     0.030 A 
BRANCH  17  22
ATOM     22  O   UNL A   1      35.849  20.568  25.214  1.00  0.00    -0.490 OA
BRANCH  22  23
ATOM     23  C   UNL A   1      36.754  21.406  24.481  1.00  0.00     0.226 C 
ATOM     24  C   UNL A   1      37.727  22.039  25.461  1.00  0.00     0.049 C 
ENDBRANCH  22  23
ENDBRANCH  17  22
BRANCH  19  25
ATOM     25  O   UNL A   1      34.652  17.966  24.906  1.00  0.00    -0.431 OA
BRANCH  25  26
ATOM     26  C   UNL A   1      34.347  16.788  24.165  1.00  0.00     0.542 C 
ATOM     27  F   UNL A   1      34.642  16.937  22.851  1.00  0.00    -0.167 F 
ATOM     28  F   UNL A   1      35.035  15.736  24.661  1.00  0.00    -0.167 F 
ENDBRANCH  25  26
ENDBRANCH  19  25
ENDBRANCH  13  16
ENDBRANCH   7  12
ENDBRANCH   3   6
ENDBRANCH   1   2
BRANCH   1  29
ATOM     29  C   UNL A   1      32.898  28.817  24.051  1.00  0.00     0.042 C 
BRANCH  29  30
ATOM     30  C   UNL A   1      32.852  29.021  25.561  1.00  0.00     0.118 C 
BRANCH  30  31
ATOM     31  N   UNL A   1      32.450  30.354  25.970  1.00  0.00    -0.352 N 
ATOM     32  C   UNL A   1      32.980  31.277  26.837  1.00  0.00     0.251 C 
ATOM     33  H   UNL A   1      31.622  30.662  25.535  1.00  0.00     0.163 HD
ATOM     34  O   UNL A   1      32.346  32.316  27.025  1.00  0.00    -0.269 OA
BRANCH  32  35
ATOM     35  C   UNL A   1      34.248  31.077  27.590  1.00  0.00     0.039 A 
ATOM     36  C   UNL A   1      34.519  29.781  28.060  1.00  0.00     0.014 A 
ATOM     37  C   UNL A   1      35.128  32.104  27.932  1.00  0.00     0.014 A 
ATOM     38  C   UNL A   1      35.672  29.512  28.806  1.00  0.00     0.010 A 
ATOM     39  C   UNL A   1      36.321  31.825  28.611  1.00  0.00     0.010 A 
ATOM     40  C   UNL A   1      36.605  30.527  29.061  1.00  0.00    -0.014 A 
BRANCH  40  41
ATOM     41  C   UNL A   1      37.863  30.244  29.805  1.00  0.00     0.031 A 
ATOM     42  C   UNL A   1      38.937  29.378  29.202  1.00  0.00     0.074 A 
ATOM     43  C   UNL A   1      38.026  30.720  31.055  1.00  0.00     0.049 A 
ATOM     44  N   UNL A   1      40.042  28.930  29.748  1.00  0.00    -0.248 NA
ATOM     45  C   UNL A   1      38.731  28.930  27.817  1.00  0.00     0.031 C 
ATOM     46  C   UNL A   1      37.050  31.524  31.792  1.00  0.00     0.029 A 
ATOM     47  N   UNL A   1      39.075  30.587  31.931  1.00  0.00    -0.354 N 
ATOM     48  C   UNL A   1      40.620  28.093  28.804  1.00  0.00     0.074 A 
ATOM     49  C   UNL A   1      39.758  28.110  27.641  1.00  0.00     0.031 C 
ATOM     50  C   UNL A   1      37.555  31.833  32.997  1.00  0.00     0.029 A 
ATOM     51  C   UNL A   1      38.879  31.233  33.127  1.00  0.00     0.049 A 
ATOM     52  H   UNL A   1      39.891  30.078  31.722  1.00  0.00     0.167 HD
ATOM     53  C   UNL A   1      41.759  27.368  28.900  1.00  0.00     0.037 A 
ATOM     54  C   UNL A   1      39.676  31.332  34.207  1.00  0.00     0.037 A 
ATOM     55  C   UNL A   1      42.673  27.411  30.011  1.00  0.00     0.049 A 
ATOM     56  C   UNL A   1      41.020  30.667  34.213  1.00  0.00     0.074 A 
ATOM     57  C   UNL A   1      43.878  26.746  30.166  1.00  0.00     0.029 A 
ATOM     58  N   UNL A   1      42.495  28.186  31.143  1.00  0.00    -0.354 N 
ATOM     59  N   UNL A   1      41.553  29.882  33.310  1.00  0.00    -0.248 NA
ATOM     60  C   UNL A   1      41.876  30.908  35.385  1.00  0.00     0.031 C 
ATOM     61  C   UNL A   1      44.433  27.126  31.395  1.00  0.00     0.029 A 
ATOM     62  C   UNL A   1      43.576  28.033  31.995  1.00  0.00     0.049 A 
ATOM     63  H   UNL A   1      41.715  28.762  31.318  1.00  0.00     0.167 HD
ATOM     64  C   UNL A   1      42.802  29.536  33.802  1.00  0.00     0.074 A 
ATOM     65  C   UNL A   1      42.960  30.208  35.074  1.00  0.00     0.031 C 
ATOM     66  C   UNL A   1      43.730  28.720  33.248  1.00  0.00     0.037 A 
BRANCH  53  67
ATOM     67  C   UNL A   1      42.080  26.441  27.771  1.00  0.00     0.064 A 
ATOM     68  C   UNL A   1      43.012  26.781  26.783  1.00  0.00     0.173 A 
ATOM     69  C   UNL A   1      41.471  25.179  27.704  1.00  0.00     0.173 A 
ATOM     70  F   UNL A   1      43.607  27.983  26.802  1.00  0.00    -0.203 F 
ATOM     71  C   UNL A   1      43.317  25.891  25.757  1.00  0.00     0.198 A 
ATOM     72  C   UNL A   1      41.787  24.287  26.685  1.00  0.00     0.198 A 
ATOM     73  F   UNL A   1      40.572  24.813  28.631  1.00  0.00    -0.203 F 
ATOM     74  F   UNL A   1      44.193  26.241  24.806  1.00  0.00    -0.200 F 
ATOM     75  C   UNL A   1      42.708  24.644  25.711  1.00  0.00     0.200 A 
ATOM     76  F   UNL A   1      41.201  23.082  26.643  1.00  0.00    -0.200 F 
ATOM     77  F   UNL A   1      43.005  23.788  24.723  1.00  0.00    -0.200 F 
ENDBRANCH  53  67
BRANCH  54  78
ATOM     78  C   UNL A   1      39.226  32.127  35.373  1.00  0.00     0.064 A 
ATOM     79  C   UNL A   1      38.489  31.527  36.403  1.00  0.00     0.173 A 
ATOM     80  C   UNL A   1      39.537  33.488  35.486  1.00  0.00     0.173 A 
ATOM     81  F   UNL A   1      38.158  30.231  36.321  1.00  0.00    -0.203 F 
ATOM     82  C   UNL A   1      38.072  32.267  37.507  1.00  0.00     0.198 A 
ATOM     83  C   UNL A   1      39.127  34.223  36.596  1.00  0.00     0.198 A 
ATOM     84  F   UNL A   1      40.241  34.098  34.522  1.00  0.00    -0.203 F 
ATOM     85  F   UNL A   1      37.352  31.678  38.470  1.00  0.00    -0.200 F 
ATOM     86  C   UNL A   1      38.394  33.612  37.603  1.00  0.00     0.200 A 
ATOM     87  F   UNL A   1      39.443  35.522  36.691  1.00  0.00    -0.200 F 
ATOM     88  F   UNL A   1      37.995  34.324  38.667  1.00  0.00    -0.200 F 
ENDBRANCH  54  78
BRANCH  66  89
ATOM     89  C   UNL A   1      45.003  28.522  34.005  1.00  0.00     0.064 A 
ATOM     90  C   UNL A   1      45.133  27.488  34.941  1.00  0.00     0.173 A 
ATOM     91  C   UNL A   1      46.109  29.350  33.771  1.00  0.00     0.173 A 
ATOM     92  F   UNL A   1      44.095  26.681  35.205  1.00  0.00    -0.203 F 
ATOM     93  C   UNL A   1      46.330  27.295  35.626  1.00  0.00     0.198 A 
ATOM     94  C   UNL A   1      47.305  29.150  34.451  1.00  0.00     0.198 A 
ATOM     95  F   UNL A   1      46.023  30.356  32.886  1.00  0.00    -0.203 F 
ATOM     96  F   UNL A   1      46.431  26.312  36.533  1.00  0.00    -0.200 F 
ATOM     97  C   UNL A   1      47.415  28.124  35.379  1.00  0.00     0.200 A 
ATOM     98  F   UNL A   1      48.352  29.953  34.216  1.00  0.00    -0.200 F 
ATOM     99  F   UNL A   1      48.565  27.938  36.041  1.00  0.00    -0.200 F 
ENDBRANCH  66  89
ENDBRANCH  40  41
ENDBRANCH  32  35
ENDBRANCH  30  31
ENDBRANCH  29  30
ENDBRANCH   1  29
TORSDOF 16
ENDMDL
