MODEL 1
REMARK VINA RESULT:     -13.4      0.000      0.000
REMARK SMILES O=C(NCCCNC(=O)c1ccc(-c2c3nc(c(-c4c(F)c(F)c(F)c(F)c4F)c4ccc([nH]4)c(-c4c(F)c(F)c(F)c(F)c4F)c4nc(c(-c5c(F)c(F)c(F)c(F)c5F)c5ccc2[nH]5)C=C4)C=C3)cc1)C1=Cc2cc(S(F)(F)(F)(F)F)ccc2O[C@H]1C(F)(F)F
REMARK SMILES IDX 5 1 4 2 3 3 1 4 2 5 73 7 74 8 88 9 75 10 87 11 76 12 86 13
REMARK SMILES IDX 77 14 85 15 84 16 89 17 90 18 91 19 92 20 78 21 79 22 80 23
REMARK SMILES IDX 81 24 82 25 83 26 6 27 7 28 8 29 9 31 10 32 11 33 72 34
REMARK SMILES IDX 12 35 71 36 13 37 14 38 15 39 65 40 16 41 70 42 64 43 66 44
REMARK SMILES IDX 17 45 69 46 63 47 62 48 18 50 50 51 30 52 49 53 31 54 34 55
REMARK SMILES IDX 48 56 67 57 32 58 33 59 47 61 68 62 35 63 19 64 20 65 28 66
REMARK SMILES IDX 21 67 22 68 26 69 29 70 23 71 24 72 27 73 25 74 51 75 52 76
REMARK SMILES IDX 60 77 53 78 54 79 58 80 61 81 55 82 56 83 59 84 57 85 36 86
REMARK SMILES IDX 37 87 45 88 38 89 39 90 43 91 46 92 40 93 41 94 44 95 42 96
REMARK H PARENT 3 6 7 30 66 49 34 60
REMARK Flexibility Score: inf
ROOT
ATOM      1  C   UNL A   1      33.655  27.990  25.628  1.00  0.00     0.042 C 
ENDROOT
BRANCH   1   2
ATOM      2  C   UNL A   1      33.363  26.504  25.505  1.00  0.00     0.118 C 
BRANCH   2   3
ATOM      3  N   UNL A   1      32.293  26.136  26.443  1.00  0.00    -0.352 N 
ATOM      4  O   UNL A   1      30.280  24.931  26.818  1.00  0.00    -0.270 OA
ATOM      5  C   UNL A   1      31.205  25.249  26.007  1.00  0.00     0.251 C 
ATOM      6  H   UNL A   1      32.304  26.484  27.364  1.00  0.00     0.163 HD
BRANCH   5   7
ATOM      7  C   UNL A   1      31.187  24.712  24.584  1.00  0.00     0.067 C 
ATOM      8  C   UNL A   1      31.983  23.664  24.243  1.00  0.00     0.025 C 
ATOM      9  C   UNL A   1      30.278  25.346  23.544  1.00  0.00     0.314 C 
ATOM     10  C   UNL A   1      32.892  23.030  25.284  1.00  0.00     0.019 A 
ATOM     11  O   UNL A   1      31.134  23.096  26.881  1.00  0.00    -0.475 OA
ATOM     12  C   UNL A   1      34.220  22.848  24.932  1.00  0.00     0.036 A 
ATOM     13  C   UNL A   1      32.459  22.749  26.508  1.00  0.00     0.128 A 
ATOM     14  C   UNL A   1      34.961  22.087  25.866  1.00  0.00     0.107 A 
ATOM     15  C   UNL A   1      33.281  22.127  27.414  1.00  0.00     0.048 A 
ATOM     16  C   UNL A   1      34.589  21.863  27.114  1.00  0.00     0.028 A 
BRANCH   9  17
ATOM     17  C   UNL A   1      29.500  26.488  24.180  1.00  0.00     0.429 C 
ATOM     18  F   UNL A   1      28.695  26.006  25.121  1.00  0.00    -0.167 F 
ATOM     19  F   UNL A   1      30.351  27.354  24.725  1.00  0.00    -0.167 F 
ATOM     20  F   UNL A   1      28.777  27.104  23.249  1.00  0.00    -0.167 F 
ENDBRANCH   9  17
BRANCH  14  21
ATOM     21  S   UNL A   1      36.529  21.370  25.314  1.00  0.00     0.310 S 
ATOM     22  F   UNL A   1      36.316  21.901  23.834  1.00  0.00    -0.094 F 
ATOM     23  F   UNL A   1      35.760  20.065  24.883  1.00  0.00    -0.094 F 
ATOM     24  F   UNL A   1      37.879  20.765  24.837  1.00  0.00    -0.094 F 
ATOM     25  F   UNL A   1      37.259  22.737  25.621  1.00  0.00    -0.094 F 
ATOM     26  F   UNL A   1      35.149  22.039  25.697  1.00  0.00    -0.094 F 
ENDBRANCH  14  21
ENDBRANCH   5   7
ENDBRANCH   2   3
ENDBRANCH   1   2
BRANCH   1  27
ATOM     27  C   UNL A   1      34.073  28.309  27.055  1.00  0.00     0.118 C 
BRANCH  27  28
ATOM     28  N   UNL A   1      33.609  29.657  27.412  1.00  0.00    -0.352 N 
ATOM     29  C   UNL A   1      34.527  30.599  28.068  1.00  0.00     0.251 C 
ATOM     30  H   UNL A   1      32.685  29.929  27.212  1.00  0.00     0.163 HD
ATOM     31  O   UNL A   1      34.127  31.766  28.378  1.00  0.00    -0.269 OA
BRANCH  29  32
ATOM     32  C   UNL A   1      35.955  30.180  28.377  1.00  0.00     0.039 A 
ATOM     33  C   UNL A   1      36.939  30.381  27.423  1.00  0.00     0.014 A 
ATOM     34  C   UNL A   1      36.236  29.624  29.549  1.00  0.00     0.014 A 
ATOM     35  C   UNL A   1      38.146  29.693  27.691  1.00  0.00     0.010 A 
ATOM     36  C   UNL A   1      37.480  29.091  29.792  1.00  0.00     0.010 A 
ATOM     37  C   UNL A   1      38.483  29.202  28.868  1.00  0.00    -0.014 A 
BRANCH  37  38
ATOM     38  C   UNL A   1      39.910  28.782  29.184  1.00  0.00     0.031 A 
ATOM     39  C   UNL A   1      40.379  27.553  28.720  1.00  0.00     0.074 A 
ATOM     40  C   UNL A   1      40.673  29.678  29.913  1.00  0.00     0.049 A 
ATOM     41  N   UNL A   1      41.605  27.045  28.857  1.00  0.00    -0.248 NA
ATOM     42  C   UNL A   1      39.560  26.585  27.976  1.00  0.00     0.031 C 
ATOM     43  C   UNL A   1      40.210  30.925  30.376  1.00  0.00     0.029 A 
ATOM     44  N   UNL A   1      41.983  29.539  30.316  1.00  0.00    -0.354 N 
ATOM     45  C   UNL A   1      41.680  25.852  28.264  1.00  0.00     0.074 A 
ATOM     46  C   UNL A   1      40.363  25.536  27.694  1.00  0.00     0.031 C 
ATOM     47  C   UNL A   1      41.221  31.523  31.059  1.00  0.00     0.029 A 
ATOM     48  C   UNL A   1      42.334  30.662  31.033  1.00  0.00     0.049 A 
ATOM     49  H   UNL A   1      42.567  28.770  30.126  1.00  0.00     0.167 HD
ATOM     50  C   UNL A   1      42.795  25.016  28.175  1.00  0.00     0.037 A 
ATOM     51  C   UNL A   1      43.549  30.935  31.640  1.00  0.00     0.037 A 
ATOM     52  C   UNL A   1      44.024  25.311  28.745  1.00  0.00     0.049 A 
ATOM     53  C   UNL A   1      44.648  30.072  31.600  1.00  0.00     0.074 A 
ATOM     54  C   UNL A   1      45.159  24.483  28.657  1.00  0.00     0.029 A 
ATOM     55  N   UNL A   1      44.366  26.422  29.482  1.00  0.00    -0.354 N 
ATOM     56  N   UNL A   1      44.733  28.898  30.974  1.00  0.00    -0.248 NA
ATOM     57  C   UNL A   1      45.929  30.338  32.266  1.00  0.00     0.031 C 
ATOM     58  C   UNL A   1      46.171  25.082  29.341  1.00  0.00     0.029 A 
ATOM     59  C   UNL A   1      45.683  26.293  29.866  1.00  0.00     0.049 A 
ATOM     60  H   UNL A   1      43.773  27.178  29.698  1.00  0.00     0.167 HD
ATOM     61  C   UNL A   1      45.948  28.373  31.146  1.00  0.00     0.074 A 
ATOM     62  C   UNL A   1      46.732  29.288  31.987  1.00  0.00     0.031 C 
ATOM     63  C   UNL A   1      46.435  27.170  30.634  1.00  0.00     0.037 A 
BRANCH  50  64
ATOM     64  C   UNL A   1      42.653  23.711  27.409  1.00  0.00     0.064 A 
ATOM     65  C   UNL A   1      42.158  22.583  28.041  1.00  0.00     0.173 A 
ATOM     66  C   UNL A   1      42.973  23.695  26.120  1.00  0.00     0.173 A 
ATOM     67  F   UNL A   1      41.593  22.614  29.244  1.00  0.00    -0.203 F 
ATOM     68  C   UNL A   1      42.307  21.393  27.288  1.00  0.00     0.198 A 
ATOM     69  C   UNL A   1      42.966  22.518  25.412  1.00  0.00     0.198 A 
ATOM     70  F   UNL A   1      43.302  24.830  25.508  1.00  0.00    -0.203 F 
ATOM     71  F   UNL A   1      42.201  20.235  27.934  1.00  0.00    -0.200 F 
ATOM     72  C   UNL A   1      42.544  21.353  25.989  1.00  0.00     0.200 A 
ATOM     73  F   UNL A   1      43.375  22.512  24.147  1.00  0.00    -0.200 F 
ATOM     74  F   UNL A   1      42.381  20.239  25.281  1.00  0.00    -0.200 F 
ENDBRANCH  50  64
BRANCH  51  75
ATOM     75  C   UNL A   1      43.696  32.249  32.391  1.00  0.00     0.064 A 
ATOM     76  C   UNL A   1      43.404  32.313  33.744  1.00  0.00     0.173 A 
ATOM     77  C   UNL A   1      44.063  33.330  31.714  1.00  0.00     0.173 A 
ATOM     78  F   UNL A   1      43.281  31.233  34.510  1.00  0.00    -0.203 F 
ATOM     79  C   UNL A   1      43.249  33.630  34.236  1.00  0.00     0.198 A 
ATOM     80  C   UNL A   1      44.015  34.572  32.300  1.00  0.00     0.198 A 
ATOM     81  F   UNL A   1      44.480  33.211  30.457  1.00  0.00    -0.203 F 
ATOM     82  F   UNL A   1      42.628  33.787  35.400  1.00  0.00    -0.200 F 
ATOM     83  C   UNL A   1      43.678  34.716  33.617  1.00  0.00     0.200 A 
ATOM     84  F   UNL A   1      44.301  35.650  31.575  1.00  0.00    -0.200 F 
ATOM     85  F   UNL A   1      43.777  35.885  34.243  1.00  0.00    -0.200 F 
ENDBRANCH  51  75
BRANCH  63  86
ATOM     86  C   UNL A   1      47.878  26.798  30.935  1.00  0.00     0.064 A 
ATOM     87  C   UNL A   1      48.883  27.279  30.114  1.00  0.00     0.173 A 
ATOM     88  C   UNL A   1      48.151  26.017  31.974  1.00  0.00     0.173 A 
ATOM     89  F   UNL A   1      48.694  28.253  29.229  1.00  0.00    -0.203 F 
ATOM     90  C   UNL A   1      50.132  26.640  30.302  1.00  0.00     0.198 A 
ATOM     91  C   UNL A   1      49.423  25.537  32.173  1.00  0.00     0.198 A 
ATOM     92  F   UNL A   1      47.184  25.695  32.829  1.00  0.00    -0.203 F 
ATOM     93  F   UNL A   1      51.043  26.768  29.342  1.00  0.00    -0.200 F 
ATOM     94  C   UNL A   1      50.455  25.925  31.364  1.00  0.00     0.200 A 
ATOM     95  F   UNL A   1      49.653  24.685  33.168  1.00  0.00    -0.200 F 
ATOM     96  F   UNL A   1      51.715  25.598  31.632  1.00  0.00    -0.200 F 
ENDBRANCH  63  86
ENDBRANCH  37  38
ENDBRANCH  29  32
ENDBRANCH  27  28
ENDBRANCH   1  27
TORSDOF 12
ENDMDL
MODEL 2
REMARK VINA RESULT:     -13.4      0.851      1.474
REMARK SMILES O=C(NCCCNC(=O)c1ccc(-c2c3nc(c(-c4c(F)c(F)c(F)c(F)c4F)c4ccc([nH]4)c(-c4c(F)c(F)c(F)c(F)c4F)c4nc(c(-c5c(F)c(F)c(F)c(F)c5F)c5ccc2[nH]5)C=C4)C=C3)cc1)C1=Cc2cc(S(F)(F)(F)(F)F)ccc2O[C@H]1C(F)(F)F
REMARK SMILES IDX 5 1 4 2 3 3 1 4 2 5 73 7 74 8 88 9 75 10 87 11 76 12 86 13
REMARK SMILES IDX 77 14 85 15 84 16 89 17 90 18 91 19 92 20 78 21 79 22 80 23
REMARK SMILES IDX 81 24 82 25 83 26 6 27 7 28 8 29 9 31 10 32 11 33 72 34
REMARK SMILES IDX 12 35 71 36 13 37 14 38 15 39 65 40 16 41 70 42 64 43 66 44
REMARK SMILES IDX 17 45 69 46 63 47 62 48 18 50 50 51 30 52 49 53 31 54 34 55
REMARK SMILES IDX 48 56 67 57 32 58 33 59 47 61 68 62 35 63 19 64 20 65 28 66
REMARK SMILES IDX 21 67 22 68 26 69 29 70 23 71 24 72 27 73 25 74 51 75 52 76
REMARK SMILES IDX 60 77 53 78 54 79 58 80 61 81 55 82 56 83 59 84 57 85 36 86
REMARK SMILES IDX 37 87 45 88 38 89 39 90 43 91 46 92 40 93 41 94 44 95 42 96
REMARK H PARENT 3 6 7 30 66 49 34 60
REMARK Flexibility Score: inf
ROOT
ATOM      1  C   UNL A   1      33.806  27.864  25.384  1.00  0.00     0.042 C 
ENDROOT
BRANCH   1   2
ATOM      2  C   UNL A   1      33.380  26.408  25.299  1.00  0.00     0.118 C 
BRANCH   2   3
ATOM      3  N   UNL A   1      32.351  26.139  26.314  1.00  0.00    -0.352 N 
ATOM      4  O   UNL A   1      30.331  25.022  26.876  1.00  0.00    -0.270 OA
ATOM      5  C   UNL A   1      31.220  25.255  25.998  1.00  0.00     0.251 C 
ATOM      6  H   UNL A   1      32.418  26.552  27.206  1.00  0.00     0.163 HD
BRANCH   5   7
ATOM      7  C   UNL A   1      31.115  24.617  24.622  1.00  0.00     0.067 C 
ATOM      8  C   UNL A   1      31.864  23.523  24.321  1.00  0.00     0.025 C 
ATOM      9  C   UNL A   1      30.172  25.203  23.583  1.00  0.00     0.314 C 
ATOM     10  C   UNL A   1      32.806  22.937  25.360  1.00  0.00     0.019 A 
ATOM     11  O   UNL A   1      31.134  23.174  27.032  1.00  0.00    -0.475 OA
ATOM     12  C   UNL A   1      34.109  22.689  24.959  1.00  0.00     0.036 A 
ATOM     13  C   UNL A   1      32.428  22.760  26.621  1.00  0.00     0.128 A 
ATOM     14  C   UNL A   1      34.875  21.975  25.910  1.00  0.00     0.107 A 
ATOM     15  C   UNL A   1      33.278  22.179  27.530  1.00  0.00     0.048 A 
ATOM     16  C   UNL A   1      34.561  21.853  27.187  1.00  0.00     0.028 A 
BRANCH   9  17
ATOM     17  C   UNL A   1      29.460  26.411  24.170  1.00  0.00     0.429 C 
ATOM     18  F   UNL A   1      30.359  27.273  24.635  1.00  0.00    -0.167 F 
ATOM     19  F   UNL A   1      28.730  26.998  23.225  1.00  0.00    -0.167 F 
ATOM     20  F   UNL A   1      28.666  26.018  25.163  1.00  0.00    -0.167 F 
ENDBRANCH   9  17
BRANCH  14  21
ATOM     21  S   UNL A   1      36.393  21.172  25.336  1.00  0.00     0.310 S 
ATOM     22  F   UNL A   1      36.265  21.829  23.898  1.00  0.00    -0.094 F 
ATOM     23  F   UNL A   1      35.530  19.972  24.790  1.00  0.00    -0.094 F 
ATOM     24  F   UNL A   1      37.701  20.492  24.842  1.00  0.00    -0.094 F 
ATOM     25  F   UNL A   1      37.225  22.445  25.763  1.00  0.00    -0.094 F 
ATOM     26  F   UNL A   1      35.063  21.924  25.741  1.00  0.00    -0.094 F 
ENDBRANCH  14  21
ENDBRANCH   5   7
ENDBRANCH   2   3
ENDBRANCH   1   2
BRANCH   1  27
ATOM     27  C   UNL A   1      33.931  28.272  26.842  1.00  0.00     0.118 C 
BRANCH  27  28
ATOM     28  N   UNL A   1      33.494  29.667  27.000  1.00  0.00    -0.352 N 
ATOM     29  C   UNL A   1      34.388  30.651  27.626  1.00  0.00     0.251 C 
ATOM     30  H   UNL A   1      32.602  29.941  26.687  1.00  0.00     0.163 HD
ATOM     31  O   UNL A   1      34.011  31.857  27.763  1.00  0.00    -0.269 OA
BRANCH  29  32
ATOM     32  C   UNL A   1      35.766  30.227  28.109  1.00  0.00     0.039 A 
ATOM     33  C   UNL A   1      36.856  30.392  27.270  1.00  0.00     0.014 A 
ATOM     34  C   UNL A   1      35.903  29.703  29.321  1.00  0.00     0.014 A 
ATOM     35  C   UNL A   1      38.015  29.701  27.694  1.00  0.00     0.010 A 
ATOM     36  C   UNL A   1      37.103  29.166  29.720  1.00  0.00     0.010 A 
ATOM     37  C   UNL A   1      38.208  29.241  28.916  1.00  0.00    -0.014 A 
BRANCH  37  38
ATOM     38  C   UNL A   1      39.583  28.817  29.406  1.00  0.00     0.031 A 
ATOM     39  C   UNL A   1      40.147  27.635  28.923  1.00  0.00     0.074 A 
ATOM     40  C   UNL A   1      40.209  29.662  30.306  1.00  0.00     0.049 A 
ATOM     41  N   UNL A   1      41.352  27.135  29.200  1.00  0.00    -0.248 NA
ATOM     42  C   UNL A   1      39.470  26.719  27.993  1.00  0.00     0.031 C 
ATOM     43  C   UNL A   1      39.651  30.861  30.790  1.00  0.00     0.029 A 
ATOM     44  N   UNL A   1      41.448  29.509  30.887  1.00  0.00    -0.354 N 
ATOM     45  C   UNL A   1      41.543  25.994  28.534  1.00  0.00     0.074 A 
ATOM     46  C   UNL A   1      40.332  25.706  27.754  1.00  0.00     0.031 C 
ATOM     47  C   UNL A   1      40.536  31.416  31.659  1.00  0.00     0.029 A 
ATOM     48  C   UNL A   1      41.662  30.576  31.732  1.00  0.00     0.049 A 
ATOM     49  H   UNL A   1      42.074  28.766  30.726  1.00  0.00     0.167 HD
ATOM     50  C   UNL A   1      42.680  25.184  28.547  1.00  0.00     0.037 A 
ATOM     51  C   UNL A   1      42.768  30.817  32.531  1.00  0.00     0.037 A 
ATOM     52  C   UNL A   1      43.804  25.449  29.313  1.00  0.00     0.049 A 
ATOM     53  C   UNL A   1      43.882  29.975  32.588  1.00  0.00     0.074 A 
ATOM     54  C   UNL A   1      44.961  24.647  29.332  1.00  0.00     0.029 A 
ATOM     55  N   UNL A   1      44.007  26.502  30.177  1.00  0.00    -0.354 N 
ATOM     56  N   UNL A   1      44.088  28.856  31.893  1.00  0.00    -0.248 NA
ATOM     57  C   UNL A   1      45.046  30.205  33.455  1.00  0.00     0.031 C 
ATOM     58  C   UNL A   1      45.847  25.203  30.201  1.00  0.00     0.029 A 
ATOM     59  C   UNL A   1      45.256  26.361  30.741  1.00  0.00     0.049 A 
ATOM     60  H   UNL A   1      43.369  27.230  30.360  1.00  0.00     0.167 HD
ATOM     61  C   UNL A   1      45.278  28.336  32.202  1.00  0.00     0.074 A 
ATOM     62  C   UNL A   1      45.907  29.192  33.217  1.00  0.00     0.031 C 
ATOM     63  C   UNL A   1      45.865  27.184  31.676  1.00  0.00     0.037 A 
BRANCH  50  64
ATOM     64  C   UNL A   1      42.685  23.942  27.671  1.00  0.00     0.064 A 
ATOM     65  C   UNL A   1      43.188  24.001  26.382  1.00  0.00     0.173 A 
ATOM     66  C   UNL A   1      42.239  22.802  28.185  1.00  0.00     0.173 A 
ATOM     67  F   UNL A   1      43.870  25.043  25.916  1.00  0.00    -0.203 F 
ATOM     68  C   UNL A   1      42.911  22.851  25.605  1.00  0.00     0.198 A 
ATOM     69  C   UNL A   1      42.122  21.679  27.402  1.00  0.00     0.198 A 
ATOM     70  F   UNL A   1      41.903  22.746  29.471  1.00  0.00    -0.203 F 
ATOM     71  F   UNL A   1      43.028  22.953  24.285  1.00  0.00    -0.200 F 
ATOM     72  C   UNL A   1      42.545  21.682  26.102  1.00  0.00     0.200 A 
ATOM     73  F   UNL A   1      41.590  20.575  27.915  1.00  0.00    -0.200 F 
ATOM     74  F   UNL A   1      42.586  20.569  25.376  1.00  0.00    -0.200 F 
ENDBRANCH  50  64
BRANCH  51  75
ATOM     75  C   UNL A   1      42.769  32.068  33.394  1.00  0.00     0.064 A 
ATOM     76  C   UNL A   1      42.275  32.021  34.688  1.00  0.00     0.173 A 
ATOM     77  C   UNL A   1      43.211  33.204  32.867  1.00  0.00     0.173 A 
ATOM     78  F   UNL A   1      42.061  30.883  35.341  1.00  0.00    -0.203 F 
ATOM     79  C   UNL A   1      42.018  33.294  35.250  1.00  0.00     0.198 A 
ATOM     80  C   UNL A   1      43.047  34.395  33.533  1.00  0.00     0.198 A 
ATOM     81  F   UNL A   1      43.817  33.188  31.683  1.00  0.00    -0.203 F 
ATOM     82  F   UNL A   1      41.223  33.351  36.315  1.00  0.00    -0.200 F 
ATOM     83  C   UNL A   1      42.511  34.429  34.789  1.00  0.00     0.200 A 
ATOM     84  F   UNL A   1      43.416  35.529  32.945  1.00  0.00    -0.200 F 
ATOM     85  F   UNL A   1      42.488  35.546  35.511  1.00  0.00    -0.200 F 
ENDBRANCH  51  75
BRANCH  63  86
ATOM     86  C   UNL A   1      47.257  26.809  32.158  1.00  0.00     0.064 A 
ATOM     87  C   UNL A   1      48.360  27.354  31.522  1.00  0.00     0.173 A 
ATOM     88  C   UNL A   1      47.395  25.965  33.174  1.00  0.00     0.173 A 
ATOM     89  F   UNL A   1      48.279  28.382  30.682  1.00  0.00    -0.203 F 
ATOM     90  C   UNL A   1      49.582  26.718  31.847  1.00  0.00     0.198 A 
ATOM     91  C   UNL A   1      48.635  25.488  33.523  1.00  0.00     0.198 A 
ATOM     92  F   UNL A   1      46.322  25.578  33.858  1.00  0.00    -0.203 F 
ATOM     93  F   UNL A   1      50.618  26.919  31.039  1.00  0.00    -0.200 F 
ATOM     94  C   UNL A   1      49.764  25.939  32.897  1.00  0.00     0.200 A 
ATOM     95  F   UNL A   1      48.738  24.575  34.485  1.00  0.00    -0.200 F 
ATOM     96  F   UNL A   1      50.979  25.609  33.323  1.00  0.00    -0.200 F 
ENDBRANCH  63  86
ENDBRANCH  37  38
ENDBRANCH  29  32
ENDBRANCH  27  28
ENDBRANCH   1  27
TORSDOF 12
ENDMDL
MODEL 3
REMARK VINA RESULT:     -13.3      3.470      8.786
REMARK SMILES O=C(NCCCNC(=O)c1ccc(-c2c3nc(c(-c4c(F)c(F)c(F)c(F)c4F)c4ccc([nH]4)c(-c4c(F)c(F)c(F)c(F)c4F)c4nc(c(-c5c(F)c(F)c(F)c(F)c5F)c5ccc2[nH]5)C=C4)C=C3)cc1)C1=Cc2cc(S(F)(F)(F)(F)F)ccc2O[C@H]1C(F)(F)F
REMARK SMILES IDX 5 1 4 2 3 3 1 4 2 5 73 7 74 8 88 9 75 10 87 11 76 12 86 13
REMARK SMILES IDX 77 14 85 15 84 16 89 17 90 18 91 19 92 20 78 21 79 22 80 23
REMARK SMILES IDX 81 24 82 25 83 26 6 27 7 28 8 29 9 31 10 32 11 33 72 34
REMARK SMILES IDX 12 35 71 36 13 37 14 38 15 39 65 40 16 41 70 42 64 43 66 44
REMARK SMILES IDX 17 45 69 46 63 47 62 48 18 50 50 51 30 52 49 53 31 54 34 55
REMARK SMILES IDX 48 56 67 57 32 58 33 59 47 61 68 62 35 63 19 64 20 65 28 66
REMARK SMILES IDX 21 67 22 68 26 69 29 70 23 71 24 72 27 73 25 74 51 75 52 76
REMARK SMILES IDX 60 77 53 78 54 79 58 80 61 81 55 82 56 83 59 84 57 85 36 86
REMARK SMILES IDX 37 87 45 88 38 89 39 90 43 91 46 92 40 93 41 94 44 95 42 96
REMARK H PARENT 3 6 7 30 66 49 34 60
REMARK Flexibility Score: inf
ROOT
ATOM      1  C   UNL A   1      35.554  23.571  26.012  1.00  0.00     0.042 C 
ENDROOT
BRANCH   1   2
ATOM      2  C   UNL A   1      34.493  24.395  25.302  1.00  0.00     0.118 C 
BRANCH   2   3
ATOM      3  N   UNL A   1      34.712  24.329  23.850  1.00  0.00    -0.352 N 
ATOM      4  O   UNL A   1      33.757  24.125  21.684  1.00  0.00    -0.270 OA
ATOM      5  C   UNL A   1      33.568  24.182  22.940  1.00  0.00     0.251 C 
ATOM      6  H   UNL A   1      35.626  24.383  23.487  1.00  0.00     0.163 HD
BRANCH   5   7
ATOM      7  C   UNL A   1      32.157  24.098  23.500  1.00  0.00     0.067 C 
ATOM      8  C   UNL A   1      31.511  25.230  23.888  1.00  0.00     0.025 C 
ATOM      9  C   UNL A   1      31.468  22.749  23.625  1.00  0.00     0.314 C 
ATOM     10  C   UNL A   1      32.200  26.579  23.762  1.00  0.00     0.019 A 
ATOM     11  O   UNL A   1      32.990  25.991  21.599  1.00  0.00    -0.475 OA
ATOM     12  C   UNL A   1      32.189  27.398  24.880  1.00  0.00     0.036 A 
ATOM     13  C   UNL A   1      32.866  26.921  22.665  1.00  0.00     0.128 A 
ATOM     14  C   UNL A   1      32.678  28.704  24.639  1.00  0.00     0.107 A 
ATOM     15  C   UNL A   1      33.435  28.166  22.551  1.00  0.00     0.048 A 
ATOM     16  C   UNL A   1      33.411  29.049  23.595  1.00  0.00     0.028 A 
BRANCH   9  17
ATOM     17  C   UNL A   1      32.400  21.656  23.126  1.00  0.00     0.429 C 
ATOM     18  F   UNL A   1      32.527  21.751  21.806  1.00  0.00    -0.167 F 
ATOM     19  F   UNL A   1      33.592  21.795  23.698  1.00  0.00    -0.167 F 
ATOM     20  F   UNL A   1      31.895  20.466  23.439  1.00  0.00    -0.167 F 
ENDBRANCH   9  17
BRANCH  14  21
ATOM     21  S   UNL A   1      32.271  29.991  25.845  1.00  0.00     0.310 S 
ATOM     22  F   UNL A   1      31.516  28.956  26.780  1.00  0.00    -0.094 F 
ATOM     23  F   UNL A   1      30.898  30.222  25.108  1.00  0.00    -0.094 F 
ATOM     24  F   UNL A   1      31.928  31.091  26.888  1.00  0.00    -0.094 F 
ATOM     25  F   UNL A   1      33.586  29.648  26.650  1.00  0.00    -0.094 F 
ATOM     26  F   UNL A   1      32.581  28.794  24.859  1.00  0.00    -0.094 F 
ENDBRANCH  14  21
ENDBRANCH   5   7
ENDBRANCH   2   3
ENDBRANCH   1   2
BRANCH   1  27
ATOM     27  C   UNL A   1      36.933  24.096  25.646  1.00  0.00     0.118 C 
BRANCH  27  28
ATOM     28  N   UNL A   1      37.878  22.973  25.564  1.00  0.00    -0.352 N 
ATOM     29  C   UNL A   1      39.200  23.077  26.198  1.00  0.00     0.251 C 
ATOM     30  H   UNL A   1      37.626  22.151  25.084  1.00  0.00     0.163 HD
ATOM     31  O   UNL A   1      40.018  22.107  26.127  1.00  0.00    -0.269 OA
BRANCH  29  32
ATOM     32  C   UNL A   1      39.590  24.346  26.940  1.00  0.00     0.039 A 
ATOM     33  C   UNL A   1      39.269  24.468  28.282  1.00  0.00     0.014 A 
ATOM     34  C   UNL A   1      40.223  25.315  26.292  1.00  0.00     0.014 A 
ATOM     35  C   UNL A   1      39.405  25.783  28.786  1.00  0.00     0.010 A 
ATOM     36  C   UNL A   1      40.443  26.532  26.893  1.00  0.00     0.010 A 
ATOM     37  C   UNL A   1      40.098  26.742  28.200  1.00  0.00    -0.014 A 
BRANCH  37  38
ATOM     38  C   UNL A   1      40.491  28.012  28.936  1.00  0.00     0.031 A 
ATOM     39  C   UNL A   1      39.544  29.020  29.116  1.00  0.00     0.074 A 
ATOM     40  C   UNL A   1      41.791  28.078  29.408  1.00  0.00     0.049 A 
ATOM     41  N   UNL A   1      39.694  30.171  29.774  1.00  0.00    -0.248 NA
ATOM     42  C   UNL A   1      38.173  28.967  28.586  1.00  0.00     0.031 C 
ATOM     43  C   UNL A   1      42.750  27.060  29.239  1.00  0.00     0.029 A 
ATOM     44  N   UNL A   1      42.385  29.106  30.106  1.00  0.00    -0.354 N 
ATOM     45  C   UNL A   1      38.558  30.871  29.745  1.00  0.00     0.074 A 
ATOM     46  C   UNL A   1      37.565  30.110  28.975  1.00  0.00     0.031 C 
ATOM     47  C   UNL A   1      43.909  27.474  29.817  1.00  0.00     0.029 A 
ATOM     48  C   UNL A   1      43.694  28.755  30.358  1.00  0.00     0.049 A 
ATOM     49  H   UNL A   1      41.950  29.946  30.379  1.00  0.00     0.167 HD
ATOM     50  C   UNL A   1      38.311  32.113  30.332  1.00  0.00     0.037 A 
ATOM     51  C   UNL A   1      44.660  29.499  31.016  1.00  0.00     0.037 A 
ATOM     52  C   UNL A   1      39.266  32.838  31.029  1.00  0.00     0.049 A 
ATOM     53  C   UNL A   1      44.429  30.769  31.554  1.00  0.00     0.074 A 
ATOM     54  C   UNL A   1      39.031  34.087  31.632  1.00  0.00     0.029 A 
ATOM     55  N   UNL A   1      40.580  32.498  31.258  1.00  0.00    -0.354 N 
ATOM     56  N   UNL A   1      43.283  31.450  31.559  1.00  0.00    -0.248 NA
ATOM     57  C   UNL A   1      45.453  31.579  32.225  1.00  0.00     0.031 C 
ATOM     58  C   UNL A   1      40.190  34.501  32.211  1.00  0.00     0.029 A 
ATOM     59  C   UNL A   1      41.168  33.516  31.976  1.00  0.00     0.049 A 
ATOM     60  H   UNL A   1      41.024  31.671  30.959  1.00  0.00     0.167 HD
ATOM     61  C   UNL A   1      43.446  32.619  32.182  1.00  0.00     0.074 A 
ATOM     62  C   UNL A   1      44.847  32.722  32.612  1.00  0.00     0.031 C 
ATOM     63  C   UNL A   1      42.482  33.602  32.411  1.00  0.00     0.037 A 
BRANCH  50  64
ATOM     64  C   UNL A   1      36.917  32.704  30.200  1.00  0.00     0.064 A 
ATOM     65  C   UNL A   1      36.580  33.455  29.086  1.00  0.00     0.173 A 
ATOM     66  C   UNL A   1      36.027  32.447  31.153  1.00  0.00     0.173 A 
ATOM     67  F   UNL A   1      37.345  33.526  28.002  1.00  0.00    -0.203 F 
ATOM     68  C   UNL A   1      35.346  34.138  29.207  1.00  0.00     0.198 A 
ATOM     69  C   UNL A   1      34.790  33.045  31.135  1.00  0.00     0.198 A 
ATOM     70  F   UNL A   1      36.337  31.601  32.132  1.00  0.00    -0.203 F 
ATOM     71  F   UNL A   1      35.112  35.144  28.369  1.00  0.00    -0.200 F 
ATOM     72  C   UNL A   1      34.412  33.845  30.094  1.00  0.00     0.200 A 
ATOM     73  F   UNL A   1      33.950  32.841  32.145  1.00  0.00    -0.200 F 
ATOM     74  F   UNL A   1      33.170  34.305  29.980  1.00  0.00    -0.200 F 
ENDBRANCH  50  64
BRANCH  51  75
ATOM     75  C   UNL A   1      46.049  28.901  31.163  1.00  0.00     0.064 A 
ATOM     76  C   UNL A   1      47.012  29.131  30.193  1.00  0.00     0.173 A 
ATOM     77  C   UNL A   1      46.299  28.123  32.209  1.00  0.00     0.173 A 
ATOM     78  F   UNL A   1      46.901  30.087  29.275  1.00  0.00    -0.203 F 
ATOM     79  C   UNL A   1      48.122  28.258  30.269  1.00  0.00     0.198 A 
ATOM     80  C   UNL A   1      47.466  27.401  32.283  1.00  0.00     0.198 A 
ATOM     81  F   UNL A   1      45.411  28.041  33.196  1.00  0.00    -0.203 F 
ATOM     82  F   UNL A   1      48.904  28.157  29.198  1.00  0.00    -0.200 F 
ATOM     83  C   UNL A   1      48.436  27.535  31.329  1.00  0.00     0.200 A 
ATOM     84  F   UNL A   1      47.654  26.561  33.295  1.00  0.00    -0.200 F 
ATOM     85  F   UNL A   1      49.632  26.968  31.460  1.00  0.00    -0.200 F 
ENDBRANCH  51  75
BRANCH  63  86
ATOM     86  C   UNL A   1      42.898  34.843  33.184  1.00  0.00     0.064 A 
ATOM     87  C   UNL A   1      42.832  34.828  34.567  1.00  0.00     0.173 A 
ATOM     88  C   UNL A   1      43.314  35.918  32.526  1.00  0.00     0.173 A 
ATOM     89  F   UNL A   1      42.669  33.714  35.275  1.00  0.00    -0.203 F 
ATOM     90  C   UNL A   1      42.952  36.108  35.160  1.00  0.00     0.198 A 
ATOM     91  C   UNL A   1      43.542  37.099  33.189  1.00  0.00     0.198 A 
ATOM     92  F   UNL A   1      43.510  35.851  31.212  1.00  0.00    -0.203 F 
ATOM     93  F   UNL A   1      42.547  36.247  36.419  1.00  0.00    -0.200 F 
ATOM     94  C   UNL A   1      43.438  37.173  34.550  1.00  0.00     0.200 A 
ATOM     95  F   UNL A   1      43.871  38.186  32.496  1.00  0.00    -0.200 F 
ATOM     96  F   UNL A   1      43.804  38.260  35.222  1.00  0.00    -0.200 F 
ENDBRANCH  63  86
ENDBRANCH  37  38
ENDBRANCH  29  32
ENDBRANCH  27  28
ENDBRANCH   1  27
TORSDOF 12
ENDMDL
