MODEL 1
REMARK VINA RESULT:     -12.3      0.000      0.000
REMARK SMILES O=C(CCCN1C(=O)/C(=C\c2ccc(O)c(O)c2)SC1=S)NCCCNC(=O)c1ccc(-c2c3nc(c(-c4c(F)c(F)c(F)c(F)c4F)c4ccc([nH]4)c(-c4c(F)c(F)c(F)c(F)c4F)c4nc(c(-c5c(F)c(F)c(F)c(F)c5F)c5ccc2[nH]5)C=C4)C=C3)cc1
REMARK SMILES IDX 1 1 2 2 22 3 3 5 4 6 5 7 6 8 7 9 20 10 8 11 9 12 19 13 21 14
REMARK SMILES IDX 10 15 11 16 12 17 18 18 13 19 16 20 14 21 17 22 15 24 23 26
REMARK SMILES IDX 24 27 25 28 26 29 27 30 28 32 29 33 30 34 91 35 31 36 90 37
REMARK SMILES IDX 32 38 33 39 34 40 84 41 35 42 89 43 83 44 85 45 36 46 88 47
REMARK SMILES IDX 82 48 81 49 37 51 69 52 49 53 68 54 50 55 53 56 67 57 86 58
REMARK SMILES IDX 51 59 52 60 66 62 87 63 54 64 38 65 39 66 47 67 40 68 41 69
REMARK SMILES IDX 45 70 48 71 42 72 43 73 46 74 44 75 70 76 71 77 79 78 72 79
REMARK SMILES IDX 73 80 77 81 80 82 74 83 75 84 78 85 76 86 55 87 56 88 64 89
REMARK SMILES IDX 57 90 58 91 62 92 65 93 59 94 60 95 63 96 61 97
REMARK H PARENT 22 4 17 23 15 25 26 31 85 50 53 61
REMARK Flexibility Score: inf
ROOT
ATOM      1  O   UNL A   1      36.861  22.675  23.542  1.00  0.00    -0.275 OA
ATOM      2  C   UNL A   1      36.844  22.539  24.762  1.00  0.00     0.220 C 
ATOM      3  N   UNL A   1      36.925  21.318  25.389  1.00  0.00    -0.356 N 
ATOM      4  H   UNL A   1      36.930  21.277  26.372  1.00  0.00     0.163 HD
ENDROOT
BRANCH   2   5
ATOM      5  C   UNL A   1      36.761  23.736  25.685  1.00  0.00     0.102 C 
BRANCH   5   6
ATOM      6  C   UNL A   1      35.375  24.372  25.748  1.00  0.00     0.032 C 
BRANCH   6   7
ATOM      7  C   UNL A   1      34.232  23.479  26.245  1.00  0.00     0.128 C 
BRANCH   7   8
ATOM      8  N   UNL A   1      33.386  22.831  25.227  1.00  0.00    -0.293 N 
ATOM      9  C   UNL A   1      33.335  21.449  25.229  1.00  0.00     0.266 C 
ATOM     10  C   UNL A   1      32.737  23.454  24.184  1.00  0.00     0.148 C 
ATOM     11  O   UNL A   1      33.855  20.774  26.112  1.00  0.00    -0.268 OA
ATOM     12  C   UNL A   1      32.547  20.916  24.068  1.00  0.00     0.081 C 
ATOM     13  S   UNL A   1      31.877  22.262  23.213  1.00  0.00    -0.054 SA
ATOM     14  S   UNL A   1      32.708  25.075  23.802  1.00  0.00    -0.052 S 
ATOM     15  C   UNL A   1      32.368  19.648  23.642  1.00  0.00     0.029 C 
BRANCH  15  16
ATOM     16  C   UNL A   1      32.966  18.435  24.224  1.00  0.00    -0.020 A 
ATOM     17  C   UNL A   1      34.226  18.010  23.809  1.00  0.00     0.012 A 
ATOM     18  C   UNL A   1      32.279  17.652  25.163  1.00  0.00     0.058 A 
ATOM     19  C   UNL A   1      34.677  16.728  24.101  1.00  0.00     0.051 A 
ATOM     20  C   UNL A   1      32.816  16.429  25.565  1.00  0.00     0.157 A 
ATOM     21  C   UNL A   1      33.994  15.951  25.009  1.00  0.00     0.157 A 
BRANCH  20  22
ATOM     22  O   UNL A   1      32.158  15.664  26.484  1.00  0.00    -0.504 OA
ATOM     23  H   UNL A   1      31.768  14.853  26.224  1.00  0.00     0.293 HD
ENDBRANCH  20  22
BRANCH  21  24
ATOM     24  O   UNL A   1      34.453  14.720  25.376  1.00  0.00    -0.504 OA
ATOM     25  H   UNL A   1      35.374  14.572  25.469  1.00  0.00     0.293 HD
ENDBRANCH  21  24
ENDBRANCH  15  16
ENDBRANCH   7   8
ENDBRANCH   6   7
ENDBRANCH   5   6
ENDBRANCH   2   5
BRANCH   3  26
ATOM     26  C   UNL A   1      37.005  20.084  24.625  1.00  0.00     0.117 C 
BRANCH  26  27
ATOM     27  C   UNL A   1      38.167  19.193  25.060  1.00  0.00     0.042 C 
BRANCH  27  28
ATOM     28  C   UNL A   1      39.318  19.937  25.729  1.00  0.00     0.118 C 
BRANCH  28  29
ATOM     29  N   UNL A   1      40.488  19.101  25.934  1.00  0.00    -0.352 N 
ATOM     30  C   UNL A   1      41.787  19.370  26.269  1.00  0.00     0.251 C 
ATOM     31  H   UNL A   1      40.309  18.141  25.802  1.00  0.00     0.163 HD
ATOM     32  O   UNL A   1      42.554  18.407  26.335  1.00  0.00    -0.269 OA
BRANCH  30  33
ATOM     33  C   UNL A   1      42.313  20.717  26.643  1.00  0.00     0.039 A 
ATOM     34  C   UNL A   1      42.923  21.457  25.616  1.00  0.00     0.014 A 
ATOM     35  C   UNL A   1      42.374  21.219  27.947  1.00  0.00     0.014 A 
ATOM     36  C   UNL A   1      43.544  22.679  25.881  1.00  0.00     0.010 A 
ATOM     37  C   UNL A   1      42.972  22.450  28.217  1.00  0.00     0.010 A 
ATOM     38  C   UNL A   1      43.540  23.196  27.182  1.00  0.00    -0.014 A 
BRANCH  38  39
ATOM     39  C   UNL A   1      43.918  24.600  27.433  1.00  0.00     0.031 A 
ATOM     40  C   UNL A   1      45.340  25.062  27.411  1.00  0.00     0.074 A 
ATOM     41  C   UNL A   1      42.921  25.430  27.791  1.00  0.00     0.049 A 
ATOM     42  N   UNL A   1      45.809  26.271  27.592  1.00  0.00    -0.248 NA
ATOM     43  C   UNL A   1      46.371  24.041  27.180  1.00  0.00     0.031 C 
ATOM     44  C   UNL A   1      41.517  25.032  27.934  1.00  0.00     0.029 A 
ATOM     45  N   UNL A   1      42.926  26.757  28.119  1.00  0.00    -0.354 N 
ATOM     46  C   UNL A   1      47.188  26.163  27.481  1.00  0.00     0.074 A 
ATOM     47  C   UNL A   1      47.483  24.760  27.268  1.00  0.00     0.031 C 
ATOM     48  C   UNL A   1      40.794  26.094  28.311  1.00  0.00     0.029 A 
ATOM     49  C   UNL A   1      41.684  27.239  28.450  1.00  0.00     0.049 A 
ATOM     50  H   UNL A   1      43.740  27.312  28.119  1.00  0.00     0.167 HD
ATOM     51  C   UNL A   1      48.109  27.157  27.538  1.00  0.00     0.037 A 
ATOM     52  C   UNL A   1      41.306  28.474  28.818  1.00  0.00     0.037 A 
ATOM     53  C   UNL A   1      47.782  28.543  27.784  1.00  0.00     0.049 A 
ATOM     54  C   UNL A   1      42.344  29.556  28.849  1.00  0.00     0.074 A 
ATOM     55  C   UNL A   1      48.622  29.643  27.805  1.00  0.00     0.029 A 
ATOM     56  N   UNL A   1      46.506  29.016  28.072  1.00  0.00    -0.354 N 
ATOM     57  N   UNL A   1      43.632  29.472  28.623  1.00  0.00    -0.248 NA
ATOM     58  C   UNL A   1      41.870  30.910  29.155  1.00  0.00     0.031 C 
ATOM     59  C   UNL A   1      47.867  30.767  28.162  1.00  0.00     0.029 A 
ATOM     60  C   UNL A   1      46.542  30.384  28.295  1.00  0.00     0.049 A 
ATOM     61  H   UNL A   1      45.695  28.459  28.111  1.00  0.00     0.167 HD
ATOM     62  C   UNL A   1      44.122  30.765  28.725  1.00  0.00     0.074 A 
ATOM     63  C   UNL A   1      42.983  31.615  29.013  1.00  0.00     0.031 C 
ATOM     64  C   UNL A   1      45.397  31.210  28.592  1.00  0.00     0.037 A 
BRANCH  51  65
ATOM     65  C   UNL A   1      49.554  26.791  27.332  1.00  0.00     0.064 A 
ATOM     66  C   UNL A   1      50.409  26.534  28.416  1.00  0.00     0.173 A 
ATOM     67  C   UNL A   1      50.078  26.629  26.039  1.00  0.00     0.173 A 
ATOM     68  F   UNL A   1      49.964  26.671  29.674  1.00  0.00    -0.203 F 
ATOM     69  C   UNL A   1      51.735  26.156  28.215  1.00  0.00     0.198 A 
ATOM     70  C   UNL A   1      51.397  26.220  25.842  1.00  0.00     0.198 A 
ATOM     71  F   UNL A   1      49.307  26.848  24.963  1.00  0.00    -0.203 F 
ATOM     72  F   UNL A   1      52.540  25.953  29.268  1.00  0.00    -0.200 F 
ATOM     73  C   UNL A   1      52.225  25.990  26.929  1.00  0.00     0.200 A 
ATOM     74  F   UNL A   1      51.862  26.041  24.598  1.00  0.00    -0.200 F 
ATOM     75  F   UNL A   1      53.497  25.610  26.737  1.00  0.00    -0.200 F 
ENDBRANCH  51  65
BRANCH  52  76
ATOM     76  C   UNL A   1      39.876  28.747  29.107  1.00  0.00     0.064 A 
ATOM     77  C   UNL A   1      39.370  28.621  30.407  1.00  0.00     0.173 A 
ATOM     78  C   UNL A   1      38.999  29.181  28.103  1.00  0.00     0.173 A 
ATOM     79  F   UNL A   1      40.171  28.207  31.400  1.00  0.00    -0.203 F 
ATOM     80  C   UNL A   1      38.033  28.891  30.688  1.00  0.00     0.198 A 
ATOM     81  C   UNL A   1      37.669  29.481  28.391  1.00  0.00     0.198 A 
ATOM     82  F   UNL A   1      39.440  29.341  26.846  1.00  0.00    -0.203 F 
ATOM     83  F   UNL A   1      37.566  28.721  31.933  1.00  0.00    -0.200 F 
ATOM     84  C   UNL A   1      37.185  29.327  29.682  1.00  0.00     0.200 A 
ATOM     85  F   UNL A   1      36.860  29.927  27.420  1.00  0.00    -0.200 F 
ATOM     86  F   UNL A   1      35.902  29.598  29.954  1.00  0.00    -0.200 F 
ENDBRANCH  52  76
BRANCH  64  87
ATOM     87  C   UNL A   1      45.605  32.693  28.724  1.00  0.00     0.064 A 
ATOM     88  C   UNL A   1      45.867  33.295  29.964  1.00  0.00     0.173 A 
ATOM     89  C   UNL A   1      45.521  33.521  27.596  1.00  0.00     0.173 A 
ATOM     90  F   UNL A   1      45.940  32.550  31.077  1.00  0.00    -0.203 F 
ATOM     91  C   UNL A   1      45.985  34.679  30.076  1.00  0.00     0.198 A 
ATOM     92  C   UNL A   1      45.679  34.900  27.706  1.00  0.00     0.198 A 
ATOM     93  F   UNL A   1      45.279  32.996  26.386  1.00  0.00    -0.203 F 
ATOM     94  F   UNL A   1      46.154  35.238  31.282  1.00  0.00    -0.200 F 
ATOM     95  C   UNL A   1      45.895  35.478  28.947  1.00  0.00     0.200 A 
ATOM     96  F   UNL A   1      45.607  35.670  26.611  1.00  0.00    -0.200 F 
ATOM     97  F   UNL A   1      46.002  36.809  29.058  1.00  0.00    -0.200 F 
ENDBRANCH  64  87
ENDBRANCH  38  39
ENDBRANCH  30  33
ENDBRANCH  28  29
ENDBRANCH  27  28
ENDBRANCH  26  27
ENDBRANCH   3  26
TORSDOF 16
ENDMDL
MODEL 2
REMARK VINA RESULT:     -12.2      0.681      7.180
REMARK SMILES O=C(CCCN1C(=O)/C(=C\c2ccc(O)c(O)c2)SC1=S)NCCCNC(=O)c1ccc(-c2c3nc(c(-c4c(F)c(F)c(F)c(F)c4F)c4ccc([nH]4)c(-c4c(F)c(F)c(F)c(F)c4F)c4nc(c(-c5c(F)c(F)c(F)c(F)c5F)c5ccc2[nH]5)C=C4)C=C3)cc1
REMARK SMILES IDX 1 1 2 2 22 3 3 5 4 6 5 7 6 8 7 9 20 10 8 11 9 12 19 13 21 14
REMARK SMILES IDX 10 15 11 16 12 17 18 18 13 19 16 20 14 21 17 22 15 24 23 26
REMARK SMILES IDX 24 27 25 28 26 29 27 30 28 32 29 33 30 34 91 35 31 36 90 37
REMARK SMILES IDX 32 38 33 39 34 40 84 41 35 42 89 43 83 44 85 45 36 46 88 47
REMARK SMILES IDX 82 48 81 49 37 51 69 52 49 53 68 54 50 55 53 56 67 57 86 58
REMARK SMILES IDX 51 59 52 60 66 62 87 63 54 64 38 65 39 66 47 67 40 68 41 69
REMARK SMILES IDX 45 70 48 71 42 72 43 73 46 74 44 75 70 76 71 77 79 78 72 79
REMARK SMILES IDX 73 80 77 81 80 82 74 83 75 84 78 85 76 86 55 87 56 88 64 89
REMARK SMILES IDX 57 90 58 91 62 92 65 93 59 94 60 95 63 96 61 97
REMARK H PARENT 22 4 17 23 15 25 26 31 85 50 53 61
REMARK Flexibility Score: inf
ROOT
ATOM      1  O   UNL A   1      36.780  22.464  23.556  1.00  0.00    -0.275 OA
ATOM      2  C   UNL A   1      36.802  22.324  24.775  1.00  0.00     0.220 C 
ATOM      3  N   UNL A   1      36.901  21.101  25.396  1.00  0.00    -0.356 N 
ATOM      4  H   UNL A   1      36.937  21.057  26.378  1.00  0.00     0.163 HD
ENDROOT
BRANCH   2   5
ATOM      5  C   UNL A   1      36.752  23.518  25.704  1.00  0.00     0.102 C 
BRANCH   5   6
ATOM      6  C   UNL A   1      35.415  24.254  25.691  1.00  0.00     0.032 C 
BRANCH   6   7
ATOM      7  C   UNL A   1      34.194  23.468  26.184  1.00  0.00     0.128 C 
BRANCH   7   8
ATOM      8  N   UNL A   1      33.354  22.813  25.167  1.00  0.00    -0.293 N 
ATOM      9  C   UNL A   1      33.305  21.431  25.177  1.00  0.00     0.266 C 
ATOM     10  C   UNL A   1      32.709  23.428  24.117  1.00  0.00     0.148 C 
ATOM     11  O   UNL A   1      33.823  20.762  26.066  1.00  0.00    -0.268 OA
ATOM     12  C   UNL A   1      32.524  20.889  24.015  1.00  0.00     0.081 C 
ATOM     13  S   UNL A   1      31.855  22.229  23.149  1.00  0.00    -0.054 SA
ATOM     14  S   UNL A   1      32.678  25.047  23.725  1.00  0.00    -0.052 S 
ATOM     15  C   UNL A   1      32.350  19.618  23.597  1.00  0.00     0.029 C 
BRANCH  15  16
ATOM     16  C   UNL A   1      32.948  18.410  24.188  1.00  0.00    -0.020 A 
ATOM     17  C   UNL A   1      34.198  17.969  23.762  1.00  0.00     0.012 A 
ATOM     18  C   UNL A   1      32.269  17.646  25.148  1.00  0.00     0.058 A 
ATOM     19  C   UNL A   1      34.644  16.689  24.067  1.00  0.00     0.051 A 
ATOM     20  C   UNL A   1      32.803  16.426  25.561  1.00  0.00     0.157 A 
ATOM     21  C   UNL A   1      33.969  15.931  24.996  1.00  0.00     0.157 A 
BRANCH  20  22
ATOM     22  O   UNL A   1      32.152  15.680  26.501  1.00  0.00    -0.504 OA
ATOM     23  H   UNL A   1      31.953  16.051  27.338  1.00  0.00     0.293 HD
ENDBRANCH  20  22
BRANCH  21  24
ATOM     24  O   UNL A   1      34.425  14.702  25.375  1.00  0.00    -0.504 OA
ATOM     25  H   UNL A   1      34.781  14.580  26.233  1.00  0.00     0.293 HD
ENDBRANCH  21  24
ENDBRANCH  15  16
ENDBRANCH   7   8
ENDBRANCH   6   7
ENDBRANCH   5   6
ENDBRANCH   2   5
BRANCH   3  26
ATOM     26  C   UNL A   1      36.953  19.869  24.626  1.00  0.00     0.117 C 
BRANCH  26  27
ATOM     27  C   UNL A   1      38.142  18.988  25.001  1.00  0.00     0.042 C 
BRANCH  27  28
ATOM     28  C   UNL A   1      39.251  19.710  25.758  1.00  0.00     0.118 C 
BRANCH  28  29
ATOM     29  N   UNL A   1      40.467  18.922  25.865  1.00  0.00    -0.352 N 
ATOM     30  C   UNL A   1      41.775  19.243  26.108  1.00  0.00     0.251 C 
ATOM     31  H   UNL A   1      40.319  17.957  25.737  1.00  0.00     0.163 HD
ATOM     32  O   UNL A   1      42.584  18.313  26.106  1.00  0.00    -0.269 OA
BRANCH  30  33
ATOM     33  C   UNL A   1      42.271  20.609  26.458  1.00  0.00     0.039 A 
ATOM     34  C   UNL A   1      42.631  21.438  25.381  1.00  0.00     0.014 A 
ATOM     35  C   UNL A   1      42.537  21.055  27.755  1.00  0.00     0.014 A 
ATOM     36  C   UNL A   1      43.208  22.690  25.600  1.00  0.00     0.010 A 
ATOM     37  C   UNL A   1      43.092  22.315  27.984  1.00  0.00     0.010 A 
ATOM     38  C   UNL A   1      43.410  23.147  26.908  1.00  0.00    -0.014 A 
BRANCH  38  39
ATOM     39  C   UNL A   1      43.734  24.563  27.167  1.00  0.00     0.031 A 
ATOM     40  C   UNL A   1      42.705  25.550  27.617  1.00  0.00     0.074 A 
ATOM     41  C   UNL A   1      44.989  24.950  26.871  1.00  0.00     0.049 A 
ATOM     42  N   UNL A   1      42.859  26.818  27.903  1.00  0.00    -0.248 NA
ATOM     43  C   UNL A   1      41.324  25.064  27.744  1.00  0.00     0.031 C 
ATOM     44  C   UNL A   1      46.027  24.067  26.330  1.00  0.00     0.029 A 
ATOM     45  N   UNL A   1      45.600  26.169  26.958  1.00  0.00    -0.354 N 
ATOM     46  C   UNL A   1      41.601  27.282  28.260  1.00  0.00     0.074 A 
ATOM     47  C   UNL A   1      40.684  26.170  28.104  1.00  0.00     0.031 C 
ATOM     48  C   UNL A   1      47.150  24.771  26.144  1.00  0.00     0.029 A 
ATOM     49  C   UNL A   1      46.905  26.153  26.535  1.00  0.00     0.049 A 
ATOM     50  H   UNL A   1      45.149  26.979  27.291  1.00  0.00     0.167 HD
ATOM     51  C   UNL A   1      41.261  28.523  28.690  1.00  0.00     0.037 A 
ATOM     52  C   UNL A   1      47.809  27.146  26.480  1.00  0.00     0.037 A 
ATOM     53  C   UNL A   1      42.197  29.618  28.803  1.00  0.00     0.049 A 
ATOM     54  C   UNL A   1      47.410  28.499  26.985  1.00  0.00     0.074 A 
ATOM     55  C   UNL A   1      41.980  30.899  29.283  1.00  0.00     0.029 A 
ATOM     56  N   UNL A   1      43.529  29.564  28.410  1.00  0.00    -0.354 N 
ATOM     57  N   UNL A   1      46.248  28.903  27.437  1.00  0.00    -0.248 NA
ATOM     58  C   UNL A   1      48.456  29.527  27.002  1.00  0.00     0.031 C 
ATOM     59  C   UNL A   1      43.162  31.633  29.126  1.00  0.00     0.029 A 
ATOM     60  C   UNL A   1      44.138  30.794  28.614  1.00  0.00     0.049 A 
ATOM     61  H   UNL A   1      43.976  28.768  28.042  1.00  0.00     0.167 HD
ATOM     62  C   UNL A   1      46.427  30.222  27.825  1.00  0.00     0.074 A 
ATOM     63  C   UNL A   1      47.819  30.540  27.572  1.00  0.00     0.031 C 
ATOM     64  C   UNL A   1      45.524  31.091  28.344  1.00  0.00     0.037 A 
BRANCH  51  65
ATOM     65  C   UNL A   1      39.826  28.767  29.073  1.00  0.00     0.064 A 
ATOM     66  C   UNL A   1      39.374  28.576  30.389  1.00  0.00     0.173 A 
ATOM     67  C   UNL A   1      38.905  29.260  28.135  1.00  0.00     0.173 A 
ATOM     68  F   UNL A   1      40.209  28.109  31.328  1.00  0.00    -0.203 F 
ATOM     69  C   UNL A   1      38.053  28.844  30.742  1.00  0.00     0.198 A 
ATOM     70  C   UNL A   1      37.593  29.556  28.500  1.00  0.00     0.198 A 
ATOM     71  F   UNL A   1      39.281  29.475  26.864  1.00  0.00    -0.203 F 
ATOM     72  F   UNL A   1      37.637  28.617  31.997  1.00  0.00    -0.200 F 
ATOM     73  C   UNL A   1      37.166  29.342  29.801  1.00  0.00     0.200 A 
ATOM     74  F   UNL A   1      36.743  30.056  27.592  1.00  0.00    -0.200 F 
ATOM     75  F   UNL A   1      35.900  29.614  30.147  1.00  0.00    -0.200 F 
ENDBRANCH  51  65
BRANCH  52  76
ATOM     76  C   UNL A   1      49.182  26.860  25.995  1.00  0.00     0.064 A 
ATOM     77  C   UNL A   1      50.165  26.377  26.869  1.00  0.00     0.173 A 
ATOM     78  C   UNL A   1      49.528  27.020  24.646  1.00  0.00     0.173 A 
ATOM     79  F   UNL A   1      49.882  26.211  28.169  1.00  0.00    -0.203 F 
ATOM     80  C   UNL A   1      51.452  26.092  26.418  1.00  0.00     0.198 A 
ATOM     81  C   UNL A   1      50.806  26.703  24.189  1.00  0.00     0.198 A 
ATOM     82  F   UNL A   1      48.615  27.455  23.764  1.00  0.00    -0.203 F 
ATOM     83  F   UNL A   1      52.384  25.672  27.284  1.00  0.00    -0.200 F 
ATOM     84  C   UNL A   1      51.769  26.248  25.077  1.00  0.00     0.200 A 
ATOM     85  F   UNL A   1      51.100  26.832  22.888  1.00  0.00    -0.200 F 
ATOM     86  F   UNL A   1      53.003  25.963  24.641  1.00  0.00    -0.200 F 
ENDBRANCH  52  76
BRANCH  64  87
ATOM     87  C   UNL A   1      46.040  32.458  28.702  1.00  0.00     0.064 A 
ATOM     88  C   UNL A   1      46.579  32.737  29.967  1.00  0.00     0.173 A 
ATOM     89  C   UNL A   1      45.973  33.504  27.770  1.00  0.00     0.173 A 
ATOM     90  F   UNL A   1      46.650  31.776  30.901  1.00  0.00    -0.203 F 
ATOM     91  C   UNL A   1      46.984  34.027  30.303  1.00  0.00     0.198 A 
ATOM     92  C   UNL A   1      46.415  34.783  28.096  1.00  0.00     0.198 A 
ATOM     93  F   UNL A   1      45.473  33.289  26.545  1.00  0.00    -0.203 F 
ATOM     94  F   UNL A   1      47.419  34.288  31.543  1.00  0.00    -0.200 F 
ATOM     95  C   UNL A   1      46.906  35.046  29.366  1.00  0.00     0.200 A 
ATOM     96  F   UNL A   1      46.354  35.763  27.185  1.00  0.00    -0.200 F 
ATOM     97  F   UNL A   1      47.289  36.288  29.693  1.00  0.00    -0.200 F 
ENDBRANCH  64  87
ENDBRANCH  38  39
ENDBRANCH  30  33
ENDBRANCH  28  29
ENDBRANCH  27  28
ENDBRANCH  26  27
ENDBRANCH   3  26
TORSDOF 16
ENDMDL
MODEL 3
REMARK VINA RESULT:     -12.1      4.671      9.408
REMARK SMILES O=C(CCCN1C(=O)/C(=C\c2ccc(O)c(O)c2)SC1=S)NCCCNC(=O)c1ccc(-c2c3nc(c(-c4c(F)c(F)c(F)c(F)c4F)c4ccc([nH]4)c(-c4c(F)c(F)c(F)c(F)c4F)c4nc(c(-c5c(F)c(F)c(F)c(F)c5F)c5ccc2[nH]5)C=C4)C=C3)cc1
REMARK SMILES IDX 1 1 2 2 22 3 3 5 4 6 5 7 6 8 7 9 20 10 8 11 9 12 19 13 21 14
REMARK SMILES IDX 10 15 11 16 12 17 18 18 13 19 16 20 14 21 17 22 15 24 23 26
REMARK SMILES IDX 24 27 25 28 26 29 27 30 28 32 29 33 30 34 91 35 31 36 90 37
REMARK SMILES IDX 32 38 33 39 34 40 84 41 35 42 89 43 83 44 85 45 36 46 88 47
REMARK SMILES IDX 82 48 81 49 37 51 69 52 49 53 68 54 50 55 53 56 67 57 86 58
REMARK SMILES IDX 51 59 52 60 66 62 87 63 54 64 38 65 39 66 47 67 40 68 41 69
REMARK SMILES IDX 45 70 48 71 42 72 43 73 46 74 44 75 70 76 71 77 79 78 72 79
REMARK SMILES IDX 73 80 77 81 80 82 74 83 75 84 78 85 76 86 55 87 56 88 64 89
REMARK SMILES IDX 57 90 58 91 62 92 65 93 59 94 60 95 63 96 61 97
REMARK H PARENT 22 4 17 23 15 25 26 31 85 50 53 61
REMARK Flexibility Score: inf
ROOT
ATOM      1  O   UNL A   1      38.327  24.139  26.798  1.00  0.00    -0.275 OA
ATOM      2  C   UNL A   1      38.137  23.196  26.035  1.00  0.00     0.220 C 
ATOM      3  N   UNL A   1      38.957  22.093  25.975  1.00  0.00    -0.356 N 
ATOM      4  H   UNL A   1      38.737  21.359  25.357  1.00  0.00     0.163 HD
ENDROOT
BRANCH   2   5
ATOM      5  C   UNL A   1      36.944  23.166  25.105  1.00  0.00     0.102 C 
BRANCH   5   6
ATOM      6  C   UNL A   1      35.847  24.161  25.476  1.00  0.00     0.032 C 
BRANCH   6   7
ATOM      7  C   UNL A   1      34.561  23.573  26.070  1.00  0.00     0.128 C 
BRANCH   7   8
ATOM      8  N   UNL A   1      33.623  22.918  25.142  1.00  0.00    -0.293 N 
ATOM      9  C   UNL A   1      33.546  21.538  25.185  1.00  0.00     0.266 C 
ATOM     10  C   UNL A   1      32.903  23.528  24.139  1.00  0.00     0.148 C 
ATOM     11  O   UNL A   1      34.123  20.874  26.040  1.00  0.00    -0.268 OA
ATOM     12  C   UNL A   1      32.656  20.993  24.105  1.00  0.00     0.081 C 
ATOM     13  S   UNL A   1      31.944  22.331  23.272  1.00  0.00    -0.054 SA
ATOM     14  S   UNL A   1      32.873  25.140  23.717  1.00  0.00    -0.052 S 
ATOM     15  C   UNL A   1      32.419  19.718  23.730  1.00  0.00     0.029 C 
BRANCH  15  16
ATOM     16  C   UNL A   1      33.040  18.509  24.293  1.00  0.00    -0.020 A 
ATOM     17  C   UNL A   1      34.328  18.142  23.911  1.00  0.00     0.012 A 
ATOM     18  C   UNL A   1      32.348  17.670  25.179  1.00  0.00     0.058 A 
ATOM     19  C   UNL A   1      34.814  16.868  24.178  1.00  0.00     0.051 A 
ATOM     20  C   UNL A   1      32.915  16.454  25.561  1.00  0.00     0.157 A 
ATOM     21  C   UNL A   1      34.128  16.036  25.033  1.00  0.00     0.157 A 
BRANCH  20  22
ATOM     22  O   UNL A   1      32.252  15.635  26.429  1.00  0.00    -0.504 OA
ATOM     23  H   UNL A   1      31.401  15.311  26.209  1.00  0.00     0.293 HD
ENDBRANCH  20  22
BRANCH  21  24
ATOM     24  O   UNL A   1      34.618  14.810  25.377  1.00  0.00    -0.504 OA
ATOM     25  H   UNL A   1      34.379  14.054  24.877  1.00  0.00     0.293 HD
ENDBRANCH  21  24
ENDBRANCH  15  16
ENDBRANCH   7   8
ENDBRANCH   6   7
ENDBRANCH   5   6
ENDBRANCH   2   5
BRANCH   3  26
ATOM     26  C   UNL A   1      40.142  21.990  26.810  1.00  0.00     0.117 C 
BRANCH  26  27
ATOM     27  C   UNL A   1      41.410  21.715  26.005  1.00  0.00     0.042 C 
BRANCH  27  28
ATOM     28  C   UNL A   1      42.670  22.360  26.569  1.00  0.00     0.118 C 
BRANCH  28  29
ATOM     29  N   UNL A   1      43.316  23.259  25.628  1.00  0.00    -0.352 N 
ATOM     30  C   UNL A   1      43.407  24.622  25.542  1.00  0.00     0.251 C 
ATOM     31  H   UNL A   1      43.786  22.789  24.901  1.00  0.00     0.163 HD
ATOM     32  O   UNL A   1      44.023  25.077  24.576  1.00  0.00    -0.269 OA
BRANCH  30  33
ATOM     33  C   UNL A   1      42.896  25.580  26.568  1.00  0.00     0.039 A 
ATOM     34  C   UNL A   1      41.729  25.200  27.253  1.00  0.00     0.014 A 
ATOM     35  C   UNL A   1      43.401  26.866  26.783  1.00  0.00     0.014 A 
ATOM     36  C   UNL A   1      41.108  26.068  28.152  1.00  0.00     0.010 A 
ATOM     37  C   UNL A   1      42.799  27.732  27.697  1.00  0.00     0.010 A 
ATOM     38  C   UNL A   1      41.663  27.329  28.402  1.00  0.00    -0.014 A 
BRANCH  38  39
ATOM     39  C   UNL A   1      41.206  28.136  29.550  1.00  0.00     0.031 A 
ATOM     40  C   UNL A   1      40.037  29.064  29.459  1.00  0.00     0.074 A 
ATOM     41  C   UNL A   1      41.965  28.077  30.660  1.00  0.00     0.049 A 
ATOM     42  N   UNL A   1      39.515  29.815  30.397  1.00  0.00    -0.248 NA
ATOM     43  C   UNL A   1      39.381  29.187  28.151  1.00  0.00     0.031 C 
ATOM     44  C   UNL A   1      43.182  27.270  30.794  1.00  0.00     0.029 A 
ATOM     45  N   UNL A   1      41.849  28.709  31.866  1.00  0.00    -0.354 N 
ATOM     46  C   UNL A   1      38.458  30.488  29.800  1.00  0.00     0.074 A 
ATOM     47  C   UNL A   1      38.446  30.095  28.405  1.00  0.00     0.031 C 
ATOM     48  C   UNL A   1      43.695  27.448  32.017  1.00  0.00     0.029 A 
ATOM     49  C   UNL A   1      42.854  28.389  32.744  1.00  0.00     0.049 A 
ATOM     50  H   UNL A   1      41.118  29.332  32.083  1.00  0.00     0.167 HD
ATOM     51  C   UNL A   1      37.579  31.341  30.382  1.00  0.00     0.037 A 
ATOM     52  C   UNL A   1      43.067  28.806  34.004  1.00  0.00     0.037 A 
ATOM     53  C   UNL A   1      37.641  31.736  31.770  1.00  0.00     0.049 A 
ATOM     54  C   UNL A   1      42.063  29.730  34.625  1.00  0.00     0.074 A 
ATOM     55  C   UNL A   1      36.772  32.545  32.483  1.00  0.00     0.029 A 
ATOM     56  N   UNL A   1      38.646  31.362  32.655  1.00  0.00    -0.354 N 
ATOM     57  N   UNL A   1      40.995  30.270  34.092  1.00  0.00    -0.248 NA
ATOM     58  C   UNL A   1      42.279  30.078  36.034  1.00  0.00     0.031 C 
ATOM     59  C   UNL A   1      37.281  32.706  33.776  1.00  0.00     0.029 A 
ATOM     60  C   UNL A   1      38.431  31.942  33.896  1.00  0.00     0.049 A 
ATOM     61  H   UNL A   1      39.400  30.770  32.433  1.00  0.00     0.167 HD
ATOM     62  C   UNL A   1      40.388  30.996  35.105  1.00  0.00     0.074 A 
ATOM     63  C   UNL A   1      41.202  30.807  36.291  1.00  0.00     0.031 C 
ATOM     64  C   UNL A   1      39.261  31.749  35.061  1.00  0.00     0.037 A 
BRANCH  51  65
ATOM     65  C   UNL A   1      36.476  31.906  29.527  1.00  0.00     0.064 A 
ATOM     66  C   UNL A   1      35.423  31.102  29.062  1.00  0.00     0.173 A 
ATOM     67  C   UNL A   1      36.432  33.276  29.223  1.00  0.00     0.173 A 
ATOM     68  F   UNL A   1      35.411  29.787  29.323  1.00  0.00    -0.203 F 
ATOM     69  C   UNL A   1      34.385  31.642  28.305  1.00  0.00     0.198 A 
ATOM     70  C   UNL A   1      35.375  33.818  28.492  1.00  0.00     0.198 A 
ATOM     71  F   UNL A   1      37.403  34.097  29.650  1.00  0.00    -0.203 F 
ATOM     72  F   UNL A   1      33.411  30.846  27.842  1.00  0.00    -0.200 F 
ATOM     73  C   UNL A   1      34.356  33.001  28.029  1.00  0.00     0.200 A 
ATOM     74  F   UNL A   1      35.341  35.134  28.243  1.00  0.00    -0.200 F 
ATOM     75  F   UNL A   1      33.349  33.521  27.314  1.00  0.00    -0.200 F 
ENDBRANCH  51  65
BRANCH  52  76
ATOM     76  C   UNL A   1      44.234  28.287  34.760  1.00  0.00     0.064 A 
ATOM     77  C   UNL A   1      44.151  27.080  35.466  1.00  0.00     0.173 A 
ATOM     78  C   UNL A   1      45.463  28.960  34.755  1.00  0.00     0.173 A 
ATOM     79  F   UNL A   1      42.995  26.402  35.501  1.00  0.00    -0.203 F 
ATOM     80  C   UNL A   1      45.248  26.580  36.165  1.00  0.00     0.198 A 
ATOM     81  C   UNL A   1      46.569  28.442  35.428  1.00  0.00     0.198 A 
ATOM     82  F   UNL A   1      45.601  30.107  34.073  1.00  0.00    -0.203 F 
ATOM     83  F   UNL A   1      45.129  25.445  36.867  1.00  0.00    -0.200 F 
ATOM     84  C   UNL A   1      46.457  27.257  36.139  1.00  0.00     0.200 A 
ATOM     85  F   UNL A   1      47.742  29.087  35.379  1.00  0.00    -0.200 F 
ATOM     86  F   UNL A   1      47.514  26.770  36.801  1.00  0.00    -0.200 F 
ENDBRANCH  52  76
BRANCH  64  87
ATOM     87  C   UNL A   1      38.833  32.391  36.352  1.00  0.00     0.064 A 
ATOM     88  C   UNL A   1      39.229  33.692  36.698  1.00  0.00     0.173 A 
ATOM     89  C   UNL A   1      38.034  31.683  37.262  1.00  0.00     0.173 A 
ATOM     90  F   UNL A   1      40.008  34.405  35.870  1.00  0.00    -0.203 F 
ATOM     91  C   UNL A   1      38.883  34.241  37.930  1.00  0.00     0.198 A 
ATOM     92  C   UNL A   1      37.657  32.250  38.476  1.00  0.00     0.198 A 
ATOM     93  F   UNL A   1      37.624  30.439  36.979  1.00  0.00    -0.203 F 
ATOM     94  F   UNL A   1      39.339  35.454  38.272  1.00  0.00    -0.200 F 
ATOM     95  C   UNL A   1      38.094  33.522  38.815  1.00  0.00     0.200 A 
ATOM     96  F   UNL A   1      36.883  31.560  39.324  1.00  0.00    -0.200 F 
ATOM     97  F   UNL A   1      37.768  34.049  40.003  1.00  0.00    -0.200 F 
ENDBRANCH  64  87
ENDBRANCH  38  39
ENDBRANCH  30  33
ENDBRANCH  28  29
ENDBRANCH  27  28
ENDBRANCH  26  27
ENDBRANCH   3  26
TORSDOF 16
ENDMDL
