MODEL 1
REMARK VINA RESULT:     -12.9      0.000      0.000
REMARK SMILES O=C(CN1C(=O)N/C(=C/c2cc3c(cc2Cl)OCO3)C1=O)NCCCNC(=O)c1ccc(-c2c3nc(c(-c4c(F)c(F)c(F)c(F)c4F)c4ccc([nH]4)c(-c4c(F)c(F)c(F)c(F)c4F)c4nc(c(-c5c(F)c(F)c(F)c(F)c5F)c5ccc2[nH]5)C=C4)C=C3)cc1
REMARK SMILES IDX 24 1 23 2 22 3 1 4 2 5 3 7 4 8 5 9 20 10 6 11 7 12 8 13
REMARK SMILES IDX 21 14 9 16 10 17 11 18 15 19 12 20 14 21 16 22 13 23 19 24
REMARK SMILES IDX 17 25 18 26 25 27 26 28 27 29 28 31 29 32 30 33 91 34 31 35
REMARK SMILES IDX 90 36 32 37 33 38 34 39 84 40 35 41 89 42 83 43 85 44 36 45
REMARK SMILES IDX 88 46 82 47 81 48 37 50 69 51 49 52 68 53 50 54 53 55 67 56
REMARK SMILES IDX 86 57 51 58 52 59 66 61 87 62 54 63 38 64 39 65 47 66 40 67
REMARK SMILES IDX 41 68 45 69 48 70 42 71 43 72 46 73 44 74 70 75 71 76 79 77
REMARK SMILES IDX 72 78 73 79 77 80 80 81 74 82 75 83 78 84 76 85 55 86 56 87
REMARK SMILES IDX 64 88 57 89 58 90 62 91 65 92 59 93 60 94 63 95 61 96
REMARK H PARENT 22 6 7 15 26 30 85 49 53 60
REMARK Flexibility Score: inf
ROOT
ATOM      1  C   UNL A   1      31.102  31.820  26.566  1.00  0.00     0.042 C 
ENDROOT
BRANCH   1   2
ATOM      2  C   UNL A   1      31.052  30.872  25.371  1.00  0.00     0.117 C 
BRANCH   2   3
ATOM      3  N   UNL A   1      32.235  30.043  25.284  1.00  0.00    -0.354 N 
ATOM      4  O   UNL A   1      31.484  28.255  26.510  1.00  0.00    -0.273 OA
ATOM      5  C   UNL A   1      32.354  28.776  25.818  1.00  0.00     0.240 C 
ATOM      6  H   UNL A   1      33.014  30.412  24.808  1.00  0.00     0.163 HD
BRANCH   5   7
ATOM      7  C   UNL A   1      33.724  28.122  25.584  1.00  0.00     0.230 C 
BRANCH   7   8
ATOM      8  N   UNL A   1      33.728  27.263  24.414  1.00  0.00    -0.249 N 
ATOM      9  C   UNL A   1      33.663  27.703  23.111  1.00  0.00     0.329 C 
ATOM     10  C   UNL A   1      33.678  25.898  24.465  1.00  0.00     0.278 C 
ATOM     11  O   UNL A   1      33.627  28.854  22.715  1.00  0.00    -0.248 OA
ATOM     12  N   UNL A   1      33.612  26.583  22.288  1.00  0.00    -0.303 N 
ATOM     13  C   UNL A   1      33.648  25.445  23.038  1.00  0.00     0.109 C 
ATOM     14  O   UNL A   1      33.682  25.204  25.470  1.00  0.00    -0.267 OA
ATOM     15  H   UNL A   1      33.558  26.609  21.305  1.00  0.00     0.172 HD
ATOM     16  C   UNL A   1      33.691  24.194  22.563  1.00  0.00     0.042 C 
BRANCH  16  17
ATOM     17  C   UNL A   1      33.889  23.030  23.442  1.00  0.00    -0.001 A 
ATOM     18  C   UNL A   1      32.739  22.299  23.787  1.00  0.00     0.060 A 
ATOM     19  C   UNL A   1      35.164  22.559  23.850  1.00  0.00     0.052 A 
ATOM     20  C   UNL A   1      32.905  21.108  24.459  1.00  0.00     0.166 A 
ATOM     21  C   UNL A   1      35.297  21.335  24.516  1.00  0.00     0.071 A 
ATOM     22  Cl  UNL A   1      36.608  23.458  23.526  1.00  0.00    -0.084 Cl
ATOM     23  C   UNL A   1      34.147  20.629  24.796  1.00  0.00     0.167 A 
ATOM     24  O   UNL A   1      31.904  20.271  24.839  1.00  0.00    -0.454 OA
ATOM     25  O   UNL A   1      34.086  19.422  25.415  1.00  0.00    -0.454 OA
ATOM     26  C   UNL A   1      32.662  19.180  25.408  1.00  0.00     0.468 C 
ENDBRANCH  16  17
ENDBRANCH   7   8
ENDBRANCH   5   7
ENDBRANCH   2   3
ENDBRANCH   1   2
BRANCH   1  27
ATOM     27  C   UNL A   1      32.476  32.423  26.861  1.00  0.00     0.118 C 
BRANCH  27  28
ATOM     28  N   UNL A   1      32.407  33.792  27.346  1.00  0.00    -0.352 N 
ATOM     29  C   UNL A   1      33.111  34.430  28.336  1.00  0.00     0.251 C 
ATOM     30  H   UNL A   1      31.742  34.356  26.888  1.00  0.00     0.163 HD
ATOM     31  O   UNL A   1      32.714  35.521  28.740  1.00  0.00    -0.269 OA
BRANCH  29  32
ATOM     32  C   UNL A   1      34.324  33.836  28.950  1.00  0.00     0.039 A 
ATOM     33  C   UNL A   1      34.156  32.755  29.823  1.00  0.00     0.014 A 
ATOM     34  C   UNL A   1      35.606  34.352  28.746  1.00  0.00     0.014 A 
ATOM     35  C   UNL A   1      35.262  32.169  30.442  1.00  0.00     0.010 A 
ATOM     36  C   UNL A   1      36.720  33.709  29.291  1.00  0.00     0.010 A 
ATOM     37  C   UNL A   1      36.561  32.618  30.159  1.00  0.00    -0.014 A 
BRANCH  37  38
ATOM     38  C   UNL A   1      37.742  31.963  30.785  1.00  0.00     0.031 A 
ATOM     39  C   UNL A   1      38.170  32.329  32.182  1.00  0.00     0.074 A 
ATOM     40  C   UNL A   1      38.441  31.043  30.091  1.00  0.00     0.049 A 
ATOM     41  N   UNL A   1      39.162  31.856  32.896  1.00  0.00    -0.248 NA
ATOM     42  C   UNL A   1      37.398  33.382  32.860  1.00  0.00     0.031 C 
ATOM     43  C   UNL A   1      38.159  30.632  28.715  1.00  0.00     0.029 A 
ATOM     44  N   UNL A   1      39.527  30.284  30.448  1.00  0.00    -0.354 N 
ATOM     45  C   UNL A   1      39.136  32.557  34.095  1.00  0.00     0.074 A 
ATOM     46  C   UNL A   1      38.073  33.532  33.989  1.00  0.00     0.031 C 
ATOM     47  C   UNL A   1      39.025  29.671  28.357  1.00  0.00     0.029 A 
ATOM     48  C   UNL A   1      39.947  29.423  29.461  1.00  0.00     0.049 A 
ATOM     49  H   UNL A   1      39.966  30.350  31.327  1.00  0.00     0.167 HD
ATOM     50  C   UNL A   1      39.907  32.386  35.196  1.00  0.00     0.037 A 
ATOM     51  C   UNL A   1      40.959  28.535  29.448  1.00  0.00     0.037 A 
ATOM     52  C   UNL A   1      40.957  31.404  35.306  1.00  0.00     0.049 A 
ATOM     53  C   UNL A   1      41.806  28.369  30.681  1.00  0.00     0.074 A 
ATOM     54  C   UNL A   1      41.767  31.124  36.393  1.00  0.00     0.029 A 
ATOM     55  N   UNL A   1      41.346  30.546  34.287  1.00  0.00    -0.354 N 
ATOM     56  N   UNL A   1      41.725  28.990  31.834  1.00  0.00    -0.248 NA
ATOM     57  C   UNL A   1      42.877  27.366  30.616  1.00  0.00     0.031 C 
ATOM     58  C   UNL A   1      42.683  30.136  36.014  1.00  0.00     0.029 A 
ATOM     59  C   UNL A   1      42.397  29.750  34.715  1.00  0.00     0.049 A 
ATOM     60  H   UNL A   1      40.936  30.508  33.393  1.00  0.00     0.167 HD
ATOM     61  C   UNL A   1      42.704  28.425  32.642  1.00  0.00     0.074 A 
ATOM     62  C   UNL A   1      43.356  27.402  31.851  1.00  0.00     0.031 C 
ATOM     63  C   UNL A   1      43.030  28.724  33.924  1.00  0.00     0.037 A 
BRANCH  50  64
ATOM     64  C   UNL A   1      39.646  33.283  36.374  1.00  0.00     0.064 A 
ATOM     65  C   UNL A   1      40.258  34.541  36.495  1.00  0.00     0.173 A 
ATOM     66  C   UNL A   1      38.749  32.895  37.381  1.00  0.00     0.173 A 
ATOM     67  F   UNL A   1      41.133  34.958  35.566  1.00  0.00    -0.203 F 
ATOM     68  C   UNL A   1      40.010  35.359  37.593  1.00  0.00     0.198 A 
ATOM     69  C   UNL A   1      38.475  33.732  38.460  1.00  0.00     0.198 A 
ATOM     70  F   UNL A   1      38.128  31.708  37.315  1.00  0.00    -0.203 F 
ATOM     71  F   UNL A   1      40.652  36.530  37.715  1.00  0.00    -0.200 F 
ATOM     72  C   UNL A   1      39.113  34.958  38.572  1.00  0.00     0.200 A 
ATOM     73  F   UNL A   1      37.594  33.349  39.396  1.00  0.00    -0.200 F 
ATOM     74  F   UNL A   1      38.869  35.749  39.625  1.00  0.00    -0.200 F 
ENDBRANCH  50  64
BRANCH  51  75
ATOM     75  C   UNL A   1      41.209  27.707  28.238  1.00  0.00     0.064 A 
ATOM     76  C   UNL A   1      40.608  26.448  28.085  1.00  0.00     0.173 A 
ATOM     77  C   UNL A   1      42.066  28.146  27.219  1.00  0.00     0.173 A 
ATOM     78  F   UNL A   1      39.795  25.974  29.041  1.00  0.00    -0.203 F 
ATOM     79  C   UNL A   1      40.880  25.650  26.976  1.00  0.00     0.198 A 
ATOM     80  C   UNL A   1      42.310  27.360  26.094  1.00  0.00     0.198 A 
ATOM     81  F   UNL A   1      42.661  29.344  27.311  1.00  0.00    -0.203 F 
ATOM     82  F   UNL A   1      40.338  24.428  26.886  1.00  0.00    -0.200 F 
ATOM     83  C   UNL A   1      41.726  26.108  25.979  1.00  0.00     0.200 A 
ATOM     84  F   UNL A   1      43.116  27.815  25.124  1.00  0.00    -0.200 F 
ATOM     85  F   UNL A   1      41.986  25.340  24.912  1.00  0.00    -0.200 F 
ENDBRANCH  51  75
BRANCH  63  86
ATOM     86  C   UNL A   1      44.100  27.892  34.576  1.00  0.00     0.064 A 
ATOM     87  C   UNL A   1      45.449  28.277  34.574  1.00  0.00     0.173 A 
ATOM     88  C   UNL A   1      43.763  26.695  35.227  1.00  0.00     0.173 A 
ATOM     89  F   UNL A   1      45.829  29.406  33.957  1.00  0.00    -0.203 F 
ATOM     90  C   UNL A   1      46.424  27.474  35.161  1.00  0.00     0.198 A 
ATOM     91  C   UNL A   1      44.734  25.915  35.847  1.00  0.00     0.198 A 
ATOM     92  F   UNL A   1      42.486  26.284  35.269  1.00  0.00    -0.203 F 
ATOM     93  F   UNL A   1      47.715  27.828  35.087  1.00  0.00    -0.200 F 
ATOM     94  C   UNL A   1      46.065  26.297  35.802  1.00  0.00     0.200 A 
ATOM     95  F   UNL A   1      44.381  24.789  36.482  1.00  0.00    -0.200 F 
ATOM     96  F   UNL A   1      47.005  25.528  36.368  1.00  0.00    -0.200 F 
ENDBRANCH  63  86
ENDBRANCH  37  38
ENDBRANCH  29  32
ENDBRANCH  27  28
ENDBRANCH   1  27
TORSDOF 12
ENDMDL
MODEL 2
REMARK VINA RESULT:     -12.9      0.128      1.580
REMARK SMILES O=C(CN1C(=O)N/C(=C/c2cc3c(cc2Cl)OCO3)C1=O)NCCCNC(=O)c1ccc(-c2c3nc(c(-c4c(F)c(F)c(F)c(F)c4F)c4ccc([nH]4)c(-c4c(F)c(F)c(F)c(F)c4F)c4nc(c(-c5c(F)c(F)c(F)c(F)c5F)c5ccc2[nH]5)C=C4)C=C3)cc1
REMARK SMILES IDX 24 1 23 2 22 3 1 4 2 5 3 7 4 8 5 9 20 10 6 11 7 12 8 13
REMARK SMILES IDX 21 14 9 16 10 17 11 18 15 19 12 20 14 21 16 22 13 23 19 24
REMARK SMILES IDX 17 25 18 26 25 27 26 28 27 29 28 31 29 32 30 33 91 34 31 35
REMARK SMILES IDX 90 36 32 37 33 38 34 39 84 40 35 41 89 42 83 43 85 44 36 45
REMARK SMILES IDX 88 46 82 47 81 48 37 50 69 51 49 52 68 53 50 54 53 55 67 56
REMARK SMILES IDX 86 57 51 58 52 59 66 61 87 62 54 63 38 64 39 65 47 66 40 67
REMARK SMILES IDX 41 68 45 69 48 70 42 71 43 72 46 73 44 74 70 75 71 76 79 77
REMARK SMILES IDX 72 78 73 79 77 80 80 81 74 82 75 83 78 84 76 85 55 86 56 87
REMARK SMILES IDX 64 88 57 89 58 90 62 91 65 92 59 93 60 94 63 95 61 96
REMARK H PARENT 22 6 7 15 26 30 85 49 53 60
REMARK Flexibility Score: inf
ROOT
ATOM      1  C   UNL A   1      31.039  31.861  26.561  1.00  0.00     0.042 C 
ENDROOT
BRANCH   1   2
ATOM      2  C   UNL A   1      31.001  30.907  25.370  1.00  0.00     0.117 C 
BRANCH   2   3
ATOM      3  N   UNL A   1      32.183  30.077  25.300  1.00  0.00    -0.354 N 
ATOM      4  O   UNL A   1      31.402  28.277  26.490  1.00  0.00    -0.273 OA
ATOM      5  C   UNL A   1      32.288  28.804  25.824  1.00  0.00     0.240 C 
ATOM      6  H   UNL A   1      32.973  30.449  24.846  1.00  0.00     0.163 HD
BRANCH   5   7
ATOM      7  C   UNL A   1      33.661  28.149  25.612  1.00  0.00     0.230 C 
BRANCH   7   8
ATOM      8  N   UNL A   1      33.685  27.293  24.441  1.00  0.00    -0.249 N 
ATOM      9  C   UNL A   1      33.656  27.735  23.137  1.00  0.00     0.329 C 
ATOM     10  C   UNL A   1      33.621  25.928  24.488  1.00  0.00     0.278 C 
ATOM     11  O   UNL A   1      33.640  28.888  22.743  1.00  0.00    -0.248 OA
ATOM     12  N   UNL A   1      33.614  26.618  22.311  1.00  0.00    -0.303 N 
ATOM     13  C   UNL A   1      33.621  25.478  23.060  1.00  0.00     0.109 C 
ATOM     14  O   UNL A   1      33.594  25.232  25.491  1.00  0.00    -0.267 OA
ATOM     15  H   UNL A   1      33.584  26.646  21.327  1.00  0.00     0.172 HD
ATOM     16  C   UNL A   1      33.664  24.228  22.583  1.00  0.00     0.042 C 
BRANCH  16  17
ATOM     17  C   UNL A   1      33.829  23.060  23.464  1.00  0.00    -0.001 A 
ATOM     18  C   UNL A   1      32.667  22.331  23.768  1.00  0.00     0.060 A 
ATOM     19  C   UNL A   1      35.089  22.583  23.911  1.00  0.00     0.052 A 
ATOM     20  C   UNL A   1      32.807  21.137  24.441  1.00  0.00     0.166 A 
ATOM     21  C   UNL A   1      35.197  21.357  24.577  1.00  0.00     0.071 A 
ATOM     22  Cl  UNL A   1      36.546  23.479  23.638  1.00  0.00    -0.084 Cl
ATOM     23  C   UNL A   1      34.037  20.654  24.816  1.00  0.00     0.167 A 
ATOM     24  O   UNL A   1      31.792  20.302  24.785  1.00  0.00    -0.454 OA
ATOM     25  O   UNL A   1      33.952  19.445  25.429  1.00  0.00    -0.454 OA
ATOM     26  C   UNL A   1      32.528  19.207  25.375  1.00  0.00     0.468 C 
ENDBRANCH  16  17
ENDBRANCH   7   8
ENDBRANCH   5   7
ENDBRANCH   2   3
ENDBRANCH   1   2
BRANCH   1  27
ATOM     27  C   UNL A   1      32.412  32.458  26.873  1.00  0.00     0.118 C 
BRANCH  27  28
ATOM     28  N   UNL A   1      32.343  33.827  27.357  1.00  0.00    -0.352 N 
ATOM     29  C   UNL A   1      33.042  34.463  28.352  1.00  0.00     0.251 C 
ATOM     30  H   UNL A   1      31.683  34.393  26.895  1.00  0.00     0.163 HD
ATOM     31  O   UNL A   1      32.645  35.554  28.754  1.00  0.00    -0.269 OA
BRANCH  29  32
ATOM     32  C   UNL A   1      34.249  33.866  28.975  1.00  0.00     0.039 A 
ATOM     33  C   UNL A   1      34.074  32.768  29.827  1.00  0.00     0.014 A 
ATOM     34  C   UNL A   1      35.531  34.392  28.800  1.00  0.00     0.014 A 
ATOM     35  C   UNL A   1      35.174  32.177  30.453  1.00  0.00     0.010 A 
ATOM     36  C   UNL A   1      36.640  33.746  29.351  1.00  0.00     0.010 A 
ATOM     37  C   UNL A   1      36.474  32.639  30.198  1.00  0.00    -0.014 A 
BRANCH  37  38
ATOM     38  C   UNL A   1      37.649  31.981  30.831  1.00  0.00     0.031 A 
ATOM     39  C   UNL A   1      38.077  32.353  32.225  1.00  0.00     0.074 A 
ATOM     40  C   UNL A   1      38.343  31.051  30.144  1.00  0.00     0.049 A 
ATOM     41  N   UNL A   1      39.065  31.878  32.945  1.00  0.00    -0.248 NA
ATOM     42  C   UNL A   1      37.312  33.416  32.894  1.00  0.00     0.031 C 
ATOM     43  C   UNL A   1      38.061  30.632  28.770  1.00  0.00     0.029 A 
ATOM     44  N   UNL A   1      39.423  30.286  30.508  1.00  0.00    -0.354 N 
ATOM     45  C   UNL A   1      39.041  32.587  34.139  1.00  0.00     0.074 A 
ATOM     46  C   UNL A   1      37.985  33.569  34.024  1.00  0.00     0.031 C 
ATOM     47  C   UNL A   1      38.921  29.662  28.421  1.00  0.00     0.029 A 
ATOM     48  C   UNL A   1      39.839  29.416  29.528  1.00  0.00     0.049 A 
ATOM     49  H   UNL A   1      39.861  30.355  31.388  1.00  0.00     0.167 HD
ATOM     50  C   UNL A   1      39.809  32.418  35.243  1.00  0.00     0.037 A 
ATOM     51  C   UNL A   1      40.844  28.520  29.524  1.00  0.00     0.037 A 
ATOM     52  C   UNL A   1      40.851  31.430  35.361  1.00  0.00     0.049 A 
ATOM     53  C   UNL A   1      41.688  28.358  30.760  1.00  0.00     0.074 A 
ATOM     54  C   UNL A   1      41.657  31.151  36.452  1.00  0.00     0.029 A 
ATOM     55  N   UNL A   1      41.236  30.562  34.349  1.00  0.00    -0.354 N 
ATOM     56  N   UNL A   1      41.609  28.986  31.908  1.00  0.00    -0.248 NA
ATOM     57  C   UNL A   1      42.752  27.347  30.703  1.00  0.00     0.031 C 
ATOM     58  C   UNL A   1      42.567  30.155  36.081  1.00  0.00     0.029 A 
ATOM     59  C   UNL A   1      42.281  29.761  34.785  1.00  0.00     0.049 A 
ATOM     60  H   UNL A   1      40.828  30.521  33.454  1.00  0.00     0.167 HD
ATOM     61  C   UNL A   1      42.582  28.421  32.722  1.00  0.00     0.074 A 
ATOM     62  C   UNL A   1      43.229  27.387  31.939  1.00  0.00     0.031 C 
ATOM     63  C   UNL A   1      42.908  28.726  34.002  1.00  0.00     0.037 A 
BRANCH  50  64
ATOM     64  C   UNL A   1      39.552  33.326  36.414  1.00  0.00     0.064 A 
ATOM     65  C   UNL A   1      38.684  32.961  37.455  1.00  0.00     0.173 A 
ATOM     66  C   UNL A   1      40.206  34.564  36.514  1.00  0.00     0.173 A 
ATOM     67  F   UNL A   1      38.024  31.794  37.406  1.00  0.00    -0.203 F 
ATOM     68  C   UNL A   1      38.453  33.814  38.531  1.00  0.00     0.198 A 
ATOM     69  C   UNL A   1      40.001  35.398  37.610  1.00  0.00     0.198 A 
ATOM     70  F   UNL A   1      41.054  34.962  35.553  1.00  0.00    -0.203 F 
ATOM     71  F   UNL A   1      37.574  33.468  39.483  1.00  0.00    -0.200 F 
ATOM     72  C   UNL A   1      39.117  35.028  38.612  1.00  0.00     0.200 A 
ATOM     73  F   UNL A   1      40.658  36.564  37.694  1.00  0.00    -0.200 F 
ATOM     74  F   UNL A   1      38.900  35.845  39.652  1.00  0.00    -0.200 F 
ENDBRANCH  50  64
BRANCH  51  75
ATOM     75  C   UNL A   1      41.091  27.682  28.319  1.00  0.00     0.064 A 
ATOM     76  C   UNL A   1      41.936  28.126  27.291  1.00  0.00     0.173 A 
ATOM     77  C   UNL A   1      40.476  26.433  28.162  1.00  0.00     0.173 A 
ATOM     78  F   UNL A   1      42.535  29.323  27.385  1.00  0.00    -0.203 F 
ATOM     79  C   UNL A   1      42.130  27.365  26.140  1.00  0.00     0.198 A 
ATOM     80  C   UNL A   1      40.697  25.659  27.025  1.00  0.00     0.198 A 
ATOM     81  F   UNL A   1      39.663  25.959  29.118  1.00  0.00    -0.203 F 
ATOM     82  F   UNL A   1      42.896  27.840  25.148  1.00  0.00    -0.200 F 
ATOM     83  C   UNL A   1      41.515  26.130  26.009  1.00  0.00     0.200 A 
ATOM     84  F   UNL A   1      40.113  24.457  26.910  1.00  0.00    -0.200 F 
ATOM     85  F   UNL A   1      41.703  25.398  24.903  1.00  0.00    -0.200 F 
ENDBRANCH  51  75
BRANCH  63  86
ATOM     86  C   UNL A   1      43.971  27.891  34.662  1.00  0.00     0.064 A 
ATOM     87  C   UNL A   1      45.321  28.273  34.671  1.00  0.00     0.173 A 
ATOM     88  C   UNL A   1      43.626  26.695  35.310  1.00  0.00     0.173 A 
ATOM     89  F   UNL A   1      45.709  29.401  34.057  1.00  0.00    -0.203 F 
ATOM     90  C   UNL A   1      46.289  27.466  35.266  1.00  0.00     0.198 A 
ATOM     91  C   UNL A   1      44.590  25.912  35.937  1.00  0.00     0.198 A 
ATOM     92  F   UNL A   1      42.348  26.286  35.342  1.00  0.00    -0.203 F 
ATOM     93  F   UNL A   1      47.581  27.818  35.201  1.00  0.00    -0.200 F 
ATOM     94  C   UNL A   1      45.922  26.291  35.903  1.00  0.00     0.200 A 
ATOM     95  F   UNL A   1      44.230  24.786  36.568  1.00  0.00    -0.200 F 
ATOM     96  F   UNL A   1      46.856  25.518  36.476  1.00  0.00    -0.200 F 
ENDBRANCH  63  86
ENDBRANCH  37  38
ENDBRANCH  29  32
ENDBRANCH  27  28
ENDBRANCH   1  27
TORSDOF 12
ENDMDL
MODEL 3
REMARK VINA RESULT:     -12.7      5.036     10.789
REMARK SMILES O=C(CN1C(=O)N/C(=C/c2cc3c(cc2Cl)OCO3)C1=O)NCCCNC(=O)c1ccc(-c2c3nc(c(-c4c(F)c(F)c(F)c(F)c4F)c4ccc([nH]4)c(-c4c(F)c(F)c(F)c(F)c4F)c4nc(c(-c5c(F)c(F)c(F)c(F)c5F)c5ccc2[nH]5)C=C4)C=C3)cc1
REMARK SMILES IDX 24 1 23 2 22 3 1 4 2 5 3 7 4 8 5 9 20 10 6 11 7 12 8 13
REMARK SMILES IDX 21 14 9 16 10 17 11 18 15 19 12 20 14 21 16 22 13 23 19 24
REMARK SMILES IDX 17 25 18 26 25 27 26 28 27 29 28 31 29 32 30 33 91 34 31 35
REMARK SMILES IDX 90 36 32 37 33 38 34 39 84 40 35 41 89 42 83 43 85 44 36 45
REMARK SMILES IDX 88 46 82 47 81 48 37 50 69 51 49 52 68 53 50 54 53 55 67 56
REMARK SMILES IDX 86 57 51 58 52 59 66 61 87 62 54 63 38 64 39 65 47 66 40 67
REMARK SMILES IDX 41 68 45 69 48 70 42 71 43 72 46 73 44 74 70 75 71 76 79 77
REMARK SMILES IDX 72 78 73 79 77 80 80 81 74 82 75 83 78 84 76 85 55 86 56 87
REMARK SMILES IDX 64 88 57 89 58 90 62 91 65 92 59 93 60 94 63 95 61 96
REMARK H PARENT 22 6 7 15 26 30 85 49 53 60
REMARK Flexibility Score: inf
ROOT
ATOM      1  C   UNL A   1      37.869  19.599  24.673  1.00  0.00     0.042 C 
ENDROOT
BRANCH   1   2
ATOM      2  C   UNL A   1      36.391  19.794  25.000  1.00  0.00     0.117 C 
BRANCH   2   3
ATOM      3  N   UNL A   1      36.147  21.040  25.692  1.00  0.00    -0.354 N 
ATOM      4  O   UNL A   1      35.831  22.386  23.860  1.00  0.00    -0.273 OA
ATOM      5  C   UNL A   1      35.838  22.238  25.079  1.00  0.00     0.240 C 
ATOM      6  H   UNL A   1      36.205  21.033  26.674  1.00  0.00     0.163 HD
BRANCH   5   7
ATOM      7  C   UNL A   1      35.633  23.408  26.053  1.00  0.00     0.230 C 
BRANCH   7   8
ATOM      8  N   UNL A   1      34.231  23.632  26.352  1.00  0.00    -0.249 N 
ATOM      9  C   UNL A   1      33.449  22.813  27.135  1.00  0.00     0.329 C 
ATOM     10  C   UNL A   1      33.478  24.627  25.794  1.00  0.00     0.278 C 
ATOM     11  O   UNL A   1      33.788  21.804  27.728  1.00  0.00    -0.248 OA
ATOM     12  N   UNL A   1      32.155  23.320  27.117  1.00  0.00    -0.303 N 
ATOM     13  C   UNL A   1      32.099  24.442  26.345  1.00  0.00     0.109 C 
ATOM     14  O   UNL A   1      33.867  25.494  25.025  1.00  0.00    -0.267 OA
ATOM     15  H   UNL A   1      31.389  22.924  27.593  1.00  0.00     0.172 HD
ATOM     16  C   UNL A   1      31.024  25.222  26.173  1.00  0.00     0.042 C 
BRANCH  16  17
ATOM     17  C   UNL A   1      31.095  26.503  25.451  1.00  0.00    -0.001 A 
ATOM     18  C   UNL A   1      30.669  26.495  24.112  1.00  0.00     0.060 A 
ATOM     19  C   UNL A   1      31.454  27.733  26.062  1.00  0.00     0.052 A 
ATOM     20  C   UNL A   1      30.555  27.704  23.460  1.00  0.00     0.166 A 
ATOM     21  C   UNL A   1      31.309  28.945  25.376  1.00  0.00     0.071 A 
ATOM     22  Cl  UNL A   1      32.064  27.796  27.681  1.00  0.00    -0.084 Cl
ATOM     23  C   UNL A   1      30.846  28.895  24.079  1.00  0.00     0.167 A 
ATOM     24  O   UNL A   1      30.131  27.872  22.180  1.00  0.00    -0.454 OA
ATOM     25  O   UNL A   1      30.626  29.965  23.272  1.00  0.00    -0.454 OA
ATOM     26  C   UNL A   1      30.137  29.314  22.078  1.00  0.00     0.468 C 
ENDBRANCH  16  17
ENDBRANCH   7   8
ENDBRANCH   5   7
ENDBRANCH   2   3
ENDBRANCH   1   2
BRANCH   1  27
ATOM     27  C   UNL A   1      38.842  20.055  25.760  1.00  0.00     0.118 C 
BRANCH  27  28
ATOM     28  N   UNL A   1      40.001  19.188  25.892  1.00  0.00    -0.352 N 
ATOM     29  C   UNL A   1      41.324  19.484  26.100  1.00  0.00     0.251 C 
ATOM     30  H   UNL A   1      39.804  18.226  25.817  1.00  0.00     0.163 HD
ATOM     31  O   UNL A   1      42.165  18.603  25.932  1.00  0.00    -0.269 OA
BRANCH  29  32
ATOM     32  C   UNL A   1      41.778  20.839  26.500  1.00  0.00     0.039 A 
ATOM     33  C   UNL A   1      41.909  21.809  25.499  1.00  0.00     0.014 A 
ATOM     34  C   UNL A   1      42.138  21.161  27.810  1.00  0.00     0.014 A 
ATOM     35  C   UNL A   1      42.347  23.097  25.817  1.00  0.00     0.010 A 
ATOM     36  C   UNL A   1      42.487  22.472  28.144  1.00  0.00     0.010 A 
ATOM     37  C   UNL A   1      42.611  23.453  27.149  1.00  0.00    -0.014 A 
BRANCH  37  38
ATOM     38  C   UNL A   1      43.036  24.838  27.492  1.00  0.00     0.031 A 
ATOM     39  C   UNL A   1      44.444  25.297  27.221  1.00  0.00     0.074 A 
ATOM     40  C   UNL A   1      42.155  25.684  28.062  1.00  0.00     0.049 A 
ATOM     41  N   UNL A   1      44.991  26.468  27.439  1.00  0.00    -0.248 NA
ATOM     42  C   UNL A   1      45.369  24.305  26.652  1.00  0.00     0.031 C 
ATOM     43  C   UNL A   1      40.775  25.350  28.419  1.00  0.00     0.029 A 
ATOM     44  N   UNL A   1      42.285  26.998  28.436  1.00  0.00    -0.354 N 
ATOM     45  C   UNL A   1      46.317  26.349  27.043  1.00  0.00     0.074 A 
ATOM     46  C   UNL A   1      46.511  24.975  26.633  1.00  0.00     0.031 C 
ATOM     47  C   UNL A   1      40.175  26.439  28.925  1.00  0.00     0.029 A 
ATOM     48  C   UNL A   1      41.136  27.537  28.965  1.00  0.00     0.049 A 
ATOM     49  H   UNL A   1      43.121  27.507  28.336  1.00  0.00     0.167 HD
ATOM     50  C   UNL A   1      47.279  27.302  26.996  1.00  0.00     0.037 A 
ATOM     51  C   UNL A   1      40.885  28.776  29.429  1.00  0.00     0.037 A 
ATOM     52  C   UNL A   1      47.081  28.673  27.391  1.00  0.00     0.049 A 
ATOM     53  C   UNL A   1      41.973  29.815  29.374  1.00  0.00     0.074 A 
ATOM     54  C   UNL A   1      47.980  29.725  27.343  1.00  0.00     0.029 A 
ATOM     55  N   UNL A   1      45.900  29.182  27.915  1.00  0.00    -0.354 N 
ATOM     56  N   UNL A   1      43.203  29.707  28.931  1.00  0.00    -0.248 NA
ATOM     57  C   UNL A   1      41.632  31.155  29.870  1.00  0.00     0.031 C 
ATOM     58  C   UNL A   1      47.362  30.856  27.889  1.00  0.00     0.029 A 
ATOM     59  C   UNL A   1      46.055  30.528  28.212  1.00  0.00     0.049 A 
ATOM     60  H   UNL A   1      45.075  28.664  28.055  1.00  0.00     0.167 HD
ATOM     61  C   UNL A   1      43.767  30.970  29.056  1.00  0.00     0.074 A 
ATOM     62  C   UNL A   1      42.740  31.832  29.603  1.00  0.00     0.031 C 
ATOM     63  C   UNL A   1      45.021  31.380  28.742  1.00  0.00     0.037 A 
BRANCH  50  64
ATOM     64  C   UNL A   1      48.640  26.893  26.502  1.00  0.00     0.064 A 
ATOM     65  C   UNL A   1      49.001  27.011  25.151  1.00  0.00     0.173 A 
ATOM     66  C   UNL A   1      49.606  26.406  27.396  1.00  0.00     0.173 A 
ATOM     67  F   UNL A   1      48.113  27.461  24.251  1.00  0.00    -0.203 F 
ATOM     68  C   UNL A   1      50.263  26.626  24.708  1.00  0.00     0.198 A 
ATOM     69  C   UNL A   1      50.880  26.056  26.955  1.00  0.00     0.198 A 
ATOM     70  F   UNL A   1      49.320  26.279  28.700  1.00  0.00    -0.203 F 
ATOM     71  F   UNL A   1      50.563  26.693  23.403  1.00  0.00    -0.200 F 
ATOM     72  C   UNL A   1      51.204  26.155  25.610  1.00  0.00     0.200 A 
ATOM     73  F   UNL A   1      51.793  25.618  27.833  1.00  0.00    -0.200 F 
ATOM     74  F   UNL A   1      52.421  25.791  25.184  1.00  0.00    -0.200 F 
ENDBRANCH  50  64
BRANCH  51  75
ATOM     75  C   UNL A   1      39.537  29.116  29.958  1.00  0.00     0.064 A 
ATOM     76  C   UNL A   1      38.553  29.673  29.126  1.00  0.00     0.173 A 
ATOM     77  C   UNL A   1      39.209  28.910  31.305  1.00  0.00     0.173 A 
ATOM     78  F   UNL A   1      38.823  29.908  27.834  1.00  0.00    -0.203 F 
ATOM     79  C   UNL A   1      37.306  30.038  29.630  1.00  0.00     0.198 A 
ATOM     80  C   UNL A   1      37.949  29.244  31.799  1.00  0.00     0.198 A 
ATOM     81  F   UNL A   1      40.109  28.374  32.142  1.00  0.00    -0.203 F 
ATOM     82  F   UNL A   1      36.408  30.622  28.826  1.00  0.00    -0.200 F 
ATOM     83  C   UNL A   1      37.003  29.819  30.964  1.00  0.00     0.200 A 
ATOM     84  F   UNL A   1      37.654  29.015  33.087  1.00  0.00    -0.200 F 
ATOM     85  F   UNL A   1      35.803  30.169  31.448  1.00  0.00    -0.200 F 
ENDBRANCH  51  75
BRANCH  63  86
ATOM     86  C   UNL A   1      45.335  32.839  28.922  1.00  0.00     0.064 A 
ATOM     87  C   UNL A   1      45.932  33.336  30.092  1.00  0.00     0.173 A 
ATOM     88  C   UNL A   1      45.047  33.754  27.897  1.00  0.00     0.173 A 
ATOM     89  F   UNL A   1      46.219  32.508  31.108  1.00  0.00    -0.203 F 
ATOM     90  C   UNL A   1      46.187  34.697  30.244  1.00  0.00     0.198 A 
ATOM     91  C   UNL A   1      45.339  35.107  28.037  1.00  0.00     0.198 A 
ATOM     92  F   UNL A   1      44.486  33.333  26.753  1.00  0.00    -0.203 F 
ATOM     93  F   UNL A   1      46.693  35.157  31.396  1.00  0.00    -0.200 F 
ATOM     94  C   UNL A   1      45.896  35.580  29.214  1.00  0.00     0.200 A 
ATOM     95  F   UNL A   1      45.075  35.955  27.034  1.00  0.00    -0.200 F 
ATOM     96  F   UNL A   1      46.144  36.888  29.363  1.00  0.00    -0.200 F 
ENDBRANCH  63  86
ENDBRANCH  37  38
ENDBRANCH  29  32
ENDBRANCH  27  28
ENDBRANCH   1  27
TORSDOF 12
ENDMDL
