MODEL 1
REMARK VINA RESULT:     -11.8      0.000      0.000
REMARK SMILES C=C(C)C[N@@H+]1CC[C@H](C(=O)NCCCNC(=O)c2ccc(-c3c4nc(c(-c5c(F)c(F)c(F)c(F)c5F)c5ccc([nH]5)c(-c5c(F)c(F)c(F)c(F)c5F)c5nc(c(-c6c(F)c(F)c(F)c(F)c6F)c6ccc3[nH]6)C=C5)C=C4)cc2)[C@H]1C
REMARK SMILES IDX 13 1 12 2 11 3 9 4 10 5 8 7 5 8 6 9 81 10 7 12 82 13 4 14
REMARK SMILES IDX 2 15 1 16 3 17 14 18 15 19 16 20 17 22 18 23 19 24 80 25
REMARK SMILES IDX 20 26 79 27 21 28 22 29 23 30 73 31 24 32 78 33 72 34 74 35
REMARK SMILES IDX 25 36 77 37 71 38 70 39 26 41 58 42 38 43 57 44 39 45 42 46
REMARK SMILES IDX 56 47 75 48 40 49 41 50 55 52 76 53 43 54 27 55 28 56 36 57
REMARK SMILES IDX 29 58 30 59 34 60 37 61 31 62 32 63 35 64 33 65 59 66 60 67
REMARK SMILES IDX 68 68 61 69 62 70 66 71 69 72 63 73 64 74 67 75 65 76 44 77
REMARK SMILES IDX 45 78 53 79 46 80 47 81 51 82 54 83 48 84 49 85 52 86 50 87
REMARK H PARENT 11 6 5 11 15 21 74 40 42 51
REMARK Flexibility Score: inf
ROOT
ATOM      1  C   UNL A   1      31.416  32.246  26.501  1.00  0.00     0.042 C 
ENDROOT
BRANCH   1   2
ATOM      2  C   UNL A   1      31.541  30.753  26.197  1.00  0.00     0.117 C 
BRANCH   2   3
ATOM      3  N   UNL A   1      31.027  30.444  24.880  1.00  0.00    -0.356 N 
ATOM      4  C   UNL A   1      30.999  29.294  24.158  1.00  0.00     0.229 C 
ATOM      5  O   UNL A   1      30.632  29.416  22.985  1.00  0.00    -0.275 OA
ATOM      6  H   UNL A   1      30.619  31.213  24.420  1.00  0.00     0.163 HD
BRANCH   4   7
ATOM      7  C   UNL A   1      31.279  27.922  24.781  1.00  0.00     0.142 C 
ATOM      8  N   UNL A   1      32.506  26.124  23.763  1.00  0.00    -0.329 N 
ATOM      9  C   UNL A   1      31.251  26.291  23.039  1.00  0.00     0.263 C 
ATOM     10  C   UNL A   1      32.698  27.358  24.551  1.00  0.00     0.193 C 
ATOM     11  H   UNL A   1      32.461  25.325  24.397  1.00  0.00     0.348 HD
ATOM     12  C   UNL A   1      30.376  26.858  24.140  1.00  0.00     0.081 C 
ATOM     13  C   UNL A   1      33.372  27.017  25.886  1.00  0.00     0.076 C 
BRANCH   8  14
ATOM     14  C   UNL A   1      33.628  25.750  22.906  1.00  0.00     0.293 C 
BRANCH  14  15
ATOM     15  C   UNL A   1      34.028  24.309  23.131  1.00  0.00    -0.026 C 
ATOM     16  C   UNL A   1      33.562  23.300  22.375  1.00  0.00     0.013 C 
ATOM     17  C   UNL A   1      34.998  24.055  24.255  1.00  0.00     0.045 C 
ENDBRANCH  14  15
ENDBRANCH   8  14
ENDBRANCH   4   7
ENDBRANCH   2   3
ENDBRANCH   1   2
BRANCH   1  18
ATOM     18  C   UNL A   1      32.616  32.825  27.248  1.00  0.00     0.118 C 
BRANCH  18  19
ATOM     19  N   UNL A   1      32.400  34.203  27.661  1.00  0.00    -0.352 N 
ATOM     20  C   UNL A   1      33.001  34.933  28.657  1.00  0.00     0.251 C 
ATOM     21  H   UNL A   1      31.715  34.689  27.147  1.00  0.00     0.163 HD
ATOM     22  O   UNL A   1      32.538  36.022  28.977  1.00  0.00    -0.269 OA
BRANCH  20  23
ATOM     23  C   UNL A   1      34.192  34.408  29.360  1.00  0.00     0.039 A 
ATOM     24  C   UNL A   1      34.014  33.757  30.584  1.00  0.00     0.014 A 
ATOM     25  C   UNL A   1      35.477  34.579  28.839  1.00  0.00     0.014 A 
ATOM     26  C   UNL A   1      35.117  33.220  31.254  1.00  0.00     0.010 A 
ATOM     27  C   UNL A   1      36.566  33.983  29.472  1.00  0.00     0.010 A 
ATOM     28  C   UNL A   1      36.396  33.297  30.683  1.00  0.00    -0.014 A 
BRANCH  28  29
ATOM     29  C   UNL A   1      37.566  32.646  31.325  1.00  0.00     0.031 A 
ATOM     30  C   UNL A   1      38.243  31.478  30.668  1.00  0.00     0.074 A 
ATOM     31  C   UNL A   1      37.963  33.055  32.545  1.00  0.00     0.049 A 
ATOM     32  N   UNL A   1      39.210  30.718  31.119  1.00  0.00    -0.248 NA
ATOM     33  C   UNL A   1      37.749  31.096  29.337  1.00  0.00     0.031 C 
ATOM     34  C   UNL A   1      37.354  34.147  33.306  1.00  0.00     0.029 A 
ATOM     35  N   UNL A   1      38.955  32.586  33.370  1.00  0.00    -0.354 N 
ATOM     36  C   UNL A   1      39.430  29.764  30.135  1.00  0.00     0.074 A 
ATOM     37  C   UNL A   1      38.461  30.007  29.088  1.00  0.00     0.031 C 
ATOM     38  C   UNL A   1      37.985  34.264  34.484  1.00  0.00     0.029 A 
ATOM     39  C   UNL A   1      39.013  33.231  34.581  1.00  0.00     0.049 A 
ATOM     40  H   UNL A   1      39.566  31.857  33.118  1.00  0.00     0.167 HD
ATOM     41  C   UNL A   1      40.369  28.788  30.100  1.00  0.00     0.037 A 
ATOM     42  C   UNL A   1      39.787  33.002  35.658  1.00  0.00     0.037 A 
ATOM     43  C   UNL A   1      41.336  28.558  31.143  1.00  0.00     0.049 A 
ATOM     44  C   UNL A   1      40.806  31.897  35.610  1.00  0.00     0.074 A 
ATOM     45  C   UNL A   1      42.375  27.645  31.171  1.00  0.00     0.029 A 
ATOM     46  N   UNL A   1      41.371  29.240  32.351  1.00  0.00    -0.354 N 
ATOM     47  N   UNL A   1      41.062  31.053  34.641  1.00  0.00    -0.248 NA
ATOM     48  C   UNL A   1      41.642  31.713  36.804  1.00  0.00     0.031 C 
ATOM     49  C   UNL A   1      43.001  27.733  32.419  1.00  0.00     0.029 A 
ATOM     50  C   UNL A   1      42.389  28.739  33.149  1.00  0.00     0.049 A 
ATOM     51  H   UNL A   1      40.764  29.971  32.604  1.00  0.00     0.167 HD
ATOM     52  C   UNL A   1      42.093  30.245  35.100  1.00  0.00     0.074 A 
ATOM     53  C   UNL A   1      42.430  30.715  36.428  1.00  0.00     0.031 C 
ATOM     54  C   UNL A   1      42.702  29.206  34.477  1.00  0.00     0.037 A 
BRANCH  41  55
ATOM     55  C   UNL A   1      40.385  27.888  28.896  1.00  0.00     0.064 A 
ATOM     56  C   UNL A   1      39.653  26.690  28.861  1.00  0.00     0.173 A 
ATOM     57  C   UNL A   1      41.134  28.230  27.760  1.00  0.00     0.173 A 
ATOM     58  F   UNL A   1      38.926  26.312  29.923  1.00  0.00    -0.203 F 
ATOM     59  C   UNL A   1      39.707  25.848  27.754  1.00  0.00     0.198 A 
ATOM     60  C   UNL A   1      41.159  27.402  26.640  1.00  0.00     0.198 A 
ATOM     61  F   UNL A   1      41.844  29.367  27.734  1.00  0.00    -0.203 F 
ATOM     62  F   UNL A   1      39.053  24.678  27.771  1.00  0.00    -0.200 F 
ATOM     63  C   UNL A   1      40.456  26.206  26.643  1.00  0.00     0.200 A 
ATOM     64  F   UNL A   1      41.872  27.756  25.562  1.00  0.00    -0.200 F 
ATOM     65  F   UNL A   1      40.511  25.393  25.579  1.00  0.00    -0.200 F 
ENDBRANCH  41  55
BRANCH  42  66
ATOM     66  C   UNL A   1      39.616  33.842  36.871  1.00  0.00     0.064 A 
ATOM     67  C   UNL A   1      40.233  35.095  36.977  1.00  0.00     0.173 A 
ATOM     68  C   UNL A   1      38.800  33.423  37.934  1.00  0.00     0.173 A 
ATOM     69  F   UNL A   1      41.037  35.529  35.995  1.00  0.00    -0.203 F 
ATOM     70  C   UNL A   1      40.047  35.895  38.102  1.00  0.00     0.198 A 
ATOM     71  C   UNL A   1      38.594  34.236  39.046  1.00  0.00     0.198 A 
ATOM     72  F   UNL A   1      38.182  32.234  37.878  1.00  0.00    -0.203 F 
ATOM     73  F   UNL A   1      40.673  37.077  38.192  1.00  0.00    -0.200 F 
ATOM     74  C   UNL A   1      39.220  35.470  39.131  1.00  0.00     0.200 A 
ATOM     75  F   UNL A   1      37.778  33.828  40.028  1.00  0.00    -0.200 F 
ATOM     76  F   UNL A   1      39.029  36.247  40.205  1.00  0.00    -0.200 F 
ENDBRANCH  42  66
BRANCH  54  77
ATOM     77  C   UNL A   1      43.798  28.502  35.223  1.00  0.00     0.064 A 
ATOM     78  C   UNL A   1      43.535  27.376  36.020  1.00  0.00     0.173 A 
ATOM     79  C   UNL A   1      45.132  28.920  35.098  1.00  0.00     0.173 A 
ATOM     80  F   UNL A   1      42.275  26.948  36.186  1.00  0.00    -0.203 F 
ATOM     81  C   UNL A   1      44.566  26.707  36.674  1.00  0.00     0.198 A 
ATOM     82  C   UNL A   1      46.163  28.228  35.730  1.00  0.00     0.198 A 
ATOM     83  F   UNL A   1      45.438  29.987  34.345  1.00  0.00    -0.203 F 
ATOM     84  F   UNL A   1      44.286  25.658  37.461  1.00  0.00    -0.200 F 
ATOM     85  C   UNL A   1      45.878  27.126  36.520  1.00  0.00     0.200 A 
ATOM     86  F   UNL A   1      47.432  28.628  35.569  1.00  0.00    -0.200 F 
ATOM     87  F   UNL A   1      46.869  26.471  37.141  1.00  0.00    -0.200 F 
ENDBRANCH  54  77
ENDBRANCH  28  29
ENDBRANCH  20  23
ENDBRANCH  18  19
ENDBRANCH   1  18
TORSDOF 12
ENDMDL
MODEL 2
REMARK VINA RESULT:     -11.8      0.239      2.046
REMARK SMILES C=C(C)C[N@@H+]1CC[C@H](C(=O)NCCCNC(=O)c2ccc(-c3c4nc(c(-c5c(F)c(F)c(F)c(F)c5F)c5ccc([nH]5)c(-c5c(F)c(F)c(F)c(F)c5F)c5nc(c(-c6c(F)c(F)c(F)c(F)c6F)c6ccc3[nH]6)C=C5)C=C4)cc2)[C@H]1C
REMARK SMILES IDX 13 1 12 2 11 3 9 4 10 5 8 7 5 8 6 9 81 10 7 12 82 13 4 14
REMARK SMILES IDX 2 15 1 16 3 17 14 18 15 19 16 20 17 22 18 23 19 24 80 25
REMARK SMILES IDX 20 26 79 27 21 28 22 29 23 30 73 31 24 32 78 33 72 34 74 35
REMARK SMILES IDX 25 36 77 37 71 38 70 39 26 41 58 42 38 43 57 44 39 45 42 46
REMARK SMILES IDX 56 47 75 48 40 49 41 50 55 52 76 53 43 54 27 55 28 56 36 57
REMARK SMILES IDX 29 58 30 59 34 60 37 61 31 62 32 63 35 64 33 65 59 66 60 67
REMARK SMILES IDX 68 68 61 69 62 70 66 71 69 72 63 73 64 74 67 75 65 76 44 77
REMARK SMILES IDX 45 78 53 79 46 80 47 81 51 82 54 83 48 84 49 85 52 86 50 87
REMARK H PARENT 11 6 5 11 15 21 74 40 42 51
REMARK Flexibility Score: inf
ROOT
ATOM      1  C   UNL A   1      31.404  32.189  26.502  1.00  0.00     0.042 C 
ENDROOT
BRANCH   1   2
ATOM      2  C   UNL A   1      31.587  30.723  26.109  1.00  0.00     0.117 C 
BRANCH   2   3
ATOM      3  N   UNL A   1      31.001  30.454  24.813  1.00  0.00    -0.356 N 
ATOM      4  C   UNL A   1      30.852  29.309  24.098  1.00  0.00     0.229 C 
ATOM      5  O   UNL A   1      30.454  29.457  22.939  1.00  0.00    -0.275 OA
ATOM      6  H   UNL A   1      30.640  31.253  24.364  1.00  0.00     0.163 HD
BRANCH   4   7
ATOM      7  C   UNL A   1      31.043  27.920  24.718  1.00  0.00     0.142 C 
ATOM      8  N   UNL A   1      32.414  26.151  23.845  1.00  0.00    -0.329 N 
ATOM      9  C   UNL A   1      31.280  26.338  22.947  1.00  0.00     0.263 C 
ATOM     10  C   UNL A   1      32.482  27.363  24.686  1.00  0.00     0.193 C 
ATOM     11  H   UNL A   1      32.280  25.335  24.443  1.00  0.00     0.348 HD
ATOM     12  C   UNL A   1      30.249  26.874  23.921  1.00  0.00     0.081 C 
ATOM     13  C   UNL A   1      32.953  26.984  26.096  1.00  0.00     0.076 C 
BRANCH   8  14
ATOM     14  C   UNL A   1      33.654  25.801  23.154  1.00  0.00     0.293 C 
BRANCH  14  15
ATOM     15  C   UNL A   1      34.100  24.402  23.512  1.00  0.00    -0.026 C 
ATOM     16  C   UNL A   1      33.785  23.327  22.768  1.00  0.00     0.013 C 
ATOM     17  C   UNL A   1      34.936  24.268  24.757  1.00  0.00     0.045 C 
ENDBRANCH  14  15
ENDBRANCH   8  14
ENDBRANCH   4   7
ENDBRANCH   2   3
ENDBRANCH   1   2
BRANCH   1  18
ATOM     18  C   UNL A   1      32.597  32.779  27.252  1.00  0.00     0.118 C 
BRANCH  18  19
ATOM     19  N   UNL A   1      32.387  34.169  27.623  1.00  0.00    -0.352 N 
ATOM     20  C   UNL A   1      32.987  34.925  28.600  1.00  0.00     0.251 C 
ATOM     21  H   UNL A   1      31.708  34.644  27.089  1.00  0.00     0.163 HD
ATOM     22  O   UNL A   1      32.529  36.026  28.884  1.00  0.00    -0.269 OA
BRANCH  20  23
ATOM     23  C   UNL A   1      34.170  34.414  29.326  1.00  0.00     0.039 A 
ATOM     24  C   UNL A   1      33.980  33.801  30.567  1.00  0.00     0.014 A 
ATOM     25  C   UNL A   1      35.459  34.563  28.809  1.00  0.00     0.014 A 
ATOM     26  C   UNL A   1      35.075  33.277  31.260  1.00  0.00     0.010 A 
ATOM     27  C   UNL A   1      36.541  33.980  29.466  1.00  0.00     0.010 A 
ATOM     28  C   UNL A   1      36.358  33.330  30.696  1.00  0.00    -0.014 A 
BRANCH  28  29
ATOM     29  C   UNL A   1      37.520  32.691  31.365  1.00  0.00     0.031 A 
ATOM     30  C   UNL A   1      38.210  31.516  30.735  1.00  0.00     0.074 A 
ATOM     31  C   UNL A   1      37.897  33.119  32.585  1.00  0.00     0.049 A 
ATOM     32  N   UNL A   1      39.172  30.765  31.211  1.00  0.00    -0.248 NA
ATOM     33  C   UNL A   1      37.737  31.114  29.402  1.00  0.00     0.031 C 
ATOM     34  C   UNL A   1      37.274  34.219  33.321  1.00  0.00     0.029 A 
ATOM     35  N   UNL A   1      38.878  32.664  33.430  1.00  0.00    -0.354 N 
ATOM     36  C   UNL A   1      39.409  29.798  30.244  1.00  0.00     0.074 A 
ATOM     37  C   UNL A   1      38.455  30.024  29.179  1.00  0.00     0.031 C 
ATOM     38  C   UNL A   1      37.887  34.356  34.507  1.00  0.00     0.029 A 
ATOM     39  C   UNL A   1      38.916  33.326  34.633  1.00  0.00     0.049 A 
ATOM     40  H   UNL A   1      39.495  31.933  33.198  1.00  0.00     0.167 HD
ATOM     41  C   UNL A   1      40.351  28.825  30.236  1.00  0.00     0.037 A 
ATOM     42  C   UNL A   1      39.675  33.115  35.725  1.00  0.00     0.037 A 
ATOM     43  C   UNL A   1      41.303  28.612  31.298  1.00  0.00     0.049 A 
ATOM     44  C   UNL A   1      40.696  32.012  35.708  1.00  0.00     0.074 A 
ATOM     45  C   UNL A   1      42.344  27.702  31.354  1.00  0.00     0.029 A 
ATOM     46  N   UNL A   1      41.318  29.311  32.496  1.00  0.00    -0.354 N 
ATOM     47  N   UNL A   1      40.970  31.155  34.755  1.00  0.00    -0.248 NA
ATOM     48  C   UNL A   1      41.515  31.847  36.917  1.00  0.00     0.031 C 
ATOM     49  C   UNL A   1      42.951  27.809  32.610  1.00  0.00     0.029 A 
ATOM     50  C   UNL A   1      42.325  28.824  33.316  1.00  0.00     0.049 A 
ATOM     51  H   UNL A   1      40.705  30.044  32.730  1.00  0.00     0.167 HD
ATOM     52  C   UNL A   1      41.996  30.357  35.241  1.00  0.00     0.074 A 
ATOM     53  C   UNL A   1      42.312  30.846  36.567  1.00  0.00     0.031 C 
ATOM     54  C   UNL A   1      42.617  29.310  34.642  1.00  0.00     0.037 A 
BRANCH  41  55
ATOM     55  C   UNL A   1      40.387  27.907  29.046  1.00  0.00     0.064 A 
ATOM     56  C   UNL A   1      41.157  28.203  27.910  1.00  0.00     0.173 A 
ATOM     57  C   UNL A   1      39.649  26.714  29.043  1.00  0.00     0.173 A 
ATOM     58  F   UNL A   1      41.876  29.334  27.856  1.00  0.00    -0.203 F 
ATOM     59  C   UNL A   1      41.149  27.363  26.799  1.00  0.00     0.198 A 
ATOM     60  C   UNL A   1      39.670  25.859  27.945  1.00  0.00     0.198 A 
ATOM     61  F   UNL A   1      38.903  26.377  30.106  1.00  0.00    -0.203 F 
ATOM     62  F   UNL A   1      41.840  27.700  25.701  1.00  0.00    -0.200 F 
ATOM     63  C   UNL A   1      40.410  26.190  26.819  1.00  0.00     0.200 A 
ATOM     64  F   UNL A   1      38.967  24.719  27.971  1.00  0.00    -0.200 F 
ATOM     65  F   UNL A   1      40.401  25.383  25.749  1.00  0.00    -0.200 F 
ENDBRANCH  41  55
BRANCH  42  66
ATOM     66  C   UNL A   1      39.483  33.971  36.923  1.00  0.00     0.064 A 
ATOM     67  C   UNL A   1      38.706  33.539  38.006  1.00  0.00     0.173 A 
ATOM     68  C   UNL A   1      40.103  35.227  37.025  1.00  0.00     0.173 A 
ATOM     69  F   UNL A   1      38.078  32.355  37.947  1.00  0.00    -0.203 F 
ATOM     70  C   UNL A   1      38.551  34.330  39.142  1.00  0.00     0.198 A 
ATOM     71  C   UNL A   1      39.970  36.005  38.172  1.00  0.00     0.198 A 
ATOM     72  F   UNL A   1      40.863  35.683  36.018  1.00  0.00    -0.203 F 
ATOM     73  F   UNL A   1      37.778  33.906  40.151  1.00  0.00    -0.200 F 
ATOM     74  C   UNL A   1      39.191  35.558  39.228  1.00  0.00     0.200 A 
ATOM     75  F   UNL A   1      40.606  37.181  38.258  1.00  0.00    -0.200 F 
ATOM     76  F   UNL A   1      39.055  36.311  40.327  1.00  0.00    -0.200 F 
ENDBRANCH  42  66
BRANCH  54  77
ATOM     77  C   UNL A   1      43.703  28.620  35.415  1.00  0.00     0.064 A 
ATOM     78  C   UNL A   1      45.039  29.042  35.336  1.00  0.00     0.173 A 
ATOM     79  C   UNL A   1      43.399  27.563  36.288  1.00  0.00     0.173 A 
ATOM     80  F   UNL A   1      45.384  30.035  34.504  1.00  0.00    -0.203 F 
ATOM     81  C   UNL A   1      46.031  28.420  36.090  1.00  0.00     0.198 A 
ATOM     82  C   UNL A   1      44.389  26.965  37.062  1.00  0.00     0.198 A 
ATOM     83  F   UNL A   1      42.136  27.125  36.404  1.00  0.00    -0.203 F 
ATOM     84  F   UNL A   1      47.306  28.815  35.968  1.00  0.00    -0.200 F 
ATOM     85  C   UNL A   1      45.704  27.391  36.959  1.00  0.00     0.200 A 
ATOM     86  F   UNL A   1      44.068  25.978  37.911  1.00  0.00    -0.200 F 
ATOM     87  F   UNL A   1      46.659  26.803  37.694  1.00  0.00    -0.200 F 
ENDBRANCH  54  77
ENDBRANCH  28  29
ENDBRANCH  20  23
ENDBRANCH  18  19
ENDBRANCH   1  18
TORSDOF 12
ENDMDL
MODEL 3
REMARK VINA RESULT:     -11.8      0.217      1.715
REMARK SMILES C=C(C)C[N@@H+]1CC[C@H](C(=O)NCCCNC(=O)c2ccc(-c3c4nc(c(-c5c(F)c(F)c(F)c(F)c5F)c5ccc([nH]5)c(-c5c(F)c(F)c(F)c(F)c5F)c5nc(c(-c6c(F)c(F)c(F)c(F)c6F)c6ccc3[nH]6)C=C5)C=C4)cc2)[C@H]1C
REMARK SMILES IDX 13 1 12 2 11 3 9 4 10 5 8 7 5 8 6 9 81 10 7 12 82 13 4 14
REMARK SMILES IDX 2 15 1 16 3 17 14 18 15 19 16 20 17 22 18 23 19 24 80 25
REMARK SMILES IDX 20 26 79 27 21 28 22 29 23 30 73 31 24 32 78 33 72 34 74 35
REMARK SMILES IDX 25 36 77 37 71 38 70 39 26 41 58 42 38 43 57 44 39 45 42 46
REMARK SMILES IDX 56 47 75 48 40 49 41 50 55 52 76 53 43 54 27 55 28 56 36 57
REMARK SMILES IDX 29 58 30 59 34 60 37 61 31 62 32 63 35 64 33 65 59 66 60 67
REMARK SMILES IDX 68 68 61 69 62 70 66 71 69 72 63 73 64 74 67 75 65 76 44 77
REMARK SMILES IDX 45 78 53 79 46 80 47 81 51 82 54 83 48 84 49 85 52 86 50 87
REMARK H PARENT 11 6 5 11 15 21 74 40 42 51
REMARK Flexibility Score: inf
ROOT
ATOM      1  C   UNL A   1      31.389  32.174  26.527  1.00  0.00     0.042 C 
ENDROOT
BRANCH   1   2
ATOM      2  C   UNL A   1      31.582  30.719  26.103  1.00  0.00     0.117 C 
BRANCH   2   3
ATOM      3  N   UNL A   1      30.955  30.461  24.823  1.00  0.00    -0.356 N 
ATOM      4  C   UNL A   1      30.789  29.323  24.101  1.00  0.00     0.229 C 
ATOM      5  O   UNL A   1      30.353  29.483  22.957  1.00  0.00    -0.275 OA
ATOM      6  H   UNL A   1      30.578  31.263  24.395  1.00  0.00     0.163 HD
BRANCH   4   7
ATOM      7  C   UNL A   1      31.004  27.928  24.699  1.00  0.00     0.142 C 
ATOM      8  N   UNL A   1      32.322  26.161  23.744  1.00  0.00    -0.329 N 
ATOM      9  C   UNL A   1      31.146  26.361  22.905  1.00  0.00     0.263 C 
ATOM     10  C   UNL A   1      32.437  27.366  24.590  1.00  0.00     0.193 C 
ATOM     11  H   UNL A   1      32.214  25.340  24.341  1.00  0.00     0.348 HD
ATOM     12  C   UNL A   1      30.166  26.893  23.934  1.00  0.00     0.081 C 
ATOM     13  C   UNL A   1      32.975  26.973  25.973  1.00  0.00     0.076 C 
BRANCH   8  14
ATOM     14  C   UNL A   1      33.524  25.812  22.989  1.00  0.00     0.293 C 
BRANCH  14  15
ATOM     15  C   UNL A   1      34.001  24.421  23.339  1.00  0.00    -0.026 C 
ATOM     16  C   UNL A   1      34.857  24.181  24.348  1.00  0.00     0.013 C 
ATOM     17  C   UNL A   1      33.455  23.298  22.498  1.00  0.00     0.045 C 
ENDBRANCH  14  15
ENDBRANCH   8  14
ENDBRANCH   4   7
ENDBRANCH   2   3
ENDBRANCH   1   2
BRANCH   1  18
ATOM     18  C   UNL A   1      32.597  32.771  27.247  1.00  0.00     0.118 C 
BRANCH  18  19
ATOM     19  N   UNL A   1      32.389  34.161  27.620  1.00  0.00    -0.352 N 
ATOM     20  C   UNL A   1      32.996  34.917  28.593  1.00  0.00     0.251 C 
ATOM     21  H   UNL A   1      31.707  34.636  27.092  1.00  0.00     0.163 HD
ATOM     22  O   UNL A   1      32.540  36.018  28.880  1.00  0.00    -0.269 OA
BRANCH  20  23
ATOM     23  C   UNL A   1      34.185  34.405  29.310  1.00  0.00     0.039 A 
ATOM     24  C   UNL A   1      34.006  33.801  30.557  1.00  0.00     0.014 A 
ATOM     25  C   UNL A   1      35.469  34.545  28.778  1.00  0.00     0.014 A 
ATOM     26  C   UNL A   1      35.105  33.278  31.241  1.00  0.00     0.010 A 
ATOM     27  C   UNL A   1      36.555  33.962  29.428  1.00  0.00     0.010 A 
ATOM     28  C   UNL A   1      36.383  33.321  30.663  1.00  0.00    -0.014 A 
BRANCH  28  29
ATOM     29  C   UNL A   1      37.549  32.682  31.324  1.00  0.00     0.031 A 
ATOM     30  C   UNL A   1      38.220  31.493  30.701  1.00  0.00     0.074 A 
ATOM     31  C   UNL A   1      37.948  33.124  32.533  1.00  0.00     0.049 A 
ATOM     32  N   UNL A   1      39.183  30.740  31.174  1.00  0.00    -0.248 NA
ATOM     33  C   UNL A   1      37.725  31.077  29.380  1.00  0.00     0.031 C 
ATOM     34  C   UNL A   1      37.345  34.239  33.263  1.00  0.00     0.029 A 
ATOM     35  N   UNL A   1      38.937  32.672  33.371  1.00  0.00    -0.354 N 
ATOM     36  C   UNL A   1      39.399  29.759  30.217  1.00  0.00     0.074 A 
ATOM     37  C   UNL A   1      38.431  29.977  29.163  1.00  0.00     0.031 C 
ATOM     38  C   UNL A   1      37.976  34.386  34.437  1.00  0.00     0.029 A 
ATOM     39  C   UNL A   1      38.998  33.350  34.563  1.00  0.00     0.049 A 
ATOM     40  H   UNL A   1      39.544  31.933  33.140  1.00  0.00     0.167 HD
ATOM     41  C   UNL A   1      40.333  28.777  30.209  1.00  0.00     0.037 A 
ATOM     42  C   UNL A   1      39.771  33.147  35.647  1.00  0.00     0.037 A 
ATOM     43  C   UNL A   1      41.297  28.570  31.259  1.00  0.00     0.049 A 
ATOM     44  C   UNL A   1      40.783  32.036  35.631  1.00  0.00     0.074 A 
ATOM     45  C   UNL A   1      42.332  27.653  31.313  1.00  0.00     0.029 A 
ATOM     46  N   UNL A   1      41.336  29.286  32.447  1.00  0.00    -0.354 N 
ATOM     47  N   UNL A   1      41.035  31.164  34.685  1.00  0.00    -0.248 NA
ATOM     48  C   UNL A   1      41.617  31.881  36.830  1.00  0.00     0.031 C 
ATOM     49  C   UNL A   1      42.958  27.773  32.559  1.00  0.00     0.029 A 
ATOM     50  C   UNL A   1      42.350  28.802  33.259  1.00  0.00     0.049 A 
ATOM     51  H   UNL A   1      40.732  30.027  32.680  1.00  0.00     0.167 HD
ATOM     52  C   UNL A   1      42.062  30.363  35.168  1.00  0.00     0.074 A 
ATOM     53  C   UNL A   1      42.401  30.868  36.482  1.00  0.00     0.031 C 
ATOM     54  C   UNL A   1      42.666  29.304  34.574  1.00  0.00     0.037 A 
BRANCH  41  55
ATOM     55  C   UNL A   1      40.344  27.843  29.031  1.00  0.00     0.064 A 
ATOM     56  C   UNL A   1      39.595  26.655  29.024  1.00  0.00     0.173 A 
ATOM     57  C   UNL A   1      41.106  28.143  27.891  1.00  0.00     0.173 A 
ATOM     58  F   UNL A   1      38.855  26.317  30.090  1.00  0.00    -0.203 F 
ATOM     59  C   UNL A   1      39.646  25.782  27.941  1.00  0.00     0.198 A 
ATOM     60  C   UNL A   1      41.127  27.283  26.796  1.00  0.00     0.198 A 
ATOM     61  F   UNL A   1      41.832  29.269  27.839  1.00  0.00    -0.203 F 
ATOM     62  F   UNL A   1      38.975  24.622  27.986  1.00  0.00    -0.200 F 
ATOM     63  C   UNL A   1      40.408  26.098  26.827  1.00  0.00     0.200 A 
ATOM     64  F   UNL A   1      41.852  27.598  25.714  1.00  0.00    -0.200 F 
ATOM     65  F   UNL A   1      40.458  25.255  25.785  1.00  0.00    -0.200 F 
ENDBRANCH  41  55
BRANCH  42  66
ATOM     66  C   UNL A   1      39.603  34.022  36.836  1.00  0.00     0.064 A 
ATOM     67  C   UNL A   1      38.792  33.635  37.911  1.00  0.00     0.173 A 
ATOM     68  C   UNL A   1      40.280  35.247  36.936  1.00  0.00     0.173 A 
ATOM     69  F   UNL A   1      38.110  32.481  37.852  1.00  0.00    -0.203 F 
ATOM     70  C   UNL A   1      38.660  34.442  39.038  1.00  0.00     0.198 A 
ATOM     71  C   UNL A   1      40.168  36.040  38.076  1.00  0.00     0.198 A 
ATOM     72  F   UNL A   1      41.074  35.660  35.937  1.00  0.00    -0.203 F 
ATOM     73  F   UNL A   1      37.854  34.062  40.040  1.00  0.00    -0.200 F 
ATOM     74  C   UNL A   1      39.355  35.639  39.125  1.00  0.00     0.200 A 
ATOM     75  F   UNL A   1      40.858  37.186  38.161  1.00  0.00    -0.200 F 
ATOM     76  F   UNL A   1      39.240  36.407  40.216  1.00  0.00    -0.200 F 
ENDBRANCH  42  66
BRANCH  54  77
ATOM     77  C   UNL A   1      43.757  28.615  35.341  1.00  0.00     0.064 A 
ATOM     78  C   UNL A   1      45.104  28.976  35.181  1.00  0.00     0.173 A 
ATOM     79  C   UNL A   1      43.451  27.624  36.288  1.00  0.00     0.173 A 
ATOM     80  F   UNL A   1      45.450  29.904  34.278  1.00  0.00    -0.203 F 
ATOM     81  C   UNL A   1      46.103  28.359  35.929  1.00  0.00     0.198 A 
ATOM     82  C   UNL A   1      44.451  27.032  37.054  1.00  0.00     0.198 A 
ATOM     83  F   UNL A   1      42.179  27.246  36.482  1.00  0.00    -0.203 F 
ATOM     84  F   UNL A   1      47.386  28.692  35.730  1.00  0.00    -0.200 F 
ATOM     85  C   UNL A   1      45.775  27.396  36.871  1.00  0.00     0.200 A 
ATOM     86  F   UNL A   1      44.130  26.110  37.973  1.00  0.00    -0.200 F 
ATOM     87  F   UNL A   1      46.738  26.813  37.598  1.00  0.00    -0.200 F 
ENDBRANCH  54  77
ENDBRANCH  28  29
ENDBRANCH  20  23
ENDBRANCH  18  19
ENDBRANCH   1  18
TORSDOF 12
ENDMDL
