MODEL 1
REMARK VINA RESULT:     -11.1      0.000      0.000
REMARK SMILES CN(CCOCC1CC1)C(=O)N1CC[C@H](C(=O)NCCCNC(=O)c2ccc(-c3c4nc(c(-c5c(F)c(F)c(F)c(F)c5F)c5ccc([nH]5)c(-c5c(F)c(F)c(F)c(F)c5F)c5nc(c(-c6c(F)c(F)c(F)c(F)c6F)c6ccc3[nH]6)C=C5)C=C4)cc2)C1
REMARK SMILES IDX 12 1 13 2 14 3 15 4 88 5 10 6 11 7 2 8 1 9 3 10 4 11 5 12
REMARK SMILES IDX 6 13 7 14 8 15 9 16 16 17 17 18 18 19 19 21 20 22 21 23
REMARK SMILES IDX 22 24 23 25 24 27 25 28 26 29 87 30 27 31 86 32 28 33 29 34
REMARK SMILES IDX 30 35 80 36 31 37 85 38 79 39 81 40 32 41 84 42 78 43 77 44
REMARK SMILES IDX 33 46 65 47 45 48 64 49 46 50 49 51 63 52 82 53 47 54 48 55
REMARK SMILES IDX 62 57 83 58 50 59 34 60 35 61 43 62 36 63 37 64 41 65 44 66
REMARK SMILES IDX 38 67 39 68 42 69 40 70 66 71 67 72 75 73 68 74 69 75 73 76
REMARK SMILES IDX 76 77 70 78 71 79 74 80 72 81 51 82 52 83 60 84 53 85 54 86
REMARK SMILES IDX 58 87 61 88 55 89 56 90 59 91 57 92
REMARK H PARENT 18 20 22 26 81 45 49 56
REMARK Flexibility Score: inf
ROOT
ATOM      1  N   UNL A   1      32.575  25.411  25.781  1.00  0.00    -0.324 N 
ATOM      2  C   UNL A   1      33.858  26.025  25.462  1.00  0.00     0.122 C 
ATOM      3  C   UNL A   1      33.714  27.492  25.836  1.00  0.00     0.037 C 
ATOM      4  C   UNL A   1      32.216  27.767  25.821  1.00  0.00     0.100 C 
ATOM      5  C   UNL A   1      31.538  26.426  25.585  1.00  0.00     0.134 C 
ENDROOT
BRANCH   1   6
ATOM      6  C   UNL A   1      32.156  24.141  26.098  1.00  0.00     0.319 C 
ATOM      7  O   UNL A   1      31.621  23.963  27.202  1.00  0.00    -0.248 OA
BRANCH   6   8
ATOM      8  N   UNL A   1      32.313  23.059  25.257  1.00  0.00    -0.325 N 
ATOM      9  C   UNL A   1      31.327  22.932  24.180  1.00  0.00     0.148 C 
BRANCH   8  10
ATOM     10  C   UNL A   1      33.394  22.077  25.204  1.00  0.00     0.149 C 
BRANCH  10  11
ATOM     11  C   UNL A   1      33.316  20.965  26.267  1.00  0.00     0.181 C 
BRANCH  11  12
ATOM     12  O   UNL A   1      33.004  19.665  25.764  1.00  0.00    -0.379 OA
BRANCH  12  13
ATOM     13  C   UNL A   1      33.099  19.563  24.343  1.00  0.00     0.163 C 
BRANCH  13  14
ATOM     14  C   UNL A   1      32.723  18.197  23.886  1.00  0.00     0.015 C 
ATOM     15  C   UNL A   1      32.419  18.022  22.419  1.00  0.00     0.006 C 
ATOM     16  C   UNL A   1      33.636  17.374  23.017  1.00  0.00     0.006 C 
ENDBRANCH  13  14
ENDBRANCH  12  13
ENDBRANCH  11  12
ENDBRANCH  10  11
ENDBRANCH   8  10
ENDBRANCH   6   8
ENDBRANCH   1   6
BRANCH   4  17
ATOM     17  C   UNL A   1      31.750  28.508  27.066  1.00  0.00     0.224 C 
ATOM     18  O   UNL A   1      31.565  27.884  28.116  1.00  0.00    -0.275 OA
ATOM     19  N   UNL A   1      31.455  29.834  27.082  1.00  0.00    -0.356 N 
ATOM     20  H   UNL A   1      31.065  30.150  27.929  1.00  0.00     0.163 HD
BRANCH  19  21
ATOM     21  C   UNL A   1      31.612  30.868  26.077  1.00  0.00     0.117 C 
BRANCH  21  22
ATOM     22  C   UNL A   1      31.411  32.271  26.622  1.00  0.00     0.042 C 
BRANCH  22  23
ATOM     23  C   UNL A   1      32.682  32.860  27.206  1.00  0.00     0.118 C 
BRANCH  23  24
ATOM     24  N   UNL A   1      32.499  34.242  27.632  1.00  0.00    -0.352 N 
ATOM     25  C   UNL A   1      33.065  34.925  28.675  1.00  0.00     0.251 C 
ATOM     26  H   UNL A   1      31.871  34.766  27.085  1.00  0.00     0.163 HD
ATOM     27  O   UNL A   1      32.613  36.016  29.007  1.00  0.00    -0.269 OA
BRANCH  25  28
ATOM     28  C   UNL A   1      34.218  34.352  29.397  1.00  0.00     0.039 A 
ATOM     29  C   UNL A   1      35.506  34.596  28.914  1.00  0.00     0.014 A 
ATOM     30  C   UNL A   1      34.030  33.542  30.519  1.00  0.00     0.014 A 
ATOM     31  C   UNL A   1      36.604  34.044  29.573  1.00  0.00     0.010 A 
ATOM     32  C   UNL A   1      35.125  33.087  31.237  1.00  0.00     0.010 A 
ATOM     33  C   UNL A   1      36.421  33.298  30.748  1.00  0.00    -0.014 A 
BRANCH  33  34
ATOM     34  C   UNL A   1      37.560  32.649  31.435  1.00  0.00     0.031 A 
ATOM     35  C   UNL A   1      38.298  31.533  30.746  1.00  0.00     0.074 A 
ATOM     36  C   UNL A   1      37.900  33.031  32.681  1.00  0.00     0.049 A 
ATOM     37  N   UNL A   1      39.269  30.778  31.193  1.00  0.00    -0.248 NA
ATOM     38  C   UNL A   1      37.861  31.195  29.379  1.00  0.00     0.031 C 
ATOM     39  C   UNL A   1      37.231  34.074  33.461  1.00  0.00     0.029 A 
ATOM     40  N   UNL A   1      38.894  32.580  33.509  1.00  0.00    -0.354 N 
ATOM     41  C   UNL A   1      39.543  29.875  30.174  1.00  0.00     0.074 A 
ATOM     42  C   UNL A   1      38.589  30.122  29.116  1.00  0.00     0.031 C 
ATOM     43  C   UNL A   1      37.857  34.207  34.642  1.00  0.00     0.029 A 
ATOM     44  C   UNL A   1      38.941  33.234  34.716  1.00  0.00     0.049 A 
ATOM     45  H   UNL A   1      39.515  31.857  33.263  1.00  0.00     0.167 HD
ATOM     46  C   UNL A   1      40.527  28.948  30.107  1.00  0.00     0.037 A 
ATOM     47  C   UNL A   1      39.774  33.062  35.760  1.00  0.00     0.037 A 
ATOM     48  C   UNL A   1      41.493  28.730  31.149  1.00  0.00     0.049 A 
ATOM     49  C   UNL A   1      40.858  32.020  35.659  1.00  0.00     0.074 A 
ATOM     50  C   UNL A   1      42.544  27.832  31.182  1.00  0.00     0.029 A 
ATOM     51  N   UNL A   1      41.529  29.435  32.344  1.00  0.00    -0.354 N 
ATOM     52  N   UNL A   1      41.136  31.202  34.673  1.00  0.00    -0.248 NA
ATOM     53  C   UNL A   1      41.755  31.892  36.815  1.00  0.00     0.031 C 
ATOM     54  C   UNL A   1      43.198  27.971  32.410  1.00  0.00     0.029 A 
ATOM     55  C   UNL A   1      42.586  28.993  33.121  1.00  0.00     0.049 A 
ATOM     56  H   UNL A   1      40.897  30.144  32.601  1.00  0.00     0.167 HD
ATOM     57  C   UNL A   1      42.265  30.498  35.069  1.00  0.00     0.074 A 
ATOM     58  C   UNL A   1      42.626  30.994  36.381  1.00  0.00     0.031 C 
ATOM     59  C   UNL A   1      42.944  29.527  34.408  1.00  0.00     0.037 A 
BRANCH  46  60
ATOM     60  C   UNL A   1      40.615  28.119  28.858  1.00  0.00     0.064 A 
ATOM     61  C   UNL A   1      41.419  28.510  27.775  1.00  0.00     0.173 A 
ATOM     62  C   UNL A   1      39.913  26.909  28.748  1.00  0.00     0.173 A 
ATOM     63  F   UNL A   1      42.098  29.665  27.821  1.00  0.00    -0.203 F 
ATOM     64  C   UNL A   1      41.494  27.736  26.620  1.00  0.00     0.198 A 
ATOM     65  C   UNL A   1      40.016  26.122  27.604  1.00  0.00     0.198 A 
ATOM     66  F   UNL A   1      39.132  26.487  29.754  1.00  0.00    -0.203 F 
ATOM     67  F   UNL A   1      42.224  28.159  25.579  1.00  0.00    -0.200 F 
ATOM     68  C   UNL A   1      40.799  26.539  26.538  1.00  0.00     0.200 A 
ATOM     69  F   UNL A   1      39.354  24.959  27.532  1.00  0.00    -0.200 F 
ATOM     70  F   UNL A   1      40.878  25.792  25.429  1.00  0.00    -0.200 F 
ENDBRANCH  46  60
BRANCH  47  71
ATOM     71  C   UNL A   1      39.651  33.915  36.970  1.00  0.00     0.064 A 
ATOM     72  C   UNL A   1      38.910  33.482  38.080  1.00  0.00     0.173 A 
ATOM     73  C   UNL A   1      40.234  35.188  37.035  1.00  0.00     0.173 A 
ATOM     74  F   UNL A   1      38.318  32.278  38.061  1.00  0.00    -0.203 F 
ATOM     75  C   UNL A   1      38.723  34.305  39.189  1.00  0.00     0.198 A 
ATOM     76  C   UNL A   1      40.075  35.997  38.157  1.00  0.00     0.198 A 
ATOM     77  F   UNL A   1      40.962  35.646  36.006  1.00  0.00    -0.203 F 
ATOM     78  F   UNL A   1      37.956  33.890  40.206  1.00  0.00    -0.200 F 
ATOM     79  C   UNL A   1      39.308  35.561  39.227  1.00  0.00     0.200 A 
ATOM     80  F   UNL A   1      40.656  37.204  38.198  1.00  0.00    -0.200 F 
ATOM     81  F   UNL A   1      39.125  36.355  40.291  1.00  0.00    -0.200 F 
ENDBRANCH  47  71
BRANCH  59  82
ATOM     82  C   UNL A   1      44.189  28.999  35.061  1.00  0.00     0.064 A 
ATOM     83  C   UNL A   1      44.158  27.917  35.952  1.00  0.00     0.173 A 
ATOM     84  C   UNL A   1      45.435  29.577  34.769  1.00  0.00     0.173 A 
ATOM     85  F   UNL A   1      42.991  27.339  36.273  1.00  0.00    -0.203 F 
ATOM     86  C   UNL A   1      45.325  27.459  36.560  1.00  0.00     0.198 A 
ATOM     87  C   UNL A   1      46.602  29.093  35.350  1.00  0.00     0.198 A 
ATOM     88  F   UNL A   1      45.519  30.607  33.914  1.00  0.00    -0.203 F 
ATOM     89  F   UNL A   1      45.264  26.466  37.456  1.00  0.00    -0.200 F 
ATOM     90  C   UNL A   1      46.545  28.044  36.254  1.00  0.00     0.200 A 
ATOM     91  F   UNL A   1      47.782  29.649  35.042  1.00  0.00    -0.200 F 
ATOM     92  F   UNL A   1      47.665  27.601  36.839  1.00  0.00    -0.200 F 
ENDBRANCH  59  82
ENDBRANCH  33  34
ENDBRANCH  25  28
ENDBRANCH  23  24
ENDBRANCH  22  23
ENDBRANCH  21  22
ENDBRANCH  19  21
ENDBRANCH   4  17
TORSDOF 17
ENDMDL
MODEL 2
REMARK VINA RESULT:     -11.0      1.054      7.594
REMARK SMILES CN(CCOCC1CC1)C(=O)N1CC[C@H](C(=O)NCCCNC(=O)c2ccc(-c3c4nc(c(-c5c(F)c(F)c(F)c(F)c5F)c5ccc([nH]5)c(-c5c(F)c(F)c(F)c(F)c5F)c5nc(c(-c6c(F)c(F)c(F)c(F)c6F)c6ccc3[nH]6)C=C5)C=C4)cc2)C1
REMARK SMILES IDX 12 1 13 2 14 3 15 4 88 5 10 6 11 7 2 8 1 9 3 10 4 11 5 12
REMARK SMILES IDX 6 13 7 14 8 15 9 16 16 17 17 18 18 19 19 21 20 22 21 23
REMARK SMILES IDX 22 24 23 25 24 27 25 28 26 29 87 30 27 31 86 32 28 33 29 34
REMARK SMILES IDX 30 35 80 36 31 37 85 38 79 39 81 40 32 41 84 42 78 43 77 44
REMARK SMILES IDX 33 46 65 47 45 48 64 49 46 50 49 51 63 52 82 53 47 54 48 55
REMARK SMILES IDX 62 57 83 58 50 59 34 60 35 61 43 62 36 63 37 64 41 65 44 66
REMARK SMILES IDX 38 67 39 68 42 69 40 70 66 71 67 72 75 73 68 74 69 75 73 76
REMARK SMILES IDX 76 77 70 78 71 79 74 80 72 81 51 82 52 83 60 84 53 85 54 86
REMARK SMILES IDX 58 87 61 88 55 89 56 90 59 91 57 92
REMARK H PARENT 18 20 22 26 81 45 49 56
REMARK Flexibility Score: inf
ROOT
ATOM      1  N   UNL A   1      32.101  25.409  25.595  1.00  0.00    -0.324 N 
ATOM      2  C   UNL A   1      33.498  25.779  25.411  1.00  0.00     0.122 C 
ATOM      3  C   UNL A   1      33.602  27.226  25.867  1.00  0.00     0.037 C 
ATOM      4  C   UNL A   1      32.190  27.786  25.759  1.00  0.00     0.100 C 
ATOM      5  C   UNL A   1      31.293  26.614  25.388  1.00  0.00     0.134 C 
ENDROOT
BRANCH   1   6
ATOM      6  C   UNL A   1      31.424  24.231  25.799  1.00  0.00     0.319 C 
ATOM      7  O   UNL A   1      30.663  24.157  26.775  1.00  0.00    -0.248 OA
BRANCH   6   8
ATOM      8  N   UNL A   1      31.561  23.127  24.982  1.00  0.00    -0.325 N 
ATOM      9  C   UNL A   1      31.217  23.324  23.571  1.00  0.00     0.148 C 
BRANCH   8  10
ATOM     10  C   UNL A   1      32.116  21.811  25.290  1.00  0.00     0.149 C 
BRANCH  10  11
ATOM     11  C   UNL A   1      33.021  21.214  24.196  1.00  0.00     0.181 C 
BRANCH  11  12
ATOM     12  O   UNL A   1      34.249  20.652  24.662  1.00  0.00    -0.379 OA
BRANCH  12  13
ATOM     13  C   UNL A   1      35.096  21.594  25.320  1.00  0.00     0.163 C 
BRANCH  13  14
ATOM     14  C   UNL A   1      35.446  22.716  24.406  1.00  0.00     0.015 C 
ATOM     15  C   UNL A   1      36.679  23.518  24.741  1.00  0.00     0.006 C 
ATOM     16  C   UNL A   1      36.655  22.659  23.509  1.00  0.00     0.006 C 
ENDBRANCH  13  14
ENDBRANCH  12  13
ENDBRANCH  11  12
ENDBRANCH  10  11
ENDBRANCH   8  10
ENDBRANCH   6   8
ENDBRANCH   1   6
BRANCH   4  17
ATOM     17  C   UNL A   1      31.768  28.542  27.010  1.00  0.00     0.224 C 
ATOM     18  O   UNL A   1      31.669  27.940  28.084  1.00  0.00    -0.275 OA
ATOM     19  N   UNL A   1      31.422  29.856  27.011  1.00  0.00    -0.356 N 
ATOM     20  H   UNL A   1      31.070  30.179  27.872  1.00  0.00     0.163 HD
BRANCH  19  21
ATOM     21  C   UNL A   1      31.479  30.867  25.974  1.00  0.00     0.117 C 
BRANCH  21  22
ATOM     22  C   UNL A   1      31.368  32.284  26.509  1.00  0.00     0.042 C 
BRANCH  22  23
ATOM     23  C   UNL A   1      32.675  32.797  27.085  1.00  0.00     0.118 C 
BRANCH  23  24
ATOM     24  N   UNL A   1      32.544  34.144  27.625  1.00  0.00    -0.352 N 
ATOM     25  C   UNL A   1      33.158  34.725  28.702  1.00  0.00     0.251 C 
ATOM     26  H   UNL A   1      31.916  34.727  27.140  1.00  0.00     0.163 HD
ATOM     27  O   UNL A   1      32.747  35.798  29.134  1.00  0.00    -0.269 OA
BRANCH  25  28
ATOM     28  C   UNL A   1      34.313  34.066  29.341  1.00  0.00     0.039 A 
ATOM     29  C   UNL A   1      35.602  34.443  28.958  1.00  0.00     0.014 A 
ATOM     30  C   UNL A   1      34.128  33.050  30.281  1.00  0.00     0.014 A 
ATOM     31  C   UNL A   1      36.704  33.814  29.538  1.00  0.00     0.010 A 
ATOM     32  C   UNL A   1      35.221  32.504  30.937  1.00  0.00     0.010 A 
ATOM     33  C   UNL A   1      36.519  32.851  30.543  1.00  0.00    -0.014 A 
BRANCH  33  34
ATOM     34  C   UNL A   1      37.666  32.122  31.133  1.00  0.00     0.031 A 
ATOM     35  C   UNL A   1      38.120  32.468  32.525  1.00  0.00     0.074 A 
ATOM     36  C   UNL A   1      38.315  31.191  30.409  1.00  0.00     0.049 A 
ATOM     37  N   UNL A   1      39.144  32.013  33.202  1.00  0.00    -0.248 NA
ATOM     38  C   UNL A   1      37.338  33.491  33.243  1.00  0.00     0.031 C 
ATOM     39  C   UNL A   1      37.987  30.803  29.036  1.00  0.00     0.029 A 
ATOM     40  N   UNL A   1      39.391  30.405  30.731  1.00  0.00    -0.354 N 
ATOM     41  C   UNL A   1      39.134  32.703  34.408  1.00  0.00     0.074 A 
ATOM     42  C   UNL A   1      38.053  33.660  34.343  1.00  0.00     0.031 C 
ATOM     43  C   UNL A   1      38.823  29.826  28.645  1.00  0.00     0.029 A 
ATOM     44  C   UNL A   1      39.766  29.550  29.724  1.00  0.00     0.049 A 
ATOM     45  H   UNL A   1      39.850  30.449  31.600  1.00  0.00     0.167 HD
ATOM     46  C   UNL A   1      39.929  32.527  35.489  1.00  0.00     0.037 A 
ATOM     47  C   UNL A   1      40.762  28.645  29.686  1.00  0.00     0.037 A 
ATOM     48  C   UNL A   1      40.982  31.550  35.559  1.00  0.00     0.049 A 
ATOM     49  C   UNL A   1      41.634  28.474  30.902  1.00  0.00     0.074 A 
ATOM     50  C   UNL A   1      41.837  31.272  36.609  1.00  0.00     0.029 A 
ATOM     51  N   UNL A   1      41.310  30.679  34.530  1.00  0.00    -0.354 N 
ATOM     52  N   UNL A   1      41.587  29.100  32.053  1.00  0.00    -0.248 NA
ATOM     53  C   UNL A   1      42.688  27.454  30.816  1.00  0.00     0.031 C 
ATOM     54  C   UNL A   1      42.706  30.253  36.204  1.00  0.00     0.029 A 
ATOM     55  C   UNL A   1      42.357  29.861  34.921  1.00  0.00     0.049 A 
ATOM     56  H   UNL A   1      40.867  30.647  33.652  1.00  0.00     0.167 HD
ATOM     57  C   UNL A   1      42.570  28.519  32.843  1.00  0.00     0.074 A 
ATOM     58  C   UNL A   1      43.189  27.483  32.042  1.00  0.00     0.031 C 
ATOM     59  C   UNL A   1      42.931  28.814  34.117  1.00  0.00     0.037 A 
BRANCH  46  60
ATOM     60  C   UNL A   1      39.674  33.397  36.687  1.00  0.00     0.064 A 
ATOM     61  C   UNL A   1      38.777  33.010  37.695  1.00  0.00     0.173 A 
ATOM     62  C   UNL A   1      40.348  34.617  36.844  1.00  0.00     0.173 A 
ATOM     63  F   UNL A   1      38.093  31.862  37.585  1.00  0.00    -0.203 F 
ATOM     64  C   UNL A   1      38.544  33.823  38.801  1.00  0.00     0.198 A 
ATOM     65  C   UNL A   1      40.138  35.413  37.967  1.00  0.00     0.198 A 
ATOM     66  F   UNL A   1      41.218  35.035  35.912  1.00  0.00    -0.203 F 
ATOM     67  F   UNL A   1      37.643  33.457  39.722  1.00  0.00    -0.200 F 
ATOM     68  C   UNL A   1      39.231  35.020  38.940  1.00  0.00     0.200 A 
ATOM     69  F   UNL A   1      40.812  36.562  38.107  1.00  0.00    -0.200 F 
ATOM     70  F   UNL A   1      39.012  35.798  40.009  1.00  0.00    -0.200 F 
ENDBRANCH  46  60
BRANCH  47  71
ATOM     71  C   UNL A   1      40.967  27.802  28.479  1.00  0.00     0.064 A 
ATOM     72  C   UNL A   1      41.854  28.200  27.468  1.00  0.00     0.173 A 
ATOM     73  C   UNL A   1      40.262  26.605  28.291  1.00  0.00     0.173 A 
ATOM     74  F   UNL A   1      42.540  29.346  27.594  1.00  0.00    -0.203 F 
ATOM     75  C   UNL A   1      41.996  27.457  26.298  1.00  0.00     0.198 A 
ATOM     76  C   UNL A   1      40.429  25.845  27.136  1.00  0.00     0.198 A 
ATOM     77  F   UNL A   1      39.410  26.172  29.232  1.00  0.00    -0.203 F 
ATOM     78  F   UNL A   1      42.801  27.897  25.322  1.00  0.00    -0.200 F 
ATOM     79  C   UNL A   1      41.285  26.278  26.134  1.00  0.00     0.200 A 
ATOM     80  F   UNL A   1      39.754  24.696  26.988  1.00  0.00    -0.200 F 
ATOM     81  F   UNL A   1      41.417  25.565  25.008  1.00  0.00    -0.200 F 
ENDBRANCH  47  71
BRANCH  59  82
ATOM     82  C   UNL A   1      43.988  27.954  34.745  1.00  0.00     0.064 A 
ATOM     83  C   UNL A   1      43.675  26.766  35.421  1.00  0.00     0.173 A 
ATOM     84  C   UNL A   1      45.341  28.318  34.646  1.00  0.00     0.173 A 
ATOM     85  F   UNL A   1      42.397  26.382  35.554  1.00  0.00    -0.203 F 
ATOM     86  C   UNL A   1      44.674  25.997  36.013  1.00  0.00     0.198 A 
ATOM     87  C   UNL A   1      46.338  27.528  35.207  1.00  0.00     0.198 A 
ATOM     88  F   UNL A   1      45.694  29.439  33.999  1.00  0.00    -0.203 F 
ATOM     89  F   UNL A   1      44.346  24.900  36.709  1.00  0.00    -0.200 F 
ATOM     90  C   UNL A   1      46.004  26.375  35.900  1.00  0.00     0.200 A 
ATOM     91  F   UNL A   1      47.624  27.886  35.084  1.00  0.00    -0.200 F 
ATOM     92  F   UNL A   1      46.962  25.632  36.469  1.00  0.00    -0.200 F 
ENDBRANCH  59  82
ENDBRANCH  33  34
ENDBRANCH  25  28
ENDBRANCH  23  24
ENDBRANCH  22  23
ENDBRANCH  21  22
ENDBRANCH  19  21
ENDBRANCH   4  17
TORSDOF 17
ENDMDL
MODEL 3
REMARK VINA RESULT:     -11.0      0.868      7.506
REMARK SMILES CN(CCOCC1CC1)C(=O)N1CC[C@H](C(=O)NCCCNC(=O)c2ccc(-c3c4nc(c(-c5c(F)c(F)c(F)c(F)c5F)c5ccc([nH]5)c(-c5c(F)c(F)c(F)c(F)c5F)c5nc(c(-c6c(F)c(F)c(F)c(F)c6F)c6ccc3[nH]6)C=C5)C=C4)cc2)C1
REMARK SMILES IDX 12 1 13 2 14 3 15 4 88 5 10 6 11 7 2 8 1 9 3 10 4 11 5 12
REMARK SMILES IDX 6 13 7 14 8 15 9 16 16 17 17 18 18 19 19 21 20 22 21 23
REMARK SMILES IDX 22 24 23 25 24 27 25 28 26 29 87 30 27 31 86 32 28 33 29 34
REMARK SMILES IDX 30 35 80 36 31 37 85 38 79 39 81 40 32 41 84 42 78 43 77 44
REMARK SMILES IDX 33 46 65 47 45 48 64 49 46 50 49 51 63 52 82 53 47 54 48 55
REMARK SMILES IDX 62 57 83 58 50 59 34 60 35 61 43 62 36 63 37 64 41 65 44 66
REMARK SMILES IDX 38 67 39 68 42 69 40 70 66 71 67 72 75 73 68 74 69 75 73 76
REMARK SMILES IDX 76 77 70 78 71 79 74 80 72 81 51 82 52 83 60 84 53 85 54 86
REMARK SMILES IDX 58 87 61 88 55 89 56 90 59 91 57 92
REMARK H PARENT 18 20 22 26 81 45 49 56
REMARK Flexibility Score: inf
ROOT
ATOM      1  N   UNL A   1      32.164  25.804  25.222  1.00  0.00    -0.324 N 
ATOM      2  C   UNL A   1      33.375  25.943  24.425  1.00  0.00     0.122 C 
ATOM      3  C   UNL A   1      33.882  27.352  24.694  1.00  0.00     0.037 C 
ATOM      4  C   UNL A   1      32.667  28.134  25.174  1.00  0.00     0.100 C 
ATOM      5  C   UNL A   1      31.536  27.124  25.309  1.00  0.00     0.134 C 
ENDROOT
BRANCH   1   6
ATOM      6  C   UNL A   1      31.480  24.749  25.777  1.00  0.00     0.319 C 
ATOM      7  O   UNL A   1      30.950  24.917  26.885  1.00  0.00    -0.248 OA
BRANCH   6   8
ATOM      8  N   UNL A   1      31.368  23.515  25.170  1.00  0.00    -0.325 N 
ATOM      9  C   UNL A   1      30.969  23.526  23.759  1.00  0.00     0.148 C 
BRANCH   8  10
ATOM     10  C   UNL A   1      31.704  22.193  25.692  1.00  0.00     0.149 C 
BRANCH  10  11
ATOM     11  C   UNL A   1      32.399  21.254  24.688  1.00  0.00     0.181 C 
BRANCH  11  12
ATOM     12  O   UNL A   1      32.123  19.864  24.864  1.00  0.00    -0.379 OA
BRANCH  12  13
ATOM     13  C   UNL A   1      32.472  19.064  23.734  1.00  0.00     0.163 C 
BRANCH  13  14
ATOM     14  C   UNL A   1      33.555  18.104  24.082  1.00  0.00     0.015 C 
ATOM     15  C   UNL A   1      33.153  16.670  24.323  1.00  0.00     0.006 C 
ATOM     16  C   UNL A   1      33.992  17.023  23.128  1.00  0.00     0.006 C 
ENDBRANCH  13  14
ENDBRANCH  12  13
ENDBRANCH  11  12
ENDBRANCH  10  11
ENDBRANCH   8  10
ENDBRANCH   6   8
ENDBRANCH   1   6
BRANCH   4  17
ATOM     17  C   UNL A   1      32.955  28.940  26.432  1.00  0.00     0.224 C 
ATOM     18  O   UNL A   1      33.790  28.529  27.244  1.00  0.00    -0.275 OA
ATOM     19  N   UNL A   1      32.292  30.080  26.760  1.00  0.00    -0.356 N 
ATOM     20  H   UNL A   1      32.512  30.431  27.653  1.00  0.00     0.163 HD
BRANCH  19  21
ATOM     21  C   UNL A   1      31.319  30.871  26.032  1.00  0.00     0.117 C 
BRANCH  21  22
ATOM     22  C   UNL A   1      31.261  32.319  26.487  1.00  0.00     0.042 C 
BRANCH  22  23
ATOM     23  C   UNL A   1      32.536  32.769  27.175  1.00  0.00     0.118 C 
BRANCH  23  24
ATOM     24  N   UNL A   1      32.450  34.147  27.639  1.00  0.00    -0.352 N 
ATOM     25  C   UNL A   1      33.115  34.778  28.657  1.00  0.00     0.251 C 
ATOM     26  H   UNL A   1      31.815  34.714  27.144  1.00  0.00     0.163 HD
ATOM     27  O   UNL A   1      32.740  35.882  29.039  1.00  0.00    -0.269 OA
BRANCH  25  28
ATOM     28  C   UNL A   1      34.281  34.134  29.291  1.00  0.00     0.039 A 
ATOM     29  C   UNL A   1      35.563  34.485  28.862  1.00  0.00     0.014 A 
ATOM     30  C   UNL A   1      34.112  33.155  30.273  1.00  0.00     0.014 A 
ATOM     31  C   UNL A   1      36.674  33.869  29.436  1.00  0.00     0.010 A 
ATOM     32  C   UNL A   1      35.218  32.625  30.921  1.00  0.00     0.010 A 
ATOM     33  C   UNL A   1      36.509  32.946  30.481  1.00  0.00    -0.014 A 
BRANCH  33  34
ATOM     34  C   UNL A   1      37.664  32.231  31.069  1.00  0.00     0.031 A 
ATOM     35  C   UNL A   1      38.138  32.605  32.448  1.00  0.00     0.074 A 
ATOM     36  C   UNL A   1      38.304  31.286  30.355  1.00  0.00     0.049 A 
ATOM     37  N   UNL A   1      39.172  32.164  33.119  1.00  0.00    -0.248 NA
ATOM     38  C   UNL A   1      37.366  33.641  33.156  1.00  0.00     0.031 C 
ATOM     39  C   UNL A   1      37.957  30.869  28.995  1.00  0.00     0.029 A 
ATOM     40  N   UNL A   1      39.385  30.507  30.677  1.00  0.00    -0.354 N 
ATOM     41  C   UNL A   1      39.179  32.878  34.310  1.00  0.00     0.074 A 
ATOM     42  C   UNL A   1      38.096  33.833  34.242  1.00  0.00     0.031 C 
ATOM     43  C   UNL A   1      38.788  29.885  28.612  1.00  0.00     0.029 A 
ATOM     44  C   UNL A   1      39.747  29.632  29.682  1.00  0.00     0.049 A 
ATOM     45  H   UNL A   1      39.857  30.569  31.538  1.00  0.00     0.167 HD
ATOM     46  C   UNL A   1      39.990  32.725  35.383  1.00  0.00     0.037 A 
ATOM     47  C   UNL A   1      40.743  28.727  29.648  1.00  0.00     0.037 A 
ATOM     48  C   UNL A   1      41.045  31.751  35.457  1.00  0.00     0.049 A 
ATOM     49  C   UNL A   1      41.633  28.581  30.855  1.00  0.00     0.074 A 
ATOM     50  C   UNL A   1      41.916  31.495  36.500  1.00  0.00     0.029 A 
ATOM     51  N   UNL A   1      41.359  30.859  34.441  1.00  0.00    -0.354 N 
ATOM     52  N   UNL A   1      41.602  29.230  31.993  1.00  0.00    -0.248 NA
ATOM     53  C   UNL A   1      42.686  27.561  30.774  1.00  0.00     0.031 C 
ATOM     54  C   UNL A   1      42.779  30.468  36.104  1.00  0.00     0.029 A 
ATOM     55  C   UNL A   1      42.412  30.050  34.834  1.00  0.00     0.049 A 
ATOM     56  H   UNL A   1      40.903  30.809  33.571  1.00  0.00     0.167 HD
ATOM     57  C   UNL A   1      42.597  28.667  32.781  1.00  0.00     0.074 A 
ATOM     58  C   UNL A   1      43.205  27.615  31.992  1.00  0.00     0.031 C 
ATOM     59  C   UNL A   1      42.976  28.988  34.043  1.00  0.00     0.037 A 
BRANCH  46  60
ATOM     60  C   UNL A   1      39.751  33.619  36.566  1.00  0.00     0.064 A 
ATOM     61  C   UNL A   1      40.387  34.866  36.682  1.00  0.00     0.173 A 
ATOM     62  C   UNL A   1      38.860  33.242  37.582  1.00  0.00     0.173 A 
ATOM     63  F   UNL A   1      41.261  35.267  35.748  1.00  0.00    -0.203 F 
ATOM     64  C   UNL A   1      40.162  35.687  37.783  1.00  0.00     0.198 A 
ATOM     65  C   UNL A   1      38.613  34.081  38.666  1.00  0.00     0.198 A 
ATOM     66  F   UNL A   1      38.223  32.063  37.521  1.00  0.00    -0.203 F 
ATOM     67  F   UNL A   1      40.824  36.847  37.898  1.00  0.00    -0.200 F 
ATOM     68  C   UNL A   1      39.269  35.298  38.770  1.00  0.00     0.200 A 
ATOM     69  F   UNL A   1      37.739  33.710  39.612  1.00  0.00    -0.200 F 
ATOM     70  F   UNL A   1      39.047  36.093  39.826  1.00  0.00    -0.200 F 
ENDBRANCH  46  60
BRANCH  47  71
ATOM     71  C   UNL A   1      40.931  27.860  28.456  1.00  0.00     0.064 A 
ATOM     72  C   UNL A   1      41.760  28.264  27.399  1.00  0.00     0.173 A 
ATOM     73  C   UNL A   1      40.267  26.632  28.328  1.00  0.00     0.173 A 
ATOM     74  F   UNL A   1      42.405  29.438  27.466  1.00  0.00    -0.203 F 
ATOM     75  C   UNL A   1      41.883  27.495  26.243  1.00  0.00     0.198 A 
ATOM     76  C   UNL A   1      40.416  25.847  27.187  1.00  0.00     0.198 A 
ATOM     77  F   UNL A   1      39.472  26.193  29.315  1.00  0.00    -0.203 F 
ATOM     78  F   UNL A   1      42.630  27.938  25.223  1.00  0.00    -0.200 F 
ATOM     79  C   UNL A   1      41.213  26.285  26.140  1.00  0.00     0.200 A 
ATOM     80  F   UNL A   1      39.782  24.671  27.098  1.00  0.00    -0.200 F 
ATOM     81  F   UNL A   1      41.327  25.548  25.027  1.00  0.00    -0.200 F 
ENDBRANCH  47  71
BRANCH  59  82
ATOM     82  C   UNL A   1      44.043  28.141  34.673  1.00  0.00     0.064 A 
ATOM     83  C   UNL A   1      45.399  28.495  34.623  1.00  0.00     0.173 A 
ATOM     84  C   UNL A   1      43.695  26.965  35.356  1.00  0.00     0.173 A 
ATOM     85  F   UNL A   1      45.784  29.602  33.970  1.00  0.00    -0.203 F 
ATOM     86  C   UNL A   1      46.372  27.681  35.197  1.00  0.00     0.198 A 
ATOM     87  C   UNL A   1      44.666  26.173  35.960  1.00  0.00     0.198 A 
ATOM     88  F   UNL A   1      42.410  26.588  35.442  1.00  0.00    -0.203 F 
ATOM     89  F   UNL A   1      47.666  28.006  35.082  1.00  0.00    -0.200 F 
ATOM     90  C   UNL A   1      46.004  26.525  35.870  1.00  0.00     0.200 A 
ATOM     91  F   UNL A   1      44.307  25.065  36.622  1.00  0.00    -0.200 F 
ATOM     92  F   UNL A   1      46.941  25.744  36.423  1.00  0.00    -0.200 F 
ENDBRANCH  59  82
ENDBRANCH  33  34
ENDBRANCH  25  28
ENDBRANCH  23  24
ENDBRANCH  22  23
ENDBRANCH  21  22
ENDBRANCH  19  21
ENDBRANCH   4  17
TORSDOF 17
ENDMDL
