MODEL 1
REMARK VINA RESULT:     -13.3      0.000      0.000
REMARK SMILES O=C(C[C@@H](NC(=O)c1ccco1)c1ccc(OC2CCCC2)cc1)NCCCNC(=O)c1ccc(-c2c3nc(c(-c4c(F)c(F)c(F)c(F)c4F)c4ccc([nH]4)c(-c4c(F)c(F)c(F)c(F)c4F)c4nc(c(-c5c(F)c(F)c(F)c(F)c5F)c5ccc2[nH]5)C=C4)C=C3)cc1
REMARK SMILES IDX 26 1 25 2 1 3 2 4 3 6 4 7 5 8 6 9 7 11 8 12 9 13 12 14 10 15
REMARK SMILES IDX 11 16 13 17 14 18 24 19 15 20 23 21 16 22 17 23 18 24 19 25
REMARK SMILES IDX 22 26 20 27 21 28 27 29 28 30 29 31 30 32 31 34 32 35 33 36
REMARK SMILES IDX 94 37 34 38 93 39 35 40 36 41 37 42 87 43 38 44 92 45 86 46
REMARK SMILES IDX 88 47 39 48 91 49 85 50 84 51 40 53 72 54 52 55 71 56 53 57
REMARK SMILES IDX 56 58 70 59 89 60 54 61 55 62 69 64 90 65 57 66 41 67 42 68
REMARK SMILES IDX 50 69 43 70 44 71 48 72 51 73 45 74 46 75 49 76 47 77 73 78
REMARK SMILES IDX 74 79 82 80 75 81 76 82 80 83 83 84 77 85 78 86 81 87 79 88
REMARK SMILES IDX 58 89 59 90 67 91 60 92 61 93 65 94 68 95 62 96 63 97 66 98
REMARK SMILES IDX 64 99
REMARK H PARENT 25 5 5 10 29 33 88 52 56 63
REMARK Flexibility Score: inf
ROOT
ATOM      1  C   UNL A   1      31.838  30.586  26.497  1.00  0.00     0.117 C 
ENDROOT
BRANCH   1   2
ATOM      2  N   UNL A   1      31.223  30.097  25.279  1.00  0.00    -0.356 N 
ATOM      3  O   UNL A   1      33.121  29.131  24.413  1.00  0.00    -0.275 OA
ATOM      4  C   UNL A   1      31.930  29.406  24.321  1.00  0.00     0.222 C 
ATOM      5  H   UNL A   1      30.264  30.266  25.132  1.00  0.00     0.163 HD
BRANCH   4   6
ATOM      6  C   UNL A   1      31.099  28.951  23.145  1.00  0.00     0.129 C 
BRANCH   6   7
ATOM      7  C   UNL A   1      29.866  28.162  23.629  1.00  0.00     0.122 C 
BRANCH   7   8
ATOM      8  N   UNL A   1      28.764  28.211  22.653  1.00  0.00    -0.342 N 
ATOM      9  C   UNL A   1      27.717  29.100  22.816  1.00  0.00     0.287 C 
ATOM     10  H   UNL A   1      28.772  27.605  21.878  1.00  0.00     0.164 HD
ATOM     11  O   UNL A   1      26.697  28.687  23.373  1.00  0.00    -0.266 OA
BRANCH   9  12
ATOM     12  C   UNL A   1      27.919  30.432  22.293  1.00  0.00     0.191 A 
ATOM     13  C   UNL A   1      28.067  31.657  22.917  1.00  0.00     0.056 A 
ATOM     14  O   UNL A   1      27.986  30.607  20.936  1.00  0.00    -0.459 OA
ATOM     15  C   UNL A   1      28.185  32.629  21.896  1.00  0.00     0.043 A 
ATOM     16  C   UNL A   1      28.124  31.940  20.711  1.00  0.00     0.196 A 
ENDBRANCH   9  12
ENDBRANCH   7   8
BRANCH   7  17
ATOM     17  C   UNL A   1      30.180  26.735  24.053  1.00  0.00    -0.025 A 
ATOM     18  C   UNL A   1      30.596  25.804  23.090  1.00  0.00     0.010 A 
ATOM     19  C   UNL A   1      30.131  26.313  25.390  1.00  0.00     0.010 A 
ATOM     20  C   UNL A   1      30.985  24.513  23.466  1.00  0.00     0.047 A 
ATOM     21  C   UNL A   1      30.499  25.014  25.755  1.00  0.00     0.047 A 
ATOM     22  C   UNL A   1      30.951  24.111  24.803  1.00  0.00     0.119 A 
BRANCH  22  23
ATOM     23  O   UNL A   1      31.395  22.842  25.019  1.00  0.00    -0.490 OA
BRANCH  23  24
ATOM     24  C   UNL A   1      32.769  22.503  25.155  1.00  0.00     0.173 C 
ATOM     25  C   UNL A   1      33.489  22.010  23.899  1.00  0.00     0.045 C 
ATOM     26  C   UNL A   1      33.665  23.562  25.810  1.00  0.00     0.045 C 
ATOM     27  C   UNL A   1      34.956  22.253  24.224  1.00  0.00     0.004 C 
ATOM     28  C   UNL A   1      34.953  23.572  24.987  1.00  0.00     0.004 C 
ENDBRANCH  23  24
ENDBRANCH  22  23
ENDBRANCH   7  17
ENDBRANCH   6   7
ENDBRANCH   4   6
ENDBRANCH   1   2
BRANCH   1  29
ATOM     29  C   UNL A   1      31.562  32.066  26.741  1.00  0.00     0.042 C 
BRANCH  29  30
ATOM     30  C   UNL A   1      32.781  32.876  27.178  1.00  0.00     0.118 C 
BRANCH  30  31
ATOM     31  N   UNL A   1      32.443  34.222  27.621  1.00  0.00    -0.352 N 
ATOM     32  C   UNL A   1      33.007  34.982  28.614  1.00  0.00     0.251 C 
ATOM     33  H   UNL A   1      31.700  34.648  27.135  1.00  0.00     0.163 HD
ATOM     34  O   UNL A   1      32.509  36.059  28.924  1.00  0.00    -0.269 OA
BRANCH  32  35
ATOM     35  C   UNL A   1      34.199  34.492  29.339  1.00  0.00     0.039 A 
ATOM     36  C   UNL A   1      34.020  33.868  30.578  1.00  0.00     0.014 A 
ATOM     37  C   UNL A   1      35.484  34.662  28.815  1.00  0.00     0.014 A 
ATOM     38  C   UNL A   1      35.121  33.347  31.260  1.00  0.00     0.010 A 
ATOM     39  C   UNL A   1      36.578  34.110  29.479  1.00  0.00     0.010 A 
ATOM     40  C   UNL A   1      36.404  33.437  30.698  1.00  0.00    -0.014 A 
BRANCH  40  41
ATOM     41  C   UNL A   1      37.577  32.812  31.351  1.00  0.00     0.031 A 
ATOM     42  C   UNL A   1      38.299  31.681  30.685  1.00  0.00     0.074 A 
ATOM     43  C   UNL A   1      37.937  33.210  32.586  1.00  0.00     0.049 A 
ATOM     44  N   UNL A   1      39.232  30.899  31.164  1.00  0.00    -0.248 NA
ATOM     45  C   UNL A   1      37.905  31.374  29.301  1.00  0.00     0.031 C 
ATOM     46  C   UNL A   1      37.299  34.284  33.348  1.00  0.00     0.029 A 
ATOM     47  N   UNL A   1      38.914  32.738  33.425  1.00  0.00    -0.354 N 
ATOM     48  C   UNL A   1      39.509  29.984  30.160  1.00  0.00     0.074 A 
ATOM     49  C   UNL A   1      38.650  30.309  29.039  1.00  0.00     0.031 C 
ATOM     50  C   UNL A   1      37.902  34.390  34.543  1.00  0.00     0.029 A 
ATOM     51  C   UNL A   1      38.945  33.372  34.641  1.00  0.00     0.049 A 
ATOM     52  H   UNL A   1      39.534  32.014  33.179  1.00  0.00     0.167 HD
ATOM     53  C   UNL A   1      40.395  28.961  30.175  1.00  0.00     0.037 A 
ATOM     54  C   UNL A   1      39.716  33.146  35.721  1.00  0.00     0.037 A 
ATOM     55  C   UNL A   1      41.277  28.658  31.270  1.00  0.00     0.049 A 
ATOM     56  C   UNL A   1      40.730  32.041  35.690  1.00  0.00     0.074 A 
ATOM     57  C   UNL A   1      42.229  27.657  31.363  1.00  0.00     0.029 A 
ATOM     58  N   UNL A   1      41.322  29.366  32.460  1.00  0.00    -0.354 N 
ATOM     59  N   UNL A   1      40.980  31.179  34.737  1.00  0.00    -0.248 NA
ATOM     60  C   UNL A   1      41.567  31.875  36.888  1.00  0.00     0.031 C 
ATOM     61  C   UNL A   1      42.847  27.756  32.617  1.00  0.00     0.029 A 
ATOM     62  C   UNL A   1      42.289  28.828  33.294  1.00  0.00     0.049 A 
ATOM     63  H   UNL A   1      40.751  30.138  32.682  1.00  0.00     0.167 HD
ATOM     64  C   UNL A   1      42.005  30.375  35.211  1.00  0.00     0.074 A 
ATOM     65  C   UNL A   1      42.339  30.856  36.536  1.00  0.00     0.031 C 
ATOM     66  C   UNL A   1      42.611  29.329  34.602  1.00  0.00     0.037 A 
BRANCH  53  67
ATOM     67  C   UNL A   1      40.442  28.079  28.968  1.00  0.00     0.064 A 
ATOM     68  C   UNL A   1      41.245  28.395  27.863  1.00  0.00     0.173 A 
ATOM     69  C   UNL A   1      39.695  26.893  28.928  1.00  0.00     0.173 A 
ATOM     70  F   UNL A   1      41.964  29.527  27.854  1.00  0.00    -0.203 F 
ATOM     71  C   UNL A   1      41.288  27.557  26.753  1.00  0.00     0.198 A 
ATOM     72  C   UNL A   1      39.752  26.052  27.822  1.00  0.00     0.198 A 
ATOM     73  F   UNL A   1      38.911  26.553  29.963  1.00  0.00    -0.203 F 
ATOM     74  F   UNL A   1      42.042  27.887  25.695  1.00  0.00    -0.200 F 
ATOM     75  C   UNL A   1      40.546  26.385  26.735  1.00  0.00     0.200 A 
ATOM     76  F   UNL A   1      39.035  24.918  27.805  1.00  0.00    -0.200 F 
ATOM     77  F   UNL A   1      40.590  25.579  25.665  1.00  0.00    -0.200 F 
ENDBRANCH  53  67
BRANCH  54  78
ATOM     78  C   UNL A   1      39.556  33.996  36.923  1.00  0.00     0.064 A 
ATOM     79  C   UNL A   1      38.749  33.580  37.990  1.00  0.00     0.173 A 
ATOM     80  C   UNL A   1      40.220  35.225  37.038  1.00  0.00     0.173 A 
ATOM     81  F   UNL A   1      38.082  32.419  37.909  1.00  0.00    -0.203 F 
ATOM     82  C   UNL A   1      38.606  34.368  39.129  1.00  0.00     0.198 A 
ATOM     83  C   UNL A   1      40.088  36.005  38.185  1.00  0.00     0.198 A 
ATOM     84  F   UNL A   1      41.003  35.661  36.041  1.00  0.00    -0.203 F 
ATOM     85  F   UNL A   1      37.812  33.959  40.128  1.00  0.00    -0.200 F 
ATOM     86  C   UNL A   1      39.280  35.577  39.228  1.00  0.00     0.200 A 
ATOM     87  F   UNL A   1      40.742  37.170  38.280  1.00  0.00    -0.200 F 
ATOM     88  F   UNL A   1      39.145  36.332  40.327  1.00  0.00    -0.200 F 
ENDBRANCH  54  78
BRANCH  66  89
ATOM     89  C   UNL A   1      43.712  28.650  35.354  1.00  0.00     0.064 A 
ATOM     90  C   UNL A   1      45.051  29.022  35.173  1.00  0.00     0.173 A 
ATOM     91  C   UNL A   1      43.420  27.650  36.292  1.00  0.00     0.173 A 
ATOM     92  F   UNL A   1      45.373  29.966  34.275  1.00  0.00    -0.203 F 
ATOM     93  C   UNL A   1      46.064  28.409  35.902  1.00  0.00     0.198 A 
ATOM     94  C   UNL A   1      44.436  27.046  37.027  1.00  0.00     0.198 A 
ATOM     95  F   UNL A   1      42.153  27.262  36.494  1.00  0.00    -0.203 F 
ATOM     96  F   UNL A   1      47.341  28.764  35.702  1.00  0.00    -0.200 F 
ATOM     97  C   UNL A   1      45.756  27.425  36.831  1.00  0.00     0.200 A 
ATOM     98  F   UNL A   1      44.138  26.094  37.923  1.00  0.00    -0.200 F 
ATOM     99  F   UNL A   1      46.734  26.836  37.533  1.00  0.00    -0.200 F 
ENDBRANCH  66  89
ENDBRANCH  40  41
ENDBRANCH  32  35
ENDBRANCH  30  31
ENDBRANCH  29  30
ENDBRANCH   1  29
TORSDOF 16
ENDMDL
MODEL 2
REMARK VINA RESULT:     -13.3      0.380      1.664
REMARK SMILES O=C(C[C@@H](NC(=O)c1ccco1)c1ccc(OC2CCCC2)cc1)NCCCNC(=O)c1ccc(-c2c3nc(c(-c4c(F)c(F)c(F)c(F)c4F)c4ccc([nH]4)c(-c4c(F)c(F)c(F)c(F)c4F)c4nc(c(-c5c(F)c(F)c(F)c(F)c5F)c5ccc2[nH]5)C=C4)C=C3)cc1
REMARK SMILES IDX 26 1 25 2 1 3 2 4 3 6 4 7 5 8 6 9 7 11 8 12 9 13 12 14 10 15
REMARK SMILES IDX 11 16 13 17 14 18 24 19 15 20 23 21 16 22 17 23 18 24 19 25
REMARK SMILES IDX 22 26 20 27 21 28 27 29 28 30 29 31 30 32 31 34 32 35 33 36
REMARK SMILES IDX 94 37 34 38 93 39 35 40 36 41 37 42 87 43 38 44 92 45 86 46
REMARK SMILES IDX 88 47 39 48 91 49 85 50 84 51 40 53 72 54 52 55 71 56 53 57
REMARK SMILES IDX 56 58 70 59 89 60 54 61 55 62 69 64 90 65 57 66 41 67 42 68
REMARK SMILES IDX 50 69 43 70 44 71 48 72 51 73 45 74 46 75 49 76 47 77 73 78
REMARK SMILES IDX 74 79 82 80 75 81 76 82 80 83 83 84 77 85 78 86 81 87 79 88
REMARK SMILES IDX 58 89 59 90 67 91 60 92 61 93 65 94 68 95 62 96 63 97 66 98
REMARK SMILES IDX 64 99
REMARK H PARENT 25 5 5 10 29 33 88 52 56 63
REMARK Flexibility Score: inf
ROOT
ATOM      1  C   UNL A   1      31.802  30.573  26.510  1.00  0.00     0.117 C 
ENDROOT
BRANCH   1   2
ATOM      2  N   UNL A   1      31.209  30.041  25.299  1.00  0.00    -0.356 N 
ATOM      3  O   UNL A   1      33.148  29.146  24.446  1.00  0.00    -0.275 OA
ATOM      4  C   UNL A   1      31.946  29.368  24.351  1.00  0.00     0.222 C 
ATOM      5  H   UNL A   1      30.244  30.167  25.149  1.00  0.00     0.163 HD
BRANCH   4   6
ATOM      6  C   UNL A   1      31.136  28.861  23.182  1.00  0.00     0.129 C 
BRANCH   6   7
ATOM      7  C   UNL A   1      29.877  28.124  23.677  1.00  0.00     0.122 C 
BRANCH   7   8
ATOM      8  N   UNL A   1      28.776  28.199  22.702  1.00  0.00    -0.342 N 
ATOM      9  C   UNL A   1      27.734  29.090  22.882  1.00  0.00     0.287 C 
ATOM     10  H   UNL A   1      28.781  27.609  21.915  1.00  0.00     0.164 HD
ATOM     11  O   UNL A   1      26.711  28.673  23.430  1.00  0.00    -0.266 OA
BRANCH   9  12
ATOM     12  C   UNL A   1      27.944  30.432  22.387  1.00  0.00     0.191 A 
ATOM     13  C   UNL A   1      28.035  31.652  23.033  1.00  0.00     0.056 A 
ATOM     14  O   UNL A   1      28.088  30.625  21.039  1.00  0.00    -0.459 OA
ATOM     15  C   UNL A   1      28.196  32.638  22.031  1.00  0.00     0.043 A 
ATOM     16  C   UNL A   1      28.217  31.962  20.836  1.00  0.00     0.196 A 
ENDBRANCH   9  12
ENDBRANCH   7   8
BRANCH   7  17
ATOM     17  C   UNL A   1      30.140  26.691  24.119  1.00  0.00    -0.025 A 
ATOM     18  C   UNL A   1      30.299  25.688  23.152  1.00  0.00     0.010 A 
ATOM     19  C   UNL A   1      30.294  26.331  25.466  1.00  0.00     0.010 A 
ATOM     20  C   UNL A   1      30.638  24.383  23.527  1.00  0.00     0.047 A 
ATOM     21  C   UNL A   1      30.612  25.019  25.834  1.00  0.00     0.047 A 
ATOM     22  C   UNL A   1      30.809  24.040  24.869  1.00  0.00     0.119 A 
BRANCH  22  23
ATOM     23  O   UNL A   1      31.176  22.745  25.076  1.00  0.00    -0.490 OA
BRANCH  23  24
ATOM     24  C   UNL A   1      32.460  22.231  24.745  1.00  0.00     0.173 C 
ATOM     25  C   UNL A   1      33.462  22.078  25.890  1.00  0.00     0.045 C 
ATOM     26  C   UNL A   1      32.478  20.923  23.943  1.00  0.00     0.045 C 
ATOM     27  C   UNL A   1      34.455  21.060  25.348  1.00  0.00     0.004 C 
ATOM     28  C   UNL A   1      33.589  20.079  24.567  1.00  0.00     0.004 C 
ENDBRANCH  23  24
ENDBRANCH  22  23
ENDBRANCH   7  17
ENDBRANCH   6   7
ENDBRANCH   4   6
ENDBRANCH   1   2
BRANCH   1  29
ATOM     29  C   UNL A   1      31.565  32.072  26.671  1.00  0.00     0.042 C 
BRANCH  29  30
ATOM     30  C   UNL A   1      32.768  32.852  27.198  1.00  0.00     0.118 C 
BRANCH  30  31
ATOM     31  N   UNL A   1      32.427  34.201  27.630  1.00  0.00    -0.352 N 
ATOM     32  C   UNL A   1      32.994  34.971  28.615  1.00  0.00     0.251 C 
ATOM     33  H   UNL A   1      31.681  34.621  27.145  1.00  0.00     0.163 HD
ATOM     34  O   UNL A   1      32.494  36.049  28.918  1.00  0.00    -0.269 OA
BRANCH  32  35
ATOM     35  C   UNL A   1      34.191  34.491  29.339  1.00  0.00     0.039 A 
ATOM     36  C   UNL A   1      34.019  33.875  30.583  1.00  0.00     0.014 A 
ATOM     37  C   UNL A   1      35.472  34.662  28.808  1.00  0.00     0.014 A 
ATOM     38  C   UNL A   1      35.124  33.363  31.264  1.00  0.00     0.010 A 
ATOM     39  C   UNL A   1      36.572  34.119  29.472  1.00  0.00     0.010 A 
ATOM     40  C   UNL A   1      36.405  33.454  30.696  1.00  0.00    -0.014 A 
BRANCH  40  41
ATOM     41  C   UNL A   1      37.583  32.838  31.350  1.00  0.00     0.031 A 
ATOM     42  C   UNL A   1      38.312  31.711  30.683  1.00  0.00     0.074 A 
ATOM     43  C   UNL A   1      37.940  33.240  32.584  1.00  0.00     0.049 A 
ATOM     44  N   UNL A   1      39.252  30.937  31.163  1.00  0.00    -0.248 NA
ATOM     45  C   UNL A   1      37.919  31.401  29.300  1.00  0.00     0.031 C 
ATOM     46  C   UNL A   1      37.295  34.310  33.345  1.00  0.00     0.029 A 
ATOM     47  N   UNL A   1      38.921  32.776  33.422  1.00  0.00    -0.354 N 
ATOM     48  C   UNL A   1      39.534  30.023  30.160  1.00  0.00     0.074 A 
ATOM     49  C   UNL A   1      38.672  30.340  29.039  1.00  0.00     0.031 C 
ATOM     50  C   UNL A   1      37.899  34.422  34.540  1.00  0.00     0.029 A 
ATOM     51  C   UNL A   1      38.949  33.412  34.638  1.00  0.00     0.049 A 
ATOM     52  H   UNL A   1      39.547  32.055  33.177  1.00  0.00     0.167 HD
ATOM     53  C   UNL A   1      40.428  29.006  30.175  1.00  0.00     0.037 A 
ATOM     54  C   UNL A   1      39.722  33.192  35.717  1.00  0.00     0.037 A 
ATOM     55  C   UNL A   1      41.312  28.710  31.269  1.00  0.00     0.049 A 
ATOM     56  C   UNL A   1      40.744  32.094  35.687  1.00  0.00     0.074 A 
ATOM     57  C   UNL A   1      42.271  27.716  31.363  1.00  0.00     0.029 A 
ATOM     58  N   UNL A   1      41.353  29.420  32.459  1.00  0.00    -0.354 N 
ATOM     59  N   UNL A   1      41.000  31.233  34.734  1.00  0.00    -0.248 NA
ATOM     60  C   UNL A   1      41.583  31.935  36.884  1.00  0.00     0.031 C 
ATOM     61  C   UNL A   1      42.890  27.821  32.616  1.00  0.00     0.029 A 
ATOM     62  C   UNL A   1      42.324  28.890  33.292  1.00  0.00     0.049 A 
ATOM     63  H   UNL A   1      40.777  30.188  32.680  1.00  0.00     0.167 HD
ATOM     64  C   UNL A   1      42.031  30.437  35.208  1.00  0.00     0.074 A 
ATOM     65  C   UNL A   1      42.362  30.921  36.533  1.00  0.00     0.031 C 
ATOM     66  C   UNL A   1      42.644  29.394  34.600  1.00  0.00     0.037 A 
BRANCH  53  67
ATOM     67  C   UNL A   1      40.480  28.124  28.968  1.00  0.00     0.064 A 
ATOM     68  C   UNL A   1      39.725  26.946  28.891  1.00  0.00     0.173 A 
ATOM     69  C   UNL A   1      41.274  28.477  27.868  1.00  0.00     0.173 A 
ATOM     70  F   UNL A   1      38.964  26.564  29.927  1.00  0.00    -0.203 F 
ATOM     71  C   UNL A   1      39.774  26.143  27.755  1.00  0.00     0.198 A 
ATOM     72  C   UNL A   1      41.309  27.679  26.729  1.00  0.00     0.198 A 
ATOM     73  F   UNL A   1      42.014  29.596  27.899  1.00  0.00    -0.203 F 
ATOM     74  F   UNL A   1      39.065  25.006  27.709  1.00  0.00    -0.200 F 
ATOM     75  C   UNL A   1      40.562  26.512  26.674  1.00  0.00     0.200 A 
ATOM     76  F   UNL A   1      42.069  28.037  25.684  1.00  0.00    -0.200 F 
ATOM     77  F   UNL A   1      40.606  25.738  25.581  1.00  0.00    -0.200 F 
ENDBRANCH  53  67
BRANCH  54  78
ATOM     78  C   UNL A   1      39.557  34.042  36.919  1.00  0.00     0.064 A 
ATOM     79  C   UNL A   1      38.766  33.615  37.992  1.00  0.00     0.173 A 
ATOM     80  C   UNL A   1      40.201  35.282  37.025  1.00  0.00     0.173 A 
ATOM     81  F   UNL A   1      38.118  32.443  37.920  1.00  0.00    -0.203 F 
ATOM     82  C   UNL A   1      38.618  34.402  39.131  1.00  0.00     0.198 A 
ATOM     83  C   UNL A   1      40.064  36.062  38.171  1.00  0.00     0.198 A 
ATOM     84  F   UNL A   1      40.969  35.729  36.022  1.00  0.00    -0.203 F 
ATOM     85  F   UNL A   1      37.839  33.983  40.137  1.00  0.00    -0.200 F 
ATOM     86  C   UNL A   1      39.272  35.623  39.221  1.00  0.00     0.200 A 
ATOM     87  F   UNL A   1      40.700  37.239  38.259  1.00  0.00    -0.200 F 
ATOM     88  F   UNL A   1      39.132  36.379  40.320  1.00  0.00    -0.200 F 
ENDBRANCH  54  78
BRANCH  66  89
ATOM     89  C   UNL A   1      43.750  28.724  35.352  1.00  0.00     0.064 A 
ATOM     90  C   UNL A   1      43.487  27.687  36.257  1.00  0.00     0.173 A 
ATOM     91  C   UNL A   1      45.084  29.095  35.134  1.00  0.00     0.173 A 
ATOM     92  F   UNL A   1      42.223  27.312  36.504  1.00  0.00    -0.203 F 
ATOM     93  C   UNL A   1      44.525  27.047  36.926  1.00  0.00     0.198 A 
ATOM     94  C   UNL A   1      46.120  28.445  35.798  1.00  0.00     0.198 A 
ATOM     95  F   UNL A   1      45.379  30.085  34.279  1.00  0.00    -0.203 F 
ATOM     96  F   UNL A   1      44.253  26.070  37.803  1.00  0.00    -0.200 F 
ATOM     97  C   UNL A   1      45.841  27.423  36.693  1.00  0.00     0.200 A 
ATOM     98  F   UNL A   1      47.391  28.810  35.575  1.00  0.00    -0.200 F 
ATOM     99  F   UNL A   1      46.838  26.804  37.339  1.00  0.00    -0.200 F 
ENDBRANCH  66  89
ENDBRANCH  40  41
ENDBRANCH  32  35
ENDBRANCH  30  31
ENDBRANCH  29  30
ENDBRANCH   1  29
TORSDOF 16
ENDMDL
MODEL 3
REMARK VINA RESULT:     -12.8      5.889     11.675
REMARK SMILES O=C(C[C@@H](NC(=O)c1ccco1)c1ccc(OC2CCCC2)cc1)NCCCNC(=O)c1ccc(-c2c3nc(c(-c4c(F)c(F)c(F)c(F)c4F)c4ccc([nH]4)c(-c4c(F)c(F)c(F)c(F)c4F)c4nc(c(-c5c(F)c(F)c(F)c(F)c5F)c5ccc2[nH]5)C=C4)C=C3)cc1
REMARK SMILES IDX 26 1 25 2 1 3 2 4 3 6 4 7 5 8 6 9 7 11 8 12 9 13 12 14 10 15
REMARK SMILES IDX 11 16 13 17 14 18 24 19 15 20 23 21 16 22 17 23 18 24 19 25
REMARK SMILES IDX 22 26 20 27 21 28 27 29 28 30 29 31 30 32 31 34 32 35 33 36
REMARK SMILES IDX 94 37 34 38 93 39 35 40 36 41 37 42 87 43 38 44 92 45 86 46
REMARK SMILES IDX 88 47 39 48 91 49 85 50 84 51 40 53 72 54 52 55 71 56 53 57
REMARK SMILES IDX 56 58 70 59 89 60 54 61 55 62 69 64 90 65 57 66 41 67 42 68
REMARK SMILES IDX 50 69 43 70 44 71 48 72 51 73 45 74 46 75 49 76 47 77 73 78
REMARK SMILES IDX 74 79 82 80 75 81 76 82 80 83 83 84 77 85 78 86 81 87 79 88
REMARK SMILES IDX 58 89 59 90 67 91 60 92 61 93 65 94 68 95 62 96 63 97 66 98
REMARK SMILES IDX 64 99
REMARK H PARENT 25 5 5 10 29 33 88 52 56 63
REMARK Flexibility Score: inf
ROOT
ATOM      1  C   UNL A   1      37.407  21.009  24.835  1.00  0.00     0.117 C 
ENDROOT
BRANCH   1   2
ATOM      2  N   UNL A   1      35.991  20.721  24.956  1.00  0.00    -0.356 N 
ATOM      3  O   UNL A   1      35.523  22.403  26.451  1.00  0.00    -0.275 OA
ATOM      4  C   UNL A   1      35.157  21.450  25.774  1.00  0.00     0.222 C 
ATOM      5  H   UNL A   1      35.613  19.976  24.434  1.00  0.00     0.163 HD
BRANCH   4   6
ATOM      6  C   UNL A   1      33.712  21.015  25.730  1.00  0.00     0.129 C 
BRANCH   6   7
ATOM      7  C   UNL A   1      33.211  20.955  24.274  1.00  0.00     0.122 C 
BRANCH   7   8
ATOM      8  N   UNL A   1      32.205  19.896  24.082  1.00  0.00    -0.342 N 
ATOM      9  C   UNL A   1      32.516  18.747  23.377  1.00  0.00     0.287 C 
ATOM     10  H   UNL A   1      31.302  20.007  24.457  1.00  0.00     0.164 HD
ATOM     11  O   UNL A   1      32.224  18.712  22.180  1.00  0.00    -0.266 OA
BRANCH   9  12
ATOM     12  C   UNL A   1      33.142  17.684  24.130  1.00  0.00     0.191 A 
ATOM     13  C   UNL A   1      34.434  17.187  24.129  1.00  0.00     0.056 A 
ATOM     14  O   UNL A   1      32.390  16.980  25.032  1.00  0.00    -0.459 OA
ATOM     15  C   UNL A   1      34.460  16.104  25.039  1.00  0.00     0.043 A 
ATOM     16  C   UNL A   1      33.192  16.016  25.557  1.00  0.00     0.196 A 
ENDBRANCH   9  12
ENDBRANCH   7   8
BRANCH   7  17
ATOM     17  C   UNL A   1      32.727  22.295  23.737  1.00  0.00    -0.025 A 
ATOM     18  C   UNL A   1      33.538  23.018  22.851  1.00  0.00     0.010 A 
ATOM     19  C   UNL A   1      31.463  22.821  24.043  1.00  0.00     0.010 A 
ATOM     20  C   UNL A   1      33.077  24.204  22.267  1.00  0.00     0.047 A 
ATOM     21  C   UNL A   1      31.018  24.018  23.472  1.00  0.00     0.047 A 
ATOM     22  C   UNL A   1      31.809  24.707  22.563  1.00  0.00     0.119 A 
BRANCH  22  23
ATOM     23  O   UNL A   1      31.486  25.845  21.889  1.00  0.00    -0.490 OA
BRANCH  23  24
ATOM     24  C   UNL A   1      31.542  27.142  22.467  1.00  0.00     0.173 C 
ATOM     25  C   UNL A   1      30.219  27.901  22.598  1.00  0.00     0.045 C 
ATOM     26  C   UNL A   1      32.266  27.252  23.815  1.00  0.00     0.045 C 
ATOM     27  C   UNL A   1      30.516  28.930  23.678  1.00  0.00     0.004 C 
ATOM     28  C   UNL A   1      31.404  28.184  24.666  1.00  0.00     0.004 C 
ENDBRANCH  23  24
ENDBRANCH  22  23
ENDBRANCH   7  17
ENDBRANCH   6   7
ENDBRANCH   4   6
ENDBRANCH   1   2
BRANCH   1  29
ATOM     29  C   UNL A   1      38.281  19.792  25.122  1.00  0.00     0.042 C 
BRANCH  29  30
ATOM     30  C   UNL A   1      39.486  20.073  26.017  1.00  0.00     0.118 C 
BRANCH  30  31
ATOM     31  N   UNL A   1      40.543  19.080  25.877  1.00  0.00    -0.352 N 
ATOM     32  C   UNL A   1      41.904  19.235  25.972  1.00  0.00     0.251 C 
ATOM     33  H   UNL A   1      40.236  18.165  25.686  1.00  0.00     0.163 HD
ATOM     34  O   UNL A   1      42.650  18.299  25.707  1.00  0.00    -0.269 OA
BRANCH  32  35
ATOM     35  C   UNL A   1      42.479  20.540  26.363  1.00  0.00     0.039 A 
ATOM     36  C   UNL A   1      42.989  21.374  25.361  1.00  0.00     0.014 A 
ATOM     37  C   UNL A   1      42.533  20.933  27.703  1.00  0.00     0.014 A 
ATOM     38  C   UNL A   1      43.488  22.635  25.694  1.00  0.00     0.010 A 
ATOM     39  C   UNL A   1      42.998  22.206  28.030  1.00  0.00     0.010 A 
ATOM     40  C   UNL A   1      43.465  23.071  27.028  1.00  0.00    -0.014 A 
BRANCH  40  41
ATOM     41  C   UNL A   1      43.901  24.437  27.399  1.00  0.00     0.031 A 
ATOM     42  C   UNL A   1      42.903  25.436  27.902  1.00  0.00     0.074 A 
ATOM     43  C   UNL A   1      45.181  24.801  27.199  1.00  0.00     0.049 A 
ATOM     44  N   UNL A   1      43.054  26.718  28.117  1.00  0.00    -0.248 NA
ATOM     45  C   UNL A   1      41.551  24.931  28.182  1.00  0.00     0.031 C 
ATOM     46  C   UNL A   1      46.240  23.927  26.694  1.00  0.00     0.029 A 
ATOM     47  N   UNL A   1      45.801  26.011  27.377  1.00  0.00    -0.354 N 
ATOM     48  C   UNL A   1      41.810  27.181  28.517  1.00  0.00     0.074 A 
ATOM     49  C   UNL A   1      40.914  26.043  28.523  1.00  0.00     0.031 C 
ATOM     50  C   UNL A   1      47.381  24.630  26.602  1.00  0.00     0.029 A 
ATOM     51  C   UNL A   1      47.124  26.008  27.012  1.00  0.00     0.049 A 
ATOM     52  H   UNL A   1      45.343  26.807  27.732  1.00  0.00     0.167 HD
ATOM     53  C   UNL A   1      41.447  28.444  28.843  1.00  0.00     0.037 A 
ATOM     54  C   UNL A   1      48.024  27.008  26.993  1.00  0.00     0.037 A 
ATOM     55  C   UNL A   1      42.341  29.570  28.876  1.00  0.00     0.049 A 
ATOM     56  C   UNL A   1      47.610  28.387  27.414  1.00  0.00     0.074 A 
ATOM     57  C   UNL A   1      42.069  30.882  29.222  1.00  0.00     0.029 A 
ATOM     58  N   UNL A   1      43.690  29.510  28.562  1.00  0.00    -0.354 N 
ATOM     59  N   UNL A   1      46.429  28.815  27.786  1.00  0.00    -0.248 NA
ATOM     60  C   UNL A   1      48.652  29.425  27.408  1.00  0.00     0.031 C 
ATOM     61  C   UNL A   1      43.255  31.619  29.111  1.00  0.00     0.029 A 
ATOM     62  C   UNL A   1      44.266  30.761  28.710  1.00  0.00     0.049 A 
ATOM     63  H   UNL A   1      44.169  28.698  28.275  1.00  0.00     0.167 HD
ATOM     64  C   UNL A   1      46.585  30.164  28.068  1.00  0.00     0.074 A 
ATOM     65  C   UNL A   1      47.978  30.485  27.831  1.00  0.00     0.031 C 
ATOM     66  C   UNL A   1      45.654  31.055  28.481  1.00  0.00     0.037 A 
BRANCH  53  67
ATOM     67  C   UNL A   1      40.008  28.677  29.177  1.00  0.00     0.064 A 
ATOM     68  C   UNL A   1      39.523  28.503  30.480  1.00  0.00     0.173 A 
ATOM     69  C   UNL A   1      39.113  29.105  28.187  1.00  0.00     0.173 A 
ATOM     70  F   UNL A   1      40.343  28.081  31.454  1.00  0.00    -0.203 F 
ATOM     71  C   UNL A   1      38.184  28.738  30.778  1.00  0.00     0.198 A 
ATOM     72  C   UNL A   1      37.777  29.351  28.491  1.00  0.00     0.198 A 
ATOM     73  F   UNL A   1      39.533  29.283  26.925  1.00  0.00    -0.203 F 
ATOM     74  F   UNL A   1      37.731  28.541  32.024  1.00  0.00    -0.200 F 
ATOM     75  C   UNL A   1      37.314  29.166  29.785  1.00  0.00     0.200 A 
ATOM     76  F   UNL A   1      36.937  29.766  27.532  1.00  0.00    -0.200 F 
ATOM     77  F   UNL A   1      36.025  29.392  30.074  1.00  0.00    -0.200 F 
ENDBRANCH  53  67
BRANCH  54  78
ATOM     78  C   UNL A   1      49.414  26.732  26.561  1.00  0.00     0.064 A 
ATOM     79  C   UNL A   1      50.377  26.308  27.485  1.00  0.00     0.173 A 
ATOM     80  C   UNL A   1      49.798  26.865  25.220  1.00  0.00     0.173 A 
ATOM     81  F   UNL A   1      50.052  26.187  28.781  1.00  0.00    -0.203 F 
ATOM     82  C   UNL A   1      51.682  26.033  27.084  1.00  0.00     0.198 A 
ATOM     83  C   UNL A   1      51.100  26.575  24.818  1.00  0.00     0.198 A 
ATOM     84  F   UNL A   1      48.908  27.267  24.303  1.00  0.00    -0.203 F 
ATOM     85  F   UNL A   1      52.592  25.650  27.989  1.00  0.00    -0.200 F 
ATOM     86  C   UNL A   1      52.041  26.162  25.750  1.00  0.00     0.200 A 
ATOM     87  F   UNL A   1      51.444  26.696  23.528  1.00  0.00    -0.200 F 
ATOM     88  F   UNL A   1      53.296  25.893  25.364  1.00  0.00    -0.200 F 
ENDBRANCH  54  78
BRANCH  66  89
ATOM     89  C   UNL A   1      46.117  32.456  28.726  1.00  0.00     0.064 A 
ATOM     90  C   UNL A   1      46.599  32.851  29.981  1.00  0.00     0.173 A 
ATOM     91  C   UNL A   1      46.117  33.396  27.687  1.00  0.00     0.173 A 
ATOM     92  F   UNL A   1      46.603  31.985  31.006  1.00  0.00    -0.203 F 
ATOM     93  C   UNL A   1      47.060  34.147  30.190  1.00  0.00     0.198 A 
ATOM     94  C   UNL A   1      46.589  34.689  27.897  1.00  0.00     0.198 A 
ATOM     95  F   UNL A   1      45.661  33.061  26.471  1.00  0.00    -0.203 F 
ATOM     96  F   UNL A   1      47.500  34.513  31.402  1.00  0.00    -0.200 F 
ATOM     97  C   UNL A   1      47.059  35.063  29.147  1.00  0.00     0.200 A 
ATOM     98  F   UNL A   1      46.585  35.575  26.890  1.00  0.00    -0.200 F 
ATOM     99  F   UNL A   1      47.503  36.311  29.351  1.00  0.00    -0.200 F 
ENDBRANCH  66  89
ENDBRANCH  40  41
ENDBRANCH  32  35
ENDBRANCH  30  31
ENDBRANCH  29  30
ENDBRANCH   1  29
TORSDOF 16
ENDMDL
