MODEL 1
REMARK VINA RESULT:     -13.4      0.000      0.000
REMARK SMILES O=C(NCCCNC(=O)c1cccc(Nc2ccnc3ccc(Cl)cc23)c1)c1ccc(-c2c3nc(c(-c4c(F)c(F)c(F)c(F)c4F)c4ccc([nH]4)c(-c4c(F)c(F)c(F)c(F)c4F)c4nc(c(-c5c(F)c(F)c(F)c(F)c5F)c5ccc2[nH]5)C=C4)C=C3)cc1
REMARK SMILES IDX 5 1 4 2 3 3 1 4 2 5 28 7 29 8 90 9 30 10 89 11 31 12 32 13
REMARK SMILES IDX 33 14 83 15 34 16 88 17 82 18 84 19 35 20 87 21 81 22 80 23
REMARK SMILES IDX 36 25 68 26 48 27 67 28 49 29 52 30 66 31 85 32 50 33 51 34
REMARK SMILES IDX 65 36 86 37 53 38 37 39 38 40 46 41 39 42 40 43 44 44 47 45
REMARK SMILES IDX 41 46 42 47 45 48 43 49 69 50 70 51 78 52 71 53 72 54 76 55
REMARK SMILES IDX 79 56 73 57 74 58 77 59 75 60 54 61 55 62 63 63 56 64 57 65
REMARK SMILES IDX 61 66 64 67 58 68 59 69 62 70 60 71 6 72 7 73 8 74 9 76
REMARK SMILES IDX 10 77 11 78 27 79 12 80 14 81 13 82 15 83 16 85 17 86 26 87
REMARK SMILES IDX 18 88 20 89 25 90 19 91 21 92 23 93 22 94 24 95
REMARK H PARENT 3 6 84 24 52 35 7 75 15 84
REMARK Flexibility Score: inf
ROOT
ATOM      1  C   UNL A   1      32.487  29.184  25.207  1.00  0.00     0.042 C 
ENDROOT
BRANCH   1   2
ATOM      2  C   UNL A   1      32.215  29.666  26.632  1.00  0.00     0.118 C 
BRANCH   2   3
ATOM      3  N   UNL A   1      32.233  31.114  26.791  1.00  0.00    -0.352 N 
ATOM      4  O   UNL A   1      32.894  33.168  27.403  1.00  0.00    -0.269 OA
ATOM      5  C   UNL A   1      33.163  31.971  27.336  1.00  0.00     0.251 C 
ATOM      6  H   UNL A   1      31.431  31.566  26.442  1.00  0.00     0.163 HD
BRANCH   5   7
ATOM      7  C   UNL A   1      34.456  31.493  27.887  1.00  0.00     0.039 A 
ATOM      8  C   UNL A   1      34.696  30.151  28.180  1.00  0.00     0.014 A 
ATOM      9  C   UNL A   1      35.487  32.426  28.073  1.00  0.00     0.014 A 
ATOM     10  C   UNL A   1      35.881  29.776  28.817  1.00  0.00     0.010 A 
ATOM     11  C   UNL A   1      36.709  32.034  28.636  1.00  0.00     0.010 A 
ATOM     12  C   UNL A   1      36.897  30.714  29.068  1.00  0.00    -0.014 A 
BRANCH  12  13
ATOM     13  C   UNL A   1      38.132  30.293  29.787  1.00  0.00     0.031 A 
ATOM     14  C   UNL A   1      38.389  30.732  31.206  1.00  0.00     0.074 A 
ATOM     15  C   UNL A   1      39.010  29.472  29.179  1.00  0.00     0.049 A 
ATOM     16  N   UNL A   1      39.369  30.403  32.012  1.00  0.00    -0.248 NA
ATOM     17  C   UNL A   1      37.425  31.673  31.797  1.00  0.00     0.031 C 
ATOM     18  C   UNL A   1      38.898  28.989  27.803  1.00  0.00     0.029 A 
ATOM     19  N   UNL A   1      40.159  28.880  29.646  1.00  0.00    -0.354 N 
ATOM     20  C   UNL A   1      39.151  31.106  33.191  1.00  0.00     0.074 A 
ATOM     21  C   UNL A   1      37.963  31.906  32.986  1.00  0.00     0.031 C 
ATOM     22  C   UNL A   1      39.903  28.136  27.552  1.00  0.00     0.029 A 
ATOM     23  C   UNL A   1      40.756  28.044  28.735  1.00  0.00     0.049 A 
ATOM     24  H   UNL A   1      40.519  29.040  30.549  1.00  0.00     0.167 HD
ATOM     25  C   UNL A   1      39.866  31.078  34.342  1.00  0.00     0.037 A 
ATOM     26  C   UNL A   1      41.863  27.284  28.837  1.00  0.00     0.037 A 
ATOM     27  C   UNL A   1      41.033  30.262  34.560  1.00  0.00     0.049 A 
ATOM     28  C   UNL A   1      42.634  27.270  30.127  1.00  0.00     0.074 A 
ATOM     29  C   UNL A   1      41.791  30.130  35.711  1.00  0.00     0.029 A 
ATOM     30  N   UNL A   1      41.613  29.441  33.605  1.00  0.00    -0.354 N 
ATOM     31  N   UNL A   1      42.382  27.894  31.250  1.00  0.00    -0.248 NA
ATOM     32  C   UNL A   1      43.846  26.437  30.162  1.00  0.00     0.031 C 
ATOM     33  C   UNL A   1      42.856  29.264  35.440  1.00  0.00     0.029 A 
ATOM     34  C   UNL A   1      42.732  28.817  34.135  1.00  0.00     0.049 A 
ATOM     35  H   UNL A   1      41.281  29.321  32.687  1.00  0.00     0.167 HD
ATOM     36  C   UNL A   1      43.382  27.509  32.134  1.00  0.00     0.074 A 
ATOM     37  C   UNL A   1      44.238  26.586  31.419  1.00  0.00     0.031 C 
ATOM     38  C   UNL A   1      43.571  27.889  33.421  1.00  0.00     0.037 A 
BRANCH  25  39
ATOM     39  C   UNL A   1      39.413  31.969  35.465  1.00  0.00     0.064 A 
ATOM     40  C   UNL A   1      38.519  31.521  36.449  1.00  0.00     0.173 A 
ATOM     41  C   UNL A   1      39.917  33.273  35.582  1.00  0.00     0.173 A 
ATOM     42  F   UNL A   1      38.001  30.287  36.378  1.00  0.00    -0.203 F 
ATOM     43  C   UNL A   1      38.127  32.356  37.493  1.00  0.00     0.198 A 
ATOM     44  C   UNL A   1      39.545  34.096  36.642  1.00  0.00     0.198 A 
ATOM     45  F   UNL A   1      40.781  33.749  34.672  1.00  0.00    -0.203 F 
ATOM     46  F   UNL A   1      37.238  31.921  38.397  1.00  0.00    -0.200 F 
ATOM     47  C   UNL A   1      38.645  33.639  37.593  1.00  0.00     0.200 A 
ATOM     48  F   UNL A   1      40.057  35.330  36.744  1.00  0.00    -0.200 F 
ATOM     49  F   UNL A   1      38.271  34.437  38.602  1.00  0.00    -0.200 F 
ENDBRANCH  25  39
BRANCH  26  50
ATOM     50  C   UNL A   1      42.292  26.446  27.687  1.00  0.00     0.064 A 
ATOM     51  C   UNL A   1      41.733  25.178  27.474  1.00  0.00     0.173 A 
ATOM     52  C   UNL A   1      43.264  26.892  26.782  1.00  0.00     0.173 A 
ATOM     53  F   UNL A   1      40.815  24.698  28.327  1.00  0.00    -0.203 F 
ATOM     54  C   UNL A   1      42.144  24.382  26.406  1.00  0.00     0.198 A 
ATOM     55  C   UNL A   1      43.652  26.108  25.699  1.00  0.00     0.198 A 
ATOM     56  F   UNL A   1      43.826  28.100  26.942  1.00  0.00    -0.203 F 
ATOM     57  F   UNL A   1      41.624  23.156  26.249  1.00  0.00    -0.200 F 
ATOM     58  C   UNL A   1      43.097  24.850  25.516  1.00  0.00     0.200 A 
ATOM     59  F   UNL A   1      44.564  26.570  24.832  1.00  0.00    -0.200 F 
ATOM     60  F   UNL A   1      43.487  24.087  24.485  1.00  0.00    -0.200 F 
ENDBRANCH  26  50
BRANCH  38  61
ATOM     61  C   UNL A   1      44.724  27.269  34.157  1.00  0.00     0.064 A 
ATOM     62  C   UNL A   1      45.989  27.873  34.193  1.00  0.00     0.173 A 
ATOM     63  C   UNL A   1      44.551  26.062  34.853  1.00  0.00     0.173 A 
ATOM     64  F   UNL A   1      46.208  29.019  33.531  1.00  0.00    -0.203 F 
ATOM     65  C   UNL A   1      47.047  27.276  34.873  1.00  0.00     0.198 A 
ATOM     66  C   UNL A   1      45.604  25.484  35.556  1.00  0.00     0.198 A 
ATOM     67  F   UNL A   1      43.360  25.446  34.856  1.00  0.00    -0.203 F 
ATOM     68  F   UNL A   1      48.261  27.844  34.851  1.00  0.00    -0.200 F 
ATOM     69  C   UNL A   1      46.853  26.086  35.559  1.00  0.00     0.200 A 
ATOM     70  F   UNL A   1      45.411  24.340  36.227  1.00  0.00    -0.200 F 
ATOM     71  F   UNL A   1      47.873  25.514  36.214  1.00  0.00    -0.200 F 
ENDBRANCH  38  61
ENDBRANCH  12  13
ENDBRANCH   5   7
ENDBRANCH   2   3
ENDBRANCH   1   2
BRANCH   1  72
ATOM     72  C   UNL A   1      33.681  28.250  25.024  1.00  0.00     0.118 C 
BRANCH  72  73
ATOM     73  N   UNL A   1      33.988  27.937  23.639  1.00  0.00    -0.352 N 
ATOM     74  C   UNL A   1      33.478  26.949  22.837  1.00  0.00     0.251 C 
ATOM     75  H   UNL A   1      34.661  28.517  23.216  1.00  0.00     0.163 HD
ATOM     76  O   UNL A   1      33.709  26.943  21.630  1.00  0.00    -0.269 OA
BRANCH  74  77
ATOM     77  C   UNL A   1      32.705  25.842  23.423  1.00  0.00     0.041 A 
ATOM     78  C   UNL A   1      31.387  25.677  22.987  1.00  0.00     0.014 A 
ATOM     79  C   UNL A   1      33.245  25.031  24.434  1.00  0.00     0.039 A 
ATOM     80  C   UNL A   1      30.602  24.676  23.545  1.00  0.00     0.003 A 
ATOM     81  C   UNL A   1      32.464  24.007  24.982  1.00  0.00     0.039 A 
ATOM     82  C   UNL A   1      31.145  23.842  24.521  1.00  0.00     0.026 A 
BRANCH  81  83
ATOM     83  N   UNL A   1      33.004  23.053  25.869  1.00  0.00    -0.355 N 
ATOM     84  H   UNL A   1      32.853  23.185  26.832  1.00  0.00     0.167 HD
BRANCH  83  85
ATOM     85  C   UNL A   1      33.749  21.916  25.468  1.00  0.00     0.050 A 
ATOM     86  C   UNL A   1      33.048  20.752  25.129  1.00  0.00     0.047 A 
ATOM     87  C   UNL A   1      35.165  21.897  25.430  1.00  0.00     0.025 A 
ATOM     88  C   UNL A   1      33.755  19.623  24.778  1.00  0.00     0.114 A 
ATOM     89  C   UNL A   1      35.783  20.678  25.053  1.00  0.00     0.072 A 
ATOM     90  C   UNL A   1      35.988  22.991  25.791  1.00  0.00     0.033 A 
ATOM     91  N   UNL A   1      35.097  19.573  24.732  1.00  0.00    -0.256 NA
ATOM     92  C   UNL A   1      37.166  20.596  25.030  1.00  0.00     0.030 A 
ATOM     93  C   UNL A   1      37.378  22.873  25.767  1.00  0.00     0.041 A 
ATOM     94  C   UNL A   1      37.974  21.679  25.381  1.00  0.00     0.023 A 
ATOM     95  Cl  UNL A   1      38.368  24.202  26.229  1.00  0.00    -0.084 Cl
ENDBRANCH  83  85
ENDBRANCH  81  83
ENDBRANCH  74  77
ENDBRANCH  72  73
ENDBRANCH   1  72
TORSDOF 12
ENDMDL
MODEL 2
REMARK VINA RESULT:     -13.3      0.423      1.639
REMARK SMILES O=C(NCCCNC(=O)c1cccc(Nc2ccnc3ccc(Cl)cc23)c1)c1ccc(-c2c3nc(c(-c4c(F)c(F)c(F)c(F)c4F)c4ccc([nH]4)c(-c4c(F)c(F)c(F)c(F)c4F)c4nc(c(-c5c(F)c(F)c(F)c(F)c5F)c5ccc2[nH]5)C=C4)C=C3)cc1
REMARK SMILES IDX 5 1 4 2 3 3 1 4 2 5 28 7 29 8 90 9 30 10 89 11 31 12 32 13
REMARK SMILES IDX 33 14 83 15 34 16 88 17 82 18 84 19 35 20 87 21 81 22 80 23
REMARK SMILES IDX 36 25 68 26 48 27 67 28 49 29 52 30 66 31 85 32 50 33 51 34
REMARK SMILES IDX 65 36 86 37 53 38 37 39 38 40 46 41 39 42 40 43 44 44 47 45
REMARK SMILES IDX 41 46 42 47 45 48 43 49 69 50 70 51 78 52 71 53 72 54 76 55
REMARK SMILES IDX 79 56 73 57 74 58 77 59 75 60 54 61 55 62 63 63 56 64 57 65
REMARK SMILES IDX 61 66 64 67 58 68 59 69 62 70 60 71 6 72 7 73 8 74 9 76
REMARK SMILES IDX 10 77 11 78 27 79 12 80 14 81 13 82 15 83 16 85 17 86 26 87
REMARK SMILES IDX 18 88 20 89 25 90 19 91 21 92 23 93 22 94 24 95
REMARK H PARENT 3 6 84 24 52 35 7 75 15 84
REMARK Flexibility Score: inf
ROOT
ATOM      1  C   UNL A   1      32.509  29.694  25.312  1.00  0.00     0.042 C 
ENDROOT
BRANCH   1   2
ATOM      2  C   UNL A   1      32.162  30.181  26.719  1.00  0.00     0.118 C 
BRANCH   2   3
ATOM      3  N   UNL A   1      32.236  31.626  26.890  1.00  0.00    -0.352 N 
ATOM      4  O   UNL A   1      32.973  33.647  27.525  1.00  0.00    -0.269 OA
ATOM      5  C   UNL A   1      33.195  32.440  27.449  1.00  0.00     0.251 C 
ATOM      6  H   UNL A   1      31.455  32.112  26.540  1.00  0.00     0.163 HD
BRANCH   5   7
ATOM      7  C   UNL A   1      34.465  31.908  28.004  1.00  0.00     0.039 A 
ATOM      8  C   UNL A   1      34.621  30.571  28.369  1.00  0.00     0.014 A 
ATOM      9  C   UNL A   1      35.560  32.778  28.118  1.00  0.00     0.014 A 
ATOM     10  C   UNL A   1      35.791  30.153  29.006  1.00  0.00     0.010 A 
ATOM     11  C   UNL A   1      36.764  32.336  28.681  1.00  0.00     0.010 A 
ATOM     12  C   UNL A   1      36.873  31.032  29.185  1.00  0.00    -0.014 A 
BRANCH  12  13
ATOM     13  C   UNL A   1      38.092  30.570  29.906  1.00  0.00     0.031 A 
ATOM     14  C   UNL A   1      38.333  30.953  31.344  1.00  0.00     0.074 A 
ATOM     15  C   UNL A   1      38.969  29.760  29.280  1.00  0.00     0.049 A 
ATOM     16  N   UNL A   1      39.297  30.581  32.151  1.00  0.00    -0.248 NA
ATOM     17  C   UNL A   1      37.372  31.883  31.955  1.00  0.00     0.031 C 
ATOM     18  C   UNL A   1      38.871  29.330  27.886  1.00  0.00     0.029 A 
ATOM     19  N   UNL A   1      40.103  29.138  29.742  1.00  0.00    -0.354 N 
ATOM     20  C   UNL A   1      39.070  31.243  33.351  1.00  0.00     0.074 A 
ATOM     21  C   UNL A   1      37.895  32.066  33.160  1.00  0.00     0.031 C 
ATOM     22  C   UNL A   1      39.870  28.475  27.618  1.00  0.00     0.029 A 
ATOM     23  C   UNL A   1      40.703  28.327  28.808  1.00  0.00     0.049 A 
ATOM     24  H   UNL A   1      40.453  29.259  30.654  1.00  0.00     0.167 HD
ATOM     25  C   UNL A   1      39.768  31.164  34.511  1.00  0.00     0.037 A 
ATOM     26  C   UNL A   1      41.800  27.550  28.898  1.00  0.00     0.037 A 
ATOM     27  C   UNL A   1      40.922  30.326  34.715  1.00  0.00     0.049 A 
ATOM     28  C   UNL A   1      42.552  27.479  30.197  1.00  0.00     0.074 A 
ATOM     29  C   UNL A   1      41.661  30.142  35.871  1.00  0.00     0.029 A 
ATOM     30  N   UNL A   1      41.506  29.534  33.739  1.00  0.00    -0.354 N 
ATOM     31  N   UNL A   1      42.290  28.065  31.340  1.00  0.00    -0.248 NA
ATOM     32  C   UNL A   1      43.752  26.631  30.218  1.00  0.00     0.031 C 
ATOM     33  C   UNL A   1      42.720  29.273  35.584  1.00  0.00     0.029 A 
ATOM     34  C   UNL A   1      42.610  28.876  34.261  1.00  0.00     0.049 A 
ATOM     35  H   UNL A   1      41.186  29.451  32.812  1.00  0.00     0.167 HD
ATOM     36  C   UNL A   1      43.272  27.635  32.222  1.00  0.00     0.074 A 
ATOM     37  C   UNL A   1      44.128  26.728  31.486  1.00  0.00     0.031 C 
ATOM     38  C   UNL A   1      43.447  27.964  33.525  1.00  0.00     0.037 A 
BRANCH  25  39
ATOM     39  C   UNL A   1      39.309  32.019  35.659  1.00  0.00     0.064 A 
ATOM     40  C   UNL A   1      38.388  31.549  36.608  1.00  0.00     0.173 A 
ATOM     41  C   UNL A   1      39.835  33.308  35.837  1.00  0.00     0.173 A 
ATOM     42  F   UNL A   1      37.849  30.329  36.478  1.00  0.00    -0.203 F 
ATOM     43  C   UNL A   1      37.991  32.350  37.677  1.00  0.00     0.198 A 
ATOM     44  C   UNL A   1      39.457  34.094  36.922  1.00  0.00     0.198 A 
ATOM     45  F   UNL A   1      40.726  33.802  34.964  1.00  0.00    -0.203 F 
ATOM     46  F   UNL A   1      37.077  31.897  38.545  1.00  0.00    -0.200 F 
ATOM     47  C   UNL A   1      38.530  33.618  37.837  1.00  0.00     0.200 A 
ATOM     48  F   UNL A   1      39.989  35.314  37.083  1.00  0.00    -0.200 F 
ATOM     49  F   UNL A   1      38.152  34.383  38.870  1.00  0.00    -0.200 F 
ENDBRANCH  25  39
BRANCH  26  50
ATOM     50  C   UNL A   1      42.235  26.750  27.724  1.00  0.00     0.064 A 
ATOM     51  C   UNL A   1      43.199  27.246  26.835  1.00  0.00     0.173 A 
ATOM     52  C   UNL A   1      41.700  25.481  27.468  1.00  0.00     0.173 A 
ATOM     53  F   UNL A   1      43.724  28.465  27.026  1.00  0.00    -0.203 F 
ATOM     54  C   UNL A   1      43.599  26.506  25.723  1.00  0.00     0.198 A 
ATOM     55  C   UNL A   1      42.121  24.730  26.373  1.00  0.00     0.198 A 
ATOM     56  F   UNL A   1      40.777  24.962  28.291  1.00  0.00    -0.203 F 
ATOM     57  F   UNL A   1      44.491  27.020  24.865  1.00  0.00    -0.200 F 
ATOM     58  C   UNL A   1      43.065  25.246  25.497  1.00  0.00     0.200 A 
ATOM     59  F   UNL A   1      41.613  23.508  26.166  1.00  0.00    -0.200 F 
ATOM     60  F   UNL A   1      43.455  24.532  24.432  1.00  0.00    -0.200 F 
ENDBRANCH  26  50
BRANCH  38  61
ATOM     61  C   UNL A   1      44.581  27.303  34.254  1.00  0.00     0.064 A 
ATOM     62  C   UNL A   1      44.430  26.060  34.886  1.00  0.00     0.173 A 
ATOM     63  C   UNL A   1      45.844  27.915  34.301  1.00  0.00     0.173 A 
ATOM     64  F   UNL A   1      43.239  25.443  34.882  1.00  0.00    -0.203 F 
ATOM     65  C   UNL A   1      45.492  25.470  35.566  1.00  0.00     0.198 A 
ATOM     66  C   UNL A   1      46.910  27.307  34.957  1.00  0.00     0.198 A 
ATOM     67  F   UNL A   1      46.044  29.101  33.708  1.00  0.00    -0.203 F 
ATOM     68  F   UNL A   1      45.310  24.307  36.208  1.00  0.00    -0.200 F 
ATOM     69  C   UNL A   1      46.732  26.090  35.596  1.00  0.00     0.200 A 
ATOM     70  F   UNL A   1      48.111  27.903  34.975  1.00  0.00    -0.200 F 
ATOM     71  F   UNL A   1      47.753  25.519  36.250  1.00  0.00    -0.200 F 
ENDBRANCH  38  61
ENDBRANCH  12  13
ENDBRANCH   5   7
ENDBRANCH   2   3
ENDBRANCH   1   2
BRANCH   1  72
ATOM     72  C   UNL A   1      33.837  28.957  25.156  1.00  0.00     0.118 C 
BRANCH  72  73
ATOM     73  N   UNL A   1      34.096  28.467  23.813  1.00  0.00    -0.352 N 
ATOM     74  C   UNL A   1      33.517  27.420  23.144  1.00  0.00     0.251 C 
ATOM     75  H   UNL A   1      34.788  28.956  23.313  1.00  0.00     0.163 HD
ATOM     76  O   UNL A   1      33.719  27.259  21.942  1.00  0.00    -0.269 OA
BRANCH  74  77
ATOM     77  C   UNL A   1      32.701  26.433  23.870  1.00  0.00     0.041 A 
ATOM     78  C   UNL A   1      31.317  26.477  23.678  1.00  0.00     0.014 A 
ATOM     79  C   UNL A   1      33.282  25.536  24.779  1.00  0.00     0.039 A 
ATOM     80  C   UNL A   1      30.501  25.597  24.377  1.00  0.00     0.003 A 
ATOM     81  C   UNL A   1      32.465  24.633  25.469  1.00  0.00     0.039 A 
ATOM     82  C   UNL A   1      31.076  24.676  25.251  1.00  0.00     0.026 A 
BRANCH  81  83
ATOM     83  N   UNL A   1      33.003  23.594  26.257  1.00  0.00    -0.355 N 
ATOM     84  H   UNL A   1      32.953  23.688  27.236  1.00  0.00     0.167 HD
BRANCH  83  85
ATOM     85  C   UNL A   1      33.610  22.424  25.737  1.00  0.00     0.050 A 
ATOM     86  C   UNL A   1      32.783  21.347  25.394  1.00  0.00     0.047 A 
ATOM     87  C   UNL A   1      35.012  22.285  25.585  1.00  0.00     0.025 A 
ATOM     88  C   UNL A   1      33.356  20.186  24.927  1.00  0.00     0.114 A 
ATOM     89  C   UNL A   1      35.486  21.043  25.095  1.00  0.00     0.072 A 
ATOM     90  C   UNL A   1      35.954  23.281  25.937  1.00  0.00     0.033 A 
ATOM     91  N   UNL A   1      34.681  20.023  24.771  1.00  0.00    -0.256 NA
ATOM     92  C   UNL A   1      36.851  20.844  24.956  1.00  0.00     0.030 A 
ATOM     93  C   UNL A   1      37.323  23.046  25.795  1.00  0.00     0.041 A 
ATOM     94  C   UNL A   1      37.777  21.830  25.300  1.00  0.00     0.023 A 
ATOM     95  Cl  UNL A   1      38.460  24.254  26.248  1.00  0.00    -0.084 Cl
ENDBRANCH  83  85
ENDBRANCH  81  83
ENDBRANCH  74  77
ENDBRANCH  72  73
ENDBRANCH   1  72
TORSDOF 12
ENDMDL
MODEL 3
REMARK VINA RESULT:     -13.1      4.288      9.883
REMARK SMILES O=C(NCCCNC(=O)c1cccc(Nc2ccnc3ccc(Cl)cc23)c1)c1ccc(-c2c3nc(c(-c4c(F)c(F)c(F)c(F)c4F)c4ccc([nH]4)c(-c4c(F)c(F)c(F)c(F)c4F)c4nc(c(-c5c(F)c(F)c(F)c(F)c5F)c5ccc2[nH]5)C=C4)C=C3)cc1
REMARK SMILES IDX 5 1 4 2 3 3 1 4 2 5 28 7 29 8 90 9 30 10 89 11 31 12 32 13
REMARK SMILES IDX 33 14 83 15 34 16 88 17 82 18 84 19 35 20 87 21 81 22 80 23
REMARK SMILES IDX 36 25 68 26 48 27 67 28 49 29 52 30 66 31 85 32 50 33 51 34
REMARK SMILES IDX 65 36 86 37 53 38 37 39 38 40 46 41 39 42 40 43 44 44 47 45
REMARK SMILES IDX 41 46 42 47 45 48 43 49 69 50 70 51 78 52 71 53 72 54 76 55
REMARK SMILES IDX 79 56 73 57 74 58 77 59 75 60 54 61 55 62 63 63 56 64 57 65
REMARK SMILES IDX 61 66 64 67 58 68 59 69 62 70 60 71 6 72 7 73 8 74 9 76
REMARK SMILES IDX 10 77 11 78 27 79 12 80 14 81 13 82 15 83 16 85 17 86 26 87
REMARK SMILES IDX 18 88 20 89 25 90 19 91 21 92 23 93 22 94 24 95
REMARK H PARENT 3 6 84 24 52 35 7 75 15 84
REMARK Flexibility Score: inf
ROOT
ATOM      1  C   UNL A   1      36.061  21.602  25.663  1.00  0.00     0.042 C 
ENDROOT
BRANCH   1   2
ATOM      2  C   UNL A   1      37.403  21.653  24.932  1.00  0.00     0.118 C 
BRANCH   2   3
ATOM      3  N   UNL A   1      38.396  20.712  25.432  1.00  0.00    -0.352 N 
ATOM      4  O   UNL A   1      40.257  19.911  26.393  1.00  0.00    -0.269 OA
ATOM      5  C   UNL A   1      39.555  20.891  26.153  1.00  0.00     0.251 C 
ATOM      6  H   UNL A   1      38.203  19.772  25.214  1.00  0.00     0.163 HD
BRANCH   5   7
ATOM      7  C   UNL A   1      40.008  22.228  26.610  1.00  0.00     0.039 A 
ATOM      8  C   UNL A   1      39.445  23.412  26.136  1.00  0.00     0.014 A 
ATOM      9  C   UNL A   1      41.008  22.294  27.592  1.00  0.00     0.014 A 
ATOM     10  C   UNL A   1      39.996  24.643  26.500  1.00  0.00     0.010 A 
ATOM     11  C   UNL A   1      41.504  23.532  28.020  1.00  0.00     0.010 A 
ATOM     12  C   UNL A   1      41.043  24.720  27.435  1.00  0.00    -0.014 A 
BRANCH  12  13
ATOM     13  C   UNL A   1      41.639  26.043  27.773  1.00  0.00     0.031 A 
ATOM     14  C   UNL A   1      43.020  26.414  27.296  1.00  0.00     0.074 A 
ATOM     15  C   UNL A   1      40.918  26.939  28.474  1.00  0.00     0.049 A 
ATOM     16  N   UNL A   1      43.667  27.546  27.429  1.00  0.00    -0.248 NA
ATOM     17  C   UNL A   1      43.780  25.375  26.585  1.00  0.00     0.031 C 
ATOM     18  C   UNL A   1      39.579  26.705  29.016  1.00  0.00     0.029 A 
ATOM     19  N   UNL A   1      41.199  28.235  28.832  1.00  0.00    -0.354 N 
ATOM     20  C   UNL A   1      44.910  27.351  26.838  1.00  0.00     0.074 A 
ATOM     21  C   UNL A   1      44.941  25.981  26.373  1.00  0.00     0.031 C 
ATOM     22  C   UNL A   1      39.134  27.832  29.592  1.00  0.00     0.029 A 
ATOM     23  C   UNL A   1      40.170  28.857  29.498  1.00  0.00     0.049 A 
ATOM     24  H   UNL A   1      42.056  28.677  28.631  1.00  0.00     0.167 HD
ATOM     25  C   UNL A   1      45.927  28.233  26.685  1.00  0.00     0.037 A 
ATOM     26  C   UNL A   1      40.069  30.111  29.978  1.00  0.00     0.037 A 
ATOM     27  C   UNL A   1      45.890  29.606  27.121  1.00  0.00     0.049 A 
ATOM     28  C   UNL A   1      41.211  31.070  29.790  1.00  0.00     0.074 A 
ATOM     29  C   UNL A   1      46.854  30.588  26.963  1.00  0.00     0.029 A 
ATOM     30  N   UNL A   1      44.836  30.191  27.806  1.00  0.00    -0.354 N 
ATOM     31  N   UNL A   1      42.354  30.887  29.179  1.00  0.00    -0.248 NA
ATOM     32  C   UNL A   1      41.042  32.415  30.360  1.00  0.00     0.031 C 
ATOM     33  C   UNL A   1      46.402  31.754  27.590  1.00  0.00     0.029 A 
ATOM     34  C   UNL A   1      45.134  31.514  28.095  1.00  0.00     0.049 A 
ATOM     35  H   UNL A   1      44.000  29.733  28.051  1.00  0.00     0.167 HD
ATOM     36  C   UNL A   1      43.029  32.098  29.261  1.00  0.00     0.074 A 
ATOM     37  C   UNL A   1      42.160  33.013  29.972  1.00  0.00     0.031 C 
ATOM     38  C   UNL A   1      44.258  32.421  28.790  1.00  0.00     0.037 A 
BRANCH  25  39
ATOM     39  C   UNL A   1      47.183  27.741  26.022  1.00  0.00     0.064 A 
ATOM     40  C   UNL A   1      48.260  27.232  26.765  1.00  0.00     0.173 A 
ATOM     41  C   UNL A   1      47.291  27.736  24.623  1.00  0.00     0.173 A 
ATOM     42  F   UNL A   1      48.211  27.224  28.104  1.00  0.00    -0.203 F 
ATOM     43  C   UNL A   1      49.408  26.762  26.130  1.00  0.00     0.198 A 
ATOM     44  C   UNL A   1      48.428  27.240  23.992  1.00  0.00     0.198 A 
ATOM     45  F   UNL A   1      46.287  28.204  23.865  1.00  0.00    -0.203 F 
ATOM     46  F   UNL A   1      50.441  26.322  26.862  1.00  0.00    -0.200 F 
ATOM     47  C   UNL A   1      49.488  26.760  24.746  1.00  0.00     0.200 A 
ATOM     48  F   UNL A   1      48.499  27.225  22.653  1.00  0.00    -0.200 F 
ATOM     49  F   UNL A   1      50.591  26.300  24.138  1.00  0.00    -0.200 F 
ENDBRANCH  25  39
BRANCH  26  50
ATOM     50  C   UNL A   1      38.820  30.542  30.658  1.00  0.00     0.064 A 
ATOM     51  C   UNL A   1      37.730  31.025  29.920  1.00  0.00     0.173 A 
ATOM     52  C   UNL A   1      38.690  30.480  32.052  1.00  0.00     0.173 A 
ATOM     53  F   UNL A   1      37.815  31.124  28.585  1.00  0.00    -0.203 F 
ATOM     54  C   UNL A   1      36.562  31.445  30.555  1.00  0.00     0.198 A 
ATOM     55  C   UNL A   1      37.512  30.873  32.683  1.00  0.00     0.198 A 
ATOM     56  F   UNL A   1      39.704  30.023  32.801  1.00  0.00    -0.203 F 
ATOM     57  F   UNL A   1      35.550  31.942  29.830  1.00  0.00    -0.200 F 
ATOM     58  C   UNL A   1      36.451  31.362  31.934  1.00  0.00     0.200 A 
ATOM     59  F   UNL A   1      37.404  30.778  34.015  1.00  0.00    -0.200 F 
ATOM     60  F   UNL A   1      35.326  31.760  32.544  1.00  0.00    -0.200 F 
ENDBRANCH  26  50
BRANCH  38  61
ATOM     61  C   UNL A   1      44.719  33.836  28.986  1.00  0.00     0.064 A 
ATOM     62  C   UNL A   1      45.457  34.224  30.114  1.00  0.00     0.173 A 
ATOM     63  C   UNL A   1      44.434  34.813  28.019  1.00  0.00     0.173 A 
ATOM     64  F   UNL A   1      45.741  33.331  31.074  1.00  0.00    -0.203 F 
ATOM     65  C   UNL A   1      45.866  35.545  30.281  1.00  0.00     0.198 A 
ATOM     66  C   UNL A   1      44.870  36.125  28.176  1.00  0.00     0.198 A 
ATOM     67  F   UNL A   1      43.737  34.493  26.919  1.00  0.00    -0.203 F 
ATOM     68  F   UNL A   1      46.525  35.904  31.392  1.00  0.00    -0.200 F 
ATOM     69  C   UNL A   1      45.578  36.492  29.310  1.00  0.00     0.200 A 
ATOM     70  F   UNL A   1      44.600  37.037  27.232  1.00  0.00    -0.200 F 
ATOM     71  F   UNL A   1      45.974  37.762  29.473  1.00  0.00    -0.200 F 
ENDBRANCH  38  61
ENDBRANCH  12  13
ENDBRANCH   5   7
ENDBRANCH   2   3
ENDBRANCH   1   2
BRANCH   1  72
ATOM     72  C   UNL A   1      35.669  22.850  26.450  1.00  0.00     0.118 C 
BRANCH  72  73
ATOM     73  N   UNL A   1      34.305  22.838  26.951  1.00  0.00    -0.352 N 
ATOM     74  C   UNL A   1      33.131  23.057  26.279  1.00  0.00     0.251 C 
ATOM     75  H   UNL A   1      34.212  22.647  27.912  1.00  0.00     0.163 HD
ATOM     76  O   UNL A   1      32.051  22.821  26.816  1.00  0.00    -0.269 OA
BRANCH  74  77
ATOM     77  C   UNL A   1      33.145  23.644  24.929  1.00  0.00     0.041 A 
ATOM     78  C   UNL A   1      32.967  22.775  23.848  1.00  0.00     0.014 A 
ATOM     79  C   UNL A   1      33.404  25.009  24.731  1.00  0.00     0.039 A 
ATOM     80  C   UNL A   1      33.020  23.274  22.553  1.00  0.00     0.003 A 
ATOM     81  C   UNL A   1      33.437  25.519  23.428  1.00  0.00     0.039 A 
ATOM     82  C   UNL A   1      33.237  24.636  22.351  1.00  0.00     0.026 A 
BRANCH  81  83
ATOM     83  N   UNL A   1      33.515  26.904  23.173  1.00  0.00    -0.355 N 
ATOM     84  H   UNL A   1      34.294  27.234  22.670  1.00  0.00     0.167 HD
BRANCH  83  85
ATOM     85  C   UNL A   1      32.548  27.854  23.590  1.00  0.00     0.050 A 
ATOM     86  C   UNL A   1      31.420  28.045  22.783  1.00  0.00     0.047 A 
ATOM     87  C   UNL A   1      32.693  28.637  24.761  1.00  0.00     0.025 A 
ATOM     88  C   UNL A   1      30.491  28.993  23.147  1.00  0.00     0.114 A 
ATOM     89  C   UNL A   1      31.671  29.580  25.034  1.00  0.00     0.072 A 
ATOM     90  C   UNL A   1      33.805  28.569  25.634  1.00  0.00     0.033 A 
ATOM     91  N   UNL A   1      30.598  29.751  24.251  1.00  0.00    -0.256 NA
ATOM     92  C   UNL A   1      31.778  30.393  26.152  1.00  0.00     0.030 A 
ATOM     93  C   UNL A   1      33.888  29.409  26.745  1.00  0.00     0.041 A 
ATOM     94  C   UNL A   1      32.874  30.320  27.012  1.00  0.00     0.023 A 
ATOM     95  Cl  UNL A   1      35.255  29.334  27.786  1.00  0.00    -0.084 Cl
ENDBRANCH  83  85
ENDBRANCH  81  83
ENDBRANCH  74  77
ENDBRANCH  72  73
ENDBRANCH   1  72
TORSDOF 12
ENDMDL
