MODEL 1
REMARK VINA RESULT:     -11.6      0.000      0.000
REMARK SMILES CC(C)(C)OC(=O)N[C@@H](CC(=O)NCCCNC(=O)c1ccc(-c2c3nc(c(-c4c(F)c(F)c(F)c(F)c4F)c4ccc([nH]4)c(-c4c(F)c(F)c(F)c(F)c4F)c4nc(c(-c5c(F)c(F)c(F)c(F)c5F)c5ccc2[nH]5)C=C4)C=C3)cc1)c1cccnc1
REMARK SMILES IDX 14 1 13 2 11 3 12 4 10 6 9 7 8 8 6 9 7 10 5 12 2 13 1 14
REMARK SMILES IDX 3 15 4 16 83 17 84 18 88 19 85 20 87 21 86 22 15 23 16 24
REMARK SMILES IDX 17 25 18 26 19 28 20 29 21 30 82 31 22 32 81 33 23 34 24 35
REMARK SMILES IDX 25 36 75 37 26 38 80 39 74 40 76 41 27 42 79 43 73 44 72 45
REMARK SMILES IDX 28 47 60 48 40 49 59 50 41 51 44 52 58 53 77 54 42 55 43 56
REMARK SMILES IDX 57 58 78 59 45 60 29 61 30 62 38 63 31 64 32 65 36 66 39 67
REMARK SMILES IDX 33 68 34 69 37 70 35 71 61 72 62 73 70 74 63 75 64 76 68 77
REMARK SMILES IDX 71 78 65 79 66 80 69 81 67 82 46 83 47 84 55 85 48 86 49 87
REMARK SMILES IDX 53 88 56 89 50 90 51 91 54 92 52 93
REMARK H PARENT 13 5 8 11 17 27 76 46 44 57
REMARK Flexibility Score: inf
ROOT
ATOM      1  C   UNL A   1      31.022  30.926  25.446  1.00  0.00     0.117 C 
ENDROOT
BRANCH   1   2
ATOM      2  N   UNL A   1      32.272  30.188  25.373  1.00  0.00    -0.356 N 
ATOM      3  C   UNL A   1      32.521  28.883  25.083  1.00  0.00     0.222 C 
ATOM      4  O   UNL A   1      33.703  28.537  25.015  1.00  0.00    -0.275 OA
ATOM      5  H   UNL A   1      33.075  30.724  25.564  1.00  0.00     0.163 HD
BRANCH   3   6
ATOM      6  C   UNL A   1      31.413  27.878  24.854  1.00  0.00     0.130 C 
BRANCH   6   7
ATOM      7  C   UNL A   1      30.900  27.675  23.414  1.00  0.00     0.126 C 
BRANCH   7   8
ATOM      8  N   UNL A   1      31.976  27.554  22.446  1.00  0.00    -0.314 N 
ATOM      9  C   UNL A   1      32.550  26.451  21.907  1.00  0.00     0.408 C 
ATOM     10  O   UNL A   1      33.578  26.568  21.252  1.00  0.00    -0.225 OA
ATOM     11  H   UNL A   1      32.347  28.410  22.131  1.00  0.00     0.167 HD
BRANCH   9  12
ATOM     12  O   UNL A   1      31.872  25.303  22.131  1.00  0.00    -0.444 OA
BRANCH  12  13
ATOM     13  C   UNL A   1      32.504  24.254  22.919  1.00  0.00     0.106 C 
ATOM     14  C   UNL A   1      31.350  23.501  23.596  1.00  0.00     0.056 C 
ATOM     15  C   UNL A   1      33.400  24.873  23.996  1.00  0.00     0.056 C 
ATOM     16  C   UNL A   1      33.277  23.241  22.055  1.00  0.00     0.056 C 
ENDBRANCH  12  13
ENDBRANCH   9  12
ENDBRANCH   7   8
BRANCH   7  17
ATOM     17  C   UNL A   1      29.901  28.672  22.858  1.00  0.00    -0.007 A 
ATOM     18  C   UNL A   1      28.535  28.512  23.126  1.00  0.00     0.009 A 
ATOM     19  C   UNL A   1      30.234  29.659  21.930  1.00  0.00     0.116 A 
ATOM     20  C   UNL A   1      27.592  29.311  22.481  1.00  0.00     0.020 A 
ATOM     21  N   UNL A   1      29.341  30.447  21.286  1.00  0.00    -0.264 NA
ATOM     22  C   UNL A   1      28.040  30.256  21.577  1.00  0.00     0.111 A 
ENDBRANCH   7  17
ENDBRANCH   6   7
ENDBRANCH   3   6
ENDBRANCH   1   2
BRANCH   1  23
ATOM     23  C   UNL A   1      31.063  32.030  26.502  1.00  0.00     0.042 C 
BRANCH  23  24
ATOM     24  C   UNL A   1      32.458  32.451  26.938  1.00  0.00     0.118 C 
BRANCH  24  25
ATOM     25  N   UNL A   1      32.508  33.832  27.383  1.00  0.00    -0.352 N 
ATOM     26  C   UNL A   1      33.250  34.429  28.372  1.00  0.00     0.251 C 
ATOM     27  H   UNL A   1      31.911  34.442  26.893  1.00  0.00     0.163 HD
ATOM     28  O   UNL A   1      32.963  35.573  28.718  1.00  0.00    -0.269 OA
BRANCH  26  29
ATOM     29  C   UNL A   1      34.376  33.730  29.043  1.00  0.00     0.039 A 
ATOM     30  C   UNL A   1      35.682  34.155  28.767  1.00  0.00     0.014 A 
ATOM     31  C   UNL A   1      34.183  32.621  29.868  1.00  0.00     0.014 A 
ATOM     32  C   UNL A   1      36.775  33.503  29.349  1.00  0.00     0.010 A 
ATOM     33  C   UNL A   1      35.266  32.029  30.521  1.00  0.00     0.010 A 
ATOM     34  C   UNL A   1      36.577  32.450  30.255  1.00  0.00    -0.014 A 
BRANCH  34  35
ATOM     35  C   UNL A   1      37.725  31.758  30.901  1.00  0.00     0.031 A 
ATOM     36  C   UNL A   1      38.162  32.145  32.290  1.00  0.00     0.074 A 
ATOM     37  C   UNL A   1      38.411  30.817  30.225  1.00  0.00     0.049 A 
ATOM     38  N   UNL A   1      39.183  31.715  32.991  1.00  0.00    -0.248 NA
ATOM     39  C   UNL A   1      37.362  33.175  32.972  1.00  0.00     0.031 C 
ATOM     40  C   UNL A   1      38.123  30.380  28.859  1.00  0.00     0.029 A 
ATOM     41  N   UNL A   1      39.503  30.068  30.589  1.00  0.00    -0.354 N 
ATOM     42  C   UNL A   1      39.155  32.432  34.181  1.00  0.00     0.074 A 
ATOM     43  C   UNL A   1      38.053  33.364  34.086  1.00  0.00     0.031 C 
ATOM     44  C   UNL A   1      39.001  29.427  28.507  1.00  0.00     0.029 A 
ATOM     45  C   UNL A   1      39.938  29.212  29.606  1.00  0.00     0.049 A 
ATOM     46  H   UNL A   1      39.933  30.135  31.472  1.00  0.00     0.167 HD
ATOM     47  C   UNL A   1      39.959  32.310  35.265  1.00  0.00     0.037 A 
ATOM     48  C   UNL A   1      40.981  28.361  29.586  1.00  0.00     0.037 A 
ATOM     49  C   UNL A   1      41.038  31.363  35.372  1.00  0.00     0.049 A 
ATOM     50  C   UNL A   1      41.859  28.240  30.802  1.00  0.00     0.074 A 
ATOM     51  C   UNL A   1      41.874  31.123  36.449  1.00  0.00     0.029 A 
ATOM     52  N   UNL A   1      41.431  30.496  34.362  1.00  0.00    -0.354 N 
ATOM     53  N   UNL A   1      41.785  28.882  31.944  1.00  0.00    -0.248 NA
ATOM     54  C   UNL A   1      42.961  27.270  30.731  1.00  0.00     0.031 C 
ATOM     55  C   UNL A   1      42.799  30.143  36.076  1.00  0.00     0.029 A 
ATOM     56  C   UNL A   1      42.509  29.735  34.785  1.00  0.00     0.049 A 
ATOM     57  H   UNL A   1      41.006  30.432  33.476  1.00  0.00     0.167 HD
ATOM     58  C   UNL A   1      42.810  28.377  32.732  1.00  0.00     0.074 A 
ATOM     59  C   UNL A   1      43.483  27.365  31.946  1.00  0.00     0.031 C 
ATOM     60  C   UNL A   1      43.164  28.724  33.994  1.00  0.00     0.037 A 
BRANCH  47  61
ATOM     61  C   UNL A   1      39.697  33.222  36.430  1.00  0.00     0.064 A 
ATOM     62  C   UNL A   1      40.325  34.473  36.538  1.00  0.00     0.173 A 
ATOM     63  C   UNL A   1      38.787  32.857  37.433  1.00  0.00     0.173 A 
ATOM     64  F   UNL A   1      41.211  34.867  35.611  1.00  0.00    -0.203 F 
ATOM     65  C   UNL A   1      40.076  35.309  37.625  1.00  0.00     0.198 A 
ATOM     66  C   UNL A   1      38.517  33.710  38.501  1.00  0.00     0.198 A 
ATOM     67  F   UNL A   1      38.153  31.677  37.375  1.00  0.00    -0.203 F 
ATOM     68  F   UNL A   1      40.728  36.475  37.734  1.00  0.00    -0.200 F 
ATOM     69  C   UNL A   1      39.168  34.930  38.601  1.00  0.00     0.200 A 
ATOM     70  F   UNL A   1      37.628  33.348  39.437  1.00  0.00    -0.200 F 
ATOM     71  F   UNL A   1      38.926  35.737  39.642  1.00  0.00    -0.200 F 
ENDBRANCH  47  61
BRANCH  48  72
ATOM     72  C   UNL A   1      41.241  27.538  28.375  1.00  0.00     0.064 A 
ATOM     73  C   UNL A   1      40.600  26.306  28.190  1.00  0.00     0.173 A 
ATOM     74  C   UNL A   1      42.130  27.968  27.379  1.00  0.00     0.173 A 
ATOM     75  F   UNL A   1      39.758  25.842  29.126  1.00  0.00    -0.203 F 
ATOM     76  C   UNL A   1      40.852  25.525  27.064  1.00  0.00     0.198 A 
ATOM     77  C   UNL A   1      42.360  27.199  26.240  1.00  0.00     0.198 A 
ATOM     78  F   UNL A   1      42.767  29.140  27.508  1.00  0.00    -0.203 F 
ATOM     79  F   UNL A   1      40.259  24.330  26.934  1.00  0.00    -0.200 F 
ATOM     80  C   UNL A   1      41.727  25.976  26.087  1.00  0.00     0.200 A 
ATOM     81  F   UNL A   1      43.196  27.644  25.292  1.00  0.00    -0.200 F 
ATOM     82  F   UNL A   1      41.964  25.227  25.002  1.00  0.00    -0.200 F 
ENDBRANCH  48  72
BRANCH  60  83
ATOM     83  C   UNL A   1      44.309  27.981  34.617  1.00  0.00     0.064 A 
ATOM     84  C   UNL A   1      44.116  26.778  35.311  1.00  0.00     0.173 A 
ATOM     85  C   UNL A   1      45.622  28.460  34.483  1.00  0.00     0.173 A 
ATOM     86  F   UNL A   1      42.879  26.286  35.479  1.00  0.00    -0.203 F 
ATOM     87  C   UNL A   1      45.193  26.093  35.869  1.00  0.00     0.198 A 
ATOM     88  C   UNL A   1      46.699  27.758  35.017  1.00  0.00     0.198 A 
ATOM     89  F   UNL A   1      45.862  29.603  33.824  1.00  0.00    -0.203 F 
ATOM     90  F   UNL A   1      44.981  24.969  36.567  1.00  0.00    -0.200 F 
ATOM     91  C   UNL A   1      46.483  26.579  35.715  1.00  0.00     0.200 A 
ATOM     92  F   UNL A   1      47.946  28.222  34.855  1.00  0.00    -0.200 F 
ATOM     93  F   UNL A   1      47.519  25.915  36.246  1.00  0.00    -0.200 F 
ENDBRANCH  60  83
ENDBRANCH  34  35
ENDBRANCH  26  29
ENDBRANCH  24  25
ENDBRANCH  23  24
ENDBRANCH   1  23
TORSDOF 15
ENDMDL
MODEL 2
REMARK VINA RESULT:     -11.6      0.138      1.608
REMARK SMILES CC(C)(C)OC(=O)N[C@@H](CC(=O)NCCCNC(=O)c1ccc(-c2c3nc(c(-c4c(F)c(F)c(F)c(F)c4F)c4ccc([nH]4)c(-c4c(F)c(F)c(F)c(F)c4F)c4nc(c(-c5c(F)c(F)c(F)c(F)c5F)c5ccc2[nH]5)C=C4)C=C3)cc1)c1cccnc1
REMARK SMILES IDX 14 1 13 2 11 3 12 4 10 6 9 7 8 8 6 9 7 10 5 12 2 13 1 14
REMARK SMILES IDX 3 15 4 16 83 17 84 18 88 19 85 20 87 21 86 22 15 23 16 24
REMARK SMILES IDX 17 25 18 26 19 28 20 29 21 30 82 31 22 32 81 33 23 34 24 35
REMARK SMILES IDX 25 36 75 37 26 38 80 39 74 40 76 41 27 42 79 43 73 44 72 45
REMARK SMILES IDX 28 47 60 48 40 49 59 50 41 51 44 52 58 53 77 54 42 55 43 56
REMARK SMILES IDX 57 58 78 59 45 60 29 61 30 62 38 63 31 64 32 65 36 66 39 67
REMARK SMILES IDX 33 68 34 69 37 70 35 71 61 72 62 73 70 74 63 75 64 76 68 77
REMARK SMILES IDX 71 78 65 79 66 80 69 81 67 82 46 83 47 84 55 85 48 86 49 87
REMARK SMILES IDX 53 88 56 89 50 90 51 91 54 92 52 93
REMARK H PARENT 13 5 8 11 17 27 76 46 44 57
REMARK Flexibility Score: inf
ROOT
ATOM      1  C   UNL A   1      31.029  30.920  25.423  1.00  0.00     0.117 C 
ENDROOT
BRANCH   1   2
ATOM      2  N   UNL A   1      32.293  30.205  25.352  1.00  0.00    -0.356 N 
ATOM      3  C   UNL A   1      32.566  28.899  25.093  1.00  0.00     0.222 C 
ATOM      4  O   UNL A   1      33.753  28.575  25.018  1.00  0.00    -0.275 OA
ATOM      5  H   UNL A   1      33.087  30.762  25.519  1.00  0.00     0.163 HD
BRANCH   3   6
ATOM      6  C   UNL A   1      31.475  27.866  24.903  1.00  0.00     0.130 C 
BRANCH   6   7
ATOM      7  C   UNL A   1      30.936  27.629  23.477  1.00  0.00     0.126 C 
BRANCH   7   8
ATOM      8  N   UNL A   1      31.994  27.501  22.491  1.00  0.00    -0.314 N 
ATOM      9  C   UNL A   1      32.581  26.394  21.974  1.00  0.00     0.408 C 
ATOM     10  O   UNL A   1      33.592  26.512  21.294  1.00  0.00    -0.225 OA
ATOM     11  H   UNL A   1      32.340  28.354  22.141  1.00  0.00     0.167 HD
BRANCH   9  12
ATOM     12  O   UNL A   1      31.933  25.240  22.248  1.00  0.00    -0.444 OA
BRANCH  12  13
ATOM     13  C   UNL A   1      32.625  24.206  23.006  1.00  0.00     0.106 C 
ATOM     14  C   UNL A   1      31.524  23.448  23.762  1.00  0.00     0.056 C 
ATOM     15  C   UNL A   1      33.579  24.847  24.019  1.00  0.00     0.056 C 
ATOM     16  C   UNL A   1      33.354  23.192  22.106  1.00  0.00     0.056 C 
ENDBRANCH  12  13
ENDBRANCH   9  12
ENDBRANCH   7   8
BRANCH   7  17
ATOM     17  C   UNL A   1      29.916  28.605  22.922  1.00  0.00    -0.007 A 
ATOM     18  C   UNL A   1      28.557  28.438  23.224  1.00  0.00     0.009 A 
ATOM     19  C   UNL A   1      30.219  29.575  21.966  1.00  0.00     0.116 A 
ATOM     20  C   UNL A   1      27.593  29.214  22.583  1.00  0.00     0.020 A 
ATOM     21  N   UNL A   1      29.304  30.341  21.326  1.00  0.00    -0.264 NA
ATOM     22  C   UNL A   1      28.012  30.143  21.649  1.00  0.00     0.111 A 
ENDBRANCH   7  17
ENDBRANCH   6   7
ENDBRANCH   3   6
ENDBRANCH   1   2
BRANCH   1  23
ATOM     23  C   UNL A   1      31.040  32.010  26.492  1.00  0.00     0.042 C 
BRANCH  23  24
ATOM     24  C   UNL A   1      32.422  32.434  26.965  1.00  0.00     0.118 C 
BRANCH  24  25
ATOM     25  N   UNL A   1      32.461  33.817  27.403  1.00  0.00    -0.352 N 
ATOM     26  C   UNL A   1      33.205  34.427  28.382  1.00  0.00     0.251 C 
ATOM     27  H   UNL A   1      31.852  34.418  26.916  1.00  0.00     0.163 HD
ATOM     28  O   UNL A   1      32.909  35.570  28.725  1.00  0.00    -0.269 OA
BRANCH  26  29
ATOM     29  C   UNL A   1      34.345  33.745  29.046  1.00  0.00     0.039 A 
ATOM     30  C   UNL A   1      35.640  34.213  28.792  1.00  0.00     0.014 A 
ATOM     31  C   UNL A   1      34.177  32.611  29.842  1.00  0.00     0.014 A 
ATOM     32  C   UNL A   1      36.747  33.578  29.367  1.00  0.00     0.010 A 
ATOM     33  C   UNL A   1      35.271  32.035  30.490  1.00  0.00     0.010 A 
ATOM     34  C   UNL A   1      36.572  32.498  30.246  1.00  0.00    -0.014 A 
BRANCH  34  35
ATOM     35  C   UNL A   1      37.734  31.824  30.886  1.00  0.00     0.031 A 
ATOM     36  C   UNL A   1      38.169  32.214  32.274  1.00  0.00     0.074 A 
ATOM     37  C   UNL A   1      38.434  30.897  30.203  1.00  0.00     0.049 A 
ATOM     38  N   UNL A   1      39.200  31.799  32.970  1.00  0.00    -0.248 NA
ATOM     39  C   UNL A   1      37.355  33.228  32.963  1.00  0.00     0.031 C 
ATOM     40  C   UNL A   1      38.148  30.459  28.837  1.00  0.00     0.029 A 
ATOM     41  N   UNL A   1      39.539  30.165  30.561  1.00  0.00    -0.354 N 
ATOM     42  C   UNL A   1      39.165  32.511  34.162  1.00  0.00     0.074 A 
ATOM     43  C   UNL A   1      38.047  33.425  34.074  1.00  0.00     0.031 C 
ATOM     44  C   UNL A   1      39.040  29.523  28.478  1.00  0.00     0.029 A 
ATOM     45  C   UNL A   1      39.985  29.320  29.573  1.00  0.00     0.049 A 
ATOM     46  H   UNL A   1      39.971  30.237  31.443  1.00  0.00     0.167 HD
ATOM     47  C   UNL A   1      39.975  32.398  35.243  1.00  0.00     0.037 A 
ATOM     48  C   UNL A   1      41.042  28.487  29.547  1.00  0.00     0.037 A 
ATOM     49  C   UNL A   1      41.070  31.470  35.343  1.00  0.00     0.049 A 
ATOM     50  C   UNL A   1      41.926  28.377  30.759  1.00  0.00     0.074 A 
ATOM     51  C   UNL A   1      41.914  31.241  36.416  1.00  0.00     0.029 A 
ATOM     52  N   UNL A   1      41.474  30.613  34.328  1.00  0.00    -0.354 N 
ATOM     53  N   UNL A   1      41.846  29.013  31.903  1.00  0.00    -0.248 NA
ATOM     54  C   UNL A   1      43.044  27.425  30.680  1.00  0.00     0.031 C 
ATOM     55  C   UNL A   1      42.855  30.277  36.036  1.00  0.00     0.029 A 
ATOM     56  C   UNL A   1      42.566  29.869  34.744  1.00  0.00     0.049 A 
ATOM     57  H   UNL A   1      41.046  30.545  33.443  1.00  0.00     0.167 HD
ATOM     58  C   UNL A   1      42.883  28.523  32.686  1.00  0.00     0.074 A 
ATOM     59  C   UNL A   1      43.569  27.525  31.893  1.00  0.00     0.031 C 
ATOM     60  C   UNL A   1      43.235  28.872  33.947  1.00  0.00     0.037 A 
BRANCH  47  61
ATOM     61  C   UNL A   1      39.702  33.302  36.412  1.00  0.00     0.064 A 
ATOM     62  C   UNL A   1      38.823  32.927  37.441  1.00  0.00     0.173 A 
ATOM     63  C   UNL A   1      40.347  34.542  36.522  1.00  0.00     0.173 A 
ATOM     64  F   UNL A   1      38.172  31.756  37.380  1.00  0.00    -0.203 F 
ATOM     65  C   UNL A   1      38.577  33.775  38.518  1.00  0.00     0.198 A 
ATOM     66  C   UNL A   1      40.123  35.373  37.618  1.00  0.00     0.198 A 
ATOM     67  F   UNL A   1      41.203  34.947  35.573  1.00  0.00    -0.203 F 
ATOM     68  F   UNL A   1      37.693  33.418  39.461  1.00  0.00    -0.200 F 
ATOM     69  C   UNL A   1      39.231  34.993  38.609  1.00  0.00     0.200 A 
ATOM     70  F   UNL A   1      40.767  36.545  37.712  1.00  0.00    -0.200 F 
ATOM     71  F   UNL A   1      38.997  35.805  39.649  1.00  0.00    -0.200 F 
ENDBRANCH  47  61
BRANCH  48  72
ATOM     72  C   UNL A   1      41.311  27.673  28.332  1.00  0.00     0.064 A 
ATOM     73  C   UNL A   1      40.691  26.430  28.145  1.00  0.00     0.173 A 
ATOM     74  C   UNL A   1      42.188  28.121  27.333  1.00  0.00     0.173 A 
ATOM     75  F   UNL A   1      39.860  25.949  29.083  1.00  0.00    -0.203 F 
ATOM     76  C   UNL A   1      40.952  25.658  27.015  1.00  0.00     0.198 A 
ATOM     77  C   UNL A   1      42.427  27.360  26.191  1.00  0.00     0.198 A 
ATOM     78  F   UNL A   1      42.805  29.304  27.464  1.00  0.00    -0.203 F 
ATOM     79  F   UNL A   1      40.379  24.453  26.884  1.00  0.00    -0.200 F 
ATOM     80  C   UNL A   1      41.814  26.126  26.036  1.00  0.00     0.200 A 
ATOM     81  F   UNL A   1      43.251  27.822  25.241  1.00  0.00    -0.200 F 
ATOM     82  F   UNL A   1      42.060  25.385  24.948  1.00  0.00    -0.200 F 
ENDBRANCH  48  72
BRANCH  60  83
ATOM     83  C   UNL A   1      44.396  28.147  34.564  1.00  0.00     0.064 A 
ATOM     84  C   UNL A   1      45.711  28.613  34.429  1.00  0.00     0.173 A 
ATOM     85  C   UNL A   1      44.182  26.993  35.334  1.00  0.00     0.173 A 
ATOM     86  F   UNL A   1      45.969  29.704  33.692  1.00  0.00    -0.203 F 
ATOM     87  C   UNL A   1      46.774  27.936  35.022  1.00  0.00     0.198 A 
ATOM     88  C   UNL A   1      45.244  26.335  35.949  1.00  0.00     0.198 A 
ATOM     89  F   UNL A   1      42.942  26.509  35.499  1.00  0.00    -0.203 F 
ATOM     90  F   UNL A   1      48.028  28.373  34.842  1.00  0.00    -0.200 F 
ATOM     91  C   UNL A   1      46.539  26.803  35.787  1.00  0.00     0.200 A 
ATOM     92  F   UNL A   1      45.013  25.249  36.699  1.00  0.00    -0.200 F 
ATOM     93  F   UNL A   1      47.562  26.158  36.363  1.00  0.00    -0.200 F 
ENDBRANCH  60  83
ENDBRANCH  34  35
ENDBRANCH  26  29
ENDBRANCH  24  25
ENDBRANCH  23  24
ENDBRANCH   1  23
TORSDOF 15
ENDMDL
MODEL 3
REMARK VINA RESULT:     -11.5      0.676      7.405
REMARK SMILES CC(C)(C)OC(=O)N[C@@H](CC(=O)NCCCNC(=O)c1ccc(-c2c3nc(c(-c4c(F)c(F)c(F)c(F)c4F)c4ccc([nH]4)c(-c4c(F)c(F)c(F)c(F)c4F)c4nc(c(-c5c(F)c(F)c(F)c(F)c5F)c5ccc2[nH]5)C=C4)C=C3)cc1)c1cccnc1
REMARK SMILES IDX 14 1 13 2 11 3 12 4 10 6 9 7 8 8 6 9 7 10 5 12 2 13 1 14
REMARK SMILES IDX 3 15 4 16 83 17 84 18 88 19 85 20 87 21 86 22 15 23 16 24
REMARK SMILES IDX 17 25 18 26 19 28 20 29 21 30 82 31 22 32 81 33 23 34 24 35
REMARK SMILES IDX 25 36 75 37 26 38 80 39 74 40 76 41 27 42 79 43 73 44 72 45
REMARK SMILES IDX 28 47 60 48 40 49 59 50 41 51 44 52 58 53 77 54 42 55 43 56
REMARK SMILES IDX 57 58 78 59 45 60 29 61 30 62 38 63 31 64 32 65 36 66 39 67
REMARK SMILES IDX 33 68 34 69 37 70 35 71 61 72 62 73 70 74 63 75 64 76 68 77
REMARK SMILES IDX 71 78 65 79 66 80 69 81 67 82 46 83 47 84 55 85 48 86 49 87
REMARK SMILES IDX 53 88 56 89 50 90 51 91 54 92 52 93
REMARK H PARENT 13 5 8 11 17 27 76 46 44 57
REMARK Flexibility Score: inf
ROOT
ATOM      1  C   UNL A   1      31.136  30.711  25.589  1.00  0.00     0.117 C 
ENDROOT
BRANCH   1   2
ATOM      2  N   UNL A   1      32.255  29.846  25.925  1.00  0.00    -0.356 N 
ATOM      3  C   UNL A   1      33.095  29.127  25.133  1.00  0.00     0.222 C 
ATOM      4  O   UNL A   1      34.022  28.533  25.688  1.00  0.00    -0.275 OA
ATOM      5  H   UNL A   1      32.437  29.768  26.889  1.00  0.00     0.163 HD
BRANCH   3   6
ATOM      6  C   UNL A   1      32.920  29.043  23.632  1.00  0.00     0.130 C 
BRANCH   6   7
ATOM      7  C   UNL A   1      31.941  27.991  23.070  1.00  0.00     0.126 C 
BRANCH   7   8
ATOM      8  N   UNL A   1      32.457  27.317  21.893  1.00  0.00    -0.314 N 
ATOM      9  C   UNL A   1      32.592  25.994  21.628  1.00  0.00     0.408 C 
ATOM     10  O   UNL A   1      33.232  25.639  20.646  1.00  0.00    -0.225 OA
ATOM     11  H   UNL A   1      32.756  27.916  21.170  1.00  0.00     0.167 HD
BRANCH   9  12
ATOM     12  O   UNL A   1      31.943  25.184  22.493  1.00  0.00    -0.444 OA
BRANCH  12  13
ATOM     13  C   UNL A   1      32.722  24.310  23.359  1.00  0.00     0.106 C 
ATOM     14  C   UNL A   1      31.818  24.019  24.566  1.00  0.00     0.056 C 
ATOM     15  C   UNL A   1      33.982  25.036  23.841  1.00  0.00     0.056 C 
ATOM     16  C   UNL A   1      33.063  22.963  22.698  1.00  0.00     0.056 C 
ENDBRANCH  12  13
ENDBRANCH   9  12
ENDBRANCH   7   8
BRANCH   7  17
ATOM     17  C   UNL A   1      30.521  28.423  22.759  1.00  0.00    -0.007 A 
ATOM     18  C   UNL A   1      30.290  29.646  22.115  1.00  0.00     0.009 A 
ATOM     19  C   UNL A   1      29.392  27.758  23.238  1.00  0.00     0.116 A 
ATOM     20  C   UNL A   1      28.993  30.138  21.981  1.00  0.00     0.020 A 
ATOM     21  N   UNL A   1      28.122  28.213  23.125  1.00  0.00    -0.264 NA
ATOM     22  C   UNL A   1      27.951  29.392  22.499  1.00  0.00     0.111 A 
ENDBRANCH   7  17
ENDBRANCH   6   7
ENDBRANCH   3   6
ENDBRANCH   1   2
BRANCH   1  23
ATOM     23  C   UNL A   1      31.087  31.959  26.468  1.00  0.00     0.042 C 
BRANCH  23  24
ATOM     24  C   UNL A   1      32.443  32.503  26.891  1.00  0.00     0.118 C 
BRANCH  24  25
ATOM     25  N   UNL A   1      32.369  33.871  27.370  1.00  0.00    -0.352 N 
ATOM     26  C   UNL A   1      33.051  34.506  28.378  1.00  0.00     0.251 C 
ATOM     27  H   UNL A   1      31.722  34.438  26.892  1.00  0.00     0.163 HD
ATOM     28  O   UNL A   1      32.663  35.611  28.750  1.00  0.00    -0.269 OA
BRANCH  26  29
ATOM     29  C   UNL A   1      34.232  33.893  29.039  1.00  0.00     0.039 A 
ATOM     30  C   UNL A   1      34.017  32.862  29.961  1.00  0.00     0.014 A 
ATOM     31  C   UNL A   1      35.531  34.363  28.836  1.00  0.00     0.014 A 
ATOM     32  C   UNL A   1      35.097  32.280  30.635  1.00  0.00     0.010 A 
ATOM     33  C   UNL A   1      36.615  33.722  29.436  1.00  0.00     0.010 A 
ATOM     34  C   UNL A   1      36.412  32.685  30.358  1.00  0.00    -0.014 A 
BRANCH  34  35
ATOM     35  C   UNL A   1      37.575  32.064  31.047  1.00  0.00     0.031 A 
ATOM     36  C   UNL A   1      38.386  30.998  30.357  1.00  0.00     0.074 A 
ATOM     37  C   UNL A   1      37.875  32.416  32.312  1.00  0.00     0.049 A 
ATOM     38  N   UNL A   1      39.385  30.285  30.818  1.00  0.00    -0.248 NA
ATOM     39  C   UNL A   1      38.007  30.669  28.974  1.00  0.00     0.031 C 
ATOM     40  C   UNL A   1      37.144  33.399  33.111  1.00  0.00     0.029 A 
ATOM     41  N   UNL A   1      38.866  31.975  33.154  1.00  0.00    -0.354 N 
ATOM     42  C   UNL A   1      39.737  29.417  29.791  1.00  0.00     0.074 A 
ATOM     43  C   UNL A   1      38.811  29.652  28.705  1.00  0.00     0.031 C 
ATOM     44  C   UNL A   1      37.722  33.502  34.318  1.00  0.00     0.029 A 
ATOM     45  C   UNL A   1      38.839  32.565  34.395  1.00  0.00     0.049 A 
ATOM     46  H   UNL A   1      39.535  31.301  32.894  1.00  0.00     0.167 HD
ATOM     47  C   UNL A   1      40.754  28.523  29.746  1.00  0.00     0.037 A 
ATOM     48  C   UNL A   1      39.617  32.366  35.475  1.00  0.00     0.037 A 
ATOM     49  C   UNL A   1      41.694  28.308  30.815  1.00  0.00     0.049 A 
ATOM     50  C   UNL A   1      40.742  31.369  35.402  1.00  0.00     0.074 A 
ATOM     51  C   UNL A   1      42.791  27.465  30.845  1.00  0.00     0.029 A 
ATOM     52  N   UNL A   1      41.647  28.945  32.047  1.00  0.00    -0.354 N 
ATOM     53  N   UNL A   1      41.100  30.597  34.404  1.00  0.00    -0.248 NA
ATOM     54  C   UNL A   1      41.577  31.220  36.603  1.00  0.00     0.031 C 
ATOM     55  C   UNL A   1      43.383  27.560  32.110  1.00  0.00     0.029 A 
ATOM     56  C   UNL A   1      42.684  28.499  32.850  1.00  0.00     0.049 A 
ATOM     57  H   UNL A   1      40.974  29.615  32.311  1.00  0.00     0.167 HD
ATOM     58  C   UNL A   1      42.212  29.893  34.846  1.00  0.00     0.074 A 
ATOM     59  C   UNL A   1      42.480  30.340  36.196  1.00  0.00     0.031 C 
ATOM     60  C   UNL A   1      42.944  28.958  34.191  1.00  0.00     0.037 A 
BRANCH  47  61
ATOM     61  C   UNL A   1      40.907  27.708  28.493  1.00  0.00     0.064 A 
ATOM     62  C   UNL A   1      40.239  26.484  28.327  1.00  0.00     0.173 A 
ATOM     63  C   UNL A   1      41.704  28.167  27.435  1.00  0.00     0.173 A 
ATOM     64  F   UNL A   1      39.472  25.993  29.312  1.00  0.00    -0.203 F 
ATOM     65  C   UNL A   1      40.392  25.736  27.161  1.00  0.00     0.198 A 
ATOM     66  C   UNL A   1      41.828  27.432  26.258  1.00  0.00     0.198 A 
ATOM     67  F   UNL A   1      42.358  29.334  27.536  1.00  0.00    -0.203 F 
ATOM     68  F   UNL A   1      39.787  24.546  27.047  1.00  0.00    -0.200 F 
ATOM     69  C   UNL A   1      41.180  26.214  26.125  1.00  0.00     0.200 A 
ATOM     70  F   UNL A   1      42.579  27.902  25.252  1.00  0.00    -0.200 F 
ATOM     71  F   UNL A   1      41.321  25.496  25.003  1.00  0.00    -0.200 F 
ENDBRANCH  47  61
BRANCH  48  72
ATOM     72  C   UNL A   1      39.371  33.145  36.717  1.00  0.00     0.064 A 
ATOM     73  C   UNL A   1      38.470  32.687  37.689  1.00  0.00     0.173 A 
ATOM     74  C   UNL A   1      40.030  34.359  36.960  1.00  0.00     0.173 A 
ATOM     75  F   UNL A   1      37.798  31.542  37.491  1.00  0.00    -0.203 F 
ATOM     76  C   UNL A   1      38.225  33.422  38.847  1.00  0.00     0.198 A 
ATOM     77  C   UNL A   1      39.805  35.078  38.132  1.00  0.00     0.198 A 
ATOM     78  F   UNL A   1      40.903  34.839  36.062  1.00  0.00    -0.203 F 
ATOM     79  F   UNL A   1      37.326  32.982  39.738  1.00  0.00    -0.200 F 
ATOM     80  C   UNL A   1      38.898  34.613  39.070  1.00  0.00     0.200 A 
ATOM     81  F   UNL A   1      40.467  36.223  38.349  1.00  0.00    -0.200 F 
ATOM     82  F   UNL A   1      38.666  35.316  40.187  1.00  0.00    -0.200 F 
ENDBRANCH  48  72
BRANCH  60  83
ATOM     83  C   UNL A   1      44.125  28.378  34.913  1.00  0.00     0.064 A 
ATOM     84  C   UNL A   1      44.029  27.183  35.641  1.00  0.00     0.173 A 
ATOM     85  C   UNL A   1      45.378  29.006  34.841  1.00  0.00     0.173 A 
ATOM     86  F   UNL A   1      42.850  26.552  35.751  1.00  0.00    -0.203 F 
ATOM     87  C   UNL A   1      45.140  26.651  36.291  1.00  0.00     0.198 A 
ATOM     88  C   UNL A   1      46.493  28.456  35.468  1.00  0.00     0.198 A 
ATOM     89  F   UNL A   1      45.525  30.148  34.152  1.00  0.00    -0.203 F 
ATOM     90  F   UNL A   1      45.015  25.532  37.018  1.00  0.00    -0.200 F 
ATOM     91  C   UNL A   1      46.371  27.283  36.198  1.00  0.00     0.200 A 
ATOM     92  F   UNL A   1      47.684  29.061  35.365  1.00  0.00    -0.200 F 
ATOM     93  F   UNL A   1      47.440  26.765  36.817  1.00  0.00    -0.200 F 
ENDBRANCH  60  83
ENDBRANCH  34  35
ENDBRANCH  26  29
ENDBRANCH  24  25
ENDBRANCH  23  24
ENDBRANCH   1  23
TORSDOF 15
ENDMDL
