MODEL 1
REMARK VINA RESULT:     -12.3      0.000      0.000
REMARK SMILES CSCC[C@@H](NC1=[NH+]S(=O)(=O)c2ccccc21)C(=O)NCCCNC(=O)c1ccc(-c2c3nc(c(-c4c(F)c(F)c(F)c(F)c4F)c4ccc([nH]4)c(-c4c(F)c(F)c(F)c(F)c4F)c4nc(c(-c5c(F)c(F)c(F)c(F)c5F)c5ccc2[nH]5)C=C4)C=C3)cc1
REMARK SMILES IDX 21 1 20 2 18 3 19 4 5 6 4 7 3 8 2 9 1 10 6 11 7 12 8 14
REMARK SMILES IDX 17 15 9 16 12 18 16 19 10 20 11 21 13 22 15 23 14 24 22 25
REMARK SMILES IDX 23 26 24 27 25 28 26 30 27 31 28 32 89 33 29 34 88 35 30 36
REMARK SMILES IDX 31 37 32 38 82 39 33 40 87 41 81 42 83 43 34 44 86 45 80 46
REMARK SMILES IDX 79 47 35 49 67 50 47 51 66 52 48 53 51 54 65 55 84 56 49 57
REMARK SMILES IDX 50 58 64 60 85 61 52 62 36 63 37 64 45 65 38 66 39 67 43 68
REMARK SMILES IDX 46 69 40 70 41 71 44 72 42 73 68 74 69 75 77 76 70 77 71 78
REMARK SMILES IDX 75 79 78 80 72 81 73 82 76 83 74 84 53 85 54 86 62 87 55 88
REMARK SMILES IDX 56 89 60 90 63 91 57 92 58 93 61 94 59 95
REMARK H PARENT 20 5 6 13 8 17 24 29 83 48 51 59
REMARK Flexibility Score: inf
ROOT
ATOM      1  C   UNL A   1      36.672  21.038  24.917  1.00  0.00     0.118 C 
ENDROOT
BRANCH   1   2
ATOM      2  N   UNL A   1      35.922  21.142  26.154  1.00  0.00    -0.352 N 
ATOM      3  C   UNL A   1      34.645  21.574  26.385  1.00  0.00     0.264 C 
ATOM      4  O   UNL A   1      34.239  21.537  27.551  1.00  0.00    -0.270 OA
ATOM      5  H   UNL A   1      36.412  20.855  26.959  1.00  0.00     0.163 HD
BRANCH   3   6
ATOM      6  C   UNL A   1      33.777  22.202  25.266  1.00  0.00     0.262 C 
BRANCH   6   7
ATOM      7  C   UNL A   1      32.594  21.247  25.024  1.00  0.00     0.071 C 
BRANCH   7   8
ATOM      8  C   UNL A   1      32.868  20.027  24.148  1.00  0.00     0.074 C 
BRANCH   8   9
ATOM      9  S   UNL A   1      32.973  18.449  25.048  1.00  0.00    -0.165 SA
ATOM     10  C   UNL A   1      34.498  17.768  24.355  1.00  0.00     0.085 C 
ENDBRANCH   8   9
ENDBRANCH   7   8
ENDBRANCH   6   7
BRANCH   6  11
ATOM     11  N   UNL A   1      33.314  23.569  25.571  1.00  0.00    -0.261 N 
ATOM     12  C   UNL A   1      33.041  24.521  24.618  1.00  0.00     0.292 C 
ATOM     13  H   UNL A   1      33.192  23.814  26.516  1.00  0.00     0.306 HD
ATOM     14  N   UNL A   1      32.756  24.260  23.378  1.00  0.00    -0.162 N 
ATOM     15  C   UNL A   1      33.203  25.959  24.942  1.00  0.00     0.087 A 
ATOM     16  S   UNL A   1      32.723  25.629  22.474  1.00  0.00     0.329 S 
ATOM     17  H   UNL A   1      32.580  23.356  23.026  1.00  0.00     0.327 HD
ATOM     18  C   UNL A   1      33.102  26.706  23.786  1.00  0.00     0.124 A 
ATOM     19  C   UNL A   1      33.581  26.556  26.133  1.00  0.00     0.018 A 
ATOM     20  O   UNL A   1      31.381  25.932  22.043  1.00  0.00    -0.179 OA
ATOM     21  O   UNL A   1      33.869  25.652  21.583  1.00  0.00    -0.179 OA
ATOM     22  C   UNL A   1      33.395  28.054  23.727  1.00  0.00     0.025 A 
ATOM     23  C   UNL A   1      33.865  27.927  26.115  1.00  0.00     0.001 A 
ATOM     24  C   UNL A   1      33.780  28.668  24.921  1.00  0.00     0.002 A 
ENDBRANCH   6  11
ENDBRANCH   3   6
ENDBRANCH   1   2
BRANCH   1  25
ATOM     25  C   UNL A   1      37.735  19.957  24.965  1.00  0.00     0.042 C 
BRANCH  25  26
ATOM     26  C   UNL A   1      38.993  20.371  25.711  1.00  0.00     0.118 C 
BRANCH  26  27
ATOM     27  N   UNL A   1      39.963  19.289  25.831  1.00  0.00    -0.352 N 
ATOM     28  C   UNL A   1      41.321  19.344  26.029  1.00  0.00     0.251 C 
ATOM     29  H   UNL A   1      39.586  18.382  25.760  1.00  0.00     0.163 HD
ATOM     30  O   UNL A   1      42.005  18.332  25.915  1.00  0.00    -0.269 OA
BRANCH  28  31
ATOM     31  C   UNL A   1      41.968  20.635  26.350  1.00  0.00     0.039 A 
ATOM     32  C   UNL A   1      42.332  21.489  25.306  1.00  0.00     0.014 A 
ATOM     33  C   UNL A   1      42.213  21.003  27.675  1.00  0.00     0.014 A 
ATOM     34  C   UNL A   1      42.862  22.748  25.594  1.00  0.00     0.010 A 
ATOM     35  C   UNL A   1      42.659  22.288  27.964  1.00  0.00     0.010 A 
ATOM     36  C   UNL A   1      42.988  23.172  26.926  1.00  0.00    -0.014 A 
BRANCH  36  37
ATOM     37  C   UNL A   1      43.469  24.534  27.266  1.00  0.00     0.031 A 
ATOM     38  C   UNL A   1      42.513  25.547  27.830  1.00  0.00     0.074 A 
ATOM     39  C   UNL A   1      44.738  24.884  26.982  1.00  0.00     0.049 A 
ATOM     40  N   UNL A   1      42.705  26.818  28.079  1.00  0.00    -0.248 NA
ATOM     41  C   UNL A   1      41.150  25.077  28.119  1.00  0.00     0.031 C 
ATOM     42  C   UNL A   1      45.745  24.010  26.379  1.00  0.00     0.029 A 
ATOM     43  N   UNL A   1      45.393  26.078  27.149  1.00  0.00    -0.354 N 
ATOM     44  C   UNL A   1      41.481  27.303  28.520  1.00  0.00     0.074 A 
ATOM     45  C   UNL A   1      40.543  26.202  28.468  1.00  0.00     0.031 C 
ATOM     46  C   UNL A   1      46.895  24.688  26.247  1.00  0.00     0.029 A 
ATOM     47  C   UNL A   1      46.698  26.053  26.724  1.00  0.00     0.049 A 
ATOM     48  H   UNL A   1      44.968  26.876  27.539  1.00  0.00     0.167 HD
ATOM     49  C   UNL A   1      41.172  28.549  28.946  1.00  0.00     0.037 A 
ATOM     50  C   UNL A   1      47.629  27.026  26.716  1.00  0.00     0.037 A 
ATOM     51  C   UNL A   1      42.117  29.628  29.048  1.00  0.00     0.049 A 
ATOM     52  C   UNL A   1      47.274  28.388  27.241  1.00  0.00     0.074 A 
ATOM     53  C   UNL A   1      41.922  30.905  29.544  1.00  0.00     0.029 A 
ATOM     54  N   UNL A   1      43.445  29.550  28.653  1.00  0.00    -0.354 N 
ATOM     55  N   UNL A   1      46.128  28.820  27.708  1.00  0.00    -0.248 NA
ATOM     56  C   UNL A   1      48.343  29.397  27.244  1.00  0.00     0.031 C 
ATOM     57  C   UNL A   1      43.127  31.608  29.428  1.00  0.00     0.029 A 
ATOM     58  C   UNL A   1      44.078  30.759  28.887  1.00  0.00     0.049 A 
ATOM     59  H   UNL A   1      43.872  28.753  28.265  1.00  0.00     0.167 HD
ATOM     60  C   UNL A   1      46.340  30.140  28.076  1.00  0.00     0.074 A 
ATOM     61  C   UNL A   1      47.729  30.437  27.791  1.00  0.00     0.031 C 
ATOM     62  C   UNL A   1      45.463  31.029  28.602  1.00  0.00     0.037 A 
BRANCH  49  63
ATOM     63  C   UNL A   1      39.751  28.809  29.348  1.00  0.00     0.064 A 
ATOM     64  C   UNL A   1      38.804  29.280  28.426  1.00  0.00     0.173 A 
ATOM     65  C   UNL A   1      39.326  28.562  30.661  1.00  0.00     0.173 A 
ATOM     66  F   UNL A   1      39.167  29.545  27.162  1.00  0.00    -0.203 F 
ATOM     67  C   UNL A   1      37.488  29.520  28.812  1.00  0.00     0.198 A 
ATOM     68  C   UNL A   1      38.003  28.779  31.037  1.00  0.00     0.198 A 
ATOM     69  F   UNL A   1      40.193  28.109  31.579  1.00  0.00    -0.203 F 
ATOM     70  F   UNL A   1      36.612  30.013  27.926  1.00  0.00    -0.200 F 
ATOM     71  C   UNL A   1      37.087  29.264  30.115  1.00  0.00     0.200 A 
ATOM     72  F   UNL A   1      37.615  28.525  32.294  1.00  0.00    -0.200 F 
ATOM     73  F   UNL A   1      35.820  29.493  30.484  1.00  0.00    -0.200 F 
ENDBRANCH  49  63
BRANCH  50  74
ATOM     74  C   UNL A   1      48.997  26.733  26.223  1.00  0.00     0.064 A 
ATOM     75  C   UNL A   1      49.365  27.046  24.907  1.00  0.00     0.173 A 
ATOM     76  C   UNL A   1      49.966  26.150  27.052  1.00  0.00     0.173 A 
ATOM     77  F   UNL A   1      48.464  27.588  24.073  1.00  0.00    -0.203 F 
ATOM     78  C   UNL A   1      50.646  26.774  24.434  1.00  0.00     0.198 A 
ATOM     79  C   UNL A   1      51.253  25.898  26.584  1.00  0.00     0.198 A 
ATOM     80  F   UNL A   1      49.664  25.840  28.321  1.00  0.00    -0.203 F 
ATOM     81  F   UNL A   1      50.961  27.054  23.162  1.00  0.00    -0.200 F 
ATOM     82  C   UNL A   1      51.591  26.206  25.274  1.00  0.00     0.200 A 
ATOM     83  F   UNL A   1      52.168  25.359  27.402  1.00  0.00    -0.200 F 
ATOM     84  F   UNL A   1      52.825  25.950  24.820  1.00  0.00    -0.200 F 
ENDBRANCH  50  74
BRANCH  62  85
ATOM     85  C   UNL A   1      45.985  32.395  28.923  1.00  0.00     0.064 A 
ATOM     86  C   UNL A   1      45.920  33.440  27.991  1.00  0.00     0.173 A 
ATOM     87  C   UNL A   1      46.519  32.671  30.190  1.00  0.00     0.173 A 
ATOM     88  F   UNL A   1      45.431  33.217  26.761  1.00  0.00    -0.203 F 
ATOM     89  C   UNL A   1      46.386  34.711  28.311  1.00  0.00     0.198 A 
ATOM     90  C   UNL A   1      46.966  33.949  30.513  1.00  0.00     0.198 A 
ATOM     91  F   UNL A   1      46.601  31.703  31.115  1.00  0.00    -0.203 F 
ATOM     92  F   UNL A   1      46.347  35.688  27.395  1.00  0.00    -0.200 F 
ATOM     93  C   UNL A   1      46.903  34.965  29.573  1.00  0.00     0.200 A 
ATOM     94  F   UNL A   1      47.460  34.195  31.735  1.00  0.00    -0.200 F 
ATOM     95  F   UNL A   1      47.347  36.192  29.880  1.00  0.00    -0.200 F 
ENDBRANCH  62  85
ENDBRANCH  36  37
ENDBRANCH  28  31
ENDBRANCH  26  27
ENDBRANCH  25  26
ENDBRANCH   1  25
TORSDOF 14
ENDMDL
MODEL 2
REMARK VINA RESULT:     -12.2      5.684     11.162
REMARK SMILES CSCC[C@@H](NC1=[NH+]S(=O)(=O)c2ccccc21)C(=O)NCCCNC(=O)c1ccc(-c2c3nc(c(-c4c(F)c(F)c(F)c(F)c4F)c4ccc([nH]4)c(-c4c(F)c(F)c(F)c(F)c4F)c4nc(c(-c5c(F)c(F)c(F)c(F)c5F)c5ccc2[nH]5)C=C4)C=C3)cc1
REMARK SMILES IDX 21 1 20 2 18 3 19 4 5 6 4 7 3 8 2 9 1 10 6 11 7 12 8 14
REMARK SMILES IDX 17 15 9 16 12 18 16 19 10 20 11 21 13 22 15 23 14 24 22 25
REMARK SMILES IDX 23 26 24 27 25 28 26 30 27 31 28 32 89 33 29 34 88 35 30 36
REMARK SMILES IDX 31 37 32 38 82 39 33 40 87 41 81 42 83 43 34 44 86 45 80 46
REMARK SMILES IDX 79 47 35 49 67 50 47 51 66 52 48 53 51 54 65 55 84 56 49 57
REMARK SMILES IDX 50 58 64 60 85 61 52 62 36 63 37 64 45 65 38 66 39 67 43 68
REMARK SMILES IDX 46 69 40 70 41 71 44 72 42 73 68 74 69 75 77 76 70 77 71 78
REMARK SMILES IDX 75 79 78 80 72 81 73 82 76 83 74 84 53 85 54 86 62 87 55 88
REMARK SMILES IDX 56 89 60 90 63 91 57 92 58 93 61 94 59 95
REMARK H PARENT 20 5 6 13 8 17 24 29 83 48 51 59
REMARK Flexibility Score: inf
ROOT
ATOM      1  C   UNL A   1      31.720  30.718  26.108  1.00  0.00     0.118 C 
ENDROOT
BRANCH   1   2
ATOM      2  N   UNL A   1      32.958  30.081  26.514  1.00  0.00    -0.352 N 
ATOM      3  C   UNL A   1      33.612  28.998  25.993  1.00  0.00     0.264 C 
ATOM      4  O   UNL A   1      34.678  28.673  26.525  1.00  0.00    -0.270 OA
ATOM      5  H   UNL A   1      33.399  30.493  27.292  1.00  0.00     0.163 HD
BRANCH   3   6
ATOM      6  C   UNL A   1      32.995  28.132  24.867  1.00  0.00     0.262 C 
BRANCH   6   7
ATOM      7  C   UNL A   1      33.059  28.964  23.573  1.00  0.00     0.071 C 
BRANCH   7   8
ATOM      8  C   UNL A   1      31.878  28.832  22.615  1.00  0.00     0.074 C 
BRANCH   8   9
ATOM      9  S   UNL A   1      30.297  28.402  23.407  1.00  0.00    -0.165 SA
ATOM     10  C   UNL A   1      29.358  29.922  23.129  1.00  0.00     0.085 C 
ENDBRANCH   8   9
ENDBRANCH   7   8
ENDBRANCH   6   7
BRANCH   6  11
ATOM     11  N   UNL A   1      33.652  26.822  24.698  1.00  0.00    -0.261 N 
ATOM     12  C   UNL A   1      33.088  25.623  25.068  1.00  0.00     0.292 C 
ATOM     13  H   UNL A   1      34.550  26.805  24.296  1.00  0.00     0.306 HD
ATOM     14  N   UNL A   1      31.813  25.426  25.217  1.00  0.00    -0.162 N 
ATOM     15  C   UNL A   1      33.957  24.490  25.466  1.00  0.00     0.087 A 
ATOM     16  S   UNL A   1      31.513  23.960  25.890  1.00  0.00     0.329 S 
ATOM     17  H   UNL A   1      31.116  26.072  24.957  1.00  0.00     0.327 HD
ATOM     18  C   UNL A   1      33.182  23.486  26.011  1.00  0.00     0.124 A 
ATOM     19  C   UNL A   1      35.339  24.411  25.507  1.00  0.00     0.018 A 
ATOM     20  O   UNL A   1      30.883  23.075  24.943  1.00  0.00    -0.179 OA
ATOM     21  O   UNL A   1      31.039  24.136  27.251  1.00  0.00    -0.179 OA
ATOM     22  C   UNL A   1      33.713  22.381  26.647  1.00  0.00     0.025 A 
ATOM     23  C   UNL A   1      35.911  23.292  26.125  1.00  0.00     0.001 A 
ATOM     24  C   UNL A   1      35.105  22.290  26.697  1.00  0.00     0.002 A 
ENDBRANCH   6  11
ENDBRANCH   3   6
ENDBRANCH   1   2
BRANCH   1  25
ATOM     25  C   UNL A   1      31.439  31.995  26.876  1.00  0.00     0.042 C 
BRANCH  25  26
ATOM     26  C   UNL A   1      32.695  32.743  27.297  1.00  0.00     0.118 C 
BRANCH  26  27
ATOM     27  N   UNL A   1      32.440  34.142  27.618  1.00  0.00    -0.352 N 
ATOM     28  C   UNL A   1      33.003  34.937  28.588  1.00  0.00     0.251 C 
ATOM     29  H   UNL A   1      31.765  34.584  27.054  1.00  0.00     0.163 HD
ATOM     30  O   UNL A   1      32.527  36.041  28.834  1.00  0.00    -0.269 OA
BRANCH  28  31
ATOM     31  C   UNL A   1      34.165  34.449  29.360  1.00  0.00     0.039 A 
ATOM     32  C   UNL A   1      33.949  33.850  30.605  1.00  0.00     0.014 A 
ATOM     33  C   UNL A   1      35.463  34.577  28.860  1.00  0.00     0.014 A 
ATOM     34  C   UNL A   1      35.026  33.305  31.306  1.00  0.00     0.010 A 
ATOM     35  C   UNL A   1      36.521  33.958  29.516  1.00  0.00     0.010 A 
ATOM     36  C   UNL A   1      36.313  33.317  30.745  1.00  0.00    -0.014 A 
BRANCH  36  37
ATOM     37  C   UNL A   1      37.463  32.672  31.426  1.00  0.00     0.031 A 
ATOM     38  C   UNL A   1      38.176  31.525  30.766  1.00  0.00     0.074 A 
ATOM     39  C   UNL A   1      37.805  33.058  32.669  1.00  0.00     0.049 A 
ATOM     40  N   UNL A   1      39.120  30.754  31.242  1.00  0.00    -0.248 NA
ATOM     41  C   UNL A   1      37.745  31.176  29.404  1.00  0.00     0.031 C 
ATOM     42  C   UNL A   1      37.152  34.118  33.438  1.00  0.00     0.029 A 
ATOM     43  N   UNL A   1      38.780  32.589  33.513  1.00  0.00    -0.354 N 
ATOM     44  C   UNL A   1      39.370  29.812  30.254  1.00  0.00     0.074 A 
ATOM     45  C   UNL A   1      38.453  30.082  29.167  1.00  0.00     0.031 C 
ATOM     46  C   UNL A   1      37.756  34.234  34.631  1.00  0.00     0.029 A 
ATOM     47  C   UNL A   1      38.817  33.236  34.724  1.00  0.00     0.049 A 
ATOM     48  H   UNL A   1      39.395  31.859  33.273  1.00  0.00     0.167 HD
ATOM     49  C   UNL A   1      40.293  28.823  30.245  1.00  0.00     0.037 A 
ATOM     50  C   UNL A   1      39.615  33.040  35.791  1.00  0.00     0.037 A 
ATOM     51  C   UNL A   1      41.240  28.589  31.302  1.00  0.00     0.049 A 
ATOM     52  C   UNL A   1      40.665  31.966  35.736  1.00  0.00     0.074 A 
ATOM     53  C   UNL A   1      42.268  27.663  31.354  1.00  0.00     0.029 A 
ATOM     54  N   UNL A   1      41.278  29.298  32.494  1.00  0.00    -0.354 N 
ATOM     55  N   UNL A   1      40.929  31.118  34.773  1.00  0.00    -0.248 NA
ATOM     56  C   UNL A   1      41.531  31.826  36.915  1.00  0.00     0.031 C 
ATOM     57  C   UNL A   1      42.914  27.797  32.588  1.00  0.00     0.029 A 
ATOM     58  C   UNL A   1      42.307  28.825  33.291  1.00  0.00     0.049 A 
ATOM     59  H   UNL A   1      40.665  30.028  32.736  1.00  0.00     0.167 HD
ATOM     60  C   UNL A   1      42.000  30.357  35.219  1.00  0.00     0.074 A 
ATOM     61  C   UNL A   1      42.347  30.853  36.534  1.00  0.00     0.031 C 
ATOM     62  C   UNL A   1      42.638  29.338  34.594  1.00  0.00     0.037 A 
BRANCH  49  63
ATOM     63  C   UNL A   1      40.331  27.924  29.045  1.00  0.00     0.064 A 
ATOM     64  C   UNL A   1      41.079  28.255  27.906  1.00  0.00     0.173 A 
ATOM     65  C   UNL A   1      39.630  26.709  29.044  1.00  0.00     0.173 A 
ATOM     66  F   UNL A   1      41.753  29.415  27.855  1.00  0.00    -0.203 F 
ATOM     67  C   UNL A   1      41.103  27.414  26.797  1.00  0.00     0.198 A 
ATOM     68  C   UNL A   1      39.677  25.859  27.943  1.00  0.00     0.198 A 
ATOM     69  F   UNL A   1      38.903  26.347  30.110  1.00  0.00    -0.203 F 
ATOM     70  F   UNL A   1      41.788  27.773  25.702  1.00  0.00    -0.200 F 
ATOM     71  C   UNL A   1      40.407  26.215  26.818  1.00  0.00     0.200 A 
ATOM     72  F   UNL A   1      39.011  24.697  27.966  1.00  0.00    -0.200 F 
ATOM     73  F   UNL A   1      40.434  25.405  25.751  1.00  0.00    -0.200 F 
ENDBRANCH  49  63
BRANCH  50  74
ATOM     74  C   UNL A   1      39.471  33.904  36.987  1.00  0.00     0.064 A 
ATOM     75  C   UNL A   1      38.717  33.479  38.089  1.00  0.00     0.173 A 
ATOM     76  C   UNL A   1      40.090  35.160  37.062  1.00  0.00     0.173 A 
ATOM     77  F   UNL A   1      38.091  32.293  38.053  1.00  0.00    -0.203 F 
ATOM     78  C   UNL A   1      38.574  34.284  39.217  1.00  0.00     0.198 A 
ATOM     79  C   UNL A   1      39.965  35.955  38.200  1.00  0.00     0.198 A 
ATOM     80  F   UNL A   1      40.828  35.606  36.036  1.00  0.00    -0.203 F 
ATOM     81  F   UNL A   1      37.821  33.866  40.244  1.00  0.00    -0.200 F 
ATOM     82  C   UNL A   1      39.203  35.518  39.274  1.00  0.00     0.200 A 
ATOM     83  F   UNL A   1      40.583  37.143  38.256  1.00  0.00    -0.200 F 
ATOM     84  F   UNL A   1      39.071  36.290  40.361  1.00  0.00    -0.200 F 
ENDBRANCH  50  74
BRANCH  62  85
ATOM     85  C   UNL A   1      43.789  28.709  35.318  1.00  0.00     0.064 A 
ATOM     86  C   UNL A   1      45.100  29.175  35.148  1.00  0.00     0.173 A 
ATOM     87  C   UNL A   1      43.571  27.657  36.219  1.00  0.00     0.173 A 
ATOM     88  F   UNL A   1      45.356  30.169  34.284  1.00  0.00    -0.203 F 
ATOM     89  C   UNL A   1      46.157  28.598  35.845  1.00  0.00     0.198 A 
ATOM     90  C   UNL A   1      44.628  27.096  36.930  1.00  0.00     0.198 A 
ATOM     91  F   UNL A   1      42.333  27.180  36.415  1.00  0.00    -0.203 F 
ATOM     92  F   UNL A   1      47.408  29.034  35.643  1.00  0.00    -0.200 F 
ATOM     93  C   UNL A   1      45.920  27.564  36.739  1.00  0.00     0.200 A 
ATOM     94  F   UNL A   1      44.397  26.102  37.798  1.00  0.00    -0.200 F 
ATOM     95  F   UNL A   1      46.939  27.013  37.412  1.00  0.00    -0.200 F 
ENDBRANCH  62  85
ENDBRANCH  36  37
ENDBRANCH  28  31
ENDBRANCH  26  27
ENDBRANCH  25  26
ENDBRANCH   1  25
TORSDOF 14
ENDMDL
MODEL 3
REMARK VINA RESULT:     -12.1      5.594     11.072
REMARK SMILES CSCC[C@@H](NC1=[NH+]S(=O)(=O)c2ccccc21)C(=O)NCCCNC(=O)c1ccc(-c2c3nc(c(-c4c(F)c(F)c(F)c(F)c4F)c4ccc([nH]4)c(-c4c(F)c(F)c(F)c(F)c4F)c4nc(c(-c5c(F)c(F)c(F)c(F)c5F)c5ccc2[nH]5)C=C4)C=C3)cc1
REMARK SMILES IDX 21 1 20 2 18 3 19 4 5 6 4 7 3 8 2 9 1 10 6 11 7 12 8 14
REMARK SMILES IDX 17 15 9 16 12 18 16 19 10 20 11 21 13 22 15 23 14 24 22 25
REMARK SMILES IDX 23 26 24 27 25 28 26 30 27 31 28 32 89 33 29 34 88 35 30 36
REMARK SMILES IDX 31 37 32 38 82 39 33 40 87 41 81 42 83 43 34 44 86 45 80 46
REMARK SMILES IDX 79 47 35 49 67 50 47 51 66 52 48 53 51 54 65 55 84 56 49 57
REMARK SMILES IDX 50 58 64 60 85 61 52 62 36 63 37 64 45 65 38 66 39 67 43 68
REMARK SMILES IDX 46 69 40 70 41 71 44 72 42 73 68 74 69 75 77 76 70 77 71 78
REMARK SMILES IDX 75 79 78 80 72 81 73 82 76 83 74 84 53 85 54 86 62 87 55 88
REMARK SMILES IDX 56 89 60 90 63 91 57 92 58 93 61 94 59 95
REMARK H PARENT 20 5 6 13 8 17 24 29 83 48 51 59
REMARK Flexibility Score: inf
ROOT
ATOM      1  C   UNL A   1      31.682  30.661  26.091  1.00  0.00     0.118 C 
ENDROOT
BRANCH   1   2
ATOM      2  N   UNL A   1      32.962  30.071  26.438  1.00  0.00    -0.352 N 
ATOM      3  C   UNL A   1      33.630  29.012  25.887  1.00  0.00     0.264 C 
ATOM      4  O   UNL A   1      34.733  28.730  26.367  1.00  0.00    -0.270 OA
ATOM      5  H   UNL A   1      33.424  30.504  27.191  1.00  0.00     0.163 HD
BRANCH   3   6
ATOM      6  C   UNL A   1      32.992  28.119  24.794  1.00  0.00     0.262 C 
BRANCH   6   7
ATOM      7  C   UNL A   1      33.040  28.916  23.477  1.00  0.00     0.071 C 
BRANCH   7   8
ATOM      8  C   UNL A   1      31.714  29.109  22.746  1.00  0.00     0.074 C 
BRANCH   8   9
ATOM      9  S   UNL A   1      30.642  27.640  22.707  1.00  0.00    -0.165 SA
ATOM     10  C   UNL A   1      31.638  26.523  21.692  1.00  0.00     0.085 C 
ENDBRANCH   8   9
ENDBRANCH   7   8
ENDBRANCH   6   7
BRANCH   6  11
ATOM     11  N   UNL A   1      33.640  26.802  24.651  1.00  0.00    -0.261 N 
ATOM     12  C   UNL A   1      33.075  25.616  25.058  1.00  0.00     0.292 C 
ATOM     13  H   UNL A   1      34.533  26.769  24.239  1.00  0.00     0.306 HD
ATOM     14  N   UNL A   1      31.801  25.429  25.228  1.00  0.00    -0.162 N 
ATOM     15  C   UNL A   1      33.943  24.489  25.475  1.00  0.00     0.087 A 
ATOM     16  S   UNL A   1      31.502  23.983  25.943  1.00  0.00     0.329 S 
ATOM     17  H   UNL A   1      31.104  26.073  24.961  1.00  0.00     0.327 HD
ATOM     18  C   UNL A   1      33.170  23.503  26.055  1.00  0.00     0.124 A 
ATOM     19  C   UNL A   1      35.325  24.403  25.501  1.00  0.00     0.018 A 
ATOM     20  O   UNL A   1      30.855  23.077  25.026  1.00  0.00    -0.179 OA
ATOM     21  O   UNL A   1      31.046  24.196  27.304  1.00  0.00    -0.179 OA
ATOM     22  C   UNL A   1      33.702  22.412  26.713  1.00  0.00     0.025 A 
ATOM     23  C   UNL A   1      35.899  23.298  26.140  1.00  0.00     0.001 A 
ATOM     24  C   UNL A   1      35.095  22.315  26.748  1.00  0.00     0.002 A 
ENDBRANCH   6  11
ENDBRANCH   3   6
ENDBRANCH   1   2
BRANCH   1  25
ATOM     25  C   UNL A   1      31.404  31.944  26.849  1.00  0.00     0.042 C 
BRANCH  25  26
ATOM     26  C   UNL A   1      32.661  32.693  27.263  1.00  0.00     0.118 C 
BRANCH  26  27
ATOM     27  N   UNL A   1      32.409  34.096  27.569  1.00  0.00    -0.352 N 
ATOM     28  C   UNL A   1      32.985  34.905  28.518  1.00  0.00     0.251 C 
ATOM     29  H   UNL A   1      31.724  34.529  27.010  1.00  0.00     0.163 HD
ATOM     30  O   UNL A   1      32.512  36.012  28.758  1.00  0.00    -0.269 OA
BRANCH  28  31
ATOM     31  C   UNL A   1      34.160  34.429  29.279  1.00  0.00     0.039 A 
ATOM     32  C   UNL A   1      33.963  33.824  30.523  1.00  0.00     0.014 A 
ATOM     33  C   UNL A   1      35.452  34.576  28.769  1.00  0.00     0.014 A 
ATOM     34  C   UNL A   1      35.052  33.290  31.214  1.00  0.00     0.010 A 
ATOM     35  C   UNL A   1      36.523  33.968  29.413  1.00  0.00     0.010 A 
ATOM     36  C   UNL A   1      36.334  33.320  30.642  1.00  0.00    -0.014 A 
BRANCH  36  37
ATOM     37  C   UNL A   1      37.498  32.688  31.310  1.00  0.00     0.031 A 
ATOM     38  C   UNL A   1      38.226  31.559  30.636  1.00  0.00     0.074 A 
ATOM     39  C   UNL A   1      37.840  33.067  32.556  1.00  0.00     0.049 A 
ATOM     40  N   UNL A   1      39.185  30.799  31.100  1.00  0.00    -0.248 NA
ATOM     41  C   UNL A   1      37.794  31.216  29.273  1.00  0.00     0.031 C 
ATOM     42  C   UNL A   1      37.174  34.110  33.338  1.00  0.00     0.029 A 
ATOM     43  N   UNL A   1      38.827  32.606  33.390  1.00  0.00    -0.354 N 
ATOM     44  C   UNL A   1      39.445  29.871  30.101  1.00  0.00     0.074 A 
ATOM     45  C   UNL A   1      38.518  30.136  29.022  1.00  0.00     0.031 C 
ATOM     46  C   UNL A   1      37.783  34.224  34.529  1.00  0.00     0.029 A 
ATOM     47  C   UNL A   1      38.860  33.242  34.607  1.00  0.00     0.049 A 
ATOM     48  H   UNL A   1      39.453  31.889  33.140  1.00  0.00     0.167 HD
ATOM     49  C   UNL A   1      40.384  28.896  30.079  1.00  0.00     0.037 A 
ATOM     50  C   UNL A   1      39.667  33.049  35.667  1.00  0.00     0.037 A 
ATOM     51  C   UNL A   1      41.340  28.668  31.128  1.00  0.00     0.049 A 
ATOM     52  C   UNL A   1      40.734  31.993  35.597  1.00  0.00     0.074 A 
ATOM     53  C   UNL A   1      42.383  27.759  31.166  1.00  0.00     0.029 A 
ATOM     54  N   UNL A   1      41.373  29.366  32.327  1.00  0.00    -0.354 N 
ATOM     55  N   UNL A   1      41.007  31.159  34.624  1.00  0.00    -0.248 NA
ATOM     56  C   UNL A   1      41.609  31.857  36.770  1.00  0.00     0.031 C 
ATOM     57  C   UNL A   1      43.033  27.892  32.398  1.00  0.00     0.029 A 
ATOM     58  C   UNL A   1      42.414  28.902  33.114  1.00  0.00     0.049 A 
ATOM     59  H   UNL A   1      40.750  30.084  32.579  1.00  0.00     0.167 HD
ATOM     60  C   UNL A   1      42.092  30.412  35.057  1.00  0.00     0.074 A 
ATOM     61  C   UNL A   1      42.438  30.901  36.376  1.00  0.00     0.031 C 
ATOM     62  C   UNL A   1      42.744  29.409  34.420  1.00  0.00     0.037 A 
BRANCH  49  63
ATOM     63  C   UNL A   1      40.430  28.010  28.870  1.00  0.00     0.064 A 
ATOM     64  C   UNL A   1      39.714  26.805  28.817  1.00  0.00     0.173 A 
ATOM     65  C   UNL A   1      41.180  28.381  27.744  1.00  0.00     0.173 A 
ATOM     66  F   UNL A   1      38.995  26.402  29.877  1.00  0.00    -0.203 F 
ATOM     67  C   UNL A   1      39.767  25.990  27.691  1.00  0.00     0.198 A 
ATOM     68  C   UNL A   1      41.211  27.575  26.609  1.00  0.00     0.198 A 
ATOM     69  F   UNL A   1      41.880  29.524  27.744  1.00  0.00    -0.203 F 
ATOM     70  F   UNL A   1      39.111  24.821  27.681  1.00  0.00    -0.200 F 
ATOM     71  C   UNL A   1      40.510  26.377  26.586  1.00  0.00     0.200 A 
ATOM     72  F   UNL A   1      41.923  27.953  25.539  1.00  0.00    -0.200 F 
ATOM     73  F   UNL A   1      40.558  25.592  25.501  1.00  0.00    -0.200 F 
ENDBRANCH  49  63
BRANCH  50  74
ATOM     74  C   UNL A   1      39.516  33.900  36.873  1.00  0.00     0.064 A 
ATOM     75  C   UNL A   1      40.128  35.159  36.940  1.00  0.00     0.173 A 
ATOM     76  C   UNL A   1      38.753  33.483  37.973  1.00  0.00     0.173 A 
ATOM     77  F   UNL A   1      40.882  35.590  35.918  1.00  0.00    -0.203 F 
ATOM     78  C   UNL A   1      39.994  35.965  38.068  1.00  0.00     0.198 A 
ATOM     79  C   UNL A   1      38.602  34.299  39.092  1.00  0.00     0.198 A 
ATOM     80  F   UNL A   1      38.143  32.289  37.952  1.00  0.00    -0.203 F 
ATOM     81  F   UNL A   1      40.615  37.151  38.118  1.00  0.00    -0.200 F 
ATOM     82  C   UNL A   1      39.227  35.537  39.140  1.00  0.00     0.200 A 
ATOM     83  F   UNL A   1      37.851  33.887  40.123  1.00  0.00    -0.200 F 
ATOM     84  F   UNL A   1      39.092  36.315  40.223  1.00  0.00    -0.200 F 
ENDBRANCH  50  74
BRANCH  62  85
ATOM     85  C   UNL A   1      43.909  28.792  35.132  1.00  0.00     0.064 A 
ATOM     86  C   UNL A   1      43.746  27.682  35.972  1.00  0.00     0.173 A 
ATOM     87  C   UNL A   1      45.204  29.291  34.937  1.00  0.00     0.173 A 
ATOM     88  F   UNL A   1      42.522  27.181  36.199  1.00  0.00    -0.203 F 
ATOM     89  C   UNL A   1      44.840  27.102  36.607  1.00  0.00     0.198 A 
ATOM     90  C   UNL A   1      46.299  28.696  35.558  1.00  0.00     0.198 A 
ATOM     91  F   UNL A   1      45.408  30.350  34.140  1.00  0.00    -0.203 F 
ATOM     92  F   UNL A   1      44.660  26.064  37.434  1.00  0.00    -0.200 F 
ATOM     93  C   UNL A   1      46.115  27.606  36.395  1.00  0.00     0.200 A 
ATOM     94  F   UNL A   1      47.531  29.180  35.347  1.00  0.00    -0.200 F 
ATOM     95  F   UNL A   1      47.168  27.044  37.004  1.00  0.00    -0.200 F 
ENDBRANCH  62  85
ENDBRANCH  36  37
ENDBRANCH  28  31
ENDBRANCH  26  27
ENDBRANCH  25  26
ENDBRANCH   1  25
TORSDOF 14
ENDMDL
