MODEL 1
REMARK VINA RESULT:     -11.6      0.000      0.000
REMARK SMILES O=C(NCCCNC(=O)[C@H]1CCCCN1C(=O)CSCc1ccccc1)c1ccc(-c2c3nc(c(-c4c(F)c(F)c(F)c(F)c4F)c4ccc([nH]4)c(-c4c(F)c(F)c(F)c(F)c4F)c4nc(c(-c5c(F)c(F)c(F)c(F)c5F)c5ccc2[nH]5)C=C4)C=C3)cc1
REMARK SMILES IDX 7 1 8 2 9 3 6 5 5 6 4 7 3 8 1 9 2 10 27 12 28 13 89 14 29 15
REMARK SMILES IDX 88 16 30 17 31 18 32 19 82 20 33 21 87 22 81 23 83 24 34 25
REMARK SMILES IDX 86 26 80 27 79 28 35 30 67 31 47 32 66 33 48 34 51 35 65 36
REMARK SMILES IDX 84 37 49 38 50 39 64 41 85 42 52 43 36 44 37 45 45 46 38 47
REMARK SMILES IDX 39 48 43 49 46 50 40 51 41 52 44 53 42 54 68 55 69 56 77 57
REMARK SMILES IDX 70 58 71 59 75 60 78 61 72 62 73 63 76 64 74 65 53 66 54 67
REMARK SMILES IDX 62 68 55 69 56 70 60 71 63 72 57 73 58 74 61 75 59 76 10 77
REMARK SMILES IDX 11 78 15 79 12 80 14 81 13 82 16 83 17 84 18 85 19 86 20 87
REMARK SMILES IDX 21 88 22 89 26 90 23 91 25 92 24 93
REMARK H PARENT 7 4 3 11 83 29 51 40
REMARK Flexibility Score: inf
ROOT
ATOM      1  N   UNL A   1      35.173  20.041  25.359  1.00  0.00    -0.354 N 
ATOM      2  C   UNL A   1      33.875  20.416  25.295  1.00  0.00     0.242 C 
ATOM      3  O   UNL A   1      33.084  19.573  25.747  1.00  0.00    -0.273 OA
ATOM      4  H   UNL A   1      35.305  19.195  25.844  1.00  0.00     0.163 HD
ENDROOT
BRANCH   1   5
ATOM      5  C   UNL A   1      36.413  20.611  24.871  1.00  0.00     0.117 C 
BRANCH   5   6
ATOM      6  C   UNL A   1      37.566  19.633  24.943  1.00  0.00     0.042 C 
BRANCH   6   7
ATOM      7  C   UNL A   1      38.746  20.197  25.716  1.00  0.00     0.118 C 
BRANCH   7   8
ATOM      8  N   UNL A   1      39.872  19.272  25.774  1.00  0.00    -0.352 N 
ATOM      9  O   UNL A   1      42.020  18.597  25.803  1.00  0.00    -0.269 OA
ATOM     10  C   UNL A   1      41.210  19.489  26.020  1.00  0.00     0.251 C 
ATOM     11  H   UNL A   1      39.636  18.331  25.609  1.00  0.00     0.163 HD
BRANCH  10  12
ATOM     12  C   UNL A   1      41.674  20.802  26.518  1.00  0.00     0.039 A 
ATOM     13  C   UNL A   1      41.815  21.872  25.641  1.00  0.00     0.014 A 
ATOM     14  C   UNL A   1      41.944  20.987  27.878  1.00  0.00     0.014 A 
ATOM     15  C   UNL A   1      42.440  23.032  26.059  1.00  0.00     0.010 A 
ATOM     16  C   UNL A   1      42.413  22.226  28.335  1.00  0.00     0.010 A 
ATOM     17  C   UNL A   1      42.696  23.250  27.421  1.00  0.00    -0.014 A 
BRANCH  17  18
ATOM     18  C   UNL A   1      43.154  24.604  27.827  1.00  0.00     0.031 A 
ATOM     19  C   UNL A   1      44.599  24.999  27.768  1.00  0.00     0.074 A 
ATOM     20  C   UNL A   1      42.210  25.507  28.170  1.00  0.00     0.049 A 
ATOM     21  N   UNL A   1      45.141  26.162  28.029  1.00  0.00    -0.248 NA
ATOM     22  C   UNL A   1      45.568  23.963  27.378  1.00  0.00     0.031 C 
ATOM     23  C   UNL A   1      40.774  25.222  28.273  1.00  0.00     0.029 A 
ATOM     24  N   UNL A   1      42.295  26.846  28.441  1.00  0.00    -0.354 N 
ATOM     25  C   UNL A   1      46.509  25.994  27.862  1.00  0.00     0.074 A 
ATOM     26  C   UNL A   1      46.720  24.611  27.492  1.00  0.00     0.031 C 
ATOM     27  C   UNL A   1      40.109  26.363  28.487  1.00  0.00     0.029 A 
ATOM     28  C   UNL A   1      41.073  27.443  28.641  1.00  0.00     0.049 A 
ATOM     29  H   UNL A   1      43.149  27.335  28.489  1.00  0.00     0.167 HD
ATOM     30  C   UNL A   1      47.492  26.916  28.001  1.00  0.00     0.037 A 
ATOM     31  C   UNL A   1      40.759  28.716  28.940  1.00  0.00     0.037 A 
ATOM     32  C   UNL A   1      47.263  28.295  28.349  1.00  0.00     0.049 A 
ATOM     33  C   UNL A   1      41.873  29.707  29.094  1.00  0.00     0.074 A 
ATOM     34  C   UNL A   1      48.189  29.313  28.503  1.00  0.00     0.029 A 
ATOM     35  N   UNL A   1      46.016  28.854  28.594  1.00  0.00    -0.354 N 
ATOM     36  N   UNL A   1      43.162  29.532  28.930  1.00  0.00    -0.248 NA
ATOM     37  C   UNL A   1      41.493  31.068  29.491  1.00  0.00     0.031 C 
ATOM     38  C   UNL A   1      47.507  30.475  28.881  1.00  0.00     0.029 A 
ATOM     39  C   UNL A   1      46.150  30.196  28.915  1.00  0.00     0.049 A 
ATOM     40  H   UNL A   1      45.160  28.368  28.546  1.00  0.00     0.167 HD
ATOM     41  C   UNL A   1      43.748  30.756  29.202  1.00  0.00     0.074 A 
ATOM     42  C   UNL A   1      42.669  31.677  29.504  1.00  0.00     0.031 C 
ATOM     43  C   UNL A   1      45.062  31.088  29.218  1.00  0.00     0.037 A 
BRANCH  30  44
ATOM     44  C   UNL A   1      48.911  26.467  27.800  1.00  0.00     0.064 A 
ATOM     45  C   UNL A   1      49.475  26.354  26.521  1.00  0.00     0.173 A 
ATOM     46  C   UNL A   1      49.736  26.210  28.906  1.00  0.00     0.173 A 
ATOM     47  F   UNL A   1      48.726  26.575  25.431  1.00  0.00    -0.203 F 
ATOM     48  C   UNL A   1      50.810  25.988  26.356  1.00  0.00     0.198 A 
ATOM     49  C   UNL A   1      51.077  25.869  28.738  1.00  0.00     0.198 A 
ATOM     50  F   UNL A   1      49.248  26.308  30.151  1.00  0.00    -0.203 F 
ATOM     51  F   UNL A   1      51.319  25.856  25.124  1.00  0.00    -0.200 F 
ATOM     52  C   UNL A   1      51.612  25.756  27.464  1.00  0.00     0.200 A 
ATOM     53  F   UNL A   1      51.852  25.657  29.811  1.00  0.00    -0.200 F 
ATOM     54  F   UNL A   1      52.898  25.419  27.304  1.00  0.00    -0.200 F 
ENDBRANCH  30  44
BRANCH  31  55
ATOM     55  C   UNL A   1      39.339  29.103  29.145  1.00  0.00     0.064 A 
ATOM     56  C   UNL A   1      38.540  29.532  28.077  1.00  0.00     0.173 A 
ATOM     57  C   UNL A   1      38.748  29.046  30.418  1.00  0.00     0.173 A 
ATOM     58  F   UNL A   1      39.062  29.621  26.844  1.00  0.00    -0.203 F 
ATOM     59  C   UNL A   1      37.212  29.904  28.275  1.00  0.00     0.198 A 
ATOM     60  C   UNL A   1      37.411  29.381  30.609  1.00  0.00     0.198 A 
ATOM     61  F   UNL A   1      39.466  28.636  31.473  1.00  0.00    -0.203 F 
ATOM     62  F   UNL A   1      36.484  30.355  27.246  1.00  0.00    -0.200 F 
ATOM     63  C   UNL A   1      36.646  29.821  29.539  1.00  0.00     0.200 A 
ATOM     64  F   UNL A   1      36.864  29.277  31.827  1.00  0.00    -0.200 F 
ATOM     65  F   UNL A   1      35.366  30.169  29.728  1.00  0.00    -0.200 F 
ENDBRANCH  31  55
BRANCH  43  66
ATOM     66  C   UNL A   1      45.389  32.511  29.559  1.00  0.00     0.064 A 
ATOM     67  C   UNL A   1      45.642  32.906  30.881  1.00  0.00     0.173 A 
ATOM     68  C   UNL A   1      45.450  33.488  28.555  1.00  0.00     0.173 A 
ATOM     69  F   UNL A   1      45.574  32.010  31.879  1.00  0.00    -0.203 F 
ATOM     70  C   UNL A   1      45.910  34.236  31.190  1.00  0.00     0.198 A 
ATOM     71  C   UNL A   1      45.750  34.811  28.864  1.00  0.00     0.198 A 
ATOM     72  F   UNL A   1      45.220  33.158  27.276  1.00  0.00    -0.203 F 
ATOM     73  F   UNL A   1      46.087  34.603  32.467  1.00  0.00    -0.200 F 
ATOM     74  C   UNL A   1      45.968  35.186  30.182  1.00  0.00     0.200 A 
ATOM     75  F   UNL A   1      45.815  35.726  27.888  1.00  0.00    -0.200 F 
ATOM     76  F   UNL A   1      46.223  36.467  30.481  1.00  0.00    -0.200 F 
ENDBRANCH  43  66
ENDBRANCH  17  18
ENDBRANCH  10  12
ENDBRANCH   7   8
ENDBRANCH   6   7
ENDBRANCH   5   6
ENDBRANCH   1   5
BRANCH   2  77
ATOM     77  C   UNL A   1      33.339  21.754  24.721  1.00  0.00     0.174 C 
ATOM     78  C   UNL A   1      31.854  22.105  24.664  1.00  0.00     0.035 C 
ATOM     79  N   UNL A   1      33.987  22.862  25.450  1.00  0.00    -0.330 N 
ATOM     80  C   UNL A   1      31.240  22.378  26.045  1.00  0.00     0.004 C 
ATOM     81  C   UNL A   1      33.578  22.974  26.850  1.00  0.00     0.120 C 
ATOM     82  C   UNL A   1      32.088  23.318  26.904  1.00  0.00     0.022 C 
BRANCH  79  83
ATOM     83  C   UNL A   1      34.652  23.835  24.718  1.00  0.00     0.233 C 
ATOM     84  O   UNL A   1      35.601  24.463  25.198  1.00  0.00    -0.274 OA
BRANCH  83  85
ATOM     85  C   UNL A   1      34.217  24.119  23.288  1.00  0.00     0.170 C 
BRANCH  85  86
ATOM     86  S   UNL A   1      33.599  25.821  23.043  1.00  0.00    -0.147 SA
BRANCH  86  87
ATOM     87  C   UNL A   1      32.230  25.864  24.251  1.00  0.00     0.105 C 
BRANCH  87  88
ATOM     88  C   UNL A   1      32.485  26.805  25.395  1.00  0.00    -0.038 A 
ATOM     89  C   UNL A   1      31.483  27.059  26.341  1.00  0.00     0.004 A 
ATOM     90  C   UNL A   1      33.732  27.432  25.545  1.00  0.00     0.004 A 
ATOM     91  C   UNL A   1      31.713  27.949  27.391  1.00  0.00     0.000 A 
ATOM     92  C   UNL A   1      33.953  28.334  26.585  1.00  0.00     0.000 A 
ATOM     93  C   UNL A   1      32.943  28.593  27.506  1.00  0.00     0.000 A 
ENDBRANCH  87  88
ENDBRANCH  86  87
ENDBRANCH  85  86
ENDBRANCH  83  85
ENDBRANCH  79  83
ENDBRANCH   2  77
TORSDOF 15
ENDMDL
MODEL 2
REMARK VINA RESULT:     -11.4      1.254      2.708
REMARK SMILES O=C(NCCCNC(=O)[C@H]1CCCCN1C(=O)CSCc1ccccc1)c1ccc(-c2c3nc(c(-c4c(F)c(F)c(F)c(F)c4F)c4ccc([nH]4)c(-c4c(F)c(F)c(F)c(F)c4F)c4nc(c(-c5c(F)c(F)c(F)c(F)c5F)c5ccc2[nH]5)C=C4)C=C3)cc1
REMARK SMILES IDX 7 1 8 2 9 3 6 5 5 6 4 7 3 8 1 9 2 10 27 12 28 13 89 14 29 15
REMARK SMILES IDX 88 16 30 17 31 18 32 19 82 20 33 21 87 22 81 23 83 24 34 25
REMARK SMILES IDX 86 26 80 27 79 28 35 30 67 31 47 32 66 33 48 34 51 35 65 36
REMARK SMILES IDX 84 37 49 38 50 39 64 41 85 42 52 43 36 44 37 45 45 46 38 47
REMARK SMILES IDX 39 48 43 49 46 50 40 51 41 52 44 53 42 54 68 55 69 56 77 57
REMARK SMILES IDX 70 58 71 59 75 60 78 61 72 62 73 63 76 64 74 65 53 66 54 67
REMARK SMILES IDX 62 68 55 69 56 70 60 71 63 72 57 73 58 74 61 75 59 76 10 77
REMARK SMILES IDX 11 78 15 79 12 80 14 81 13 82 16 83 17 84 18 85 19 86 20 87
REMARK SMILES IDX 21 88 22 89 26 90 23 91 25 92 24 93
REMARK H PARENT 7 4 3 11 83 29 51 40
REMARK Flexibility Score: inf
ROOT
ATOM      1  N   UNL A   1      36.644  21.558  24.046  1.00  0.00    -0.354 N 
ATOM      2  C   UNL A   1      36.026  22.751  23.885  1.00  0.00     0.242 C 
ATOM      3  O   UNL A   1      36.513  23.454  22.987  1.00  0.00    -0.273 OA
ATOM      4  H   UNL A   1      37.329  21.385  23.360  1.00  0.00     0.163 HD
ENDROOT
BRANCH   1   5
ATOM      5  C   UNL A   1      36.521  20.480  25.006  1.00  0.00     0.117 C 
BRANCH   5   6
ATOM      6  C   UNL A   1      37.715  19.549  24.986  1.00  0.00     0.042 C 
BRANCH   6   7
ATOM      7  C   UNL A   1      38.896  20.120  25.752  1.00  0.00     0.118 C 
BRANCH   7   8
ATOM      8  N   UNL A   1      40.030  19.202  25.798  1.00  0.00    -0.352 N 
ATOM      9  O   UNL A   1      42.181  18.537  25.751  1.00  0.00    -0.269 OA
ATOM     10  C   UNL A   1      41.377  19.436  25.965  1.00  0.00     0.251 C 
ATOM     11  H   UNL A   1      39.791  18.253  25.691  1.00  0.00     0.163 HD
BRANCH  10  12
ATOM     12  C   UNL A   1      41.858  20.773  26.374  1.00  0.00     0.039 A 
ATOM     13  C   UNL A   1      41.866  21.822  25.461  1.00  0.00     0.014 A 
ATOM     14  C   UNL A   1      42.277  21.002  27.689  1.00  0.00     0.014 A 
ATOM     15  C   UNL A   1      42.502  23.009  25.776  1.00  0.00     0.010 A 
ATOM     16  C   UNL A   1      42.760  22.265  28.058  1.00  0.00     0.010 A 
ATOM     17  C   UNL A   1      42.907  23.270  27.093  1.00  0.00    -0.014 A 
BRANCH  17  18
ATOM     18  C   UNL A   1      43.369  24.646  27.411  1.00  0.00     0.031 A 
ATOM     19  C   UNL A   1      44.743  25.121  27.044  1.00  0.00     0.074 A 
ATOM     20  C   UNL A   1      42.477  25.494  27.967  1.00  0.00     0.049 A 
ATOM     21  N   UNL A   1      45.266  26.312  27.198  1.00  0.00    -0.248 NA
ATOM     22  C   UNL A   1      45.657  24.143  26.434  1.00  0.00     0.031 C 
ATOM     23  C   UNL A   1      41.116  25.129  28.377  1.00  0.00     0.029 A 
ATOM     24  N   UNL A   1      42.548  26.835  28.234  1.00  0.00    -0.354 N 
ATOM     25  C   UNL A   1      46.571  26.221  26.732  1.00  0.00     0.074 A 
ATOM     26  C   UNL A   1      46.770  24.853  26.303  1.00  0.00     0.031 C 
ATOM     27  C   UNL A   1      40.454  26.231  28.750  1.00  0.00     0.029 A 
ATOM     28  C   UNL A   1      41.369  27.361  28.705  1.00  0.00     0.049 A 
ATOM     29  H   UNL A   1      43.364  27.370  28.101  1.00  0.00     0.167 HD
ATOM     30  C   UNL A   1      47.510  27.195  26.668  1.00  0.00     0.037 A 
ATOM     31  C   UNL A   1      41.060  28.614  29.087  1.00  0.00     0.037 A 
ATOM     32  C   UNL A   1      47.289  28.559  27.080  1.00  0.00     0.049 A 
ATOM     33  C   UNL A   1      42.127  29.665  29.009  1.00  0.00     0.074 A 
ATOM     34  C   UNL A   1      48.171  29.626  27.043  1.00  0.00     0.029 A 
ATOM     35  N   UNL A   1      46.098  29.046  27.600  1.00  0.00    -0.354 N 
ATOM     36  N   UNL A   1      43.356  29.563  28.564  1.00  0.00    -0.248 NA
ATOM     37  C   UNL A   1      41.771  31.001  29.501  1.00  0.00     0.031 C 
ATOM     38  C   UNL A   1      47.527  30.747  27.580  1.00  0.00     0.029 A 
ATOM     39  C   UNL A   1      46.228  30.392  27.906  1.00  0.00     0.049 A 
ATOM     40  H   UNL A   1      45.280  28.513  27.734  1.00  0.00     0.167 HD
ATOM     41  C   UNL A   1      43.921  30.816  28.721  1.00  0.00     0.074 A 
ATOM     42  C   UNL A   1      42.887  31.675  29.266  1.00  0.00     0.031 C 
ATOM     43  C   UNL A   1      45.186  31.221  28.453  1.00  0.00     0.037 A 
BRANCH  30  44
ATOM     44  C   UNL A   1      48.872  26.827  26.154  1.00  0.00     0.064 A 
ATOM     45  C   UNL A   1      49.825  26.200  26.969  1.00  0.00     0.173 A 
ATOM     46  C   UNL A   1      49.203  27.046  24.807  1.00  0.00     0.173 A 
ATOM     47  F   UNL A   1      49.563  25.979  28.266  1.00  0.00    -0.203 F 
ATOM     48  C   UNL A   1      51.064  25.816  26.458  1.00  0.00     0.198 A 
ATOM     49  C   UNL A   1      50.433  26.639  24.294  1.00  0.00     0.198 A 
ATOM     50  F   UNL A   1      48.327  27.638  23.983  1.00  0.00    -0.203 F 
ATOM     51  F   UNL A   1      51.971  25.247  27.264  1.00  0.00    -0.200 F 
ATOM     52  C   UNL A   1      51.363  26.027  25.121  1.00  0.00     0.200 A 
ATOM     53  F   UNL A   1      50.715  26.833  22.998  1.00  0.00    -0.200 F 
ATOM     54  F   UNL A   1      52.549  25.645  24.629  1.00  0.00    -0.200 F 
ENDBRANCH  30  44
BRANCH  31  55
ATOM     55  C   UNL A   1      39.702  28.921  29.603  1.00  0.00     0.064 A 
ATOM     56  C   UNL A   1      39.369  28.710  30.948  1.00  0.00     0.173 A 
ATOM     57  C   UNL A   1      38.705  29.438  28.760  1.00  0.00     0.173 A 
ATOM     58  F   UNL A   1      40.281  28.201  31.791  1.00  0.00    -0.203 F 
ATOM     59  C   UNL A   1      38.090  28.989  31.426  1.00  0.00     0.198 A 
ATOM     60  C   UNL A   1      37.440  29.752  29.246  1.00  0.00     0.198 A 
ATOM     61  F   UNL A   1      38.972  29.664  27.465  1.00  0.00    -0.203 F 
ATOM     62  F   UNL A   1      37.785  28.735  32.705  1.00  0.00    -0.200 F 
ATOM     63  C   UNL A   1      37.129  29.517  30.576  1.00  0.00     0.200 A 
ATOM     64  F   UNL A   1      36.522  30.283  28.426  1.00  0.00    -0.200 F 
ATOM     65  F   UNL A   1      35.902  29.795  31.038  1.00  0.00    -0.200 F 
ENDBRANCH  31  55
BRANCH  43  66
ATOM     66  C   UNL A   1      45.503  32.659  28.738  1.00  0.00     0.064 A 
ATOM     67  C   UNL A   1      45.278  33.660  27.782  1.00  0.00     0.173 A 
ATOM     68  C   UNL A   1      46.037  33.038  29.978  1.00  0.00     0.173 A 
ATOM     69  F   UNL A   1      44.788  33.343  26.573  1.00  0.00    -0.203 F 
ATOM     70  C   UNL A   1      45.608  34.986  28.045  1.00  0.00     0.198 A 
ATOM     71  C   UNL A   1      46.337  34.369  30.249  1.00  0.00     0.198 A 
ATOM     72  F   UNL A   1      46.266  32.117  30.925  1.00  0.00    -0.203 F 
ATOM     73  F   UNL A   1      45.443  35.918  27.096  1.00  0.00    -0.200 F 
ATOM     74  C   UNL A   1      46.133  35.340  29.279  1.00  0.00     0.200 A 
ATOM     75  F   UNL A   1      46.834  34.711  31.445  1.00  0.00    -0.200 F 
ATOM     76  F   UNL A   1      46.455  36.616  29.530  1.00  0.00    -0.200 F 
ENDBRANCH  43  66
ENDBRANCH  17  18
ENDBRANCH  10  12
ENDBRANCH   7   8
ENDBRANCH   6   7
ENDBRANCH   5   6
ENDBRANCH   1   5
BRANCH   2  77
ATOM     77  C   UNL A   1      34.818  23.271  24.708  1.00  0.00     0.174 C 
ATOM     78  C   UNL A   1      34.434  24.747  24.790  1.00  0.00     0.035 C 
ATOM     79  N   UNL A   1      33.607  22.564  24.248  1.00  0.00    -0.330 N 
ATOM     80  C   UNL A   1      33.859  25.299  23.478  1.00  0.00     0.004 C 
ATOM     81  C   UNL A   1      33.192  22.916  22.890  1.00  0.00     0.120 C 
ATOM     82  C   UNL A   1      32.791  24.393  22.861  1.00  0.00     0.022 C 
BRANCH  79  83
ATOM     83  C   UNL A   1      32.831  21.901  25.188  1.00  0.00     0.233 C 
ATOM     84  O   UNL A   1      33.271  20.932  25.814  1.00  0.00    -0.274 OA
BRANCH  83  85
ATOM     85  C   UNL A   1      31.419  22.392  25.469  1.00  0.00     0.170 C 
BRANCH  85  86
ATOM     86  S   UNL A   1      31.364  23.838  26.585  1.00  0.00    -0.147 SA
BRANCH  86  87
ATOM     87  C   UNL A   1      30.280  24.961  25.636  1.00  0.00     0.105 C 
BRANCH  87  88
ATOM     88  C   UNL A   1      30.843  26.349  25.504  1.00  0.00    -0.038 A 
ATOM     89  C   UNL A   1      31.677  26.874  26.500  1.00  0.00     0.004 A 
ATOM     90  C   UNL A   1      30.556  27.136  24.377  1.00  0.00     0.004 A 
ATOM     91  C   UNL A   1      32.181  28.170  26.388  1.00  0.00     0.000 A 
ATOM     92  C   UNL A   1      31.047  28.437  24.276  1.00  0.00     0.000 A 
ATOM     93  C   UNL A   1      31.857  28.953  25.282  1.00  0.00     0.000 A 
ENDBRANCH  87  88
ENDBRANCH  86  87
ENDBRANCH  85  86
ENDBRANCH  83  85
ENDBRANCH  79  83
ENDBRANCH   2  77
TORSDOF 15
ENDMDL
MODEL 3
REMARK VINA RESULT:     -11.4      4.645      9.492
REMARK SMILES O=C(NCCCNC(=O)[C@H]1CCCCN1C(=O)CSCc1ccccc1)c1ccc(-c2c3nc(c(-c4c(F)c(F)c(F)c(F)c4F)c4ccc([nH]4)c(-c4c(F)c(F)c(F)c(F)c4F)c4nc(c(-c5c(F)c(F)c(F)c(F)c5F)c5ccc2[nH]5)C=C4)C=C3)cc1
REMARK SMILES IDX 7 1 8 2 9 3 6 5 5 6 4 7 3 8 1 9 2 10 27 12 28 13 89 14 29 15
REMARK SMILES IDX 88 16 30 17 31 18 32 19 82 20 33 21 87 22 81 23 83 24 34 25
REMARK SMILES IDX 86 26 80 27 79 28 35 30 67 31 47 32 66 33 48 34 51 35 65 36
REMARK SMILES IDX 84 37 49 38 50 39 64 41 85 42 52 43 36 44 37 45 45 46 38 47
REMARK SMILES IDX 39 48 43 49 46 50 40 51 41 52 44 53 42 54 68 55 69 56 77 57
REMARK SMILES IDX 70 58 71 59 75 60 78 61 72 62 73 63 76 64 74 65 53 66 54 67
REMARK SMILES IDX 62 68 55 69 56 70 60 71 63 72 57 73 58 74 61 75 59 76 10 77
REMARK SMILES IDX 11 78 15 79 12 80 14 81 13 82 16 83 17 84 18 85 19 86 20 87
REMARK SMILES IDX 21 88 22 89 26 90 23 91 25 92 24 93
REMARK H PARENT 7 4 3 11 83 29 51 40
REMARK Flexibility Score: inf
ROOT
ATOM      1  N   UNL A   1      31.012  26.081  26.703  1.00  0.00    -0.354 N 
ATOM      2  C   UNL A   1      31.542  24.848  26.534  1.00  0.00     0.242 C 
ATOM      3  O   UNL A   1      31.027  23.975  27.250  1.00  0.00    -0.273 OA
ATOM      4  H   UNL A   1      30.230  26.084  27.300  1.00  0.00     0.163 HD
ENDROOT
BRANCH   1   5
ATOM      5  C   UNL A   1      31.344  27.398  26.199  1.00  0.00     0.117 C 
BRANCH   5   6
ATOM      6  C   UNL A   1      32.714  27.861  26.651  1.00  0.00     0.042 C 
BRANCH   6   7
ATOM      7  C   UNL A   1      33.308  28.891  25.706  1.00  0.00     0.118 C 
BRANCH   7   8
ATOM      8  N   UNL A   1      32.838  30.243  25.985  1.00  0.00    -0.352 N 
ATOM      9  O   UNL A   1      32.584  32.174  27.115  1.00  0.00    -0.269 OA
ATOM     10  C   UNL A   1      33.266  31.181  26.899  1.00  0.00     0.251 C 
ATOM     11  H   UNL A   1      32.085  30.537  25.423  1.00  0.00     0.163 HD
BRANCH  10  12
ATOM     12  C   UNL A   1      34.529  30.977  27.641  1.00  0.00     0.039 A 
ATOM     13  C   UNL A   1      34.889  29.705  28.073  1.00  0.00     0.014 A 
ATOM     14  C   UNL A   1      35.386  32.055  27.886  1.00  0.00     0.014 A 
ATOM     15  C   UNL A   1      35.955  29.544  28.938  1.00  0.00     0.010 A 
ATOM     16  C   UNL A   1      36.565  31.858  28.617  1.00  0.00     0.010 A 
ATOM     17  C   UNL A   1      36.843  30.603  29.177  1.00  0.00    -0.014 A 
BRANCH  17  18
ATOM     18  C   UNL A   1      38.090  30.302  29.927  1.00  0.00     0.031 A 
ATOM     19  C   UNL A   1      38.287  30.751  31.344  1.00  0.00     0.074 A 
ATOM     20  C   UNL A   1      39.013  29.526  29.319  1.00  0.00     0.049 A 
ATOM     21  N   UNL A   1      39.293  30.508  32.147  1.00  0.00    -0.248 NA
ATOM     22  C   UNL A   1      37.233  31.585  31.942  1.00  0.00     0.031 C 
ATOM     23  C   UNL A   1      38.926  29.046  27.935  1.00  0.00     0.029 A 
ATOM     24  N   UNL A   1      40.169  28.962  29.786  1.00  0.00    -0.354 N 
ATOM     25  C   UNL A   1      39.008  31.179  33.330  1.00  0.00     0.074 A 
ATOM     26  C   UNL A   1      37.743  31.853  33.137  1.00  0.00     0.031 C 
ATOM     27  C   UNL A   1      39.925  28.187  27.699  1.00  0.00     0.029 A 
ATOM     28  C   UNL A   1      40.781  28.134  28.875  1.00  0.00     0.049 A 
ATOM     29  H   UNL A   1      40.528  29.130  30.688  1.00  0.00     0.167 HD
ATOM     30  C   UNL A   1      39.740  31.218  34.469  1.00  0.00     0.037 A 
ATOM     31  C   UNL A   1      41.923  27.428  28.962  1.00  0.00     0.037 A 
ATOM     32  C   UNL A   1      40.989  30.522  34.652  1.00  0.00     0.049 A 
ATOM     33  C   UNL A   1      42.710  27.502  30.235  1.00  0.00     0.074 A 
ATOM     34  C   UNL A   1      41.803  30.487  35.772  1.00  0.00     0.029 A 
ATOM     35  N   UNL A   1      41.605  29.734  33.689  1.00  0.00    -0.354 N 
ATOM     36  N   UNL A   1      42.426  28.138  31.346  1.00  0.00    -0.248 NA
ATOM     37  C   UNL A   1      43.984  26.774  30.264  1.00  0.00     0.031 C 
ATOM     38  C   UNL A   1      42.929  29.713  35.473  1.00  0.00     0.029 A 
ATOM     39  C   UNL A   1      42.796  29.224  34.184  1.00  0.00     0.049 A 
ATOM     40  H   UNL A   1      41.249  29.563  32.787  1.00  0.00     0.167 HD
ATOM     41  C   UNL A   1      43.483  27.889  32.205  1.00  0.00     0.074 A 
ATOM     42  C   UNL A   1      44.395  27.010  31.500  1.00  0.00     0.031 C 
ATOM     43  C   UNL A   1      43.689  28.357  33.460  1.00  0.00     0.037 A 
BRANCH  30  44
ATOM     44  C   UNL A   1      39.227  32.055  35.606  1.00  0.00     0.064 A 
ATOM     45  C   UNL A   1      38.402  31.518  36.604  1.00  0.00     0.173 A 
ATOM     46  C   UNL A   1      39.622  33.396  35.731  1.00  0.00     0.173 A 
ATOM     47  F   UNL A   1      37.986  30.246  36.524  1.00  0.00    -0.203 F 
ATOM     48  C   UNL A   1      37.981  32.297  37.681  1.00  0.00     0.198 A 
ATOM     49  C   UNL A   1      39.219  34.164  36.822  1.00  0.00     0.198 A 
ATOM     50  F   UNL A   1      40.414  33.958  34.807  1.00  0.00    -0.203 F 
ATOM     51  F   UNL A   1      37.166  31.771  38.606  1.00  0.00    -0.200 F 
ATOM     52  C   UNL A   1      38.396  33.615  37.794  1.00  0.00     0.200 A 
ATOM     53  F   UNL A   1      39.633  35.434  36.935  1.00  0.00    -0.200 F 
ATOM     54  F   UNL A   1      38.002  34.357  38.836  1.00  0.00    -0.200 F 
ENDBRANCH  30  44
BRANCH  31  55
ATOM     55  C   UNL A   1      42.393  26.628  27.801  1.00  0.00     0.064 A 
ATOM     56  C   UNL A   1      43.229  27.185  26.825  1.00  0.00     0.173 A 
ATOM     57  C   UNL A   1      42.018  25.284  27.647  1.00  0.00     0.173 A 
ATOM     58  F   UNL A   1      43.602  28.471  26.916  1.00  0.00    -0.203 F 
ATOM     59  C   UNL A   1      43.659  26.434  25.732  1.00  0.00     0.198 A 
ATOM     60  C   UNL A   1      42.478  24.524  26.576  1.00  0.00     0.198 A 
ATOM     61  F   UNL A   1      41.223  24.700  28.556  1.00  0.00    -0.203 F 
ATOM     62  F   UNL A   1      44.420  27.004  24.789  1.00  0.00    -0.200 F 
ATOM     63  C   UNL A   1      43.290  25.103  25.613  1.00  0.00     0.200 A 
ATOM     64  F   UNL A   1      42.136  23.232  26.478  1.00  0.00    -0.200 F 
ATOM     65  F   UNL A   1      43.711  24.378  24.567  1.00  0.00    -0.200 F 
ENDBRANCH  31  55
BRANCH  43  66
ATOM     66  C   UNL A   1      44.947  27.909  34.143  1.00  0.00     0.064 A 
ATOM     67  C   UNL A   1      46.134  28.649  34.049  1.00  0.00     0.173 A 
ATOM     68  C   UNL A   1      44.963  26.729  34.900  1.00  0.00     0.173 A 
ATOM     69  F   UNL A   1      46.173  29.775  33.319  1.00  0.00    -0.203 F 
ATOM     70  C   UNL A   1      47.303  28.204  34.659  1.00  0.00     0.198 A 
ATOM     71  C   UNL A   1      46.126  26.303  35.535  1.00  0.00     0.198 A 
ATOM     72  F   UNL A   1      43.851  25.989  35.023  1.00  0.00    -0.203 F 
ATOM     73  F   UNL A   1      48.442  28.894  34.504  1.00  0.00    -0.200 F 
ATOM     74  C   UNL A   1      47.297  27.035  35.404  1.00  0.00     0.200 A 
ATOM     75  F   UNL A   1      46.116  25.179  36.262  1.00  0.00    -0.200 F 
ATOM     76  F   UNL A   1      48.424  26.606  35.988  1.00  0.00    -0.200 F 
ENDBRANCH  43  66
ENDBRANCH  17  18
ENDBRANCH  10  12
ENDBRANCH   7   8
ENDBRANCH   6   7
ENDBRANCH   5   6
ENDBRANCH   1   5
BRANCH   2  77
ATOM     77  C   UNL A   1      32.692  24.474  25.562  1.00  0.00     0.174 C 
ATOM     78  C   UNL A   1      33.279  23.067  25.460  1.00  0.00     0.035 C 
ATOM     79  N   UNL A   1      32.276  24.837  24.193  1.00  0.00    -0.330 N 
ATOM     80  C   UNL A   1      32.320  22.054  24.817  1.00  0.00     0.004 C 
ATOM     81  C   UNL A   1      31.186  24.018  23.664  1.00  0.00     0.120 C 
ATOM     82  C   UNL A   1      31.672  22.572  23.531  1.00  0.00     0.022 C 
BRANCH  79  83
ATOM     83  C   UNL A   1      33.104  25.665  23.448  1.00  0.00     0.233 C 
ATOM     84  O   UNL A   1      34.268  25.887  23.795  1.00  0.00    -0.274 OA
BRANCH  83  85
ATOM     85  C   UNL A   1      32.574  26.294  22.169  1.00  0.00     0.170 C 
BRANCH  85  86
ATOM     86  S   UNL A   1      31.929  27.987  22.407  1.00  0.00    -0.147 SA
BRANCH  86  87
ATOM     87  C   UNL A   1      30.176  27.635  22.781  1.00  0.00     0.105 C 
BRANCH  87  88
ATOM     88  C   UNL A   1      29.379  28.874  23.081  1.00  0.00    -0.038 A 
ATOM     89  C   UNL A   1      28.007  28.922  22.797  1.00  0.00     0.004 A 
ATOM     90  C   UNL A   1      29.988  29.997  23.663  1.00  0.00     0.004 A 
ATOM     91  C   UNL A   1      27.272  30.080  23.056  1.00  0.00     0.000 A 
ATOM     92  C   UNL A   1      29.256  31.159  23.904  1.00  0.00     0.000 A 
ATOM     93  C   UNL A   1      27.899  31.199  23.598  1.00  0.00     0.000 A 
ENDBRANCH  87  88
ENDBRANCH  86  87
ENDBRANCH  85  86
ENDBRANCH  83  85
ENDBRANCH  79  83
ENDBRANCH   2  77
TORSDOF 15
ENDMDL
