MODEL 1
REMARK VINA RESULT:     -12.0      0.000      0.000
REMARK SMILES CS(=O)(=O)N1CCC[C@@H]1C(=O)Nc1nc(CC(=O)NCCCNC(=O)c2ccc(-c3c4nc(c(-c5c(F)c(F)c(F)c(F)c5F)c5ccc([nH]5)c(-c5c(F)c(F)c(F)c(F)c5F)c5nc(c(-c6c(F)c(F)c(F)c(F)c6F)c6ccc3[nH]6)C=C5)C=C4)cc2)cs1
REMARK SMILES IDX 20 1 19 2 17 3 18 4 16 6 15 7 13 8 14 9 90 10 89 11 12 12
REMARK SMILES IDX 10 13 11 14 9 16 5 17 6 18 7 19 8 20 2 21 1 22 3 23 4 24
REMARK SMILES IDX 21 25 22 26 23 27 24 28 25 30 26 31 27 32 88 33 28 34 87 35
REMARK SMILES IDX 29 36 30 37 31 38 81 39 32 40 86 41 80 42 82 43 33 44 85 45
REMARK SMILES IDX 79 46 78 47 34 49 66 50 46 51 65 52 47 53 50 54 64 55 83 56
REMARK SMILES IDX 48 57 49 58 63 60 84 61 51 62 35 63 36 64 44 65 37 66 38 67
REMARK SMILES IDX 42 68 45 69 39 70 40 71 43 72 41 73 67 74 68 75 76 76 69 77
REMARK SMILES IDX 70 78 74 79 77 80 71 81 72 82 75 83 73 84 52 85 53 86 61 87
REMARK SMILES IDX 54 88 55 89 59 90 62 91 56 92 57 93 60 94 58 95
REMARK H PARENT 19 5 12 15 23 29 82 48 50 59
REMARK Flexibility Score: inf
ROOT
ATOM      1  C   UNL A   1      31.361  30.941  25.913  1.00  0.00     0.117 C 
ENDROOT
BRANCH   1   2
ATOM      2  N   UNL A   1      32.551  30.206  26.310  1.00  0.00    -0.356 N 
ATOM      3  C   UNL A   1      32.651  29.018  26.979  1.00  0.00     0.226 C 
ATOM      4  O   UNL A   1      33.776  28.611  27.277  1.00  0.00    -0.275 OA
ATOM      5  H   UNL A   1      33.408  30.624  26.060  1.00  0.00     0.163 HD
BRANCH   3   6
ATOM      6  C   UNL A   1      31.411  28.209  27.303  1.00  0.00     0.157 C 
BRANCH   6   7
ATOM      7  C   UNL A   1      31.072  27.241  26.222  1.00  0.00     0.063 A 
ATOM      8  C   UNL A   1      30.665  25.197  25.515  1.00  0.00     0.189 A 
ATOM      9  N   UNL A   1      30.818  25.928  26.586  1.00  0.00    -0.224 NA
ATOM     10  S   UNL A   1      30.874  25.984  24.018  1.00  0.00    -0.105 S 
ATOM     11  C   UNL A   1      31.016  27.479  24.860  1.00  0.00     0.093 A 
BRANCH   8  12
ATOM     12  N   UNL A   1      30.409  23.864  25.454  1.00  0.00    -0.301 N 
ATOM     13  C   UNL A   1      31.320  22.874  25.658  1.00  0.00     0.244 C 
ATOM     14  O   UNL A   1      30.972  21.709  25.417  1.00  0.00    -0.273 OA
ATOM     15  H   UNL A   1      29.487  23.592  25.245  1.00  0.00     0.172 HD
BRANCH  13  16
ATOM     16  C   UNL A   1      32.696  23.124  26.271  1.00  0.00     0.162 C 
ATOM     17  N   UNL A   1      33.893  22.808  25.463  1.00  0.00    -0.190 NA
ATOM     18  C   UNL A   1      35.027  22.643  26.376  1.00  0.00     0.103 C 
ATOM     19  C   UNL A   1      34.392  21.923  27.559  1.00  0.00     0.019 C 
ATOM     20  C   UNL A   1      32.960  22.457  27.632  1.00  0.00     0.032 C 
BRANCH  17  21
ATOM     21  S   UNL A   1      34.089  23.165  23.853  1.00  0.00     0.211 S 
ATOM     22  C   UNL A   1      35.796  22.831  23.505  1.00  0.00     0.176 C 
ATOM     23  O   UNL A   1      33.931  24.594  23.668  1.00  0.00    -0.212 OA
ATOM     24  O   UNL A   1      33.289  22.235  23.092  1.00  0.00    -0.212 OA
ENDBRANCH  17  21
ENDBRANCH  13  16
ENDBRANCH   8  12
ENDBRANCH   6   7
ENDBRANCH   3   6
ENDBRANCH   1   2
BRANCH   1  25
ATOM     25  C   UNL A   1      31.270  32.306  26.591  1.00  0.00     0.042 C 
BRANCH  25  26
ATOM     26  C   UNL A   1      32.584  32.839  27.135  1.00  0.00     0.118 C 
BRANCH  26  27
ATOM     27  N   UNL A   1      32.468  34.199  27.624  1.00  0.00    -0.352 N 
ATOM     28  C   UNL A   1      33.107  34.820  28.666  1.00  0.00     0.251 C 
ATOM     29  H   UNL A   1      31.830  34.764  27.131  1.00  0.00     0.163 HD
ATOM     30  O   UNL A   1      32.702  35.914  29.051  1.00  0.00    -0.269 OA
BRANCH  28  31
ATOM     31  C   UNL A   1      34.265  34.188  29.340  1.00  0.00     0.039 A 
ATOM     32  C   UNL A   1      34.020  33.351  30.431  1.00  0.00     0.014 A 
ATOM     33  C   UNL A   1      35.581  34.449  28.950  1.00  0.00     0.014 A 
ATOM     34  C   UNL A   1      35.086  32.750  31.103  1.00  0.00     0.010 A 
ATOM     35  C   UNL A   1      36.639  33.777  29.561  1.00  0.00     0.010 A 
ATOM     36  C   UNL A   1      36.404  32.935  30.656  1.00  0.00    -0.014 A 
BRANCH  36  37
ATOM     37  C   UNL A   1      37.537  32.258  31.339  1.00  0.00     0.031 A 
ATOM     38  C   UNL A   1      38.254  31.111  30.680  1.00  0.00     0.074 A 
ATOM     39  C   UNL A   1      37.898  32.656  32.573  1.00  0.00     0.049 A 
ATOM     40  N   UNL A   1      39.263  30.402  31.121  1.00  0.00    -0.248 NA
ATOM     41  C   UNL A   1      37.753  30.685  29.365  1.00  0.00     0.031 C 
ATOM     42  C   UNL A   1      37.243  33.714  33.341  1.00  0.00     0.029 A 
ATOM     43  N   UNL A   1      38.901  32.216  33.399  1.00  0.00    -0.354 N 
ATOM     44  C   UNL A   1      39.507  29.443  30.147  1.00  0.00     0.074 A 
ATOM     45  C   UNL A   1      38.503  29.620  29.121  1.00  0.00     0.031 C 
ATOM     46  C   UNL A   1      37.878  33.863  34.513  1.00  0.00     0.029 A 
ATOM     47  C   UNL A   1      38.958  32.886  34.597  1.00  0.00     0.049 A 
ATOM     48  H   UNL A   1      39.520  31.490  33.158  1.00  0.00     0.167 HD
ATOM     49  C   UNL A   1      40.493  28.514  30.100  1.00  0.00     0.037 A 
ATOM     50  C   UNL A   1      39.786  32.728  35.647  1.00  0.00     0.037 A 
ATOM     51  C   UNL A   1      41.498  28.349  31.121  1.00  0.00     0.049 A 
ATOM     52  C   UNL A   1      40.874  31.694  35.572  1.00  0.00     0.074 A 
ATOM     53  C   UNL A   1      42.581  27.490  31.136  1.00  0.00     0.029 A 
ATOM     54  N   UNL A   1      41.530  29.051  32.318  1.00  0.00    -0.354 N 
ATOM     55  N   UNL A   1      41.154  30.853  34.605  1.00  0.00    -0.248 NA
ATOM     56  C   UNL A   1      41.771  31.596  36.732  1.00  0.00     0.031 C 
ATOM     57  C   UNL A   1      43.228  27.622  32.370  1.00  0.00     0.029 A 
ATOM     58  C   UNL A   1      42.592  28.616  33.096  1.00  0.00     0.049 A 
ATOM     59  H   UNL A   1      40.892  29.755  32.577  1.00  0.00     0.167 HD
ATOM     60  C   UNL A   1      42.267  30.139  35.029  1.00  0.00     0.074 A 
ATOM     61  C   UNL A   1      42.627  30.667  36.330  1.00  0.00     0.031 C 
ATOM     62  C   UNL A   1      42.930  29.136  34.399  1.00  0.00     0.037 A 
BRANCH  49  63
ATOM     63  C   UNL A   1      40.519  27.590  28.913  1.00  0.00     0.064 A 
ATOM     64  C   UNL A   1      39.731  26.428  28.856  1.00  0.00     0.173 A 
ATOM     65  C   UNL A   1      41.337  27.875  27.809  1.00  0.00     0.173 A 
ATOM     66  F   UNL A   1      38.935  26.101  29.885  1.00  0.00    -0.203 F 
ATOM     67  C   UNL A   1      39.799  25.565  27.764  1.00  0.00     0.198 A 
ATOM     68  C   UNL A   1      41.373  27.030  26.702  1.00  0.00     0.198 A 
ATOM     69  F   UNL A   1      42.106  28.975  27.802  1.00  0.00    -0.203 F 
ATOM     70  F   UNL A   1      39.091  24.427  27.767  1.00  0.00    -0.200 F 
ATOM     71  C   UNL A   1      40.615  25.870  26.686  1.00  0.00     0.200 A 
ATOM     72  F   UNL A   1      42.151  27.335  25.654  1.00  0.00    -0.200 F 
ATOM     73  F   UNL A   1      40.680  25.039  25.637  1.00  0.00    -0.200 F 
ENDBRANCH  49  63
BRANCH  50  74
ATOM     74  C   UNL A   1      39.621  33.590  36.846  1.00  0.00     0.064 A 
ATOM     75  C   UNL A   1      40.268  34.829  36.943  1.00  0.00     0.173 A 
ATOM     76  C   UNL A   1      38.792  33.201  37.910  1.00  0.00     0.173 A 
ATOM     77  F   UNL A   1      41.085  35.236  35.961  1.00  0.00    -0.203 F 
ATOM     78  C   UNL A   1      40.104  35.641  38.064  1.00  0.00     0.198 A 
ATOM     79  C   UNL A   1      38.604  34.028  39.015  1.00  0.00     0.198 A 
ATOM     80  F   UNL A   1      38.145  32.027  37.863  1.00  0.00    -0.203 F 
ATOM     81  F   UNL A   1      40.766  36.803  38.149  1.00  0.00    -0.200 F 
ATOM     82  C   UNL A   1      39.266  35.244  39.095  1.00  0.00     0.200 A 
ATOM     83  F   UNL A   1      37.779  33.648  40.000  1.00  0.00    -0.200 F 
ATOM     84  F   UNL A   1      39.098  36.031  40.166  1.00  0.00    -0.200 F 
ENDBRANCH  50  74
BRANCH  62  85
ATOM     85  C   UNL A   1      44.123  28.556  35.107  1.00  0.00     0.064 A 
ATOM     86  C   UNL A   1      44.011  27.448  35.961  1.00  0.00     0.173 A 
ATOM     87  C   UNL A   1      45.400  29.111  34.921  1.00  0.00     0.173 A 
ATOM     88  F   UNL A   1      42.813  26.886  36.184  1.00  0.00    -0.203 F 
ATOM     89  C   UNL A   1      45.122  26.946  36.636  1.00  0.00     0.198 A 
ATOM     90  C   UNL A   1      46.514  28.582  35.566  1.00  0.00     0.198 A 
ATOM     91  F   UNL A   1      45.568  30.164  34.109  1.00  0.00    -0.203 F 
ATOM     92  F   UNL A   1      44.976  25.932  37.499  1.00  0.00    -0.200 F 
ATOM     93  C   UNL A   1      46.372  27.509  36.433  1.00  0.00     0.200 A 
ATOM     94  F   UNL A   1      47.724  29.116  35.354  1.00  0.00    -0.200 F 
ATOM     95  F   UNL A   1      47.440  27.025  37.082  1.00  0.00    -0.200 F 
ENDBRANCH  62  85
ENDBRANCH  36  37
ENDBRANCH  28  31
ENDBRANCH  26  27
ENDBRANCH  25  26
ENDBRANCH   1  25
TORSDOF 14
ENDMDL
MODEL 2
REMARK VINA RESULT:     -12.0      0.278      1.607
REMARK SMILES CS(=O)(=O)N1CCC[C@@H]1C(=O)Nc1nc(CC(=O)NCCCNC(=O)c2ccc(-c3c4nc(c(-c5c(F)c(F)c(F)c(F)c5F)c5ccc([nH]5)c(-c5c(F)c(F)c(F)c(F)c5F)c5nc(c(-c6c(F)c(F)c(F)c(F)c6F)c6ccc3[nH]6)C=C5)C=C4)cc2)cs1
REMARK SMILES IDX 20 1 19 2 17 3 18 4 16 6 15 7 13 8 14 9 90 10 89 11 12 12
REMARK SMILES IDX 10 13 11 14 9 16 5 17 6 18 7 19 8 20 2 21 1 22 3 23 4 24
REMARK SMILES IDX 21 25 22 26 23 27 24 28 25 30 26 31 27 32 88 33 28 34 87 35
REMARK SMILES IDX 29 36 30 37 31 38 81 39 32 40 86 41 80 42 82 43 33 44 85 45
REMARK SMILES IDX 79 46 78 47 34 49 66 50 46 51 65 52 47 53 50 54 64 55 83 56
REMARK SMILES IDX 48 57 49 58 63 60 84 61 51 62 35 63 36 64 44 65 37 66 38 67
REMARK SMILES IDX 42 68 45 69 39 70 40 71 43 72 41 73 67 74 68 75 76 76 69 77
REMARK SMILES IDX 70 78 74 79 77 80 71 81 72 82 75 83 73 84 52 85 53 86 61 87
REMARK SMILES IDX 54 88 55 89 59 90 62 91 56 92 57 93 60 94 58 95
REMARK H PARENT 19 5 12 15 23 29 82 48 50 59
REMARK Flexibility Score: inf
ROOT
ATOM      1  C   UNL A   1      31.318  31.050  26.103  1.00  0.00     0.117 C 
ENDROOT
BRANCH   1   2
ATOM      2  N   UNL A   1      32.597  30.418  26.383  1.00  0.00    -0.356 N 
ATOM      3  C   UNL A   1      32.859  29.252  27.047  1.00  0.00     0.226 C 
ATOM      4  O   UNL A   1      34.037  28.940  27.233  1.00  0.00    -0.275 OA
ATOM      5  H   UNL A   1      33.388  30.899  26.046  1.00  0.00     0.163 HD
BRANCH   3   6
ATOM      6  C   UNL A   1      31.726  28.352  27.499  1.00  0.00     0.157 C 
BRANCH   6   7
ATOM      7  C   UNL A   1      31.295  27.408  26.430  1.00  0.00     0.063 A 
ATOM      8  C   UNL A   1      30.702  25.402  25.745  1.00  0.00     0.189 A 
ATOM      9  N   UNL A   1      30.926  26.126  26.807  1.00  0.00    -0.224 NA
ATOM     10  S   UNL A   1      30.974  26.152  24.239  1.00  0.00    -0.105 S 
ATOM     11  C   UNL A   1      31.254  27.636  25.065  1.00  0.00     0.093 A 
BRANCH   8  12
ATOM     12  N   UNL A   1      30.327  24.097  25.698  1.00  0.00    -0.301 N 
ATOM     13  C   UNL A   1      31.158  23.029  25.846  1.00  0.00     0.244 C 
ATOM     14  O   UNL A   1      30.695  21.901  25.626  1.00  0.00    -0.273 OA
ATOM     15  H   UNL A   1      29.373  23.908  25.545  1.00  0.00     0.172 HD
BRANCH  13  16
ATOM     16  C   UNL A   1      32.585  23.154  26.376  1.00  0.00     0.162 C 
ATOM     17  N   UNL A   1      33.694  22.670  25.527  1.00  0.00    -0.190 NA
ATOM     18  C   UNL A   1      34.853  22.424  26.389  1.00  0.00     0.103 C 
ATOM     19  C   UNL A   1      34.210  21.834  27.638  1.00  0.00     0.019 C 
ATOM     20  C   UNL A   1      32.851  22.526  27.754  1.00  0.00     0.032 C 
BRANCH  17  21
ATOM     21  S   UNL A   1      33.838  22.928  23.892  1.00  0.00     0.211 S 
ATOM     22  C   UNL A   1      35.565  22.730  23.539  1.00  0.00     0.176 C 
ATOM     23  O   UNL A   1      33.543  24.319  23.610  1.00  0.00    -0.212 OA
ATOM     24  O   UNL A   1      33.121  21.875  23.213  1.00  0.00    -0.212 OA
ENDBRANCH  17  21
ENDBRANCH  13  16
ENDBRANCH   8  12
ENDBRANCH   6   7
ENDBRANCH   3   6
ENDBRANCH   1   2
BRANCH   1  25
ATOM     25  C   UNL A   1      31.299  32.523  26.503  1.00  0.00     0.042 C 
BRANCH  25  26
ATOM     26  C   UNL A   1      32.561  33.014  27.193  1.00  0.00     0.118 C 
BRANCH  26  27
ATOM     27  N   UNL A   1      32.420  34.364  27.702  1.00  0.00    -0.352 N 
ATOM     28  C   UNL A   1      33.050  34.981  28.752  1.00  0.00     0.251 C 
ATOM     29  H   UNL A   1      31.772  34.926  27.219  1.00  0.00     0.163 HD
ATOM     30  O   UNL A   1      32.626  36.061  29.155  1.00  0.00    -0.269 OA
BRANCH  28  31
ATOM     31  C   UNL A   1      34.221  34.361  29.414  1.00  0.00     0.039 A 
ATOM     32  C   UNL A   1      34.001  33.573  30.547  1.00  0.00     0.014 A 
ATOM     33  C   UNL A   1      35.528  34.586  28.971  1.00  0.00     0.014 A 
ATOM     34  C   UNL A   1      35.080  32.984  31.208  1.00  0.00     0.010 A 
ATOM     35  C   UNL A   1      36.596  33.924  29.575  1.00  0.00     0.010 A 
ATOM     36  C   UNL A   1      36.386  33.131  30.712  1.00  0.00    -0.014 A 
BRANCH  36  37
ATOM     37  C   UNL A   1      37.530  32.466  31.385  1.00  0.00     0.031 A 
ATOM     38  C   UNL A   1      38.236  31.308  30.734  1.00  0.00     0.074 A 
ATOM     39  C   UNL A   1      37.914  32.886  32.605  1.00  0.00     0.049 A 
ATOM     40  N   UNL A   1      39.254  30.607  31.169  1.00  0.00    -0.248 NA
ATOM     41  C   UNL A   1      37.712  30.859  29.436  1.00  0.00     0.031 C 
ATOM     42  C   UNL A   1      37.273  33.957  33.367  1.00  0.00     0.029 A 
ATOM     43  N   UNL A   1      38.932  32.461  33.421  1.00  0.00    -0.354 N 
ATOM     44  C   UNL A   1      39.480  29.631  30.207  1.00  0.00     0.074 A 
ATOM     45  C   UNL A   1      38.457  29.790  29.197  1.00  0.00     0.031 C 
ATOM     46  C   UNL A   1      37.929  34.127  34.524  1.00  0.00     0.029 A 
ATOM     47  C   UNL A   1      39.011  33.151  34.605  1.00  0.00     0.049 A 
ATOM     48  H   UNL A   1      39.547  31.730  33.181  1.00  0.00     0.167 HD
ATOM     49  C   UNL A   1      40.465  28.701  30.159  1.00  0.00     0.037 A 
ATOM     50  C   UNL A   1      39.858  33.011  35.643  1.00  0.00     0.037 A 
ATOM     51  C   UNL A   1      41.488  28.555  31.163  1.00  0.00     0.049 A 
ATOM     52  C   UNL A   1      40.945  31.976  35.566  1.00  0.00     0.074 A 
ATOM     53  C   UNL A   1      42.572  27.696  31.173  1.00  0.00     0.029 A 
ATOM     54  N   UNL A   1      41.542  29.277  32.347  1.00  0.00    -0.354 N 
ATOM     55  N   UNL A   1      41.208  31.118  34.609  1.00  0.00    -0.248 NA
ATOM     56  C   UNL A   1      41.863  31.899  36.710  1.00  0.00     0.031 C 
ATOM     57  C   UNL A   1      43.241  27.849  32.393  1.00  0.00     0.029 A 
ATOM     58  C   UNL A   1      42.618  28.856  33.113  1.00  0.00     0.049 A 
ATOM     59  H   UNL A   1      40.909  29.985  32.606  1.00  0.00     0.167 HD
ATOM     60  C   UNL A   1      42.328  30.412  35.025  1.00  0.00     0.074 A 
ATOM     61  C   UNL A   1      42.712  30.963  36.309  1.00  0.00     0.031 C 
ATOM     62  C   UNL A   1      42.980  29.398  34.400  1.00  0.00     0.037 A 
BRANCH  49  63
ATOM     63  C   UNL A   1      40.469  27.757  28.987  1.00  0.00     0.064 A 
ATOM     64  C   UNL A   1      41.242  27.997  27.839  1.00  0.00     0.173 A 
ATOM     65  C   UNL A   1      39.694  26.586  29.016  1.00  0.00     0.173 A 
ATOM     66  F   UNL A   1      41.996  29.104  27.752  1.00  0.00    -0.203 F 
ATOM     67  C   UNL A   1      41.201  27.130  26.749  1.00  0.00     0.198 A 
ATOM     68  C   UNL A   1      39.686  25.702  27.940  1.00  0.00     0.198 A 
ATOM     69  F   UNL A   1      38.942  26.299  30.089  1.00  0.00    -0.203 F 
ATOM     70  F   UNL A   1      41.892  27.420  25.639  1.00  0.00    -0.200 F 
ATOM     71  C   UNL A   1      40.428  25.981  26.803  1.00  0.00     0.200 A 
ATOM     72  F   UNL A   1      38.951  24.583  28.001  1.00  0.00    -0.200 F 
ATOM     73  F   UNL A   1      40.388  25.147  25.754  1.00  0.00    -0.200 F 
ENDBRANCH  49  63
BRANCH  50  74
ATOM     74  C   UNL A   1      39.715  33.894  36.830  1.00  0.00     0.064 A 
ATOM     75  C   UNL A   1      40.366  35.133  36.894  1.00  0.00     0.173 A 
ATOM     76  C   UNL A   1      38.902  33.526  37.913  1.00  0.00     0.173 A 
ATOM     77  F   UNL A   1      41.168  35.521  35.892  1.00  0.00    -0.203 F 
ATOM     78  C   UNL A   1      40.223  35.964  38.004  1.00  0.00     0.198 A 
ATOM     79  C   UNL A   1      38.735  34.372  39.007  1.00  0.00     0.198 A 
ATOM     80  F   UNL A   1      38.253  32.353  37.897  1.00  0.00    -0.203 F 
ATOM     81  F   UNL A   1      40.889  37.126  38.058  1.00  0.00    -0.200 F 
ATOM     82  C   UNL A   1      39.400  35.588  39.055  1.00  0.00     0.200 A 
ATOM     83  F   UNL A   1      37.926  34.011  40.012  1.00  0.00    -0.200 F 
ATOM     84  F   UNL A   1      39.252  36.393  40.115  1.00  0.00    -0.200 F 
ENDBRANCH  50  74
BRANCH  62  85
ATOM     85  C   UNL A   1      44.186  28.831  35.096  1.00  0.00     0.064 A 
ATOM     86  C   UNL A   1      45.472  29.358  34.897  1.00  0.00     0.173 A 
ATOM     87  C   UNL A   1      44.053  27.750  35.983  1.00  0.00     0.173 A 
ATOM     88  F   UNL A   1      45.659  30.383  34.052  1.00  0.00    -0.203 F 
ATOM     89  C   UNL A   1      46.583  28.797  35.524  1.00  0.00     0.198 A 
ATOM     90  C   UNL A   1      45.160  27.218  36.637  1.00  0.00     0.198 A 
ATOM     91  F   UNL A   1      42.848  27.213  36.218  1.00  0.00    -0.203 F 
ATOM     92  F   UNL A   1      47.808  29.274  35.262  1.00  0.00    -0.200 F 
ATOM     93  C   UNL A   1      46.425  27.732  36.397  1.00  0.00     0.200 A 
ATOM     94  F   UNL A   1      45.004  26.201  37.495  1.00  0.00    -0.200 F 
ATOM     95  F   UNL A   1      47.495  27.194  36.999  1.00  0.00    -0.200 F 
ENDBRANCH  62  85
ENDBRANCH  36  37
ENDBRANCH  28  31
ENDBRANCH  26  27
ENDBRANCH  25  26
ENDBRANCH   1  25
TORSDOF 14
ENDMDL
MODEL 3
REMARK VINA RESULT:     -11.9      5.343     10.935
REMARK SMILES CS(=O)(=O)N1CCC[C@@H]1C(=O)Nc1nc(CC(=O)NCCCNC(=O)c2ccc(-c3c4nc(c(-c5c(F)c(F)c(F)c(F)c5F)c5ccc([nH]5)c(-c5c(F)c(F)c(F)c(F)c5F)c5nc(c(-c6c(F)c(F)c(F)c(F)c6F)c6ccc3[nH]6)C=C5)C=C4)cc2)cs1
REMARK SMILES IDX 20 1 19 2 17 3 18 4 16 6 15 7 13 8 14 9 90 10 89 11 12 12
REMARK SMILES IDX 10 13 11 14 9 16 5 17 6 18 7 19 8 20 2 21 1 22 3 23 4 24
REMARK SMILES IDX 21 25 22 26 23 27 24 28 25 30 26 31 27 32 88 33 28 34 87 35
REMARK SMILES IDX 29 36 30 37 31 38 81 39 32 40 86 41 80 42 82 43 33 44 85 45
REMARK SMILES IDX 79 46 78 47 34 49 66 50 46 51 65 52 47 53 50 54 64 55 83 56
REMARK SMILES IDX 48 57 49 58 63 60 84 61 51 62 35 63 36 64 44 65 37 66 38 67
REMARK SMILES IDX 42 68 45 69 39 70 40 71 43 72 41 73 67 74 68 75 76 76 69 77
REMARK SMILES IDX 70 78 74 79 77 80 71 81 72 82 75 83 73 84 52 85 53 86 61 87
REMARK SMILES IDX 54 88 55 89 59 90 62 91 56 92 57 93 60 94 58 95
REMARK H PARENT 19 5 12 15 23 29 82 48 50 59
REMARK Flexibility Score: inf
ROOT
ATOM      1  C   UNL A   1      36.603  20.403  25.001  1.00  0.00     0.117 C 
ENDROOT
BRANCH   1   2
ATOM      2  N   UNL A   1      36.753  21.642  25.748  1.00  0.00    -0.356 N 
ATOM      3  C   UNL A   1      36.614  22.933  25.319  1.00  0.00     0.226 C 
ATOM      4  O   UNL A   1      36.862  23.840  26.116  1.00  0.00    -0.275 OA
ATOM      5  H   UNL A   1      36.987  21.535  26.698  1.00  0.00     0.163 HD
BRANCH   3   6
ATOM      6  C   UNL A   1      36.127  23.230  23.915  1.00  0.00     0.157 C 
BRANCH   6   7
ATOM      7  C   UNL A   1      34.639  23.260  23.829  1.00  0.00     0.063 A 
ATOM      8  C   UNL A   1      32.652  23.427  24.761  1.00  0.00     0.189 A 
ATOM      9  N   UNL A   1      33.931  23.569  24.980  1.00  0.00    -0.224 NA
ATOM     10  S   UNL A   1      32.201  22.861  23.219  1.00  0.00    -0.105 S 
ATOM     11  C   UNL A   1      33.848  22.971  22.731  1.00  0.00     0.093 A 
BRANCH   8  12
ATOM     12  N   UNL A   1      31.636  23.629  25.640  1.00  0.00    -0.301 N 
ATOM     13  C   UNL A   1      30.932  24.785  25.783  1.00  0.00     0.244 C 
ATOM     14  O   UNL A   1      30.138  24.866  26.730  1.00  0.00    -0.273 OA
ATOM     15  H   UNL A   1      31.386  22.875  26.221  1.00  0.00     0.172 HD
BRANCH  13  16
ATOM     16  C   UNL A   1      30.998  25.928  24.772  1.00  0.00     0.162 C 
ATOM     17  N   UNL A   1      31.069  27.314  25.282  1.00  0.00    -0.190 NA
ATOM     18  C   UNL A   1      30.625  28.215  24.215  1.00  0.00     0.103 C 
ATOM     19  C   UNL A   1      29.480  27.432  23.582  1.00  0.00     0.019 C 
ATOM     20  C   UNL A   1      29.878  25.961  23.717  1.00  0.00     0.032 C 
BRANCH  17  21
ATOM     21  S   UNL A   1      32.018  27.827  26.545  1.00  0.00     0.211 S 
ATOM     22  C   UNL A   1      32.401  29.521  26.182  1.00  0.00     0.176 C 
ATOM     23  O   UNL A   1      33.285  27.126  26.492  1.00  0.00    -0.212 OA
ATOM     24  O   UNL A   1      31.214  27.799  27.743  1.00  0.00    -0.212 OA
ENDBRANCH  17  21
ENDBRANCH  13  16
ENDBRANCH   8  12
ENDBRANCH   6   7
ENDBRANCH   3   6
ENDBRANCH   1   2
BRANCH   1  25
ATOM     25  C   UNL A   1      37.887  19.578  24.984  1.00  0.00     0.042 C 
BRANCH  25  26
ATOM     26  C   UNL A   1      39.010  20.124  25.849  1.00  0.00     0.118 C 
BRANCH  26  27
ATOM     27  N   UNL A   1      40.107  19.186  25.985  1.00  0.00    -0.352 N 
ATOM     28  C   UNL A   1      41.450  19.414  26.132  1.00  0.00     0.251 C 
ATOM     29  H   UNL A   1      39.846  18.236  25.971  1.00  0.00     0.163 HD
ATOM     30  O   UNL A   1      42.235  18.477  26.010  1.00  0.00    -0.269 OA
BRANCH  28  31
ATOM     31  C   UNL A   1      41.970  20.771  26.422  1.00  0.00     0.039 A 
ATOM     32  C   UNL A   1      42.191  21.638  25.348  1.00  0.00     0.014 A 
ATOM     33  C   UNL A   1      42.289  21.181  27.719  1.00  0.00     0.014 A 
ATOM     34  C   UNL A   1      42.695  22.920  25.579  1.00  0.00     0.010 A 
ATOM     35  C   UNL A   1      42.704  22.490  27.958  1.00  0.00     0.010 A 
ATOM     36  C   UNL A   1      42.929  23.368  26.889  1.00  0.00    -0.014 A 
BRANCH  36  37
ATOM     37  C   UNL A   1      43.419  24.748  27.141  1.00  0.00     0.031 A 
ATOM     38  C   UNL A   1      42.491  25.805  27.674  1.00  0.00     0.074 A 
ATOM     39  C   UNL A   1      44.697  25.058  26.854  1.00  0.00     0.049 A 
ATOM     40  N   UNL A   1      42.741  27.060  27.957  1.00  0.00    -0.248 NA
ATOM     41  C   UNL A   1      41.093  25.410  27.891  1.00  0.00     0.031 C 
ATOM     42  C   UNL A   1      45.677  24.138  26.276  1.00  0.00     0.029 A 
ATOM     43  N   UNL A   1      45.390  26.232  27.005  1.00  0.00    -0.354 N 
ATOM     44  C   UNL A   1      41.531  27.602  28.372  1.00  0.00     0.074 A 
ATOM     45  C   UNL A   1      40.536  26.559  28.244  1.00  0.00     0.031 C 
ATOM     46  C   UNL A   1      46.852  24.772  26.150  1.00  0.00     0.029 A 
ATOM     47  C   UNL A   1      46.699  26.152  26.599  1.00  0.00     0.049 A 
ATOM     48  H   UNL A   1      44.988  27.053  27.370  1.00  0.00     0.167 HD
ATOM     49  C   UNL A   1      41.277  28.849  28.838  1.00  0.00     0.037 A 
ATOM     50  C   UNL A   1      47.668  27.087  26.585  1.00  0.00     0.037 A 
ATOM     51  C   UNL A   1      42.275  29.880  28.972  1.00  0.00     0.049 A 
ATOM     52  C   UNL A   1      47.365  28.463  27.110  1.00  0.00     0.074 A 
ATOM     53  C   UNL A   1      42.138  31.151  29.501  1.00  0.00     0.029 A 
ATOM     54  N   UNL A   1      43.595  29.762  28.558  1.00  0.00    -0.354 N 
ATOM     55  N   UNL A   1      46.239  28.940  27.586  1.00  0.00    -0.248 NA
ATOM     56  C   UNL A   1      48.473  29.428  27.107  1.00  0.00     0.031 C 
ATOM     57  C   UNL A   1      43.355  31.825  29.343  1.00  0.00     0.029 A 
ATOM     58  C   UNL A   1      44.273  30.951  28.782  1.00  0.00     0.049 A 
ATOM     59  H   UNL A   1      43.991  28.953  28.161  1.00  0.00     0.167 HD
ATOM     60  C   UNL A   1      46.506  30.251  27.955  1.00  0.00     0.074 A 
ATOM     61  C   UNL A   1      47.908  30.485  27.674  1.00  0.00     0.031 C 
ATOM     62  C   UNL A   1      45.665  31.179  28.480  1.00  0.00     0.037 A 
BRANCH  49  63
ATOM     63  C   UNL A   1      39.857  29.171  29.217  1.00  0.00     0.064 A 
ATOM     64  C   UNL A   1      39.406  29.097  30.545  1.00  0.00     0.173 A 
ATOM     65  C   UNL A   1      38.933  29.568  28.238  1.00  0.00     0.173 A 
ATOM     66  F   UNL A   1      40.243  28.715  31.522  1.00  0.00    -0.203 F 
ATOM     67  C   UNL A   1      38.077  29.361  30.870  1.00  0.00     0.198 A 
ATOM     68  C   UNL A   1      37.615  29.869  28.572  1.00  0.00     0.198 A 
ATOM     69  F   UNL A   1      39.308  29.665  26.953  1.00  0.00    -0.203 F 
ATOM     70  F   UNL A   1      37.656  29.214  32.134  1.00  0.00    -0.200 F 
ATOM     71  C   UNL A   1      37.184  29.752  29.885  1.00  0.00     0.200 A 
ATOM     72  F   UNL A   1      36.757  30.263  27.620  1.00  0.00    -0.200 F 
ATOM     73  F   UNL A   1      35.906  30.005  30.198  1.00  0.00    -0.200 F 
ENDBRANCH  49  63
BRANCH  50  74
ATOM     74  C   UNL A   1      49.018  26.737  26.072  1.00  0.00     0.064 A 
ATOM     75  C   UNL A   1      49.392  27.031  24.754  1.00  0.00     0.173 A 
ATOM     76  C   UNL A   1      49.971  26.124  26.900  1.00  0.00     0.173 A 
ATOM     77  F   UNL A   1      48.510  27.600  23.919  1.00  0.00    -0.203 F 
ATOM     78  C   UNL A   1      50.663  26.711  24.278  1.00  0.00     0.198 A 
ATOM     79  C   UNL A   1      51.251  25.834  26.432  1.00  0.00     0.198 A 
ATOM     80  F   UNL A   1      49.665  25.827  28.171  1.00  0.00    -0.203 F 
ATOM     81  F   UNL A   1      50.980  26.967  23.002  1.00  0.00    -0.200 F 
ATOM     82  C   UNL A   1      51.594  26.122  25.120  1.00  0.00     0.200 A 
ATOM     83  F   UNL A   1      52.152  25.280  27.254  1.00  0.00    -0.200 F 
ATOM     84  F   UNL A   1      52.819  25.827  24.665  1.00  0.00    -0.200 F 
ENDBRANCH  50  74
BRANCH  62  85
ATOM     85  C   UNL A   1      46.248  32.528  28.796  1.00  0.00     0.064 A 
ATOM     86  C   UNL A   1      46.269  33.565  27.850  1.00  0.00     0.173 A 
ATOM     87  C   UNL A   1      46.785  32.792  30.067  1.00  0.00     0.173 A 
ATOM     88  F   UNL A   1      45.781  33.365  26.617  1.00  0.00    -0.203 F 
ATOM     89  C   UNL A   1      46.845  34.798  28.149  1.00  0.00     0.198 A 
ATOM     90  C   UNL A   1      47.324  34.037  30.374  1.00  0.00     0.198 A 
ATOM     91  F   UNL A   1      46.782  31.841  31.012  1.00  0.00    -0.203 F 
ATOM     92  F   UNL A   1      46.916  35.747  27.206  1.00  0.00    -0.200 F 
ATOM     93  C   UNL A   1      47.366  35.035  29.412  1.00  0.00     0.200 A 
ATOM     94  F   UNL A   1      47.810  34.270  31.601  1.00  0.00    -0.200 F 
ATOM     95  F   UNL A   1      47.919  36.221  29.698  1.00  0.00    -0.200 F 
ENDBRANCH  62  85
ENDBRANCH  36  37
ENDBRANCH  28  31
ENDBRANCH  26  27
ENDBRANCH  25  26
ENDBRANCH   1  25
TORSDOF 14
ENDMDL
