MODEL 1
REMARK VINA RESULT:     -11.1      0.000      0.000
REMARK SMILES O=C(NCCCNC(=O)c1ccccc1NC(=O)c1ccncc1)c1ccc(-c2c3nc(c(-c4c(F)c(F)c(F)c(F)c4F)c4ccc([nH]4)c(-c4c(F)c(F)c(F)c(F)c4F)c4nc(c(-c5c(F)c(F)c(F)c(F)c5F)c5ccc2[nH]5)C=C4)C=C3)cc1
REMARK SMILES IDX 5 1 4 2 3 3 1 4 2 5 25 7 26 8 87 9 27 10 86 11 28 12 29 13
REMARK SMILES IDX 30 14 80 15 31 16 85 17 79 18 81 19 32 20 84 21 78 22 77 23
REMARK SMILES IDX 33 25 65 26 45 27 64 28 46 29 49 30 63 31 82 32 47 33 48 34
REMARK SMILES IDX 62 36 83 37 50 38 34 39 35 40 43 41 36 42 37 43 41 44 44 45
REMARK SMILES IDX 38 46 39 47 42 48 40 49 66 50 67 51 75 52 68 53 69 54 73 55
REMARK SMILES IDX 76 56 70 57 71 58 74 59 72 60 51 61 52 62 60 63 53 64 54 65
REMARK SMILES IDX 58 66 61 67 55 68 56 69 59 70 57 71 6 72 7 73 8 74 9 76
REMARK SMILES IDX 10 77 11 78 15 79 12 80 14 81 13 82 16 83 17 84 18 86 19 87
REMARK SMILES IDX 20 88 24 89 21 90 23 91 22 92
REMARK H PARENT 3 6 81 24 49 35 7 75 16 85
REMARK Flexibility Score: inf
ROOT
ATOM      1  C   UNL A   1      33.663  33.956  28.242  1.00  0.00     0.042 C 
ENDROOT
BRANCH   1   2
ATOM      2  C   UNL A   1      34.597  32.811  27.874  1.00  0.00     0.118 C 
BRANCH   2   3
ATOM      3  N   UNL A   1      33.908  31.542  27.685  1.00  0.00    -0.352 N 
ATOM      4  O   UNL A   1      33.651  29.320  27.415  1.00  0.00    -0.269 OA
ATOM      5  C   UNL A   1      34.377  30.253  27.750  1.00  0.00     0.251 C 
ATOM      6  H   UNL A   1      32.948  31.621  27.477  1.00  0.00     0.163 HD
BRANCH   5   7
ATOM      7  C   UNL A   1      35.761  29.979  28.190  1.00  0.00     0.039 A 
ATOM      8  C   UNL A   1      36.837  30.120  27.313  1.00  0.00     0.014 A 
ATOM      9  C   UNL A   1      35.991  29.595  29.516  1.00  0.00     0.014 A 
ATOM     10  C   UNL A   1      38.104  29.705  27.699  1.00  0.00     0.010 A 
ATOM     11  C   UNL A   1      37.287  29.286  29.938  1.00  0.00     0.010 A 
ATOM     12  C   UNL A   1      38.349  29.302  29.022  1.00  0.00    -0.014 A 
BRANCH  12  13
ATOM     13  C   UNL A   1      39.739  28.974  29.430  1.00  0.00     0.031 A 
ATOM     14  C   UNL A   1      40.496  29.842  30.394  1.00  0.00     0.074 A 
ATOM     15  C   UNL A   1      40.302  27.852  28.941  1.00  0.00     0.049 A 
ATOM     16  N   UNL A   1      41.707  29.684  30.868  1.00  0.00    -0.248 NA
ATOM     17  C   UNL A   1      39.814  31.048  30.886  1.00  0.00     0.031 C 
ATOM     18  C   UNL A   1      39.667  26.941  27.987  1.00  0.00     0.029 A 
ATOM     19  N   UNL A   1      41.520  27.274  29.190  1.00  0.00    -0.354 N 
ATOM     20  C   UNL A   1      41.939  30.776  31.694  1.00  0.00     0.074 A 
ATOM     21  C   UNL A   1      40.753  31.604  31.640  1.00  0.00     0.031 C 
ATOM     22  C   UNL A   1      40.475  25.894  27.771  1.00  0.00     0.029 A 
ATOM     23  C   UNL A   1      41.712  26.092  28.517  1.00  0.00     0.049 A 
ATOM     24  H   UNL A   1      42.191  27.668  29.793  1.00  0.00     0.167 HD
ATOM     25  C   UNL A   1      43.040  31.054  32.433  1.00  0.00     0.037 A 
ATOM     26  C   UNL A   1      42.774  25.268  28.485  1.00  0.00     0.037 A 
ATOM     27  C   UNL A   1      44.209  30.213  32.497  1.00  0.00     0.049 A 
ATOM     28  C   UNL A   1      43.985  25.611  29.302  1.00  0.00     0.074 A 
ATOM     29  C   UNL A   1      45.360  30.389  33.246  1.00  0.00     0.029 A 
ATOM     30  N   UNL A   1      44.379  29.040  31.776  1.00  0.00    -0.354 N 
ATOM     31  N   UNL A   1      44.177  26.630  30.103  1.00  0.00    -0.248 NA
ATOM     32  C   UNL A   1      45.127  24.695  29.205  1.00  0.00     0.031 C 
ATOM     33  C   UNL A   1      46.243  29.347  32.946  1.00  0.00     0.029 A 
ATOM     34  C   UNL A   1      45.625  28.494  32.046  1.00  0.00     0.049 A 
ATOM     35  H   UNL A   1      43.713  28.652  31.163  1.00  0.00     0.167 HD
ATOM     36  C   UNL A   1      45.457  26.472  30.617  1.00  0.00     0.074 A 
ATOM     37  C   UNL A   1      45.983  25.245  30.053  1.00  0.00     0.031 C 
ATOM     38  C   UNL A   1      46.134  27.274  31.474  1.00  0.00     0.037 A 
BRANCH  25  39
ATOM     39  C   UNL A   1      43.047  32.329  33.226  1.00  0.00     0.064 A 
ATOM     40  C   UNL A   1      43.378  33.561  32.642  1.00  0.00     0.173 A 
ATOM     41  C   UNL A   1      42.665  32.327  34.577  1.00  0.00     0.173 A 
ATOM     42  F   UNL A   1      43.760  33.619  31.358  1.00  0.00    -0.203 F 
ATOM     43  C   UNL A   1      43.345  34.739  33.386  1.00  0.00     0.198 A 
ATOM     44  C   UNL A   1      42.609  33.510  35.311  1.00  0.00     0.198 A 
ATOM     45  F   UNL A   1      42.333  31.177  35.183  1.00  0.00    -0.203 F 
ATOM     46  F   UNL A   1      43.704  35.899  32.817  1.00  0.00    -0.200 F 
ATOM     47  C   UNL A   1      42.955  34.714  34.716  1.00  0.00     0.200 A 
ATOM     48  F   UNL A   1      42.218  33.484  36.593  1.00  0.00    -0.200 F 
ATOM     49  F   UNL A   1      42.916  35.849  35.427  1.00  0.00    -0.200 F 
ENDBRANCH  25  39
BRANCH  26  50
ATOM     50  C   UNL A   1      42.729  24.045  27.643  1.00  0.00     0.064 A 
ATOM     51  C   UNL A   1      43.060  24.093  26.283  1.00  0.00     0.173 A 
ATOM     52  C   UNL A   1      42.380  22.801  28.188  1.00  0.00     0.173 A 
ATOM     53  F   UNL A   1      43.384  25.263  25.712  1.00  0.00    -0.203 F 
ATOM     54  C   UNL A   1      43.030  22.943  25.496  1.00  0.00     0.198 A 
ATOM     55  C   UNL A   1      42.381  21.648  27.409  1.00  0.00     0.198 A 
ATOM     56  F   UNL A   1      42.063  22.703  29.488  1.00  0.00    -0.203 F 
ATOM     57  F   UNL A   1      43.315  23.022  24.190  1.00  0.00    -0.200 F 
ATOM     58  C   UNL A   1      42.699  21.720  26.062  1.00  0.00     0.200 A 
ATOM     59  F   UNL A   1      42.078  20.466  27.964  1.00  0.00    -0.200 F 
ATOM     60  F   UNL A   1      42.683  20.613  25.307  1.00  0.00    -0.200 F 
ENDBRANCH  26  50
BRANCH  38  61
ATOM     61  C   UNL A   1      47.513  26.834  31.869  1.00  0.00     0.064 A 
ATOM     62  C   UNL A   1      48.651  27.295  31.193  1.00  0.00     0.173 A 
ATOM     63  C   UNL A   1      47.697  25.959  32.949  1.00  0.00     0.173 A 
ATOM     64  F   UNL A   1      48.525  28.119  30.140  1.00  0.00    -0.203 F 
ATOM     65  C   UNL A   1      49.925  26.875  31.568  1.00  0.00     0.198 A 
ATOM     66  C   UNL A   1      48.973  25.564  33.340  1.00  0.00     0.198 A 
ATOM     67  F   UNL A   1      46.640  25.493  33.630  1.00  0.00    -0.203 F 
ATOM     68  F   UNL A   1      50.995  27.289  30.878  1.00  0.00    -0.200 F 
ATOM     69  C   UNL A   1      50.085  26.016  32.645  1.00  0.00     0.200 A 
ATOM     70  F   UNL A   1      49.127  24.742  34.387  1.00  0.00    -0.200 F 
ATOM     71  F   UNL A   1      51.311  25.615  33.007  1.00  0.00    -0.200 F 
ENDBRANCH  38  61
ENDBRANCH  12  13
ENDBRANCH   5   7
ENDBRANCH   2   3
ENDBRANCH   1   2
BRANCH   1  72
ATOM     72  C   UNL A   1      33.905  34.542  29.624  1.00  0.00     0.118 C 
BRANCH  72  73
ATOM     73  N   UNL A   1      34.037  33.514  30.645  1.00  0.00    -0.352 N 
ATOM     74  C   UNL A   1      35.155  32.985  31.235  1.00  0.00     0.253 C 
ATOM     75  H   UNL A   1      33.185  33.137  30.962  1.00  0.00     0.163 HD
ATOM     76  O   UNL A   1      35.052  31.950  31.886  1.00  0.00    -0.269 OA
BRANCH  74  77
ATOM     77  C   UNL A   1      36.476  33.642  31.123  1.00  0.00     0.063 A 
ATOM     78  C   UNL A   1      37.084  33.585  29.859  1.00  0.00     0.016 A 
ATOM     79  C   UNL A   1      37.151  34.218  32.221  1.00  0.00     0.054 A 
ATOM     80  C   UNL A   1      38.364  34.099  29.670  1.00  0.00     0.001 A 
ATOM     81  C   UNL A   1      38.462  34.665  32.021  1.00  0.00     0.027 A 
ATOM     82  C   UNL A   1      39.057  34.626  30.756  1.00  0.00     0.002 A 
BRANCH  79  83
ATOM     83  N   UNL A   1      36.507  34.292  33.475  1.00  0.00    -0.321 N 
ATOM     84  C   UNL A   1      36.567  33.517  34.609  1.00  0.00     0.255 C 
ATOM     85  H   UNL A   1      35.889  35.055  33.555  1.00  0.00     0.170 HD
ATOM     86  O   UNL A   1      35.846  33.788  35.569  1.00  0.00    -0.269 OA
BRANCH  84  87
ATOM     87  C   UNL A   1      37.516  32.400  34.752  1.00  0.00     0.043 A 
ATOM     88  C   UNL A   1      37.531  31.324  33.867  1.00  0.00     0.034 A 
ATOM     89  C   UNL A   1      38.425  32.458  35.807  1.00  0.00     0.034 A 
ATOM     90  C   UNL A   1      38.407  30.290  34.139  1.00  0.00     0.112 A 
ATOM     91  C   UNL A   1      39.267  31.380  35.982  1.00  0.00     0.112 A 
ATOM     92  N   UNL A   1      39.263  30.290  35.184  1.00  0.00    -0.265 NA
ENDBRANCH  84  87
ENDBRANCH  79  83
ENDBRANCH  74  77
ENDBRANCH  72  73
ENDBRANCH   1  72
TORSDOF 12
ENDMDL
MODEL 2
REMARK VINA RESULT:     -11.0      3.833     10.698
REMARK SMILES O=C(NCCCNC(=O)c1ccccc1NC(=O)c1ccncc1)c1ccc(-c2c3nc(c(-c4c(F)c(F)c(F)c(F)c4F)c4ccc([nH]4)c(-c4c(F)c(F)c(F)c(F)c4F)c4nc(c(-c5c(F)c(F)c(F)c(F)c5F)c5ccc2[nH]5)C=C4)C=C3)cc1
REMARK SMILES IDX 5 1 4 2 3 3 1 4 2 5 25 7 26 8 87 9 27 10 86 11 28 12 29 13
REMARK SMILES IDX 30 14 80 15 31 16 85 17 79 18 81 19 32 20 84 21 78 22 77 23
REMARK SMILES IDX 33 25 65 26 45 27 64 28 46 29 49 30 63 31 82 32 47 33 48 34
REMARK SMILES IDX 62 36 83 37 50 38 34 39 35 40 43 41 36 42 37 43 41 44 44 45
REMARK SMILES IDX 38 46 39 47 42 48 40 49 66 50 67 51 75 52 68 53 69 54 73 55
REMARK SMILES IDX 76 56 70 57 71 58 74 59 72 60 51 61 52 62 60 63 53 64 54 65
REMARK SMILES IDX 58 66 61 67 55 68 56 69 59 70 57 71 6 72 7 73 8 74 9 76
REMARK SMILES IDX 10 77 11 78 15 79 12 80 14 81 13 82 16 83 17 84 18 86 19 87
REMARK SMILES IDX 20 88 24 89 21 90 23 91 22 92
REMARK H PARENT 3 6 81 24 49 35 7 75 16 85
REMARK Flexibility Score: inf
ROOT
ATOM      1  C   UNL A   1      41.108  20.224  26.611  1.00  0.00     0.042 C 
ENDROOT
BRANCH   1   2
ATOM      2  C   UNL A   1      40.381  21.460  27.120  1.00  0.00     0.118 C 
BRANCH   2   3
ATOM      3  N   UNL A   1      39.267  21.865  26.273  1.00  0.00    -0.352 N 
ATOM      4  O   UNL A   1      37.627  23.176  25.456  1.00  0.00    -0.269 OA
ATOM      5  C   UNL A   1      38.651  23.084  26.129  1.00  0.00     0.251 C 
ATOM      6  H   UNL A   1      38.894  21.147  25.711  1.00  0.00     0.163 HD
BRANCH   5   7
ATOM      7  C   UNL A   1      39.194  24.283  26.802  1.00  0.00     0.039 A 
ATOM      8  C   UNL A   1      38.958  24.516  28.157  1.00  0.00     0.014 A 
ATOM      9  C   UNL A   1      39.973  25.183  26.067  1.00  0.00     0.014 A 
ATOM     10  C   UNL A   1      39.339  25.722  28.728  1.00  0.00     0.010 A 
ATOM     11  C   UNL A   1      40.455  26.346  26.674  1.00  0.00     0.010 A 
ATOM     12  C   UNL A   1      40.110  26.644  28.001  1.00  0.00    -0.014 A 
BRANCH  12  13
ATOM     13  C   UNL A   1      40.596  27.872  28.679  1.00  0.00     0.031 A 
ATOM     14  C   UNL A   1      42.048  28.054  29.019  1.00  0.00     0.074 A 
ATOM     15  C   UNL A   1      39.707  28.845  28.955  1.00  0.00     0.049 A 
ATOM     16  N   UNL A   1      42.637  29.074  29.591  1.00  0.00    -0.248 NA
ATOM     17  C   UNL A   1      42.957  26.949  28.685  1.00  0.00     0.031 C 
ATOM     18  C   UNL A   1      38.270  28.773  28.683  1.00  0.00     0.029 A 
ATOM     19  N   UNL A   1      39.877  30.091  29.503  1.00  0.00    -0.354 N 
ATOM     20  C   UNL A   1      43.977  28.728  29.703  1.00  0.00     0.074 A 
ATOM     21  C   UNL A   1      44.112  27.392  29.162  1.00  0.00     0.031 C 
ATOM     22  C   UNL A   1      37.698  29.938  29.014  1.00  0.00     0.029 A 
ATOM     23  C   UNL A   1      38.713  30.815  29.585  1.00  0.00     0.049 A 
ATOM     24  H   UNL A   1      40.749  30.432  29.807  1.00  0.00     0.167 HD
ATOM     25  C   UNL A   1      44.999  29.462  30.206  1.00  0.00     0.037 A 
ATOM     26  C   UNL A   1      38.482  32.043  30.084  1.00  0.00     0.037 A 
ATOM     27  C   UNL A   1      44.858  30.800  30.725  1.00  0.00     0.049 A 
ATOM     28  C   UNL A   1      39.630  32.825  30.648  1.00  0.00     0.074 A 
ATOM     29  C   UNL A   1      45.839  31.642  31.220  1.00  0.00     0.029 A 
ATOM     30  N   UNL A   1      43.657  31.489  30.821  1.00  0.00    -0.354 N 
ATOM     31  N   UNL A   1      40.897  32.498  30.718  1.00  0.00    -0.248 NA
ATOM     32  C   UNL A   1      39.316  34.145  31.210  1.00  0.00     0.031 C 
ATOM     33  C   UNL A   1      45.226  32.821  31.658  1.00  0.00     0.029 A 
ATOM     34  C   UNL A   1      43.870  32.735  31.389  1.00  0.00     0.049 A 
ATOM     35  H   UNL A   1      42.782  31.143  30.528  1.00  0.00     0.167 HD
ATOM     36  C   UNL A   1      41.535  33.574  31.319  1.00  0.00     0.074 A 
ATOM     37  C   UNL A   1      40.517  34.574  31.571  1.00  0.00     0.031 C 
ATOM     38  C   UNL A   1      42.845  33.717  31.636  1.00  0.00     0.037 A 
BRANCH  25  39
ATOM     39  C   UNL A   1      46.363  28.835  30.238  1.00  0.00     0.064 A 
ATOM     40  C   UNL A   1      46.762  27.988  31.283  1.00  0.00     0.173 A 
ATOM     41  C   UNL A   1      47.263  29.041  29.181  1.00  0.00     0.173 A 
ATOM     42  F   UNL A   1      45.945  27.766  32.322  1.00  0.00    -0.203 F 
ATOM     43  C   UNL A   1      48.020  27.389  31.278  1.00  0.00     0.198 A 
ATOM     44  C   UNL A   1      48.509  28.419  29.167  1.00  0.00     0.198 A 
ATOM     45  F   UNL A   1      46.928  29.837  28.154  1.00  0.00    -0.203 F 
ATOM     46  F   UNL A   1      48.396  26.615  32.306  1.00  0.00    -0.200 F 
ATOM     47  C   UNL A   1      48.889  27.599  30.218  1.00  0.00     0.200 A 
ATOM     48  F   UNL A   1      49.342  28.614  28.134  1.00  0.00    -0.200 F 
ATOM     49  F   UNL A   1      50.095  27.014  30.211  1.00  0.00    -0.200 F 
ENDBRANCH  25  39
BRANCH  26  50
ATOM     50  C   UNL A   1      37.102  32.592  30.071  1.00  0.00     0.064 A 
ATOM     51  C   UNL A   1      36.239  32.403  31.159  1.00  0.00     0.173 A 
ATOM     52  C   UNL A   1      36.629  33.339  28.982  1.00  0.00     0.173 A 
ATOM     53  F   UNL A   1      36.641  31.682  32.215  1.00  0.00    -0.203 F 
ATOM     54  C   UNL A   1      34.949  32.930  31.151  1.00  0.00     0.198 A 
ATOM     55  C   UNL A   1      35.351  33.891  28.989  1.00  0.00     0.198 A 
ATOM     56  F   UNL A   1      37.420  33.554  27.921  1.00  0.00    -0.203 F 
ATOM     57  F   UNL A   1      34.131  32.704  32.187  1.00  0.00    -0.200 F 
ATOM     58  C   UNL A   1      34.509  33.681  30.071  1.00  0.00     0.200 A 
ATOM     59  F   UNL A   1      34.937  34.631  27.951  1.00  0.00    -0.200 F 
ATOM     60  F   UNL A   1      33.273  34.197  30.070  1.00  0.00    -0.200 F 
ENDBRANCH  26  50
BRANCH  38  61
ATOM     61  C   UNL A   1      43.251  35.013  32.271  1.00  0.00     0.064 A 
ATOM     62  C   UNL A   1      43.646  36.116  31.500  1.00  0.00     0.173 A 
ATOM     63  C   UNL A   1      43.225  35.160  33.666  1.00  0.00     0.173 A 
ATOM     64  F   UNL A   1      43.705  36.018  30.162  1.00  0.00    -0.203 F 
ATOM     65  C   UNL A   1      44.024  37.312  32.104  1.00  0.00     0.198 A 
ATOM     66  C   UNL A   1      43.576  36.366  34.265  1.00  0.00     0.198 A 
ATOM     67  F   UNL A   1      42.852  34.136  34.447  1.00  0.00    -0.203 F 
ATOM     68  F   UNL A   1      44.444  38.337  31.350  1.00  0.00    -0.200 F 
ATOM     69  C   UNL A   1      43.983  37.439  33.485  1.00  0.00     0.200 A 
ATOM     70  F   UNL A   1      43.525  36.491  35.598  1.00  0.00    -0.200 F 
ATOM     71  F   UNL A   1      44.344  38.591  34.064  1.00  0.00    -0.200 F 
ENDBRANCH  38  61
ENDBRANCH  12  13
ENDBRANCH   5   7
ENDBRANCH   2   3
ENDBRANCH   1   2
BRANCH   1  72
ATOM     72  C   UNL A   1      42.543  20.477  26.174  1.00  0.00     0.118 C 
BRANCH  72  73
ATOM     73  N   UNL A   1      42.671  21.684  25.371  1.00  0.00    -0.352 N 
ATOM     74  C   UNL A   1      43.084  22.943  25.718  1.00  0.00     0.253 C 
ATOM     75  H   UNL A   1      42.420  21.578  24.425  1.00  0.00     0.163 HD
ATOM     76  O   UNL A   1      42.873  23.873  24.946  1.00  0.00    -0.269 OA
BRANCH  74  77
ATOM     77  C   UNL A   1      43.795  23.204  26.990  1.00  0.00     0.063 A 
ATOM     78  C   UNL A   1      42.997  23.222  28.145  1.00  0.00     0.016 A 
ATOM     79  C   UNL A   1      45.170  23.511  27.060  1.00  0.00     0.054 A 
ATOM     80  C   UNL A   1      43.555  23.541  29.379  1.00  0.00     0.001 A 
ATOM     81  C   UNL A   1      45.692  23.895  28.300  1.00  0.00     0.027 A 
ATOM     82  C   UNL A   1      44.900  23.891  29.453  1.00  0.00     0.002 A 
BRANCH  79  83
ATOM     83  N   UNL A   1      45.959  23.456  25.890  1.00  0.00    -0.321 N 
ATOM     84  C   UNL A   1      46.387  24.412  25.000  1.00  0.00     0.255 C 
ATOM     85  H   UNL A   1      46.265  22.548  25.665  1.00  0.00     0.170 HD
ATOM     86  O   UNL A   1      47.042  24.075  24.015  1.00  0.00    -0.269 OA
BRANCH  84  87
ATOM     87  C   UNL A   1      46.148  25.850  25.212  1.00  0.00     0.043 A 
ATOM     88  C   UNL A   1      44.866  26.371  25.377  1.00  0.00     0.034 A 
ATOM     89  C   UNL A   1      47.261  26.688  25.259  1.00  0.00     0.034 A 
ATOM     90  C   UNL A   1      44.748  27.744  25.488  1.00  0.00     0.112 A 
ATOM     91  C   UNL A   1      47.034  28.042  25.388  1.00  0.00     0.112 A 
ATOM     92  N   UNL A   1      45.803  28.589  25.483  1.00  0.00    -0.265 NA
ENDBRANCH  84  87
ENDBRANCH  79  83
ENDBRANCH  74  77
ENDBRANCH  72  73
ENDBRANCH   1  72
TORSDOF 12
ENDMDL
MODEL 3
REMARK VINA RESULT:     -10.9      3.835     10.703
REMARK SMILES O=C(NCCCNC(=O)c1ccccc1NC(=O)c1ccncc1)c1ccc(-c2c3nc(c(-c4c(F)c(F)c(F)c(F)c4F)c4ccc([nH]4)c(-c4c(F)c(F)c(F)c(F)c4F)c4nc(c(-c5c(F)c(F)c(F)c(F)c5F)c5ccc2[nH]5)C=C4)C=C3)cc1
REMARK SMILES IDX 5 1 4 2 3 3 1 4 2 5 25 7 26 8 87 9 27 10 86 11 28 12 29 13
REMARK SMILES IDX 30 14 80 15 31 16 85 17 79 18 81 19 32 20 84 21 78 22 77 23
REMARK SMILES IDX 33 25 65 26 45 27 64 28 46 29 49 30 63 31 82 32 47 33 48 34
REMARK SMILES IDX 62 36 83 37 50 38 34 39 35 40 43 41 36 42 37 43 41 44 44 45
REMARK SMILES IDX 38 46 39 47 42 48 40 49 66 50 67 51 75 52 68 53 69 54 73 55
REMARK SMILES IDX 76 56 70 57 71 58 74 59 72 60 51 61 52 62 60 63 53 64 54 65
REMARK SMILES IDX 58 66 61 67 55 68 56 69 59 70 57 71 6 72 7 73 8 74 9 76
REMARK SMILES IDX 10 77 11 78 15 79 12 80 14 81 13 82 16 83 17 84 18 86 19 87
REMARK SMILES IDX 20 88 24 89 21 90 23 91 22 92
REMARK H PARENT 3 6 81 24 49 35 7 75 16 85
REMARK Flexibility Score: inf
ROOT
ATOM      1  C   UNL A   1      41.003  20.158  26.701  1.00  0.00     0.042 C 
ENDROOT
BRANCH   1   2
ATOM      2  C   UNL A   1      40.353  21.459  27.148  1.00  0.00     0.118 C 
BRANCH   2   3
ATOM      3  N   UNL A   1      39.249  21.877  26.295  1.00  0.00    -0.352 N 
ATOM      4  O   UNL A   1      37.629  23.207  25.469  1.00  0.00    -0.269 OA
ATOM      5  C   UNL A   1      38.648  23.103  26.148  1.00  0.00     0.251 C 
ATOM      6  H   UNL A   1      38.871  21.163  25.731  1.00  0.00     0.163 HD
BRANCH   5   7
ATOM      7  C   UNL A   1      39.200  24.296  26.824  1.00  0.00     0.039 A 
ATOM      8  C   UNL A   1      38.905  24.565  28.161  1.00  0.00     0.014 A 
ATOM      9  C   UNL A   1      40.048  25.151  26.113  1.00  0.00     0.014 A 
ATOM     10  C   UNL A   1      39.301  25.769  28.728  1.00  0.00     0.010 A 
ATOM     11  C   UNL A   1      40.541  26.308  26.722  1.00  0.00     0.010 A 
ATOM     12  C   UNL A   1      40.141  26.646  28.023  1.00  0.00    -0.014 A 
BRANCH  12  13
ATOM     13  C   UNL A   1      40.638  27.870  28.702  1.00  0.00     0.031 A 
ATOM     14  C   UNL A   1      42.091  28.039  29.043  1.00  0.00     0.074 A 
ATOM     15  C   UNL A   1      39.757  28.851  28.977  1.00  0.00     0.049 A 
ATOM     16  N   UNL A   1      42.689  29.054  29.615  1.00  0.00    -0.248 NA
ATOM     17  C   UNL A   1      42.991  26.926  28.709  1.00  0.00     0.031 C 
ATOM     18  C   UNL A   1      38.320  28.791  28.705  1.00  0.00     0.029 A 
ATOM     19  N   UNL A   1      39.938  30.096  29.525  1.00  0.00    -0.354 N 
ATOM     20  C   UNL A   1      44.026  28.696  29.728  1.00  0.00     0.074 A 
ATOM     21  C   UNL A   1      44.150  27.359  29.187  1.00  0.00     0.031 C 
ATOM     22  C   UNL A   1      37.758  29.962  29.036  1.00  0.00     0.029 A 
ATOM     23  C   UNL A   1      38.780  30.830  29.607  1.00  0.00     0.049 A 
ATOM     24  H   UNL A   1      40.813  30.429  29.830  1.00  0.00     0.167 HD
ATOM     25  C   UNL A   1      45.054  29.422  30.232  1.00  0.00     0.037 A 
ATOM     26  C   UNL A   1      38.560  32.059  30.106  1.00  0.00     0.037 A 
ATOM     27  C   UNL A   1      44.925  30.760  30.750  1.00  0.00     0.049 A 
ATOM     28  C   UNL A   1      39.715  32.832  30.671  1.00  0.00     0.074 A 
ATOM     29  C   UNL A   1      45.913  31.593  31.246  1.00  0.00     0.029 A 
ATOM     30  N   UNL A   1      43.730  31.460  30.845  1.00  0.00    -0.354 N 
ATOM     31  N   UNL A   1      40.979  32.493  30.742  1.00  0.00    -0.248 NA
ATOM     32  C   UNL A   1      39.412  34.154  31.232  1.00  0.00     0.031 C 
ATOM     33  C   UNL A   1      45.310  32.778  31.683  1.00  0.00     0.029 A 
ATOM     34  C   UNL A   1      43.953  32.704  31.414  1.00  0.00     0.049 A 
ATOM     35  H   UNL A   1      42.852  31.122  30.553  1.00  0.00     0.167 HD
ATOM     36  C   UNL A   1      41.626  33.563  31.342  1.00  0.00     0.074 A 
ATOM     37  C   UNL A   1      40.617  34.573  31.594  1.00  0.00     0.031 C 
ATOM     38  C   UNL A   1      42.937  33.695  31.660  1.00  0.00     0.037 A 
BRANCH  25  39
ATOM     39  C   UNL A   1      46.412  28.782  30.264  1.00  0.00     0.064 A 
ATOM     40  C   UNL A   1      46.828  27.986  31.342  1.00  0.00     0.173 A 
ATOM     41  C   UNL A   1      47.290  28.924  29.178  1.00  0.00     0.173 A 
ATOM     42  F   UNL A   1      46.033  27.825  32.410  1.00  0.00    -0.203 F 
ATOM     43  C   UNL A   1      48.080  27.373  31.339  1.00  0.00     0.198 A 
ATOM     44  C   UNL A   1      48.529  28.289  29.167  1.00  0.00     0.198 A 
ATOM     45  F   UNL A   1      46.938  29.670  28.119  1.00  0.00    -0.203 F 
ATOM     46  F   UNL A   1      48.472  26.649  32.396  1.00  0.00    -0.200 F 
ATOM     47  C   UNL A   1      48.925  27.519  30.249  1.00  0.00     0.200 A 
ATOM     48  F   UNL A   1      49.339  28.421  28.107  1.00  0.00    -0.200 F 
ATOM     49  F   UNL A   1      50.125  26.922  30.245  1.00  0.00    -0.200 F 
ENDBRANCH  25  39
BRANCH  26  50
ATOM     50  C   UNL A   1      37.185  32.621  30.092  1.00  0.00     0.064 A 
ATOM     51  C   UNL A   1      36.734  33.397  29.016  1.00  0.00     0.173 A 
ATOM     52  C   UNL A   1      36.289  32.373  31.141  1.00  0.00     0.173 A 
ATOM     53  F   UNL A   1      37.560  33.677  27.998  1.00  0.00    -0.203 F 
ATOM     54  C   UNL A   1      35.440  33.914  28.998  1.00  0.00     0.198 A 
ATOM     55  C   UNL A   1      34.987  32.863  31.107  1.00  0.00     0.198 A 
ATOM     56  F   UNL A   1      36.672  31.629  32.189  1.00  0.00    -0.203 F 
ATOM     57  F   UNL A   1      35.044  34.684  27.976  1.00  0.00    -0.200 F 
ATOM     58  C   UNL A   1      34.565  33.639  30.039  1.00  0.00     0.200 A 
ATOM     59  F   UNL A   1      34.140  32.579  32.106  1.00  0.00    -0.200 F 
ATOM     60  F   UNL A   1      33.317  34.126  30.014  1.00  0.00    -0.200 F 
ENDBRANCH  26  50
BRANCH  38  61
ATOM     61  C   UNL A   1      43.354  34.987  32.296  1.00  0.00     0.064 A 
ATOM     62  C   UNL A   1      43.394  35.140  33.690  1.00  0.00     0.173 A 
ATOM     63  C   UNL A   1      43.740  36.078  31.503  1.00  0.00     0.173 A 
ATOM     64  F   UNL A   1      43.016  34.131  34.490  1.00  0.00    -0.203 F 
ATOM     65  C   UNL A   1      43.780  36.347  34.266  1.00  0.00     0.198 A 
ATOM     66  C   UNL A   1      44.153  37.274  32.082  1.00  0.00     0.198 A 
ATOM     67  F   UNL A   1      43.722  35.981  30.165  1.00  0.00    -0.203 F 
ATOM     68  F   UNL A   1      43.763  36.487  35.598  1.00  0.00    -0.200 F 
ATOM     69  C   UNL A   1      44.165  37.411  33.463  1.00  0.00     0.200 A 
ATOM     70  F   UNL A   1      44.535  38.297  31.306  1.00  0.00    -0.200 F 
ATOM     71  F   UNL A   1      44.539  38.570  34.019  1.00  0.00    -0.200 F 
ENDBRANCH  38  61
ENDBRANCH  12  13
ENDBRANCH   5   7
ENDBRANCH   2   3
ENDBRANCH   1   2
BRANCH   1  72
ATOM     72  C   UNL A   1      42.453  20.299  26.266  1.00  0.00     0.118 C 
BRANCH  72  73
ATOM     73  N   UNL A   1      42.656  21.435  25.381  1.00  0.00    -0.352 N 
ATOM     74  C   UNL A   1      43.119  22.697  25.647  1.00  0.00     0.253 C 
ATOM     75  H   UNL A   1      42.422  21.272  24.439  1.00  0.00     0.163 HD
ATOM     76  O   UNL A   1      42.970  23.577  24.803  1.00  0.00    -0.269 OA
BRANCH  74  77
ATOM     77  C   UNL A   1      43.812  23.019  26.915  1.00  0.00     0.063 A 
ATOM     78  C   UNL A   1      43.013  23.005  28.069  1.00  0.00     0.016 A 
ATOM     79  C   UNL A   1      45.166  23.410  26.981  1.00  0.00     0.054 A 
ATOM     80  C   UNL A   1      43.550  23.375  29.299  1.00  0.00     0.001 A 
ATOM     81  C   UNL A   1      45.662  23.843  28.215  1.00  0.00     0.027 A 
ATOM     82  C   UNL A   1      44.870  23.807  29.368  1.00  0.00     0.002 A 
BRANCH  79  83
ATOM     83  N   UNL A   1      45.957  23.386  25.811  1.00  0.00    -0.321 N 
ATOM     84  C   UNL A   1      46.360  24.361  24.930  1.00  0.00     0.255 C 
ATOM     85  H   UNL A   1      46.289  22.489  25.580  1.00  0.00     0.170 HD
ATOM     86  O   UNL A   1      47.025  24.051  23.943  1.00  0.00    -0.269 OA
BRANCH  84  87
ATOM     87  C   UNL A   1      46.081  25.790  25.153  1.00  0.00     0.043 A 
ATOM     88  C   UNL A   1      44.790  26.266  25.376  1.00  0.00     0.034 A 
ATOM     89  C   UNL A   1      47.165  26.666  25.149  1.00  0.00     0.034 A 
ATOM     90  C   UNL A   1      44.630  27.634  25.493  1.00  0.00     0.112 A 
ATOM     91  C   UNL A   1      46.897  28.012  25.288  1.00  0.00     0.112 A 
ATOM     92  N   UNL A   1      45.653  28.516  25.439  1.00  0.00    -0.265 NA
ENDBRANCH  84  87
ENDBRANCH  79  83
ENDBRANCH  74  77
ENDBRANCH  72  73
ENDBRANCH   1  72
TORSDOF 12
ENDMDL
