MODEL 1
REMARK VINA RESULT:     -13.2      0.000      0.000
REMARK SMILES CC(C)c1ccc2c(c1)c(SC(C)(C)C)c(CC(C)(C)C(=O)NCCCNC(=O)c1ccc(-c3c4nc(c(-c5c(F)c(F)c(F)c(F)c5F)c5ccc([nH]5)c(-c5c(F)c(F)c(F)c(F)c5F)c5nc(c(-c6c(F)c(F)c(F)c(F)c6F)c6ccc3[nH]6)C=C5)C=C4)cc1)n2Cc1ccc(Cl)cc1
REMARK SMILES IDX 24 1 23 2 21 3 22 4 18 6 19 7 20 8 17 9 16 10 4 11 5 12 9 13
REMARK SMILES IDX 6 14 8 15 7 16 10 17 93 18 2 19 1 20 3 21 11 22 12 23 13 24
REMARK SMILES IDX 14 25 15 26 94 27 95 28 96 29 101 30 97 31 100 32 98 33
REMARK SMILES IDX 99 34 25 35 26 36 27 37 28 38 29 40 30 41 31 42 92 43 32 44
REMARK SMILES IDX 91 45 33 46 34 47 35 48 85 49 36 50 90 51 84 52 86 53 37 54
REMARK SMILES IDX 89 55 83 56 82 57 38 59 70 60 50 61 69 62 51 63 54 64 68 65
REMARK SMILES IDX 87 66 52 67 53 68 67 70 88 71 55 72 39 73 40 74 48 75 41 76
REMARK SMILES IDX 42 77 46 78 49 79 43 80 44 81 47 82 45 83 71 84 72 85 80 86
REMARK SMILES IDX 73 87 74 88 78 89 81 90 75 91 76 92 79 93 77 94 56 95 57 96
REMARK SMILES IDX 65 97 58 98 59 99 63 100 66 101 60 102 61 103 64 104 62 105
REMARK H PARENT 23 5 27 39 86 58 54 69
REMARK Flexibility Score: inf
ROOT
ATOM      1  C   UNL A   1      37.566  23.745  26.276  1.00  0.00     0.117 C 
ENDROOT
BRANCH   1   2
ATOM      2  N   UNL A   1      37.703  23.631  24.829  1.00  0.00    -0.356 N 
ATOM      3  C   UNL A   1      36.745  23.469  23.869  1.00  0.00     0.226 C 
ATOM      4  O   UNL A   1      37.081  23.743  22.710  1.00  0.00    -0.275 OA
ATOM      5  H   UNL A   1      38.626  23.679  24.493  1.00  0.00     0.163 HD
BRANCH   3   6
ATOM      6  C   UNL A   1      35.308  23.208  24.301  1.00  0.00     0.049 C 
ATOM      7  C   UNL A   1      35.466  21.678  24.520  1.00  0.00     0.022 C 
ATOM      8  C   UNL A   1      34.375  23.783  23.194  1.00  0.00     0.022 C 
BRANCH   6   9
ATOM      9  C   UNL A   1      34.758  23.916  25.577  1.00  0.00     0.071 C 
BRANCH   9  10
ATOM     10  C   UNL A   1      33.506  24.663  25.430  1.00  0.00     0.034 A 
ATOM     11  C   UNL A   1      30.004  27.158  23.688  1.00  0.00    -0.045 A 
ATOM     12  C   UNL A   1      29.405  25.898  23.748  1.00  0.00     0.006 A 
ATOM     13  C   UNL A   1      31.300  27.301  24.239  1.00  0.00     0.015 A 
ATOM     14  C   UNL A   1      30.071  24.786  24.277  1.00  0.00     0.027 A 
ATOM     15  C   UNL A   1      32.008  26.199  24.792  1.00  0.00     0.014 A 
ATOM     16  C   UNL A   1      31.382  24.943  24.758  1.00  0.00     0.050 A 
ATOM     17  C   UNL A   1      33.320  26.036  25.381  1.00  0.00     0.037 A 
ATOM     18  N   UNL A   1      32.286  24.014  25.251  1.00  0.00    -0.339 N 
BRANCH  11  19
ATOM     19  C   UNL A   1      29.343  28.352  23.002  1.00  0.00     0.013 C 
ATOM     20  C   UNL A   1      27.811  28.419  23.116  1.00  0.00     0.012 C 
ATOM     21  C   UNL A   1      29.929  29.682  23.490  1.00  0.00     0.012 C 
ENDBRANCH  11  19
BRANCH  17  22
ATOM     22  S   UNL A   1      34.422  27.421  25.627  1.00  0.00    -0.118 SA
BRANCH  22  23
ATOM     23  C   UNL A   1      33.859  28.923  26.619  1.00  0.00     0.012 C 
ATOM     24  C   UNL A   1      35.010  29.433  27.493  1.00  0.00     0.023 C 
ATOM     25  C   UNL A   1      33.132  30.160  26.030  1.00  0.00     0.023 C 
ATOM     26  C   UNL A   1      32.738  28.327  27.517  1.00  0.00     0.023 C 
ENDBRANCH  22  23
ENDBRANCH  17  22
BRANCH  18  27
ATOM     27  C   UNL A   1      31.917  22.639  25.697  1.00  0.00     0.158 C 
BRANCH  27  28
ATOM     28  C   UNL A   1      32.182  21.471  24.756  1.00  0.00    -0.028 A 
ATOM     29  C   UNL A   1      32.056  21.616  23.359  1.00  0.00     0.007 A 
ATOM     30  C   UNL A   1      32.539  20.203  25.242  1.00  0.00     0.007 A 
ATOM     31  C   UNL A   1      32.048  20.505  22.508  1.00  0.00     0.021 A 
ATOM     32  C   UNL A   1      32.601  19.094  24.380  1.00  0.00     0.021 A 
ATOM     33  C   UNL A   1      32.292  19.241  23.031  1.00  0.00     0.041 A 
ATOM     34  Cl  UNL A   1      32.170  17.861  22.009  1.00  0.00    -0.084 Cl
ENDBRANCH  27  28
ENDBRANCH  18  27
ENDBRANCH   9  10
ENDBRANCH   6   9
ENDBRANCH   3   6
ENDBRANCH   1   2
BRANCH   1  35
ATOM     35  C   UNL A   1      38.884  24.059  26.944  1.00  0.00     0.042 C 
BRANCH  35  36
ATOM     36  C   UNL A   1      39.728  22.802  27.098  1.00  0.00     0.118 C 
BRANCH  36  37
ATOM     37  N   UNL A   1      40.854  22.766  26.185  1.00  0.00    -0.352 N 
ATOM     38  C   UNL A   1      41.887  23.614  25.912  1.00  0.00     0.251 C 
ATOM     39  H   UNL A   1      40.878  21.946  25.640  1.00  0.00     0.163 HD
ATOM     40  O   UNL A   1      42.677  23.255  25.036  1.00  0.00    -0.269 OA
BRANCH  38  41
ATOM     41  C   UNL A   1      42.055  24.956  26.520  1.00  0.00     0.039 A 
ATOM     42  C   UNL A   1      42.675  25.216  27.741  1.00  0.00     0.014 A 
ATOM     43  C   UNL A   1      41.429  26.015  25.840  1.00  0.00     0.014 A 
ATOM     44  C   UNL A   1      42.493  26.431  28.373  1.00  0.00     0.010 A 
ATOM     45  C   UNL A   1      41.304  27.258  26.433  1.00  0.00     0.010 A 
ATOM     46  C   UNL A   1      41.758  27.426  27.735  1.00  0.00    -0.014 A 
BRANCH  46  47
ATOM     47  C   UNL A   1      41.562  28.675  28.452  1.00  0.00     0.031 A 
ATOM     48  C   UNL A   1      42.637  29.684  28.218  1.00  0.00     0.074 A 
ATOM     49  C   UNL A   1      40.447  28.892  29.177  1.00  0.00     0.049 A 
ATOM     50  N   UNL A   1      43.382  30.297  29.083  1.00  0.00    -0.248 NA
ATOM     51  C   UNL A   1      43.019  29.940  26.815  1.00  0.00     0.031 C 
ATOM     52  C   UNL A   1      39.244  28.056  29.269  1.00  0.00     0.029 A 
ATOM     53  N   UNL A   1      40.116  29.973  29.928  1.00  0.00    -0.354 N 
ATOM     54  C   UNL A   1      44.213  31.136  28.342  1.00  0.00     0.074 A 
ATOM     55  C   UNL A   1      44.044  30.778  26.958  1.00  0.00     0.031 C 
ATOM     56  C   UNL A   1      38.240  28.772  29.825  1.00  0.00     0.029 A 
ATOM     57  C   UNL A   1      38.768  30.053  30.258  1.00  0.00     0.049 A 
ATOM     58  H   UNL A   1      40.775  30.646  30.216  1.00  0.00     0.167 HD
ATOM     59  C   UNL A   1      44.836  32.213  28.891  1.00  0.00     0.037 A 
ATOM     60  C   UNL A   1      38.143  31.141  30.772  1.00  0.00     0.037 A 
ATOM     61  C   UNL A   1      44.958  32.093  30.315  1.00  0.00     0.049 A 
ATOM     62  C   UNL A   1      39.200  32.025  31.326  1.00  0.00     0.074 A 
ATOM     63  C   UNL A   1      45.670  31.263  31.156  1.00  0.00     0.029 A 
ATOM     64  N   UNL A   1      43.993  32.676  31.095  1.00  0.00    -0.354 N 
ATOM     65  N   UNL A   1      39.931  31.723  32.362  1.00  0.00    -0.248 NA
ATOM     66  C   UNL A   1      39.743  33.049  30.449  1.00  0.00     0.031 C 
ATOM     67  C   UNL A   1      44.808  31.028  32.266  1.00  0.00     0.029 A 
ATOM     68  C   UNL A   1      43.644  31.772  32.067  1.00  0.00     0.049 A 
ATOM     69  H   UNL A   1      43.619  33.579  30.980  1.00  0.00     0.167 HD
ATOM     70  C   UNL A   1      41.192  32.213  32.060  1.00  0.00     0.074 A 
ATOM     71  C   UNL A   1      40.998  33.083  30.904  1.00  0.00     0.031 C 
ATOM     72  C   UNL A   1      42.309  31.646  32.601  1.00  0.00     0.037 A 
BRANCH  59  73
ATOM     73  C   UNL A   1      45.041  33.507  28.149  1.00  0.00     0.064 A 
ATOM     74  C   UNL A   1      46.338  33.959  27.847  1.00  0.00     0.173 A 
ATOM     75  C   UNL A   1      44.005  34.448  27.954  1.00  0.00     0.173 A 
ATOM     76  F   UNL A   1      47.401  33.165  28.045  1.00  0.00    -0.203 F 
ATOM     77  C   UNL A   1      46.576  35.265  27.405  1.00  0.00     0.198 A 
ATOM     78  C   UNL A   1      44.240  35.728  27.461  1.00  0.00     0.198 A 
ATOM     79  F   UNL A   1      42.745  34.199  28.334  1.00  0.00    -0.203 F 
ATOM     80  F   UNL A   1      47.835  35.687  27.222  1.00  0.00    -0.200 F 
ATOM     81  C   UNL A   1      45.527  36.146  27.207  1.00  0.00     0.200 A 
ATOM     82  F   UNL A   1      43.210  36.572  27.304  1.00  0.00    -0.200 F 
ATOM     83  F   UNL A   1      45.758  37.408  26.823  1.00  0.00    -0.200 F 
ENDBRANCH  59  73
BRANCH  60  84
ATOM     84  C   UNL A   1      36.790  31.662  30.458  1.00  0.00     0.064 A 
ATOM     85  C   UNL A   1      35.891  31.972  31.493  1.00  0.00     0.173 A 
ATOM     86  C   UNL A   1      36.475  32.169  29.183  1.00  0.00     0.173 A 
ATOM     87  F   UNL A   1      36.139  31.558  32.744  1.00  0.00    -0.203 F 
ATOM     88  C   UNL A   1      34.775  32.785  31.277  1.00  0.00     0.198 A 
ATOM     89  C   UNL A   1      35.356  32.976  28.967  1.00  0.00     0.198 A 
ATOM     90  F   UNL A   1      37.301  31.982  28.144  1.00  0.00    -0.203 F 
ATOM     91  F   UNL A   1      33.986  33.125  32.307  1.00  0.00    -0.200 F 
ATOM     92  C   UNL A   1      34.518  33.301  30.018  1.00  0.00     0.200 A 
ATOM     93  F   UNL A   1      35.137  33.498  27.752  1.00  0.00    -0.200 F 
ATOM     94  F   UNL A   1      33.492  34.143  29.826  1.00  0.00    -0.200 F 
ENDBRANCH  60  84
BRANCH  72  95
ATOM     95  C   UNL A   1      42.104  30.630  33.693  1.00  0.00     0.064 A 
ATOM     96  C   UNL A   1      41.887  29.260  33.458  1.00  0.00     0.173 A 
ATOM     97  C   UNL A   1      42.276  31.034  35.023  1.00  0.00     0.173 A 
ATOM     98  F   UNL A   1      41.810  28.780  32.212  1.00  0.00    -0.203 F 
ATOM     99  C   UNL A   1      41.809  28.347  34.509  1.00  0.00     0.198 A 
ATOM    100  C   UNL A   1      42.234  30.116  36.068  1.00  0.00     0.198 A 
ATOM    101  F   UNL A   1      42.541  32.320  35.303  1.00  0.00    -0.203 F 
ATOM    102  F   UNL A   1      41.600  27.046  34.258  1.00  0.00    -0.200 F 
ATOM    103  C   UNL A   1      41.993  28.775  35.813  1.00  0.00     0.200 A 
ATOM    104  F   UNL A   1      42.464  30.526  37.323  1.00  0.00    -0.200 F 
ATOM    105  F   UNL A   1      41.970  27.892  36.821  1.00  0.00    -0.200 F 
ENDBRANCH  72  95
ENDBRANCH  46  47
ENDBRANCH  38  41
ENDBRANCH  36  37
ENDBRANCH  35  36
ENDBRANCH   1  35
TORSDOF 17
ENDMDL
MODEL 2
REMARK VINA RESULT:     -12.2      5.078      9.726
REMARK SMILES CC(C)c1ccc2c(c1)c(SC(C)(C)C)c(CC(C)(C)C(=O)NCCCNC(=O)c1ccc(-c3c4nc(c(-c5c(F)c(F)c(F)c(F)c5F)c5ccc([nH]5)c(-c5c(F)c(F)c(F)c(F)c5F)c5nc(c(-c6c(F)c(F)c(F)c(F)c6F)c6ccc3[nH]6)C=C5)C=C4)cc1)n2Cc1ccc(Cl)cc1
REMARK SMILES IDX 24 1 23 2 21 3 22 4 18 6 19 7 20 8 17 9 16 10 4 11 5 12 9 13
REMARK SMILES IDX 6 14 8 15 7 16 10 17 93 18 2 19 1 20 3 21 11 22 12 23 13 24
REMARK SMILES IDX 14 25 15 26 94 27 95 28 96 29 101 30 97 31 100 32 98 33
REMARK SMILES IDX 99 34 25 35 26 36 27 37 28 38 29 40 30 41 31 42 92 43 32 44
REMARK SMILES IDX 91 45 33 46 34 47 35 48 85 49 36 50 90 51 84 52 86 53 37 54
REMARK SMILES IDX 89 55 83 56 82 57 38 59 70 60 50 61 69 62 51 63 54 64 68 65
REMARK SMILES IDX 87 66 52 67 53 68 67 70 88 71 55 72 39 73 40 74 48 75 41 76
REMARK SMILES IDX 42 77 46 78 49 79 43 80 44 81 47 82 45 83 71 84 72 85 80 86
REMARK SMILES IDX 73 87 74 88 78 89 81 90 75 91 76 92 79 93 77 94 56 95 57 96
REMARK SMILES IDX 65 97 58 98 59 99 63 100 66 101 60 102 61 103 64 104 62 105
REMARK H PARENT 23 5 27 39 86 58 54 69
REMARK Flexibility Score: inf
ROOT
ATOM      1  C   UNL A   1      45.413  22.308  25.858  1.00  0.00     0.117 C 
ENDROOT
BRANCH   1   2
ATOM      2  N   UNL A   1      46.085  23.146  24.873  1.00  0.00    -0.356 N 
ATOM      3  C   UNL A   1      46.545  24.429  24.983  1.00  0.00     0.226 C 
ATOM      4  O   UNL A   1      47.370  24.787  24.134  1.00  0.00    -0.275 OA
ATOM      5  H   UNL A   1      46.231  22.725  23.997  1.00  0.00     0.163 HD
BRANCH   3   6
ATOM      6  C   UNL A   1      46.210  25.225  26.237  1.00  0.00     0.049 C 
ATOM      7  C   UNL A   1      46.551  24.102  27.254  1.00  0.00     0.022 C 
ATOM      8  C   UNL A   1      44.758  25.766  26.074  1.00  0.00     0.022 C 
BRANCH   6   9
ATOM      9  C   UNL A   1      47.003  26.534  26.540  1.00  0.00     0.071 C 
BRANCH   9  10
ATOM     10  C   UNL A   1      47.710  26.596  27.821  1.00  0.00     0.034 A 
ATOM     11  C   UNL A   1      50.577  27.829  31.253  1.00  0.00    -0.045 A 
ATOM     12  C   UNL A   1      49.375  28.349  31.736  1.00  0.00     0.006 A 
ATOM     13  C   UNL A   1      50.535  27.057  30.068  1.00  0.00     0.015 A 
ATOM     14  C   UNL A   1      48.165  28.173  31.053  1.00  0.00     0.027 A 
ATOM     15  C   UNL A   1      49.327  26.849  29.347  1.00  0.00     0.014 A 
ATOM     16  C   UNL A   1      48.164  27.457  29.845  1.00  0.00     0.050 A 
ATOM     17  C   UNL A   1      48.989  26.155  28.123  1.00  0.00     0.037 A 
ATOM     18  N   UNL A   1      47.144  27.206  28.939  1.00  0.00    -0.339 N 
BRANCH  11  19
ATOM     19  C   UNL A   1      51.923  28.116  31.916  1.00  0.00     0.013 C 
ATOM     20  C   UNL A   1      51.872  28.403  33.426  1.00  0.00     0.012 C 
ATOM     21  C   UNL A   1      52.929  26.987  31.668  1.00  0.00     0.012 C 
ENDBRANCH  11  19
BRANCH  17  22
ATOM     22  S   UNL A   1      50.205  25.226  27.200  1.00  0.00    -0.118 SA
BRANCH  22  23
ATOM     23  C   UNL A   1      51.469  26.118  26.122  1.00  0.00     0.012 C 
ATOM     24  C   UNL A   1      50.778  26.705  24.885  1.00  0.00     0.023 C 
ATOM     25  C   UNL A   1      52.494  27.165  26.629  1.00  0.00     0.023 C 
ATOM     26  C   UNL A   1      52.419  24.963  25.698  1.00  0.00     0.023 C 
ENDBRANCH  22  23
ENDBRANCH  17  22
BRANCH  18  27
ATOM     27  C   UNL A   1      45.693  27.379  29.239  1.00  0.00     0.158 C 
BRANCH  27  28
ATOM     28  C   UNL A   1      45.070  26.529  30.339  1.00  0.00    -0.028 A 
ATOM     29  C   UNL A   1      44.519  27.120  31.495  1.00  0.00     0.007 A 
ATOM     30  C   UNL A   1      45.041  25.127  30.255  1.00  0.00     0.007 A 
ATOM     31  C   UNL A   1      44.177  26.353  32.614  1.00  0.00     0.021 A 
ATOM     32  C   UNL A   1      44.631  24.350  31.354  1.00  0.00     0.021 A 
ATOM     33  C   UNL A   1      44.264  24.968  32.547  1.00  0.00     0.041 A 
ATOM     34  Cl  UNL A   1      43.955  24.028  33.954  1.00  0.00    -0.084 Cl
ENDBRANCH  27  28
ENDBRANCH  18  27
ENDBRANCH   9  10
ENDBRANCH   6   9
ENDBRANCH   3   6
ENDBRANCH   1   2
BRANCH   1  35
ATOM     35  C   UNL A   1      44.221  21.592  25.268  1.00  0.00     0.042 C 
BRANCH  35  36
ATOM     36  C   UNL A   1      43.126  22.579  24.887  1.00  0.00     0.118 C 
BRANCH  36  37
ATOM     37  N   UNL A   1      41.861  22.291  25.533  1.00  0.00    -0.352 N 
ATOM     38  C   UNL A   1      41.026  22.994  26.351  1.00  0.00     0.251 C 
ATOM     39  H   UNL A   1      41.530  21.385  25.338  1.00  0.00     0.163 HD
ATOM     40  O   UNL A   1      40.010  22.411  26.733  1.00  0.00    -0.269 OA
BRANCH  38  41
ATOM     41  C   UNL A   1      41.312  24.352  26.875  1.00  0.00     0.039 A 
ATOM     42  C   UNL A   1      41.959  24.632  28.078  1.00  0.00     0.014 A 
ATOM     43  C   UNL A   1      40.777  25.417  26.129  1.00  0.00     0.014 A 
ATOM     44  C   UNL A   1      41.886  25.896  28.633  1.00  0.00     0.010 A 
ATOM     45  C   UNL A   1      40.763  26.700  26.644  1.00  0.00     0.010 A 
ATOM     46  C   UNL A   1      41.236  26.909  27.934  1.00  0.00    -0.014 A 
BRANCH  46  47
ATOM     47  C   UNL A   1      41.153  28.213  28.571  1.00  0.00     0.031 A 
ATOM     48  C   UNL A   1      42.271  29.135  28.215  1.00  0.00     0.074 A 
ATOM     49  C   UNL A   1      40.093  28.545  29.334  1.00  0.00     0.049 A 
ATOM     50  N   UNL A   1      43.096  29.756  28.997  1.00  0.00    -0.248 NA
ATOM     51  C   UNL A   1      42.590  29.274  26.780  1.00  0.00     0.031 C 
ATOM     52  C   UNL A   1      38.850  27.794  29.544  1.00  0.00     0.029 A 
ATOM     53  N   UNL A   1      39.866  29.692  30.025  1.00  0.00    -0.354 N 
ATOM     54  C   UNL A   1      43.933  30.492  28.159  1.00  0.00     0.074 A 
ATOM     55  C   UNL A   1      43.669  30.055  26.814  1.00  0.00     0.031 C 
ATOM     56  C   UNL A   1      37.922  28.606  30.099  1.00  0.00     0.029 A 
ATOM     57  C   UNL A   1      38.545  29.877  30.415  1.00  0.00     0.049 A 
ATOM     58  H   UNL A   1      40.579  30.340  30.232  1.00  0.00     0.167 HD
ATOM     59  C   UNL A   1      44.647  31.562  28.601  1.00  0.00     0.037 A 
ATOM     60  C   UNL A   1      38.014  31.033  30.883  1.00  0.00     0.037 A 
ATOM     61  C   UNL A   1      44.838  31.529  30.022  1.00  0.00     0.049 A 
ATOM     62  C   UNL A   1      39.149  31.884  31.322  1.00  0.00     0.074 A 
ATOM     63  C   UNL A   1      45.545  30.713  30.882  1.00  0.00     0.029 A 
ATOM     64  N   UNL A   1      43.953  32.221  30.807  1.00  0.00    -0.354 N 
ATOM     65  N   UNL A   1      39.916  31.607  32.338  1.00  0.00    -0.248 NA
ATOM     66  C   UNL A   1      39.703  32.813  30.349  1.00  0.00     0.031 C 
ATOM     67  C   UNL A   1      44.732  30.606  32.047  1.00  0.00     0.029 A 
ATOM     68  C   UNL A   1      43.604  31.406  31.855  1.00  0.00     0.049 A 
ATOM     69  H   UNL A   1      43.627  33.136  30.648  1.00  0.00     0.167 HD
ATOM     70  C   UNL A   1      41.186  31.997  31.940  1.00  0.00     0.074 A 
ATOM     71  C   UNL A   1      40.981  32.799  30.738  1.00  0.00     0.031 C 
ATOM     72  C   UNL A   1      42.295  31.399  32.463  1.00  0.00     0.037 A 
BRANCH  59  73
ATOM     73  C   UNL A   1      44.887  32.789  27.761  1.00  0.00     0.064 A 
ATOM     74  C   UNL A   1      46.114  32.973  27.100  1.00  0.00     0.173 A 
ATOM     75  C   UNL A   1      44.038  33.918  27.800  1.00  0.00     0.173 A 
ATOM     76  F   UNL A   1      47.018  31.982  27.049  1.00  0.00    -0.203 F 
ATOM     77  C   UNL A   1      46.470  34.205  26.540  1.00  0.00     0.198 A 
ATOM     78  C   UNL A   1      44.371  35.126  27.193  1.00  0.00     0.198 A 
ATOM     79  F   UNL A   1      42.906  33.926  28.516  1.00  0.00    -0.203 F 
ATOM     80  F   UNL A   1      47.688  34.366  26.005  1.00  0.00    -0.200 F 
ATOM     81  C   UNL A   1      45.596  35.278  26.582  1.00  0.00     0.200 A 
ATOM     82  F   UNL A   1      43.521  36.159  27.272  1.00  0.00    -0.200 F 
ATOM     83  F   UNL A   1      45.952  36.468  26.083  1.00  0.00    -0.200 F 
ENDBRANCH  59  73
BRANCH  60  84
ATOM     84  C   UNL A   1      36.678  31.615  30.602  1.00  0.00     0.064 A 
ATOM     85  C   UNL A   1      35.839  32.007  31.658  1.00  0.00     0.173 A 
ATOM     86  C   UNL A   1      36.341  32.096  29.323  1.00  0.00     0.173 A 
ATOM     87  F   UNL A   1      36.114  31.622  32.914  1.00  0.00    -0.203 F 
ATOM     88  C   UNL A   1      34.759  32.871  31.456  1.00  0.00     0.198 A 
ATOM     89  C   UNL A   1      35.258  32.953  29.121  1.00  0.00     0.198 A 
ATOM     90  F   UNL A   1      37.114  31.830  28.261  1.00  0.00    -0.203 F 
ATOM     91  F   UNL A   1      34.031  33.288  32.502  1.00  0.00    -0.200 F 
ATOM     92  C   UNL A   1      34.480  33.358  30.190  1.00  0.00     0.200 A 
ATOM     93  F   UNL A   1      35.019  33.445  27.897  1.00  0.00    -0.200 F 
ATOM     94  F   UNL A   1      33.493  34.247  30.007  1.00  0.00    -0.200 F 
ENDBRANCH  60  84
BRANCH  72  95
ATOM     95  C   UNL A   1      42.090  30.472  33.632  1.00  0.00     0.064 A 
ATOM     96  C   UNL A   1      41.785  29.105  33.502  1.00  0.00     0.173 A 
ATOM     97  C   UNL A   1      42.354  30.953  34.920  1.00  0.00     0.173 A 
ATOM     98  F   UNL A   1      41.616  28.548  32.298  1.00  0.00    -0.203 F 
ATOM     99  C   UNL A   1      41.711  28.270  34.617  1.00  0.00     0.198 A 
ATOM    100  C   UNL A   1      42.315  30.110  36.027  1.00  0.00     0.198 A 
ATOM    101  F   UNL A   1      42.705  32.236  35.097  1.00  0.00    -0.203 F 
ATOM    102  F   UNL A   1      41.416  26.969  34.467  1.00  0.00    -0.200 F 
ATOM    103  C   UNL A   1      41.986  28.772  35.878  1.00  0.00     0.200 A 
ATOM    104  F   UNL A   1      42.632  30.588  37.238  1.00  0.00    -0.200 F 
ATOM    105  F   UNL A   1      41.966  27.961  36.945  1.00  0.00    -0.200 F 
ENDBRANCH  72  95
ENDBRANCH  46  47
ENDBRANCH  38  41
ENDBRANCH  36  37
ENDBRANCH  35  36
ENDBRANCH   1  35
TORSDOF 17
ENDMDL
MODEL 3
REMARK VINA RESULT:     -12.2      5.958     12.597
REMARK SMILES CC(C)c1ccc2c(c1)c(SC(C)(C)C)c(CC(C)(C)C(=O)NCCCNC(=O)c1ccc(-c3c4nc(c(-c5c(F)c(F)c(F)c(F)c5F)c5ccc([nH]5)c(-c5c(F)c(F)c(F)c(F)c5F)c5nc(c(-c6c(F)c(F)c(F)c(F)c6F)c6ccc3[nH]6)C=C5)C=C4)cc1)n2Cc1ccc(Cl)cc1
REMARK SMILES IDX 24 1 23 2 21 3 22 4 18 6 19 7 20 8 17 9 16 10 4 11 5 12 9 13
REMARK SMILES IDX 6 14 8 15 7 16 10 17 93 18 2 19 1 20 3 21 11 22 12 23 13 24
REMARK SMILES IDX 14 25 15 26 94 27 95 28 96 29 101 30 97 31 100 32 98 33
REMARK SMILES IDX 99 34 25 35 26 36 27 37 28 38 29 40 30 41 31 42 92 43 32 44
REMARK SMILES IDX 91 45 33 46 34 47 35 48 85 49 36 50 90 51 84 52 86 53 37 54
REMARK SMILES IDX 89 55 83 56 82 57 38 59 70 60 50 61 69 62 51 63 54 64 68 65
REMARK SMILES IDX 87 66 52 67 53 68 67 70 88 71 55 72 39 73 40 74 48 75 41 76
REMARK SMILES IDX 42 77 46 78 49 79 43 80 44 81 47 82 45 83 71 84 72 85 80 86
REMARK SMILES IDX 73 87 74 88 78 89 81 90 75 91 76 92 79 93 77 94 56 95 57 96
REMARK SMILES IDX 65 97 58 98 59 99 63 100 66 101 60 102 61 103 64 104 62 105
REMARK H PARENT 23 5 27 39 86 58 54 69
REMARK Flexibility Score: inf
ROOT
ATOM      1  C   UNL A   1      36.650  32.048  33.373  1.00  0.00     0.117 C 
ENDROOT
BRANCH   1   2
ATOM      2  N   UNL A   1      37.409  30.942  33.943  1.00  0.00    -0.356 N 
ATOM      3  C   UNL A   1      38.492  30.961  34.776  1.00  0.00     0.226 C 
ATOM      4  O   UNL A   1      38.733  29.910  35.382  1.00  0.00    -0.275 OA
ATOM      5  H   UNL A   1      37.092  30.046  33.691  1.00  0.00     0.163 HD
BRANCH   3   6
ATOM      6  C   UNL A   1      39.162  32.294  35.081  1.00  0.00     0.049 C 
ATOM      7  C   UNL A   1      40.543  31.709  35.486  1.00  0.00     0.022 C 
ATOM      8  C   UNL A   1      38.261  33.047  36.105  1.00  0.00     0.022 C 
BRANCH   6   9
ATOM      9  C   UNL A   1      39.299  33.353  33.943  1.00  0.00     0.071 C 
BRANCH   9  10
ATOM     10  C   UNL A   1      40.561  34.094  33.879  1.00  0.00     0.034 A 
ATOM     11  C   UNL A   1      44.833  35.669  34.765  1.00  0.00    -0.045 A 
ATOM     12  C   UNL A   1      45.091  34.865  33.653  1.00  0.00     0.006 A 
ATOM     13  C   UNL A   1      43.485  35.844  35.155  1.00  0.00     0.015 A 
ATOM     14  C   UNL A   1      44.068  34.198  32.968  1.00  0.00     0.027 A 
ATOM     15  C   UNL A   1      42.415  35.192  34.483  1.00  0.00     0.014 A 
ATOM     16  C   UNL A   1      42.744  34.340  33.417  1.00  0.00     0.050 A 
ATOM     17  C   UNL A   1      40.980  35.154  34.668  1.00  0.00     0.037 A 
ATOM     18  N   UNL A   1      41.570  33.742  32.985  1.00  0.00    -0.339 N 
BRANCH  11  19
ATOM     19  C   UNL A   1      45.946  36.300  35.599  1.00  0.00     0.013 C 
ATOM     20  C   UNL A   1      47.341  36.308  34.950  1.00  0.00     0.012 C 
ATOM     21  C   UNL A   1      45.595  37.732  36.019  1.00  0.00     0.012 C 
ENDBRANCH  11  19
BRANCH  17  22
ATOM     22  S   UNL A   1      40.165  36.135  35.920  1.00  0.00    -0.118 SA
BRANCH  22  23
ATOM     23  C   UNL A   1      40.727  36.045  37.718  1.00  0.00     0.012 C 
ATOM     24  C   UNL A   1      41.054  34.594  38.090  1.00  0.00     0.023 C 
ATOM     25  C   UNL A   1      41.808  36.951  38.362  1.00  0.00     0.023 C 
ATOM     26  C   UNL A   1      39.459  36.514  38.486  1.00  0.00     0.023 C 
ENDBRANCH  22  23
ENDBRANCH  17  22
BRANCH  18  27
ATOM     27  C   UNL A   1      41.418  33.038  31.679  1.00  0.00     0.158 C 
BRANCH  27  28
ATOM     28  C   UNL A   1      41.553  33.845  30.395  1.00  0.00    -0.028 A 
ATOM     29  C   UNL A   1      42.787  33.942  29.719  1.00  0.00     0.007 A 
ATOM     30  C   UNL A   1      40.463  34.542  29.848  1.00  0.00     0.007 A 
ATOM     31  C   UNL A   1      42.987  34.873  28.694  1.00  0.00     0.021 A 
ATOM     32  C   UNL A   1      40.644  35.428  28.771  1.00  0.00     0.021 A 
ATOM     33  C   UNL A   1      41.916  35.635  28.244  1.00  0.00     0.041 A 
ATOM     34  Cl  UNL A   1      42.181  36.860  27.064  1.00  0.00    -0.084 Cl
ENDBRANCH  27  28
ENDBRANCH  18  27
ENDBRANCH   9  10
ENDBRANCH   6   9
ENDBRANCH   3   6
ENDBRANCH   1   2
BRANCH   1  35
ATOM     35  C   UNL A   1      35.795  31.604  32.209  1.00  0.00     0.042 C 
BRANCH  35  36
ATOM     36  C   UNL A   1      35.501  32.770  31.275  1.00  0.00     0.118 C 
BRANCH  36  37
ATOM     37  N   UNL A   1      34.788  32.364  30.079  1.00  0.00    -0.352 N 
ATOM     38  C   UNL A   1      35.083  31.557  29.021  1.00  0.00     0.251 C 
ATOM     39  H   UNL A   1      33.889  32.761  30.017  1.00  0.00     0.163 HD
ATOM     40  O   UNL A   1      34.216  31.449  28.151  1.00  0.00    -0.269 OA
BRANCH  38  41
ATOM     41  C   UNL A   1      36.394  30.895  28.810  1.00  0.00     0.039 A 
ATOM     42  C   UNL A   1      36.577  29.550  28.493  1.00  0.00     0.014 A 
ATOM     43  C   UNL A   1      37.524  31.690  29.067  1.00  0.00     0.014 A 
ATOM     44  C   UNL A   1      37.818  28.959  28.641  1.00  0.00     0.010 A 
ATOM     45  C   UNL A   1      38.783  31.122  29.147  1.00  0.00     0.010 A 
ATOM     46  C   UNL A   1      38.902  29.743  29.024  1.00  0.00    -0.014 A 
BRANCH  46  47
ATOM     47  C   UNL A   1      40.180  29.073  29.202  1.00  0.00     0.031 A 
ATOM     48  C   UNL A   1      40.546  28.835  30.630  1.00  0.00     0.074 A 
ATOM     49  C   UNL A   1      40.892  28.643  28.143  1.00  0.00     0.049 A 
ATOM     50  N   UNL A   1      41.614  29.194  31.269  1.00  0.00    -0.248 NA
ATOM     51  C   UNL A   1      39.513  28.227  31.492  1.00  0.00     0.031 C 
ATOM     52  C   UNL A   1      40.500  28.625  26.729  1.00  0.00     0.029 A 
ATOM     53  N   UNL A   1      42.106  28.035  28.122  1.00  0.00    -0.354 N 
ATOM     54  C   UNL A   1      41.459  28.715  32.569  1.00  0.00     0.074 A 
ATOM     55  C   UNL A   1      40.101  28.253  32.686  1.00  0.00     0.031 C 
ATOM     56  C   UNL A   1      41.343  27.824  26.038  1.00  0.00     0.029 A 
ATOM     57  C   UNL A   1      42.409  27.397  26.924  1.00  0.00     0.049 A 
ATOM     58  H   UNL A   1      42.721  28.045  28.890  1.00  0.00     0.167 HD
ATOM     59  C   UNL A   1      42.513  28.535  33.409  1.00  0.00     0.037 A 
ATOM     60  C   UNL A   1      43.423  26.518  26.732  1.00  0.00     0.037 A 
ATOM     61  C   UNL A   1      43.645  29.329  33.025  1.00  0.00     0.049 A 
ATOM     62  C   UNL A   1      44.382  26.714  27.849  1.00  0.00     0.074 A 
ATOM     63  C   UNL A   1      43.909  30.683  32.996  1.00  0.00     0.029 A 
ATOM     64  N   UNL A   1      44.604  28.744  32.239  1.00  0.00    -0.354 N 
ATOM     65  N   UNL A   1      45.097  27.791  28.013  1.00  0.00    -0.248 NA
ATOM     66  C   UNL A   1      44.209  25.886  29.032  1.00  0.00     0.031 C 
ATOM     67  C   UNL A   1      44.702  30.883  31.829  1.00  0.00     0.029 A 
ATOM     68  C   UNL A   1      44.924  29.634  31.245  1.00  0.00     0.049 A 
ATOM     69  H   UNL A   1      44.993  27.849  32.366  1.00  0.00     0.167 HD
ATOM     70  C   UNL A   1      45.126  27.991  29.385  1.00  0.00     0.074 A 
ATOM     71  C   UNL A   1      44.626  26.747  29.963  1.00  0.00     0.031 C 
ATOM     72  C   UNL A   1      45.287  29.241  29.904  1.00  0.00     0.037 A 
BRANCH  59  73
ATOM     73  C   UNL A   1      42.596  27.394  34.388  1.00  0.00     0.064 A 
ATOM     74  C   UNL A   1      43.073  26.136  33.980  1.00  0.00     0.173 A 
ATOM     75  C   UNL A   1      41.971  27.430  35.655  1.00  0.00     0.173 A 
ATOM     76  F   UNL A   1      43.636  25.978  32.773  1.00  0.00    -0.203 F 
ATOM     77  C   UNL A   1      42.914  24.996  34.776  1.00  0.00     0.198 A 
ATOM     78  C   UNL A   1      41.865  26.305  36.469  1.00  0.00     0.198 A 
ATOM     79  F   UNL A   1      41.347  28.526  36.104  1.00  0.00    -0.203 F 
ATOM     80  F   UNL A   1      43.296  23.799  34.309  1.00  0.00    -0.200 F 
ATOM     81  C   UNL A   1      42.316  25.083  36.022  1.00  0.00     0.200 A 
ATOM     82  F   UNL A   1      41.256  26.408  37.659  1.00  0.00    -0.200 F 
ATOM     83  F   UNL A   1      42.127  23.986  36.766  1.00  0.00    -0.200 F 
ENDBRANCH  59  73
BRANCH  60  84
ATOM     84  C   UNL A   1      43.426  25.274  25.924  1.00  0.00     0.064 A 
ATOM     85  C   UNL A   1      44.519  24.968  25.095  1.00  0.00     0.173 A 
ATOM     86  C   UNL A   1      42.530  24.222  26.192  1.00  0.00     0.173 A 
ATOM     87  F   UNL A   1      45.438  25.906  24.822  1.00  0.00    -0.203 F 
ATOM     88  C   UNL A   1      44.732  23.675  24.609  1.00  0.00     0.198 A 
ATOM     89  C   UNL A   1      42.741  22.932  25.701  1.00  0.00     0.198 A 
ATOM     90  F   UNL A   1      41.491  24.395  27.022  1.00  0.00    -0.203 F 
ATOM     91  F   UNL A   1      45.831  23.404  23.890  1.00  0.00    -0.200 F 
ATOM     92  C   UNL A   1      43.853  22.654  24.927  1.00  0.00     0.200 A 
ATOM     93  F   UNL A   1      41.901  21.944  26.044  1.00  0.00    -0.200 F 
ATOM     94  F   UNL A   1      44.098  21.398  24.527  1.00  0.00    -0.200 F 
ENDBRANCH  60  84
BRANCH  72  95
ATOM     95  C   UNL A   1      45.649  30.343  28.945  1.00  0.00     0.064 A 
ATOM     96  C   UNL A   1      46.967  30.635  28.550  1.00  0.00     0.173 A 
ATOM     97  C   UNL A   1      44.617  31.030  28.295  1.00  0.00     0.173 A 
ATOM     98  F   UNL A   1      48.003  29.954  29.052  1.00  0.00    -0.203 F 
ATOM     99  C   UNL A   1      47.237  31.597  27.577  1.00  0.00     0.198 A 
ATOM    100  C   UNL A   1      44.886  31.964  27.298  1.00  0.00     0.198 A 
ATOM    101  F   UNL A   1      43.337  30.752  28.590  1.00  0.00    -0.203 F 
ATOM    102  F   UNL A   1      48.503  31.858  27.219  1.00  0.00    -0.200 F 
ATOM    103  C   UNL A   1      46.194  32.254  26.944  1.00  0.00     0.200 A 
ATOM    104  F   UNL A   1      43.873  32.558  26.652  1.00  0.00    -0.200 F 
ATOM    105  F   UNL A   1      46.448  33.141  25.973  1.00  0.00    -0.200 F 
ENDBRANCH  72  95
ENDBRANCH  46  47
ENDBRANCH  38  41
ENDBRANCH  36  37
ENDBRANCH  35  36
ENDBRANCH   1  35
TORSDOF 17
ENDMDL
