MODEL 1
REMARK VINA RESULT:     -12.7      0.000      0.000
REMARK SMILES [NH3+]Cc1c(-c2ccccc2)c(C(=O)NCCCNC(=O)c2ccc(-c3c4nc(c(-c5c(F)c(F)c(F)c(F)c5F)c5ccc([nH]5)c(-c5c(F)c(F)c(F)c(F)c5F)c5nc(c(-c6c(F)c(F)c(F)c(F)c6F)c6ccc3[nH]6)C=C5)C=C4)cc2)c2ccccn12
REMARK SMILES IDX 16 1 15 2 14 3 12 4 13 5 11 7 3 8 4 9 89 10 84 11 88 12
REMARK SMILES IDX 85 13 87 14 86 15 2 16 1 17 5 21 6 22 10 23 7 24 9 25 8 26
REMARK SMILES IDX 17 27 18 28 19 29 20 31 21 32 22 33 83 34 23 35 82 36 24 37
REMARK SMILES IDX 25 38 26 39 76 40 27 41 81 42 75 43 77 44 28 45 80 46 74 47
REMARK SMILES IDX 73 48 29 50 61 51 41 52 60 53 42 54 45 55 59 56 78 57 43 58
REMARK SMILES IDX 44 59 58 61 79 62 46 63 30 64 31 65 39 66 32 67 33 68 37 69
REMARK SMILES IDX 40 70 34 71 35 72 38 73 36 74 62 75 63 76 71 77 64 78 65 79
REMARK SMILES IDX 69 80 72 81 66 82 67 83 70 84 68 85 47 86 48 87 56 88 49 89
REMARK SMILES IDX 50 90 54 91 57 92 51 93 52 94 55 95 53 96
REMARK H PARENT 14 6 1 18 1 19 1 20 18 30 77 49 45 60
REMARK Flexibility Score: inf
ROOT
ATOM      1  C   UNL A   1      32.563  29.876  25.542  1.00  0.00     0.042 C 
ENDROOT
BRANCH   1   2
ATOM      2  C   UNL A   1      33.821  29.040  25.388  1.00  0.00     0.118 C 
BRANCH   2   3
ATOM      3  N   UNL A   1      34.197  28.725  24.028  1.00  0.00    -0.352 N 
ATOM      4  C   UNL A   1      33.581  27.963  23.060  1.00  0.00     0.254 C 
ATOM      5  O   UNL A   1      34.127  27.980  21.956  1.00  0.00    -0.269 OA
ATOM      6  H   UNL A   1      35.048  29.129  23.742  1.00  0.00     0.163 HD
BRANCH   4   7
ATOM      7  C   UNL A   1      32.411  27.116  23.332  1.00  0.00     0.073 A 
ATOM      8  C   UNL A   1      31.187  25.288  24.026  1.00  0.00     0.086 A 
ATOM      9  C   UNL A   1      32.479  25.751  23.805  1.00  0.00     0.022 A 
ATOM     10  N   UNL A   1      30.329  26.327  23.728  1.00  0.00    -0.314 N 
ATOM     11  C   UNL A   1      31.055  27.346  23.109  1.00  0.00     0.059 A 
ATOM     12  C   UNL A   1      28.952  26.425  23.971  1.00  0.00     0.092 A 
ATOM     13  C   UNL A   1      30.277  28.361  22.463  1.00  0.00     0.027 A 
ATOM     14  C   UNL A   1      28.268  27.491  23.530  1.00  0.00     0.018 A 
ATOM     15  C   UNL A   1      28.957  28.461  22.704  1.00  0.00     0.004 A 
BRANCH   8  16
ATOM     16  C   UNL A   1      30.694  23.949  24.465  1.00  0.00     0.315 C 
BRANCH  16  17
ATOM     17  N   UNL A   1      30.508  23.925  25.908  1.00  0.00    -0.353 N 
ATOM     18  H   UNL A   1      29.513  23.850  26.120  1.00  0.00     0.344 HD
ATOM     19  H   UNL A   1      30.880  24.783  26.314  1.00  0.00     0.344 HD
ATOM     20  H   UNL A   1      31.001  23.122  26.301  1.00  0.00     0.344 HD
ENDBRANCH  16  17
ENDBRANCH   8  16
BRANCH   9  21
ATOM     21  C   UNL A   1      33.654  24.912  24.007  1.00  0.00    -0.016 A 
ATOM     22  C   UNL A   1      34.425  25.022  25.167  1.00  0.00     0.009 A 
ATOM     23  C   UNL A   1      34.035  24.005  23.009  1.00  0.00     0.009 A 
ATOM     24  C   UNL A   1      35.564  24.229  25.328  1.00  0.00     0.001 A 
ATOM     25  C   UNL A   1      35.169  23.208  23.175  1.00  0.00     0.001 A 
ATOM     26  C   UNL A   1      35.935  23.322  24.333  1.00  0.00     0.000 A 
ENDBRANCH   9  21
ENDBRANCH   4   7
ENDBRANCH   2   3
ENDBRANCH   1   2
BRANCH   1  27
ATOM     27  C   UNL A   1      32.315  30.451  26.926  1.00  0.00     0.118 C 
BRANCH  27  28
ATOM     28  N   UNL A   1      32.516  31.891  27.018  1.00  0.00    -0.352 N 
ATOM     29  C   UNL A   1      33.528  32.649  27.564  1.00  0.00     0.251 C 
ATOM     30  H   UNL A   1      31.792  32.422  26.615  1.00  0.00     0.163 HD
ATOM     31  O   UNL A   1      33.400  33.867  27.616  1.00  0.00    -0.269 OA
BRANCH  29  32
ATOM     32  C   UNL A   1      34.747  32.023  28.131  1.00  0.00     0.039 A 
ATOM     33  C   UNL A   1      35.906  32.797  28.260  1.00  0.00     0.014 A 
ATOM     34  C   UNL A   1      34.777  30.684  28.515  1.00  0.00     0.014 A 
ATOM     35  C   UNL A   1      37.049  32.254  28.859  1.00  0.00     0.010 A 
ATOM     36  C   UNL A   1      35.864  30.185  29.227  1.00  0.00     0.010 A 
ATOM     37  C   UNL A   1      37.019  30.959  29.399  1.00  0.00    -0.014 A 
BRANCH  37  38
ATOM     38  C   UNL A   1      38.183  30.387  30.125  1.00  0.00     0.031 A 
ATOM     39  C   UNL A   1      38.457  30.785  31.553  1.00  0.00     0.074 A 
ATOM     40  C   UNL A   1      39.040  29.570  29.480  1.00  0.00     0.049 A 
ATOM     41  N   UNL A   1      39.463  30.463  32.326  1.00  0.00    -0.248 NA
ATOM     42  C   UNL A   1      37.492  31.703  32.182  1.00  0.00     0.031 C 
ATOM     43  C   UNL A   1      38.928  29.162  28.079  1.00  0.00     0.029 A 
ATOM     44  N   UNL A   1      40.182  28.944  29.915  1.00  0.00    -0.354 N 
ATOM     45  C   UNL A   1      39.264  31.155  33.514  1.00  0.00     0.074 A 
ATOM     46  C   UNL A   1      38.080  31.966  33.339  1.00  0.00     0.031 C 
ATOM     47  C   UNL A   1      39.938  28.332  27.778  1.00  0.00     0.029 A 
ATOM     48  C   UNL A   1      40.793  28.180  28.951  1.00  0.00     0.049 A 
ATOM     49  H   UNL A   1      40.531  29.036  30.831  1.00  0.00     0.167 HD
ATOM     50  C   UNL A   1      39.983  31.097  34.661  1.00  0.00     0.037 A 
ATOM     51  C   UNL A   1      41.919  27.442  29.005  1.00  0.00     0.037 A 
ATOM     52  C   UNL A   1      41.135  30.257  34.846  1.00  0.00     0.049 A 
ATOM     53  C   UNL A   1      42.687  27.374  30.297  1.00  0.00     0.074 A 
ATOM     54  C   UNL A   1      41.888  30.064  35.992  1.00  0.00     0.029 A 
ATOM     55  N   UNL A   1      41.703  29.468  33.856  1.00  0.00    -0.354 N 
ATOM     56  N   UNL A   1      42.441  27.970  31.439  1.00  0.00    -0.248 NA
ATOM     57  C   UNL A   1      43.885  26.523  30.311  1.00  0.00     0.031 C 
ATOM     58  C   UNL A   1      42.940  29.196  35.682  1.00  0.00     0.029 A 
ATOM     59  C   UNL A   1      42.810  28.803  34.359  1.00  0.00     0.049 A 
ATOM     60  H   UNL A   1      41.367  29.391  32.934  1.00  0.00     0.167 HD
ATOM     61  C   UNL A   1      43.434  27.547  32.313  1.00  0.00     0.074 A 
ATOM     62  C   UNL A   1      44.276  26.629  31.573  1.00  0.00     0.031 C 
ATOM     63  C   UNL A   1      43.634  27.890  33.609  1.00  0.00     0.037 A 
BRANCH  50  64
ATOM     64  C   UNL A   1      39.535  31.960  35.808  1.00  0.00     0.064 A 
ATOM     65  C   UNL A   1      40.077  33.236  36.027  1.00  0.00     0.173 A 
ATOM     66  C   UNL A   1      38.530  31.517  36.682  1.00  0.00     0.173 A 
ATOM     67  F   UNL A   1      41.049  33.704  35.229  1.00  0.00    -0.203 F 
ATOM     68  C   UNL A   1      39.657  34.020  37.098  1.00  0.00     0.198 A 
ATOM     69  C   UNL A   1      38.088  32.319  37.731  1.00  0.00     0.198 A 
ATOM     70  F   UNL A   1      37.973  30.309  36.516  1.00  0.00    -0.203 F 
ATOM     71  F   UNL A   1      40.232  35.211  37.321  1.00  0.00    -0.200 F 
ATOM     72  C   UNL A   1      38.657  33.565  37.945  1.00  0.00     0.200 A 
ATOM     73  F   UNL A   1      37.113  31.882  38.540  1.00  0.00    -0.200 F 
ATOM     74  F   UNL A   1      38.250  34.323  38.971  1.00  0.00    -0.200 F 
ENDBRANCH  50  64
BRANCH  51  75
ATOM     75  C   UNL A   1      42.369  26.682  27.808  1.00  0.00     0.064 A 
ATOM     76  C   UNL A   1      41.868  25.400  27.540  1.00  0.00     0.173 A 
ATOM     77  C   UNL A   1      43.304  27.217  26.911  1.00  0.00     0.173 A 
ATOM     78  F   UNL A   1      40.986  24.837  28.378  1.00  0.00    -0.203 F 
ATOM     79  C   UNL A   1      42.303  24.674  26.432  1.00  0.00     0.198 A 
ATOM     80  C   UNL A   1      43.716  26.502  25.787  1.00  0.00     0.198 A 
ATOM     81  F   UNL A   1      43.808  28.443  27.118  1.00  0.00    -0.203 F 
ATOM     82  F   UNL A   1      41.844  23.433  26.226  1.00  0.00    -0.200 F 
ATOM     83  C   UNL A   1      43.221  25.228  25.554  1.00  0.00     0.200 A 
ATOM     84  F   UNL A   1      44.590  27.048  24.932  1.00  0.00    -0.200 F 
ATOM     85  F   UNL A   1      43.634  24.533  24.486  1.00  0.00    -0.200 F 
ENDBRANCH  51  75
BRANCH  63  86
ATOM     86  C   UNL A   1      44.789  27.245  34.319  1.00  0.00     0.064 A 
ATOM     87  C   UNL A   1      46.054  27.848  34.368  1.00  0.00     0.173 A 
ATOM     88  C   UNL A   1      44.617  26.023  34.987  1.00  0.00     0.173 A 
ATOM     89  F   UNL A   1      46.273  29.009  33.733  1.00  0.00    -0.203 F 
ATOM     90  C   UNL A   1      47.112  27.236  35.034  1.00  0.00     0.198 A 
ATOM     91  C   UNL A   1      45.669  25.430  35.680  1.00  0.00     0.198 A 
ATOM     92  F   UNL A   1      43.423  25.408  34.978  1.00  0.00    -0.203 F 
ATOM     93  F   UNL A   1      48.326  27.804  35.022  1.00  0.00    -0.200 F 
ATOM     94  C   UNL A   1      46.918  26.032  35.696  1.00  0.00     0.200 A 
ATOM     95  F   UNL A   1      45.474  24.276  36.331  1.00  0.00    -0.200 F 
ATOM     96  F   UNL A   1      47.936  25.448  36.340  1.00  0.00    -0.200 F 
ENDBRANCH  63  86
ENDBRANCH  37  38
ENDBRANCH  29  32
ENDBRANCH  27  28
ENDBRANCH   1  27
TORSDOF 13
ENDMDL
MODEL 2
REMARK VINA RESULT:     -12.7      1.203      3.216
REMARK SMILES [NH3+]Cc1c(-c2ccccc2)c(C(=O)NCCCNC(=O)c2ccc(-c3c4nc(c(-c5c(F)c(F)c(F)c(F)c5F)c5ccc([nH]5)c(-c5c(F)c(F)c(F)c(F)c5F)c5nc(c(-c6c(F)c(F)c(F)c(F)c6F)c6ccc3[nH]6)C=C5)C=C4)cc2)c2ccccn12
REMARK SMILES IDX 16 1 15 2 14 3 12 4 13 5 11 7 3 8 4 9 89 10 84 11 88 12
REMARK SMILES IDX 85 13 87 14 86 15 2 16 1 17 5 21 6 22 10 23 7 24 9 25 8 26
REMARK SMILES IDX 17 27 18 28 19 29 20 31 21 32 22 33 83 34 23 35 82 36 24 37
REMARK SMILES IDX 25 38 26 39 76 40 27 41 81 42 75 43 77 44 28 45 80 46 74 47
REMARK SMILES IDX 73 48 29 50 61 51 41 52 60 53 42 54 45 55 59 56 78 57 43 58
REMARK SMILES IDX 44 59 58 61 79 62 46 63 30 64 31 65 39 66 32 67 33 68 37 69
REMARK SMILES IDX 40 70 34 71 35 72 38 73 36 74 62 75 63 76 71 77 64 78 65 79
REMARK SMILES IDX 69 80 72 81 66 82 67 83 70 84 68 85 47 86 48 87 56 88 49 89
REMARK SMILES IDX 50 90 54 91 57 92 51 93 52 94 55 95 53 96
REMARK H PARENT 14 6 1 18 1 19 1 20 18 30 77 49 45 60
REMARK Flexibility Score: inf
ROOT
ATOM      1  C   UNL A   1      31.740  29.104  26.585  1.00  0.00     0.042 C 
ENDROOT
BRANCH   1   2
ATOM      2  C   UNL A   1      32.193  27.684  26.874  1.00  0.00     0.118 C 
BRANCH   2   3
ATOM      3  N   UNL A   1      31.146  26.689  26.904  1.00  0.00    -0.352 N 
ATOM      4  C   UNL A   1      30.923  25.570  26.132  1.00  0.00     0.254 C 
ATOM      5  O   UNL A   1      29.975  24.869  26.489  1.00  0.00    -0.269 OA
ATOM      6  H   UNL A   1      30.468  26.838  27.601  1.00  0.00     0.163 HD
BRANCH   4   7
ATOM      7  C   UNL A   1      31.695  25.267  24.918  1.00  0.00     0.073 A 
ATOM      8  C   UNL A   1      32.563  25.524  22.796  1.00  0.00     0.086 A 
ATOM      9  C   UNL A   1      31.654  26.054  23.705  1.00  0.00     0.022 A 
ATOM     10  N   UNL A   1      33.178  24.455  23.417  1.00  0.00    -0.314 N 
ATOM     11  C   UNL A   1      32.501  24.175  24.606  1.00  0.00     0.059 A 
ATOM     12  C   UNL A   1      34.294  23.719  22.996  1.00  0.00     0.092 A 
ATOM     13  C   UNL A   1      32.811  22.918  25.218  1.00  0.00     0.027 A 
ATOM     14  C   UNL A   1      34.698  22.651  23.701  1.00  0.00     0.018 A 
ATOM     15  C   UNL A   1      33.888  22.217  24.821  1.00  0.00     0.004 A 
BRANCH   8  16
ATOM     16  C   UNL A   1      32.881  25.920  21.392  1.00  0.00     0.315 C 
BRANCH  16  17
ATOM     17  N   UNL A   1      31.778  25.578  20.507  1.00  0.00    -0.353 N 
ATOM     18  H   UNL A   1      32.038  24.775  19.935  1.00  0.00     0.344 HD
ATOM     19  H   UNL A   1      31.567  26.372  19.903  1.00  0.00     0.344 HD
ATOM     20  H   UNL A   1      30.954  25.347  21.064  1.00  0.00     0.344 HD
ENDBRANCH  16  17
ENDBRANCH   8  16
BRANCH   9  21
ATOM     21  C   UNL A   1      30.808  27.197  23.385  1.00  0.00    -0.016 A 
ATOM     22  C   UNL A   1      29.416  27.105  23.466  1.00  0.00     0.009 A 
ATOM     23  C   UNL A   1      31.397  28.395  22.959  1.00  0.00     0.009 A 
ATOM     24  C   UNL A   1      28.622  28.204  23.126  1.00  0.00     0.001 A 
ATOM     25  C   UNL A   1      30.602  29.493  22.628  1.00  0.00     0.001 A 
ATOM     26  C   UNL A   1      29.215  29.397  22.708  1.00  0.00     0.000 A 
ENDBRANCH   9  21
ENDBRANCH   4   7
ENDBRANCH   2   3
ENDBRANCH   1   2
BRANCH   1  27
ATOM     27  C   UNL A   1      32.793  30.031  26.004  1.00  0.00     0.118 C 
BRANCH  27  28
ATOM     28  N   UNL A   1      32.706  31.406  26.480  1.00  0.00    -0.352 N 
ATOM     29  C   UNL A   1      33.479  32.129  27.360  1.00  0.00     0.251 C 
ATOM     30  H   UNL A   1      31.952  31.913  26.099  1.00  0.00     0.163 HD
ATOM     31  O   UNL A   1      33.118  33.255  27.685  1.00  0.00    -0.269 OA
BRANCH  29  32
ATOM     32  C   UNL A   1      34.711  31.561  27.959  1.00  0.00     0.039 A 
ATOM     33  C   UNL A   1      35.827  32.390  28.122  1.00  0.00     0.014 A 
ATOM     34  C   UNL A   1      34.796  30.224  28.341  1.00  0.00     0.014 A 
ATOM     35  C   UNL A   1      36.977  31.902  28.751  1.00  0.00     0.010 A 
ATOM     36  C   UNL A   1      35.886  29.777  29.081  1.00  0.00     0.010 A 
ATOM     37  C   UNL A   1      36.997  30.605  29.286  1.00  0.00    -0.014 A 
BRANCH  37  38
ATOM     38  C   UNL A   1      38.166  30.087  30.043  1.00  0.00     0.031 A 
ATOM     39  C   UNL A   1      38.418  30.544  31.458  1.00  0.00     0.074 A 
ATOM     40  C   UNL A   1      39.049  29.268  29.436  1.00  0.00     0.049 A 
ATOM     41  N   UNL A   1      39.424  30.274  32.251  1.00  0.00    -0.248 NA
ATOM     42  C   UNL A   1      37.426  31.461  32.044  1.00  0.00     0.031 C 
ATOM     43  C   UNL A   1      38.959  28.807  28.050  1.00  0.00     0.029 A 
ATOM     44  N   UNL A   1      40.201  28.686  29.903  1.00  0.00    -0.354 N 
ATOM     45  C   UNL A   1      39.197  31.004  33.411  1.00  0.00     0.074 A 
ATOM     46  C   UNL A   1      37.996  31.780  33.196  1.00  0.00     0.031 C 
ATOM     47  C   UNL A   1      39.992  27.991  27.788  1.00  0.00     0.029 A 
ATOM     48  C   UNL A   1      40.839  27.902  28.973  1.00  0.00     0.049 A 
ATOM     49  H   UNL A   1      40.539  28.820  30.818  1.00  0.00     0.167 HD
ATOM     50  C   UNL A   1      39.906  31.005  34.565  1.00  0.00     0.037 A 
ATOM     51  C   UNL A   1      41.981  27.194  29.064  1.00  0.00     0.037 A 
ATOM     52  C   UNL A   1      41.077  30.200  34.791  1.00  0.00     0.049 A 
ATOM     53  C   UNL A   1      42.738  27.191  30.364  1.00  0.00     0.074 A 
ATOM     54  C   UNL A   1      41.823  30.067  35.949  1.00  0.00     0.029 A 
ATOM     55  N   UNL A   1      41.672  29.389  33.835  1.00  0.00    -0.354 N 
ATOM     56  N   UNL A   1      42.468  27.822  31.481  1.00  0.00    -0.248 NA
ATOM     57  C   UNL A   1      43.956  26.370  30.419  1.00  0.00     0.031 C 
ATOM     58  C   UNL A   1      42.898  29.213  35.680  1.00  0.00     0.029 A 
ATOM     59  C   UNL A   1      42.790  28.769  34.371  1.00  0.00     0.049 A 
ATOM     60  H   UNL A   1      41.347  29.270  32.914  1.00  0.00     0.167 HD
ATOM     61  C   UNL A   1      43.462  27.455  32.378  1.00  0.00     0.074 A 
ATOM     62  C   UNL A   1      44.332  26.531  31.680  1.00  0.00     0.031 C 
ATOM     63  C   UNL A   1      43.641  27.849  33.662  1.00  0.00     0.037 A 
BRANCH  50  64
ATOM     64  C   UNL A   1      39.428  31.898  35.676  1.00  0.00     0.064 A 
ATOM     65  C   UNL A   1      38.467  31.469  36.605  1.00  0.00     0.173 A 
ATOM     66  C   UNL A   1      39.958  33.188  35.831  1.00  0.00     0.173 A 
ATOM     67  F   UNL A   1      37.918  30.250  36.495  1.00  0.00    -0.203 F 
ATOM     68  C   UNL A   1      38.028  32.311  37.624  1.00  0.00     0.198 A 
ATOM     69  C   UNL A   1      39.541  34.014  36.873  1.00  0.00     0.198 A 
ATOM     70  F   UNL A   1      40.883  33.647  34.976  1.00  0.00    -0.203 F 
ATOM     71  F   UNL A   1      37.066  31.899  38.463  1.00  0.00    -0.200 F 
ATOM     72  C   UNL A   1      38.571  33.579  37.762  1.00  0.00     0.200 A 
ATOM     73  F   UNL A   1      40.078  35.234  37.012  1.00  0.00    -0.200 F 
ATOM     74  F   UNL A   1      38.153  34.385  38.747  1.00  0.00    -0.200 F 
ENDBRANCH  50  64
BRANCH  51  75
ATOM     75  C   UNL A   1      42.460  26.402  27.900  1.00  0.00     0.064 A 
ATOM     76  C   UNL A   1      43.376  26.946  26.987  1.00  0.00     0.173 A 
ATOM     77  C   UNL A   1      42.016  25.092  27.673  1.00  0.00     0.173 A 
ATOM     78  F   UNL A   1      43.817  28.202  27.150  1.00  0.00    -0.203 F 
ATOM     79  C   UNL A   1      43.812  26.217  25.882  1.00  0.00     0.198 A 
ATOM     80  C   UNL A   1      42.475  24.353  26.584  1.00  0.00     0.198 A 
ATOM     81  F   UNL A   1      41.145  24.521  28.520  1.00  0.00    -0.203 F 
ATOM     82  F   UNL A   1      44.651  26.778  25.001  1.00  0.00    -0.200 F 
ATOM     83  C   UNL A   1      43.366  24.920  25.685  1.00  0.00     0.200 A 
ATOM     84  F   UNL A   1      42.055  23.094  26.406  1.00  0.00    -0.200 F 
ATOM     85  F   UNL A   1      43.790  24.217  24.626  1.00  0.00    -0.200 F 
ENDBRANCH  51  75
BRANCH  63  86
ATOM     86  C   UNL A   1      44.805  27.258  34.406  1.00  0.00     0.064 A 
ATOM     87  C   UNL A   1      46.056  27.891  34.440  1.00  0.00     0.173 A 
ATOM     88  C   UNL A   1      44.654  26.060  35.120  1.00  0.00     0.173 A 
ATOM     89  F   UNL A   1      46.255  29.030  33.762  1.00  0.00    -0.203 F 
ATOM     90  C   UNL A   1      47.122  27.329  35.137  1.00  0.00     0.198 A 
ATOM     91  C   UNL A   1      45.713  25.518  35.843  1.00  0.00     0.198 A 
ATOM     92  F   UNL A   1      43.474  25.419  35.126  1.00  0.00    -0.203 F 
ATOM     93  F   UNL A   1      48.323  27.923  35.111  1.00  0.00    -0.200 F 
ATOM     94  C   UNL A   1      46.948  26.148  35.844  1.00  0.00     0.200 A 
ATOM     95  F   UNL A   1      45.538  24.386  36.538  1.00  0.00    -0.200 F 
ATOM     96  F   UNL A   1      47.974  25.612  36.518  1.00  0.00    -0.200 F 
ENDBRANCH  63  86
ENDBRANCH  37  38
ENDBRANCH  29  32
ENDBRANCH  27  28
ENDBRANCH   1  27
TORSDOF 13
ENDMDL
MODEL 3
REMARK VINA RESULT:     -12.7      1.190      3.231
REMARK SMILES [NH3+]Cc1c(-c2ccccc2)c(C(=O)NCCCNC(=O)c2ccc(-c3c4nc(c(-c5c(F)c(F)c(F)c(F)c5F)c5ccc([nH]5)c(-c5c(F)c(F)c(F)c(F)c5F)c5nc(c(-c6c(F)c(F)c(F)c(F)c6F)c6ccc3[nH]6)C=C5)C=C4)cc2)c2ccccn12
REMARK SMILES IDX 16 1 15 2 14 3 12 4 13 5 11 7 3 8 4 9 89 10 84 11 88 12
REMARK SMILES IDX 85 13 87 14 86 15 2 16 1 17 5 21 6 22 10 23 7 24 9 25 8 26
REMARK SMILES IDX 17 27 18 28 19 29 20 31 21 32 22 33 83 34 23 35 82 36 24 37
REMARK SMILES IDX 25 38 26 39 76 40 27 41 81 42 75 43 77 44 28 45 80 46 74 47
REMARK SMILES IDX 73 48 29 50 61 51 41 52 60 53 42 54 45 55 59 56 78 57 43 58
REMARK SMILES IDX 44 59 58 61 79 62 46 63 30 64 31 65 39 66 32 67 33 68 37 69
REMARK SMILES IDX 40 70 34 71 35 72 38 73 36 74 62 75 63 76 71 77 64 78 65 79
REMARK SMILES IDX 69 80 72 81 66 82 67 83 70 84 68 85 47 86 48 87 56 88 49 89
REMARK SMILES IDX 50 90 54 91 57 92 51 93 52 94 55 95 53 96
REMARK H PARENT 14 6 1 18 1 19 1 20 18 30 77 49 45 60
REMARK Flexibility Score: inf
ROOT
ATOM      1  C   UNL A   1      31.670  29.165  26.757  1.00  0.00     0.042 C 
ENDROOT
BRANCH   1   2
ATOM      2  C   UNL A   1      32.114  27.735  27.010  1.00  0.00     0.118 C 
BRANCH   2   3
ATOM      3  N   UNL A   1      31.062  26.744  26.990  1.00  0.00    -0.352 N 
ATOM      4  C   UNL A   1      30.841  25.660  26.171  1.00  0.00     0.254 C 
ATOM      5  O   UNL A   1      29.887  24.948  26.492  1.00  0.00    -0.269 OA
ATOM      6  H   UNL A   1      30.380  26.866  27.689  1.00  0.00     0.163 HD
BRANCH   4   7
ATOM      7  C   UNL A   1      31.619  25.405  24.950  1.00  0.00     0.073 A 
ATOM      8  C   UNL A   1      32.464  25.722  22.827  1.00  0.00     0.086 A 
ATOM      9  C   UNL A   1      31.536  26.200  23.745  1.00  0.00     0.022 A 
ATOM     10  N   UNL A   1      33.132  24.678  23.435  1.00  0.00    -0.314 N 
ATOM     11  C   UNL A   1      32.474  24.355  24.624  1.00  0.00     0.059 A 
ATOM     12  C   UNL A   1      34.279  23.999  23.001  1.00  0.00     0.092 A 
ATOM     13  C   UNL A   1      32.846  23.108  25.222  1.00  0.00     0.027 A 
ATOM     14  C   UNL A   1      34.736  22.945  23.694  1.00  0.00     0.018 A 
ATOM     15  C   UNL A   1      33.954  22.462  24.813  1.00  0.00     0.004 A 
BRANCH   8  16
ATOM     16  C   UNL A   1      32.756  26.146  21.426  1.00  0.00     0.315 C 
BRANCH  16  17
ATOM     17  N   UNL A   1      31.778  25.578  20.510  1.00  0.00    -0.353 N 
ATOM     18  H   UNL A   1      31.327  24.776  20.949  1.00  0.00     0.344 HD
ATOM     19  H   UNL A   1      32.246  25.280  19.654  1.00  0.00     0.344 HD
ATOM     20  H   UNL A   1      31.075  26.283  20.284  1.00  0.00     0.344 HD
ENDBRANCH  16  17
ENDBRANCH   8  16
BRANCH   9  21
ATOM     21  C   UNL A   1      30.635  27.305  23.440  1.00  0.00    -0.016 A 
ATOM     22  C   UNL A   1      29.249  27.126  23.451  1.00  0.00     0.009 A 
ATOM     23  C   UNL A   1      31.166  28.556  23.100  1.00  0.00     0.009 A 
ATOM     24  C   UNL A   1      28.404  28.191  23.126  1.00  0.00     0.001 A 
ATOM     25  C   UNL A   1      30.320  29.620  22.783  1.00  0.00     0.001 A 
ATOM     26  C   UNL A   1      28.940  29.437  22.794  1.00  0.00     0.000 A 
ENDBRANCH   9  21
ENDBRANCH   4   7
ENDBRANCH   2   3
ENDBRANCH   1   2
BRANCH   1  27
ATOM     27  C   UNL A   1      32.688  30.064  26.078  1.00  0.00     0.118 C 
BRANCH  27  28
ATOM     28  N   UNL A   1      32.638  31.455  26.508  1.00  0.00    -0.352 N 
ATOM     29  C   UNL A   1      33.444  32.191  27.349  1.00  0.00     0.251 C 
ATOM     30  H   UNL A   1      31.887  31.965  26.127  1.00  0.00     0.163 HD
ATOM     31  O   UNL A   1      33.113  33.334  27.643  1.00  0.00    -0.269 OA
BRANCH  29  32
ATOM     32  C   UNL A   1      34.677  31.618  27.940  1.00  0.00     0.039 A 
ATOM     33  C   UNL A   1      35.785  32.452  28.132  1.00  0.00     0.014 A 
ATOM     34  C   UNL A   1      34.772  30.272  28.287  1.00  0.00     0.014 A 
ATOM     35  C   UNL A   1      36.936  31.957  28.755  1.00  0.00     0.010 A 
ATOM     36  C   UNL A   1      35.861  29.814  29.022  1.00  0.00     0.010 A 
ATOM     37  C   UNL A   1      36.963  30.646  29.256  1.00  0.00    -0.014 A 
BRANCH  37  38
ATOM     38  C   UNL A   1      38.132  30.119  30.007  1.00  0.00     0.031 A 
ATOM     39  C   UNL A   1      38.388  30.564  31.424  1.00  0.00     0.074 A 
ATOM     40  C   UNL A   1      39.011  29.301  29.392  1.00  0.00     0.049 A 
ATOM     41  N   UNL A   1      39.395  30.285  32.214  1.00  0.00    -0.248 NA
ATOM     42  C   UNL A   1      37.401  31.480  32.020  1.00  0.00     0.031 C 
ATOM     43  C   UNL A   1      38.917  28.851  28.002  1.00  0.00     0.029 A 
ATOM     44  N   UNL A   1      40.162  28.712  29.852  1.00  0.00    -0.354 N 
ATOM     45  C   UNL A   1      39.174  31.007  33.379  1.00  0.00     0.074 A 
ATOM     46  C   UNL A   1      37.975  31.788  33.172  1.00  0.00     0.031 C 
ATOM     47  C   UNL A   1      39.946  28.033  27.732  1.00  0.00     0.029 A 
ATOM     48  C   UNL A   1      40.795  27.932  28.915  1.00  0.00     0.049 A 
ATOM     49  H   UNL A   1      40.502  28.837  30.768  1.00  0.00     0.167 HD
ATOM     50  C   UNL A   1      39.885  30.997  34.532  1.00  0.00     0.037 A 
ATOM     51  C   UNL A   1      41.935  27.219  28.998  1.00  0.00     0.037 A 
ATOM     52  C   UNL A   1      41.053  30.185  34.749  1.00  0.00     0.049 A 
ATOM     53  C   UNL A   1      42.695  27.204  30.296  1.00  0.00     0.074 A 
ATOM     54  C   UNL A   1      41.801  30.042  35.905  1.00  0.00     0.029 A 
ATOM     55  N   UNL A   1      41.643  29.380  33.787  1.00  0.00    -0.354 N 
ATOM     56  N   UNL A   1      42.429  27.828  31.419  1.00  0.00    -0.248 NA
ATOM     57  C   UNL A   1      43.910  26.378  30.343  1.00  0.00     0.031 C 
ATOM     58  C   UNL A   1      42.873  29.186  35.627  1.00  0.00     0.029 A 
ATOM     59  C   UNL A   1      42.760  28.752  34.315  1.00  0.00     0.049 A 
ATOM     60  H   UNL A   1      41.316  29.269  32.865  1.00  0.00     0.167 HD
ATOM     61  C   UNL A   1      43.424  27.450  32.311  1.00  0.00     0.074 A 
ATOM     62  C   UNL A   1      44.289  26.528  31.604  1.00  0.00     0.031 C 
ATOM     63  C   UNL A   1      43.607  27.834  33.598  1.00  0.00     0.037 A 
BRANCH  50  64
ATOM     64  C   UNL A   1      39.412  31.883  35.650  1.00  0.00     0.064 A 
ATOM     65  C   UNL A   1      38.442  31.455  36.571  1.00  0.00     0.173 A 
ATOM     66  C   UNL A   1      39.956  33.165  35.822  1.00  0.00     0.173 A 
ATOM     67  F   UNL A   1      37.880  30.243  36.446  1.00  0.00    -0.203 F 
ATOM     68  C   UNL A   1      38.009  32.290  37.598  1.00  0.00     0.198 A 
ATOM     69  C   UNL A   1      39.544  33.984  36.871  1.00  0.00     0.198 A 
ATOM     70  F   UNL A   1      40.890  33.623  34.975  1.00  0.00    -0.203 F 
ATOM     71  F   UNL A   1      37.039  31.880  38.428  1.00  0.00    -0.200 F 
ATOM     72  C   UNL A   1      38.565  33.551  37.751  1.00  0.00     0.200 A 
ATOM     73  F   UNL A   1      40.093  35.197  37.025  1.00  0.00    -0.200 F 
ATOM     74  F   UNL A   1      38.152  34.351  38.743  1.00  0.00    -0.200 F 
ENDBRANCH  50  64
BRANCH  51  75
ATOM     75  C   UNL A   1      42.409  26.434  27.827  1.00  0.00     0.064 A 
ATOM     76  C   UNL A   1      41.906  25.150  27.570  1.00  0.00     0.173 A 
ATOM     77  C   UNL A   1      43.369  26.946  26.943  1.00  0.00     0.173 A 
ATOM     78  F   UNL A   1      40.999  24.609  28.397  1.00  0.00    -0.203 F 
ATOM     79  C   UNL A   1      42.362  24.401  26.487  1.00  0.00     0.198 A 
ATOM     80  C   UNL A   1      43.803  26.208  25.843  1.00  0.00     0.198 A 
ATOM     81  F   UNL A   1      43.876  28.173  27.139  1.00  0.00    -0.203 F 
ATOM     82  F   UNL A   1      41.900  23.159  26.293  1.00  0.00    -0.200 F 
ATOM     83  C   UNL A   1      43.305  24.933  25.622  1.00  0.00     0.200 A 
ATOM     84  F   UNL A   1      44.701  26.732  25.000  1.00  0.00    -0.200 F 
ATOM     85  F   UNL A   1      43.739  24.215  24.577  1.00  0.00    -0.200 F 
ENDBRANCH  51  75
BRANCH  63  86
ATOM     86  C   UNL A   1      44.770  27.234  34.335  1.00  0.00     0.064 A 
ATOM     87  C   UNL A   1      44.662  26.008  35.007  1.00  0.00     0.173 A 
ATOM     88  C   UNL A   1      46.015  27.880  34.339  1.00  0.00     0.173 A 
ATOM     89  F   UNL A   1      43.490  25.359  35.045  1.00  0.00    -0.203 F 
ATOM     90  C   UNL A   1      45.752  25.466  35.683  1.00  0.00     0.198 A 
ATOM     91  C   UNL A   1      47.112  27.318  34.987  1.00  0.00     0.198 A 
ATOM     92  F   UNL A   1      46.173  29.051  33.703  1.00  0.00    -0.203 F 
ATOM     93  F   UNL A   1      45.613  24.320  36.363  1.00  0.00    -0.200 F 
ATOM     94  C   UNL A   1      46.978  26.117  35.666  1.00  0.00     0.200 A 
ATOM     95  F   UNL A   1      48.298  27.941  34.957  1.00  0.00    -0.200 F 
ATOM     96  F   UNL A   1      48.026  25.590  36.312  1.00  0.00    -0.200 F 
ENDBRANCH  63  86
ENDBRANCH  37  38
ENDBRANCH  29  32
ENDBRANCH  27  28
ENDBRANCH   1  27
TORSDOF 13
ENDMDL
