MODEL 1
REMARK VINA RESULT:     -13.0      0.000      0.000
REMARK SMILES CCc1c(C(=O)NCC(=O)NCCCNC(=O)c2ccc(-c3c4nc(c(-c5c(F)c(F)c(F)c(F)c5F)c5ccc([nH]5)c(-c5c(F)c(F)c(F)c(F)c5F)c5nc(c(-c6c(F)c(F)c(F)c(F)c6F)c6ccc3[nH]6)C=C5)C=C4)cc2)nnn1-c1ccc(Cl)cc1
REMARK SMILES IDX 12 1 11 2 9 3 10 4 8 6 7 7 5 8 6 9 4 11 3 12 83 13 81 14
REMARK SMILES IDX 82 15 2 16 1 17 84 18 85 19 90 20 86 21 89 22 87 23 88 24
REMARK SMILES IDX 13 25 14 26 15 27 16 28 17 30 18 31 19 32 80 33 20 34 79 35
REMARK SMILES IDX 21 36 22 37 23 38 73 39 24 40 78 41 72 42 74 43 25 44 77 45
REMARK SMILES IDX 71 46 70 47 26 49 58 50 38 51 57 52 39 53 42 54 56 55 75 56
REMARK SMILES IDX 40 57 41 58 55 60 76 61 43 62 27 63 28 64 36 65 29 66 30 67
REMARK SMILES IDX 34 68 37 69 31 70 32 71 35 72 33 73 59 74 60 75 68 76 61 77
REMARK SMILES IDX 62 78 66 79 69 80 63 81 64 82 67 83 65 84 44 85 45 86 53 87
REMARK SMILES IDX 46 88 47 89 51 90 54 91 48 92 49 93 52 94 50 95
REMARK H PARENT 11 5 7 10 15 29 74 48 42 59
REMARK Flexibility Score: inf
ROOT
ATOM      1  C   UNL A   1      33.136  29.964  26.194  1.00  0.00     0.117 C 
ENDROOT
BRANCH   1   2
ATOM      2  N   UNL A   1      32.066  30.088  25.224  1.00  0.00    -0.355 N 
ATOM      3  C   UNL A   1      31.370  29.132  24.554  1.00  0.00     0.239 C 
ATOM      4  O   UNL A   1      30.419  29.510  23.863  1.00  0.00    -0.273 OA
ATOM      5  H   UNL A   1      31.801  31.013  25.018  1.00  0.00     0.163 HD
BRANCH   3   6
ATOM      6  C   UNL A   1      31.577  27.639  24.815  1.00  0.00     0.216 C 
BRANCH   6   7
ATOM      7  N   UNL A   1      30.529  26.831  25.390  1.00  0.00    -0.342 N 
ATOM      8  C   UNL A   1      30.445  25.615  26.010  1.00  0.00     0.274 C 
ATOM      9  O   UNL A   1      29.314  25.375  26.449  1.00  0.00    -0.267 OA
ATOM     10  H   UNL A   1      29.649  27.265  25.315  1.00  0.00     0.164 HD
BRANCH   8  11
ATOM     11  C   UNL A   1      31.491  24.581  26.090  1.00  0.00     0.174 A 
ATOM     12  C   UNL A   1      32.503  24.042  25.284  1.00  0.00     0.077 A 
ATOM     13  N   UNL A   1      33.103  23.080  26.113  1.00  0.00    -0.217 N 
ATOM     14  N   UNL A   1      31.461  23.844  27.264  1.00  0.00    -0.124 NA
ATOM     15  N   UNL A   1      32.348  22.874  27.202  1.00  0.00    -0.061 NA
BRANCH  12  16
ATOM     16  C   UNL A   1      32.944  24.187  23.861  1.00  0.00     0.055 C 
ATOM     17  C   UNL A   1      34.034  25.253  23.716  1.00  0.00     0.011 C 
ENDBRANCH  12  16
BRANCH  13  18
ATOM     18  C   UNL A   1      34.246  22.274  25.881  1.00  0.00     0.067 A 
ATOM     19  C   UNL A   1      34.077  20.983  25.364  1.00  0.00     0.030 A 
ATOM     20  C   UNL A   1      35.533  22.762  26.132  1.00  0.00     0.030 A 
ATOM     21  C   UNL A   1      35.199  20.233  25.001  1.00  0.00     0.023 A 
ATOM     22  C   UNL A   1      36.650  22.011  25.766  1.00  0.00     0.023 A 
ATOM     23  C   UNL A   1      36.478  20.757  25.185  1.00  0.00     0.041 A 
ATOM     24  Cl  UNL A   1      37.855  19.853  24.696  1.00  0.00    -0.084 Cl
ENDBRANCH  13  18
ENDBRANCH   8  11
ENDBRANCH   6   7
ENDBRANCH   3   6
ENDBRANCH   1   2
BRANCH   1  25
ATOM     25  C   UNL A   1      33.076  31.030  27.284  1.00  0.00     0.042 C 
BRANCH  25  26
ATOM     26  C   UNL A   1      34.463  31.528  27.656  1.00  0.00     0.118 C 
BRANCH  26  27
ATOM     27  N   UNL A   1      34.496  32.159  28.979  1.00  0.00    -0.352 N 
ATOM     28  C   UNL A   1      35.293  31.840  30.064  1.00  0.00     0.251 C 
ATOM     29  H   UNL A   1      33.869  32.907  29.113  1.00  0.00     0.163 HD
ATOM     30  O   UNL A   1      35.006  32.192  31.191  1.00  0.00    -0.269 OA
BRANCH  28  31
ATOM     31  C   UNL A   1      36.514  31.057  29.813  1.00  0.00     0.039 A 
ATOM     32  C   UNL A   1      37.745  31.680  29.592  1.00  0.00     0.014 A 
ATOM     33  C   UNL A   1      36.410  29.672  29.883  1.00  0.00     0.014 A 
ATOM     34  C   UNL A   1      38.890  30.891  29.538  1.00  0.00     0.010 A 
ATOM     35  C   UNL A   1      37.548  28.921  30.007  1.00  0.00     0.010 A 
ATOM     36  C   UNL A   1      38.786  29.510  29.777  1.00  0.00    -0.014 A 
BRANCH  36  37
ATOM     37  C   UNL A   1      39.979  28.680  29.911  1.00  0.00     0.031 A 
ATOM     38  C   UNL A   1      40.418  28.452  31.316  1.00  0.00     0.074 A 
ATOM     39  C   UNL A   1      40.505  27.989  28.876  1.00  0.00     0.049 A 
ATOM     40  N   UNL A   1      41.522  28.829  31.870  1.00  0.00    -0.248 NA
ATOM     41  C   UNL A   1      39.463  27.840  32.257  1.00  0.00     0.031 C 
ATOM     42  C   UNL A   1      39.988  27.864  27.507  1.00  0.00     0.029 A 
ATOM     43  N   UNL A   1      41.576  27.150  28.859  1.00  0.00    -0.354 N 
ATOM     44  C   UNL A   1      41.493  28.333  33.172  1.00  0.00     0.074 A 
ATOM     45  C   UNL A   1      40.142  27.896  33.405  1.00  0.00     0.031 C 
ATOM     46  C   UNL A   1      40.593  26.831  26.883  1.00  0.00     0.029 A 
ATOM     47  C   UNL A   1      41.662  26.342  27.731  1.00  0.00     0.049 A 
ATOM     48  H   UNL A   1      42.239  27.118  29.588  1.00  0.00     0.167 HD
ATOM     49  C   UNL A   1      42.649  28.095  33.851  1.00  0.00     0.037 A 
ATOM     50  C   UNL A   1      42.538  25.329  27.519  1.00  0.00     0.037 A 
ATOM     51  C   UNL A   1      43.754  28.798  33.246  1.00  0.00     0.049 A 
ATOM     52  C   UNL A   1      43.666  25.523  28.463  1.00  0.00     0.074 A 
ATOM     53  C   UNL A   1      44.039  30.124  32.990  1.00  0.00     0.029 A 
ATOM     54  N   UNL A   1      44.610  28.079  32.449  1.00  0.00    -0.354 N 
ATOM     55  N   UNL A   1      44.514  26.510  28.386  1.00  0.00    -0.248 NA
ATOM     56  C   UNL A   1      43.571  24.878  29.761  1.00  0.00     0.031 C 
ATOM     57  C   UNL A   1      44.676  30.125  31.713  1.00  0.00     0.029 A 
ATOM     58  C   UNL A   1      44.813  28.799  31.301  1.00  0.00     0.049 A 
ATOM     59  H   UNL A   1      45.007  27.204  32.664  1.00  0.00     0.167 HD
ATOM     60  C   UNL A   1      44.716  26.897  29.701  1.00  0.00     0.074 A 
ATOM     61  C   UNL A   1      44.186  25.799  30.507  1.00  0.00     0.031 C 
ATOM     62  C   UNL A   1      45.025  28.192  30.009  1.00  0.00     0.037 A 
BRANCH  49  63
ATOM     63  C   UNL A   1      42.863  26.927  34.793  1.00  0.00     0.064 A 
ATOM     64  C   UNL A   1      42.811  27.156  36.184  1.00  0.00     0.173 A 
ATOM     65  C   UNL A   1      43.423  25.689  34.406  1.00  0.00     0.173 A 
ATOM     66  F   UNL A   1      42.309  28.301  36.670  1.00  0.00    -0.203 F 
ATOM     67  C   UNL A   1      43.371  26.264  37.103  1.00  0.00     0.198 A 
ATOM     68  C   UNL A   1      43.931  24.778  35.331  1.00  0.00     0.198 A 
ATOM     69  F   UNL A   1      43.610  25.354  33.125  1.00  0.00    -0.203 F 
ATOM     70  F   UNL A   1      43.425  26.593  38.400  1.00  0.00    -0.200 F 
ATOM     71  C   UNL A   1      43.940  25.080  36.675  1.00  0.00     0.200 A 
ATOM     72  F   UNL A   1      44.494  23.642  34.892  1.00  0.00    -0.200 F 
ATOM     73  F   UNL A   1      44.539  24.257  37.544  1.00  0.00    -0.200 F 
ENDBRANCH  49  63
BRANCH  50  74
ATOM     74  C   UNL A   1      42.338  24.060  26.782  1.00  0.00     0.064 A 
ATOM     75  C   UNL A   1      43.308  23.586  25.885  1.00  0.00     0.173 A 
ATOM     76  C   UNL A   1      41.339  23.145  27.165  1.00  0.00     0.173 A 
ATOM     77  F   UNL A   1      44.317  24.382  25.501  1.00  0.00    -0.203 F 
ATOM     78  C   UNL A   1      43.303  22.265  25.427  1.00  0.00     0.198 A 
ATOM     79  C   UNL A   1      41.331  21.827  26.704  1.00  0.00     0.198 A 
ATOM     80  F   UNL A   1      40.410  23.481  28.072  1.00  0.00    -0.203 F 
ATOM     81  F   UNL A   1      44.287  21.830  24.627  1.00  0.00    -0.200 F 
ATOM     82  C   UNL A   1      42.323  21.382  25.849  1.00  0.00     0.200 A 
ATOM     83  F   UNL A   1      40.399  20.972  27.149  1.00  0.00    -0.200 F 
ATOM     84  F   UNL A   1      42.355  20.098  25.467  1.00  0.00    -0.200 F 
ENDBRANCH  50  74
BRANCH  62  85
ATOM     85  C   UNL A   1      45.408  29.106  28.876  1.00  0.00     0.064 A 
ATOM     86  C   UNL A   1      44.500  29.888  28.140  1.00  0.00     0.173 A 
ATOM     87  C   UNL A   1      46.771  29.282  28.603  1.00  0.00     0.173 A 
ATOM     88  F   UNL A   1      43.189  29.860  28.404  1.00  0.00    -0.203 F 
ATOM     89  C   UNL A   1      44.936  30.760  27.143  1.00  0.00     0.198 A 
ATOM     90  C   UNL A   1      47.206  30.182  27.634  1.00  0.00     0.198 A 
ATOM     91  F   UNL A   1      47.691  28.605  29.309  1.00  0.00    -0.203 F 
ATOM     92  F   UNL A   1      44.046  31.478  26.440  1.00  0.00    -0.200 F 
ATOM     93  C   UNL A   1      46.289  30.911  26.894  1.00  0.00     0.200 A 
ATOM     94  F   UNL A   1      48.520  30.359  27.434  1.00  0.00    -0.200 F 
ATOM     95  F   UNL A   1      46.712  31.774  25.960  1.00  0.00    -0.200 F 
ENDBRANCH  62  85
ENDBRANCH  36  37
ENDBRANCH  28  31
ENDBRANCH  26  27
ENDBRANCH  25  26
ENDBRANCH   1  25
TORSDOF 14
ENDMDL
MODEL 2
REMARK VINA RESULT:     -12.9      5.043     10.906
REMARK SMILES CCc1c(C(=O)NCC(=O)NCCCNC(=O)c2ccc(-c3c4nc(c(-c5c(F)c(F)c(F)c(F)c5F)c5ccc([nH]5)c(-c5c(F)c(F)c(F)c(F)c5F)c5nc(c(-c6c(F)c(F)c(F)c(F)c6F)c6ccc3[nH]6)C=C5)C=C4)cc2)nnn1-c1ccc(Cl)cc1
REMARK SMILES IDX 12 1 11 2 9 3 10 4 8 6 7 7 5 8 6 9 4 11 3 12 83 13 81 14
REMARK SMILES IDX 82 15 2 16 1 17 84 18 85 19 90 20 86 21 89 22 87 23 88 24
REMARK SMILES IDX 13 25 14 26 15 27 16 28 17 30 18 31 19 32 80 33 20 34 79 35
REMARK SMILES IDX 21 36 22 37 23 38 73 39 24 40 78 41 72 42 74 43 25 44 77 45
REMARK SMILES IDX 71 46 70 47 26 49 58 50 38 51 57 52 39 53 42 54 56 55 75 56
REMARK SMILES IDX 40 57 41 58 55 60 76 61 43 62 27 63 28 64 36 65 29 66 30 67
REMARK SMILES IDX 34 68 37 69 31 70 32 71 35 72 33 73 59 74 60 75 68 76 61 77
REMARK SMILES IDX 62 78 66 79 69 80 63 81 64 82 67 83 65 84 44 85 45 86 53 87
REMARK SMILES IDX 46 88 47 89 51 90 54 91 48 92 49 93 52 94 50 95
REMARK H PARENT 11 5 7 10 15 29 74 48 42 59
REMARK Flexibility Score: inf
ROOT
ATOM      1  C   UNL A   1      42.794  18.803  25.976  1.00  0.00     0.117 C 
ENDROOT
BRANCH   1   2
ATOM      2  N   UNL A   1      44.169  18.349  25.909  1.00  0.00    -0.355 N 
ATOM      3  C   UNL A   1      45.212  18.804  25.167  1.00  0.00     0.239 C 
ATOM      4  O   UNL A   1      46.320  18.306  25.389  1.00  0.00    -0.273 OA
ATOM      5  H   UNL A   1      44.380  17.587  26.496  1.00  0.00     0.163 HD
BRANCH   3   6
ATOM      6  C   UNL A   1      45.097  20.038  24.270  1.00  0.00     0.216 C 
BRANCH   6   7
ATOM      7  N   UNL A   1      44.061  21.020  24.483  1.00  0.00    -0.342 N 
ATOM      8  C   UNL A   1      44.004  22.374  24.666  1.00  0.00     0.274 C 
ATOM      9  O   UNL A   1      42.846  22.809  24.695  1.00  0.00    -0.267 OA
ATOM     10  H   UNL A   1      43.166  20.610  24.502  1.00  0.00     0.164 HD
BRANCH   8  11
ATOM     11  C   UNL A   1      45.130  23.286  24.933  1.00  0.00     0.174 A 
ATOM     12  C   UNL A   1      45.549  24.178  25.929  1.00  0.00     0.077 A 
ATOM     13  N   UNL A   1      46.777  24.655  25.445  1.00  0.00    -0.217 N 
ATOM     14  N   UNL A   1      46.036  23.378  23.888  1.00  0.00    -0.124 NA
ATOM     15  N   UNL A   1      46.939  24.294  24.164  1.00  0.00    -0.061 NA
BRANCH  12  16
ATOM     16  C   UNL A   1      44.970  24.739  27.191  1.00  0.00     0.055 C 
ATOM     17  C   UNL A   1      45.465  23.979  28.424  1.00  0.00     0.011 C 
ENDBRANCH  12  16
BRANCH  13  18
ATOM     18  C   UNL A   1      47.719  25.516  26.062  1.00  0.00     0.067 A 
ATOM     19  C   UNL A   1      47.644  26.895  25.822  1.00  0.00     0.030 A 
ATOM     20  C   UNL A   1      48.696  25.012  26.928  1.00  0.00     0.030 A 
ATOM     21  C   UNL A   1      48.475  27.766  26.531  1.00  0.00     0.023 A 
ATOM     22  C   UNL A   1      49.522  25.885  27.636  1.00  0.00     0.023 A 
ATOM     23  C   UNL A   1      49.396  27.259  27.448  1.00  0.00     0.041 A 
ATOM     24  Cl  UNL A   1      50.385  28.333  28.354  1.00  0.00    -0.084 Cl
ENDBRANCH  13  18
ENDBRANCH   8  11
ENDBRANCH   6   7
ENDBRANCH   3   6
ENDBRANCH   1   2
BRANCH   1  25
ATOM     25  C   UNL A   1      42.379  19.237  27.379  1.00  0.00     0.042 C 
BRANCH  25  26
ATOM     26  C   UNL A   1      41.924  20.687  27.405  1.00  0.00     0.118 C 
BRANCH  26  27
ATOM     27  N   UNL A   1      40.863  20.959  26.429  1.00  0.00    -0.352 N 
ATOM     28  C   UNL A   1      39.932  21.981  26.436  1.00  0.00     0.251 C 
ATOM     29  H   UNL A   1      40.806  20.331  25.672  1.00  0.00     0.163 HD
ATOM     30  O   UNL A   1      38.908  21.916  25.783  1.00  0.00    -0.269 OA
BRANCH  28  31
ATOM     31  C   UNL A   1      40.217  23.166  27.262  1.00  0.00     0.039 A 
ATOM     32  C   UNL A   1      41.442  23.319  27.914  1.00  0.00     0.014 A 
ATOM     33  C   UNL A   1      39.249  24.164  27.303  1.00  0.00     0.014 A 
ATOM     34  C   UNL A   1      41.720  24.534  28.532  1.00  0.00     0.010 A 
ATOM     35  C   UNL A   1      39.593  25.411  27.754  1.00  0.00     0.010 A 
ATOM     36  C   UNL A   1      40.799  25.589  28.422  1.00  0.00    -0.014 A 
BRANCH  36  37
ATOM     37  C   UNL A   1      41.132  26.929  28.895  1.00  0.00     0.031 A 
ATOM     38  C   UNL A   1      42.316  27.542  28.231  1.00  0.00     0.074 A 
ATOM     39  C   UNL A   1      40.309  27.644  29.693  1.00  0.00     0.049 A 
ATOM     40  N   UNL A   1      43.440  27.876  28.774  1.00  0.00    -0.248 NA
ATOM     41  C   UNL A   1      42.300  27.687  26.765  1.00  0.00     0.031 C 
ATOM     42  C   UNL A   1      38.962  27.293  30.163  1.00  0.00     0.029 A 
ATOM     43  N   UNL A   1      40.464  28.907  30.175  1.00  0.00    -0.354 N 
ATOM     44  C   UNL A   1      44.202  28.455  27.762  1.00  0.00     0.074 A 
ATOM     45  C   UNL A   1      43.530  28.151  26.527  1.00  0.00     0.031 C 
ATOM     46  C   UNL A   1      38.344  28.393  30.641  1.00  0.00     0.029 A 
ATOM     47  C   UNL A   1      39.304  29.478  30.686  1.00  0.00     0.049 A 
ATOM     48  H   UNL A   1      41.329  29.379  30.163  1.00  0.00     0.167 HD
ATOM     49  C   UNL A   1      45.184  29.353  28.058  1.00  0.00     0.037 A 
ATOM     50  C   UNL A   1      39.140  30.760  31.099  1.00  0.00     0.037 A 
ATOM     51  C   UNL A   1      45.567  29.255  29.445  1.00  0.00     0.049 A 
ATOM     52  C   UNL A   1      40.493  31.314  31.349  1.00  0.00     0.074 A 
ATOM     53  C   UNL A   1      46.079  28.252  30.244  1.00  0.00     0.029 A 
ATOM     54  N   UNL A   1      45.074  30.198  30.313  1.00  0.00    -0.354 N 
ATOM     55  N   UNL A   1      41.272  30.915  32.314  1.00  0.00    -0.248 NA
ATOM     56  C   UNL A   1      41.157  31.985  30.244  1.00  0.00     0.031 C 
ATOM     57  C   UNL A   1      45.422  28.410  31.501  1.00  0.00     0.029 A 
ATOM     58  C   UNL A   1      44.611  29.541  31.422  1.00  0.00     0.049 A 
ATOM     59  H   UNL A   1      45.059  31.171  30.165  1.00  0.00     0.167 HD
ATOM     60  C   UNL A   1      42.536  30.874  31.746  1.00  0.00     0.074 A 
ATOM     61  C   UNL A   1      42.418  31.632  30.502  1.00  0.00     0.031 C 
ATOM     62  C   UNL A   1      43.474  29.987  32.192  1.00  0.00     0.037 A 
BRANCH  49  63
ATOM     63  C   UNL A   1      45.505  30.576  27.223  1.00  0.00     0.064 A 
ATOM     64  C   UNL A   1      46.837  31.039  27.180  1.00  0.00     0.173 A 
ATOM     65  C   UNL A   1      44.535  31.482  26.739  1.00  0.00     0.173 A 
ATOM     66  F   UNL A   1      47.843  30.271  27.622  1.00  0.00    -0.203 F 
ATOM     67  C   UNL A   1      47.156  32.341  26.781  1.00  0.00     0.198 A 
ATOM     68  C   UNL A   1      44.865  32.761  26.291  1.00  0.00     0.198 A 
ATOM     69  F   UNL A   1      43.225  31.221  26.781  1.00  0.00    -0.203 F 
ATOM     70  F   UNL A   1      48.416  32.781  26.893  1.00  0.00    -0.200 F 
ATOM     71  C   UNL A   1      46.168  33.204  26.347  1.00  0.00     0.200 A 
ATOM     72  F   UNL A   1      43.888  33.587  25.890  1.00  0.00    -0.200 F 
ATOM     73  F   UNL A   1      46.459  34.473  26.032  1.00  0.00    -0.200 F 
ENDBRANCH  49  63
BRANCH  50  74
ATOM     74  C   UNL A   1      37.940  31.623  31.010  1.00  0.00     0.064 A 
ATOM     75  C   UNL A   1      37.371  31.943  29.767  1.00  0.00     0.173 A 
ATOM     76  C   UNL A   1      37.157  31.901  32.148  1.00  0.00     0.173 A 
ATOM     77  F   UNL A   1      38.035  31.673  28.633  1.00  0.00    -0.203 F 
ATOM     78  C   UNL A   1      36.082  32.474  29.664  1.00  0.00     0.198 A 
ATOM     79  C   UNL A   1      35.872  32.436  32.044  1.00  0.00     0.198 A 
ATOM     80  F   UNL A   1      37.584  31.565  33.374  1.00  0.00    -0.203 F 
ATOM     81  F   UNL A   1      35.546  32.700  28.456  1.00  0.00    -0.200 F 
ATOM     82  C   UNL A   1      35.327  32.706  30.802  1.00  0.00     0.200 A 
ATOM     83  F   UNL A   1      35.138  32.621  33.151  1.00  0.00    -0.200 F 
ATOM     84  F   UNL A   1      34.066  33.149  30.702  1.00  0.00    -0.200 F 
ENDBRANCH  50  74
BRANCH  62  85
ATOM     85  C   UNL A   1      43.193  29.263  33.482  1.00  0.00     0.064 A 
ATOM     86  C   UNL A   1      42.479  28.054  33.578  1.00  0.00     0.173 A 
ATOM     87  C   UNL A   1      43.772  29.759  34.657  1.00  0.00     0.173 A 
ATOM     88  F   UNL A   1      41.980  27.456  32.492  1.00  0.00    -0.203 F 
ATOM     89  C   UNL A   1      42.310  27.408  34.802  1.00  0.00     0.198 A 
ATOM     90  C   UNL A   1      43.636  29.091  35.870  1.00  0.00     0.198 A 
ATOM     91  F   UNL A   1      44.511  30.879  34.620  1.00  0.00    -0.203 F 
ATOM     92  F   UNL A   1      41.606  26.267  34.870  1.00  0.00    -0.200 F 
ATOM     93  C   UNL A   1      42.894  27.924  35.947  1.00  0.00     0.200 A 
ATOM     94  F   UNL A   1      44.245  29.570  36.965  1.00  0.00    -0.200 F 
ATOM     95  F   UNL A   1      42.762  27.286  37.118  1.00  0.00    -0.200 F 
ENDBRANCH  62  85
ENDBRANCH  36  37
ENDBRANCH  28  31
ENDBRANCH  26  27
ENDBRANCH  25  26
ENDBRANCH   1  25
TORSDOF 14
ENDMDL
MODEL 3
REMARK VINA RESULT:     -12.9      1.472      2.021
REMARK SMILES CCc1c(C(=O)NCC(=O)NCCCNC(=O)c2ccc(-c3c4nc(c(-c5c(F)c(F)c(F)c(F)c5F)c5ccc([nH]5)c(-c5c(F)c(F)c(F)c(F)c5F)c5nc(c(-c6c(F)c(F)c(F)c(F)c6F)c6ccc3[nH]6)C=C5)C=C4)cc2)nnn1-c1ccc(Cl)cc1
REMARK SMILES IDX 12 1 11 2 9 3 10 4 8 6 7 7 5 8 6 9 4 11 3 12 83 13 81 14
REMARK SMILES IDX 82 15 2 16 1 17 84 18 85 19 90 20 86 21 89 22 87 23 88 24
REMARK SMILES IDX 13 25 14 26 15 27 16 28 17 30 18 31 19 32 80 33 20 34 79 35
REMARK SMILES IDX 21 36 22 37 23 38 73 39 24 40 78 41 72 42 74 43 25 44 77 45
REMARK SMILES IDX 71 46 70 47 26 49 58 50 38 51 57 52 39 53 42 54 56 55 75 56
REMARK SMILES IDX 40 57 41 58 55 60 76 61 43 62 27 63 28 64 36 65 29 66 30 67
REMARK SMILES IDX 34 68 37 69 31 70 32 71 35 72 33 73 59 74 60 75 68 76 61 77
REMARK SMILES IDX 62 78 66 79 69 80 63 81 64 82 67 83 65 84 44 85 45 86 53 87
REMARK SMILES IDX 46 88 47 89 51 90 54 91 48 92 49 93 52 94 50 95
REMARK H PARENT 11 5 7 10 15 29 74 48 42 59
REMARK Flexibility Score: inf
ROOT
ATOM      1  C   UNL A   1      32.031  30.028  25.535  1.00  0.00     0.117 C 
ENDROOT
BRANCH   1   2
ATOM      2  N   UNL A   1      33.092  29.678  24.612  1.00  0.00    -0.355 N 
ATOM      3  C   UNL A   1      33.046  29.008  23.431  1.00  0.00     0.239 C 
ATOM      4  O   UNL A   1      34.092  28.946  22.779  1.00  0.00    -0.273 OA
ATOM      5  H   UNL A   1      33.990  29.973  24.885  1.00  0.00     0.163 HD
BRANCH   3   6
ATOM      6  C   UNL A   1      31.727  28.558  22.800  1.00  0.00     0.216 C 
BRANCH   6   7
ATOM      7  N   UNL A   1      30.804  27.716  23.523  1.00  0.00    -0.342 N 
ATOM      8  C   UNL A   1      30.830  26.465  24.074  1.00  0.00     0.274 C 
ATOM      9  O   UNL A   1      29.806  26.199  24.715  1.00  0.00    -0.267 OA
ATOM     10  H   UNL A   1      29.933  28.155  23.652  1.00  0.00     0.164 HD
BRANCH   8  11
ATOM     11  C   UNL A   1      31.858  25.427  23.880  1.00  0.00     0.174 A 
ATOM     12  C   UNL A   1      32.936  24.868  24.580  1.00  0.00     0.077 A 
ATOM     13  N   UNL A   1      33.416  23.881  23.706  1.00  0.00    -0.217 N 
ATOM     14  N   UNL A   1      31.840  24.851  22.619  1.00  0.00    -0.124 NA
ATOM     15  N   UNL A   1      32.856  24.024  22.496  1.00  0.00    -0.061 NA
BRANCH  12  16
ATOM     16  C   UNL A   1      33.656  25.153  25.862  1.00  0.00     0.055 C 
ATOM     17  C   UNL A   1      33.706  26.654  26.158  1.00  0.00     0.011 C 
ENDBRANCH  12  16
BRANCH  13  18
ATOM     18  C   UNL A   1      34.439  22.919  23.903  1.00  0.00     0.067 A 
ATOM     19  C   UNL A   1      35.738  23.204  23.460  1.00  0.00     0.030 A 
ATOM     20  C   UNL A   1      34.175  21.712  24.559  1.00  0.00     0.030 A 
ATOM     21  C   UNL A   1      36.781  22.328  23.772  1.00  0.00     0.023 A 
ATOM     22  C   UNL A   1      35.219  20.841  24.871  1.00  0.00     0.023 A 
ATOM     23  C   UNL A   1      36.521  21.162  24.492  1.00  0.00     0.041 A 
ATOM     24  Cl  UNL A   1      37.810  20.108  24.915  1.00  0.00    -0.084 Cl
ENDBRANCH  13  18
ENDBRANCH   8  11
ENDBRANCH   6   7
ENDBRANCH   3   6
ENDBRANCH   1   2
BRANCH   1  25
ATOM     25  C   UNL A   1      32.459  29.936  26.997  1.00  0.00     0.042 C 
BRANCH  25  26
ATOM     26  C   UNL A   1      33.845  30.524  27.211  1.00  0.00     0.118 C 
BRANCH  26  27
ATOM     27  N   UNL A   1      33.848  31.605  28.201  1.00  0.00    -0.352 N 
ATOM     28  C   UNL A   1      34.783  31.867  29.186  1.00  0.00     0.251 C 
ATOM     29  H   UNL A   1      33.084  32.227  28.159  1.00  0.00     0.163 HD
ATOM     30  O   UNL A   1      34.520  32.564  30.146  1.00  0.00    -0.269 OA
BRANCH  28  31
ATOM     31  C   UNL A   1      36.121  31.271  29.038  1.00  0.00     0.039 A 
ATOM     32  C   UNL A   1      37.276  32.053  29.111  1.00  0.00     0.014 A 
ATOM     33  C   UNL A   1      36.194  29.889  28.903  1.00  0.00     0.014 A 
ATOM     34  C   UNL A   1      38.512  31.414  29.143  1.00  0.00     0.010 A 
ATOM     35  C   UNL A   1      37.392  29.259  29.112  1.00  0.00     0.010 A 
ATOM     36  C   UNL A   1      38.560  30.010  29.173  1.00  0.00    -0.014 A 
BRANCH  36  37
ATOM     37  C   UNL A   1      39.820  29.306  29.391  1.00  0.00     0.031 A 
ATOM     38  C   UNL A   1      40.167  29.091  30.823  1.00  0.00     0.074 A 
ATOM     39  C   UNL A   1      40.497  28.701  28.391  1.00  0.00     0.049 A 
ATOM     40  N   UNL A   1      41.177  29.568  31.471  1.00  0.00    -0.248 NA
ATOM     41  C   UNL A   1      39.211  28.359  31.672  1.00  0.00     0.031 C 
ATOM     42  C   UNL A   1      40.107  28.556  26.982  1.00  0.00     0.029 A 
ATOM     43  N   UNL A   1      41.650  27.980  28.448  1.00  0.00    -0.354 N 
ATOM     44  C   UNL A   1      41.098  29.040  32.758  1.00  0.00     0.074 A 
ATOM     45  C   UNL A   1      39.787  28.457  32.873  1.00  0.00     0.031 C 
ATOM     46  C   UNL A   1      40.866  27.608  26.393  1.00  0.00     0.029 A 
ATOM     47  C   UNL A   1      41.910  27.213  27.318  1.00  0.00     0.049 A 
ATOM     48  H   UNL A   1      42.252  27.999  29.228  1.00  0.00     0.167 HD
ATOM     49  C   UNL A   1      42.215  28.907  33.526  1.00  0.00     0.037 A 
ATOM     50  C   UNL A   1      42.903  26.303  27.161  1.00  0.00     0.037 A 
ATOM     51  C   UNL A   1      43.284  29.737  33.024  1.00  0.00     0.049 A 
ATOM     52  C   UNL A   1      43.926  26.591  28.197  1.00  0.00     0.074 A 
ATOM     53  C   UNL A   1      43.445  31.092  32.814  1.00  0.00     0.029 A 
ATOM     54  N   UNL A   1      44.272  29.132  32.288  1.00  0.00    -0.354 N 
ATOM     55  N   UNL A   1      44.667  27.663  28.206  1.00  0.00    -0.248 NA
ATOM     56  C   UNL A   1      43.797  25.907  29.473  1.00  0.00     0.031 C 
ATOM     57  C   UNL A   1      44.178  31.191  31.593  1.00  0.00     0.029 A 
ATOM     58  C   UNL A   1      44.487  29.898  31.173  1.00  0.00     0.049 A 
ATOM     59  H   UNL A   1      44.741  28.298  32.520  1.00  0.00     0.167 HD
ATOM     60  C   UNL A   1      44.722  28.037  29.539  1.00  0.00     0.074 A 
ATOM     61  C   UNL A   1      44.249  26.869  30.281  1.00  0.00     0.031 C 
ATOM     62  C   UNL A   1      44.865  29.348  29.892  1.00  0.00     0.037 A 
BRANCH  49  63
ATOM     63  C   UNL A   1      42.477  27.745  34.462  1.00  0.00     0.064 A 
ATOM     64  C   UNL A   1      43.010  26.551  33.931  1.00  0.00     0.173 A 
ATOM     65  C   UNL A   1      41.940  27.639  35.764  1.00  0.00     0.173 A 
ATOM     66  F   UNL A   1      43.538  26.526  32.699  1.00  0.00    -0.203 F 
ATOM     67  C   UNL A   1      42.916  25.332  34.609  1.00  0.00     0.198 A 
ATOM     68  C   UNL A   1      41.898  26.431  36.459  1.00  0.00     0.198 A 
ATOM     69  F   UNL A   1      41.333  28.661  36.376  1.00  0.00    -0.203 F 
ATOM     70  F   UNL A   1      43.306  24.202  34.004  1.00  0.00    -0.200 F 
ATOM     71  C   UNL A   1      42.350  25.271  35.869  1.00  0.00     0.200 A 
ATOM     72  F   UNL A   1      41.330  26.392  37.673  1.00  0.00    -0.200 F 
ATOM     73  F   UNL A   1      42.194  24.096  36.491  1.00  0.00    -0.200 F 
ENDBRANCH  49  63
BRANCH  50  74
ATOM     74  C   UNL A   1      42.899  25.039  26.390  1.00  0.00     0.064 A 
ATOM     75  C   UNL A   1      43.801  24.836  25.333  1.00  0.00     0.173 A 
ATOM     76  C   UNL A   1      42.220  23.899  26.863  1.00  0.00     0.173 A 
ATOM     77  F   UNL A   1      44.518  25.862  24.852  1.00  0.00    -0.203 F 
ATOM     78  C   UNL A   1      44.040  23.563  24.806  1.00  0.00     0.198 A 
ATOM     79  C   UNL A   1      42.455  22.630  26.332  1.00  0.00     0.198 A 
ATOM     80  F   UNL A   1      41.393  23.980  27.915  1.00  0.00    -0.203 F 
ATOM     81  F   UNL A   1      44.961  23.398  23.846  1.00  0.00    -0.200 F 
ATOM     82  C   UNL A   1      43.377  22.458  25.316  1.00  0.00     0.200 A 
ATOM     83  F   UNL A   1      41.836  21.564  26.860  1.00  0.00    -0.200 F 
ATOM     84  F   UNL A   1      43.656  21.229  24.860  1.00  0.00    -0.200 F 
ENDBRANCH  50  74
BRANCH  62  85
ATOM     85  C   UNL A   1      45.238  30.325  28.809  1.00  0.00     0.064 A 
ATOM     86  C   UNL A   1      44.315  30.979  27.973  1.00  0.00     0.173 A 
ATOM     87  C   UNL A   1      46.583  30.701  28.694  1.00  0.00     0.173 A 
ATOM     88  F   UNL A   1      43.001  30.758  28.085  1.00  0.00    -0.203 F 
ATOM     89  C   UNL A   1      44.730  31.920  27.031  1.00  0.00     0.198 A 
ATOM     90  C   UNL A   1      46.990  31.669  27.780  1.00  0.00     0.198 A 
ATOM     91  F   UNL A   1      47.505  30.153  29.502  1.00  0.00    -0.203 F 
ATOM     92  F   UNL A   1      43.831  32.513  26.230  1.00  0.00    -0.200 F 
ATOM     93  C   UNL A   1      46.066  32.269  26.940  1.00  0.00     0.200 A 
ATOM     94  F   UNL A   1      48.278  32.037  27.732  1.00  0.00    -0.200 F 
ATOM     95  F   UNL A   1      46.463  33.198  26.059  1.00  0.00    -0.200 F 
ENDBRANCH  62  85
ENDBRANCH  36  37
ENDBRANCH  28  31
ENDBRANCH  26  27
ENDBRANCH  25  26
ENDBRANCH   1  25
TORSDOF 14
ENDMDL
