MODEL 1
REMARK VINA RESULT:     -12.7      0.000      0.000
REMARK SMILES O=C(NCCCNC(=O)[C@H]1CCCN1S(=O)(=O)c1cccc([N+](=O)[O-])c1)c1ccc(-c2c3nc(c(-c4c(F)c(F)c(F)c(F)c4F)c4ccc([nH]4)c(-c4c(F)c(F)c(F)c(F)c4F)c4nc(c(-c5c(F)c(F)c(F)c(F)c5F)c5ccc2[nH]5)C=C4)C=C3)cc1
REMARK SMILES IDX 5 1 4 2 3 3 1 4 2 5 27 7 28 8 89 9 29 10 88 11 30 12 31 13
REMARK SMILES IDX 32 14 82 15 33 16 87 17 81 18 83 19 34 20 86 21 80 22 79 23
REMARK SMILES IDX 35 25 67 26 47 27 66 28 48 29 51 30 65 31 84 32 49 33 50 34
REMARK SMILES IDX 64 36 85 37 52 38 36 39 37 40 45 41 38 42 39 43 43 44 46 45
REMARK SMILES IDX 40 46 41 47 44 48 42 49 68 50 69 51 77 52 70 53 71 54 75 55
REMARK SMILES IDX 78 56 72 57 73 58 76 59 74 60 53 61 54 62 62 63 55 64 56 65
REMARK SMILES IDX 60 66 63 67 57 68 58 69 61 70 59 71 6 72 7 73 8 74 9 76
REMARK SMILES IDX 10 77 11 78 14 79 12 80 13 81 15 82 16 83 17 84 18 85 19 86
REMARK SMILES IDX 26 87 20 88 22 89 21 90 23 91 24 92 25 93
REMARK H PARENT 3 6 83 24 51 35 7 75
REMARK Flexibility Score: inf
ROOT
ATOM      1  C   UNL A   1      31.280  32.319  26.480  1.00  0.00     0.042 C 
ENDROOT
BRANCH   1   2
ATOM      2  C   UNL A   1      32.575  32.829  27.097  1.00  0.00     0.118 C 
BRANCH   2   3
ATOM      3  N   UNL A   1      32.443  34.169  27.655  1.00  0.00    -0.352 N 
ATOM      4  O   UNL A   1      32.687  35.837  29.145  1.00  0.00    -0.269 OA
ATOM      5  C   UNL A   1      33.098  34.768  28.704  1.00  0.00     0.251 C 
ATOM      6  H   UNL A   1      31.777  34.738  27.207  1.00  0.00     0.163 HD
BRANCH   5   7
ATOM      7  C   UNL A   1      34.281  34.127  29.316  1.00  0.00     0.039 A 
ATOM      8  C   UNL A   1      34.133  33.125  30.275  1.00  0.00     0.014 A 
ATOM      9  C   UNL A   1      35.562  34.498  28.893  1.00  0.00     0.014 A 
ATOM     10  C   UNL A   1      35.247  32.623  30.932  1.00  0.00     0.010 A 
ATOM     11  C   UNL A   1      36.689  33.906  29.475  1.00  0.00     0.010 A 
ATOM     12  C   UNL A   1      36.539  32.984  30.519  1.00  0.00    -0.014 A 
BRANCH  12  13
ATOM     13  C   UNL A   1      37.701  32.301  31.141  1.00  0.00     0.031 A 
ATOM     14  C   UNL A   1      38.134  32.610  32.545  1.00  0.00     0.074 A 
ATOM     15  C   UNL A   1      38.339  31.352  30.426  1.00  0.00     0.049 A 
ATOM     16  N   UNL A   1      39.110  32.080  33.239  1.00  0.00    -0.248 NA
ATOM     17  C   UNL A   1      37.388  33.654  33.264  1.00  0.00     0.031 C 
ATOM     18  C   UNL A   1      38.016  30.983  29.044  1.00  0.00     0.029 A 
ATOM     19  N   UNL A   1      39.365  30.506  30.761  1.00  0.00    -0.354 N 
ATOM     20  C   UNL A   1      39.113  32.740  34.460  1.00  0.00     0.074 A 
ATOM     21  C   UNL A   1      38.049  33.720  34.412  1.00  0.00     0.031 C 
ATOM     22  C   UNL A   1      38.782  29.949  28.672  1.00  0.00     0.029 A 
ATOM     23  C   UNL A   1      39.698  29.628  29.759  1.00  0.00     0.049 A 
ATOM     24  H   UNL A   1      39.818  30.528  31.633  1.00  0.00     0.167 HD
ATOM     25  C   UNL A   1      39.928  32.537  35.522  1.00  0.00     0.037 A 
ATOM     26  C   UNL A   1      40.648  28.677  29.711  1.00  0.00     0.037 A 
ATOM     27  C   UNL A   1      40.960  31.533  35.575  1.00  0.00     0.049 A 
ATOM     28  C   UNL A   1      41.529  28.474  30.909  1.00  0.00     0.074 A 
ATOM     29  C   UNL A   1      41.803  31.217  36.626  1.00  0.00     0.029 A 
ATOM     30  N   UNL A   1      41.286  30.680  34.531  1.00  0.00    -0.354 N 
ATOM     31  N   UNL A   1      41.500  29.087  32.066  1.00  0.00    -0.248 NA
ATOM     32  C   UNL A   1      42.580  27.456  30.790  1.00  0.00     0.031 C 
ATOM     33  C   UNL A   1      42.666  30.199  36.207  1.00  0.00     0.029 A 
ATOM     34  C   UNL A   1      42.334  29.853  34.907  1.00  0.00     0.049 A 
ATOM     35  H   UNL A   1      40.840  30.663  33.654  1.00  0.00     0.167 HD
ATOM     36  C   UNL A   1      42.525  28.531  32.815  1.00  0.00     0.074 A 
ATOM     37  C   UNL A   1      43.137  27.507  31.992  1.00  0.00     0.031 C 
ATOM     38  C   UNL A   1      42.931  28.846  34.068  1.00  0.00     0.037 A 
BRANCH  25  39
ATOM     39  C   UNL A   1      39.758  33.423  36.721  1.00  0.00     0.064 A 
ATOM     40  C   UNL A   1      40.436  34.645  36.836  1.00  0.00     0.173 A 
ATOM     41  C   UNL A   1      38.842  33.082  37.727  1.00  0.00     0.173 A 
ATOM     42  F   UNL A   1      41.328  35.012  35.905  1.00  0.00    -0.203 F 
ATOM     43  C   UNL A   1      40.208  35.490  37.920  1.00  0.00     0.198 A 
ATOM     44  C   UNL A   1      38.600  33.938  38.798  1.00  0.00     0.198 A 
ATOM     45  F   UNL A   1      38.164  31.926  37.660  1.00  0.00    -0.203 F 
ATOM     46  F   UNL A   1      40.881  36.644  38.023  1.00  0.00    -0.200 F 
ATOM     47  C   UNL A   1      39.284  35.140  38.895  1.00  0.00     0.200 A 
ATOM     48  F   UNL A   1      37.699  33.603  39.732  1.00  0.00    -0.200 F 
ATOM     49  F   UNL A   1      39.053  35.962  39.928  1.00  0.00    -0.200 F 
ENDBRANCH  25  39
BRANCH  26  50
ATOM     50  C   UNL A   1      40.822  27.867  28.480  1.00  0.00     0.064 A 
ATOM     51  C   UNL A   1      40.171  26.636  28.326  1.00  0.00     0.173 A 
ATOM     52  C   UNL A   1      41.631  28.315  27.425  1.00  0.00     0.173 A 
ATOM     53  F   UNL A   1      39.401  26.157  29.314  1.00  0.00    -0.203 F 
ATOM     54  C   UNL A   1      40.334  25.877  27.169  1.00  0.00     0.198 A 
ATOM     55  C   UNL A   1      41.769  27.570  26.257  1.00  0.00     0.198 A 
ATOM     56  F   UNL A   1      42.271  29.490  27.521  1.00  0.00    -0.203 F 
ATOM     57  F   UNL A   1      39.733  24.684  27.063  1.00  0.00    -0.200 F 
ATOM     58  C   UNL A   1      41.128  26.348  26.133  1.00  0.00     0.200 A 
ATOM     59  F   UNL A   1      42.522  28.038  25.252  1.00  0.00    -0.200 F 
ATOM     60  F   UNL A   1      41.277  25.621  25.017  1.00  0.00    -0.200 F 
ENDBRANCH  26  50
BRANCH  38  61
ATOM     61  C   UNL A   1      44.086  28.068  34.619  1.00  0.00     0.064 A 
ATOM     62  C   UNL A   1      45.404  28.531  34.485  1.00  0.00     0.173 A 
ATOM     63  C   UNL A   1      43.875  26.860  35.298  1.00  0.00     0.173 A 
ATOM     64  F   UNL A   1      45.656  29.671  33.826  1.00  0.00    -0.203 F 
ATOM     65  C   UNL A   1      46.471  27.796  34.993  1.00  0.00     0.198 A 
ATOM     66  C   UNL A   1      44.942  26.142  35.826  1.00  0.00     0.198 A 
ATOM     67  F   UNL A   1      42.631  26.380  35.452  1.00  0.00    -0.203 F 
ATOM     68  F   UNL A   1      47.727  28.231  34.815  1.00  0.00    -0.200 F 
ATOM     69  C   UNL A   1      46.241  26.607  35.667  1.00  0.00     0.200 A 
ATOM     70  F   UNL A   1      44.718  24.996  36.483  1.00  0.00    -0.200 F 
ATOM     71  F   UNL A   1      47.269  25.901  36.155  1.00  0.00    -0.200 F 
ENDBRANCH  38  61
ENDBRANCH  12  13
ENDBRANCH   5   7
ENDBRANCH   2   3
ENDBRANCH   1   2
BRANCH   1  72
ATOM     72  C   UNL A   1      31.402  30.926  25.885  1.00  0.00     0.117 C 
BRANCH  72  73
ATOM     73  N   UNL A   1      32.085  30.010  26.785  1.00  0.00    -0.355 N 
ATOM     74  C   UNL A   1      32.780  28.871  26.491  1.00  0.00     0.238 C 
ATOM     75  H   UNL A   1      32.040  30.244  27.739  1.00  0.00     0.163 HD
ATOM     76  O   UNL A   1      33.284  28.254  27.431  1.00  0.00    -0.273 OA
BRANCH  74  77
ATOM     77  C   UNL A   1      32.912  28.440  25.026  1.00  0.00     0.162 C 
ATOM     78  C   UNL A   1      33.895  27.282  24.886  1.00  0.00     0.032 C 
ATOM     79  N   UNL A   1      31.628  27.885  24.494  1.00  0.00    -0.185 NA
ATOM     80  C   UNL A   1      33.060  26.082  25.279  1.00  0.00     0.019 C 
ATOM     81  C   UNL A   1      31.652  26.414  24.797  1.00  0.00     0.103 C 
BRANCH  79  82
ATOM     82  S   UNL A   1      31.251  28.256  22.877  1.00  0.00     0.244 S 
ATOM     83  O   UNL A   1      32.269  29.158  22.375  1.00  0.00    -0.207 OA
ATOM     84  O   UNL A   1      30.956  27.017  22.195  1.00  0.00    -0.207 OA
BRANCH  82  85
ATOM     85  C   UNL A   1      29.726  29.183  22.943  1.00  0.00     0.089 A 
ATOM     86  C   UNL A   1      28.519  28.499  23.143  1.00  0.00     0.022 A 
ATOM     87  C   UNL A   1      29.714  30.545  22.638  1.00  0.00     0.107 A 
ATOM     88  C   UNL A   1      27.301  29.178  23.057  1.00  0.00     0.008 A 
ATOM     89  C   UNL A   1      28.489  31.226  22.594  1.00  0.00     0.270 A 
ATOM     90  C   UNL A   1      27.280  30.547  22.788  1.00  0.00     0.086 A 
BRANCH  89  91
ATOM     91  N   UNL A   1      28.480  32.671  22.341  1.00  0.00     0.062 N 
ATOM     92  O   UNL A   1      27.821  33.085  21.380  1.00  0.00    -0.258 OA
ATOM     93  O   UNL A   1      29.126  33.388  23.120  1.00  0.00    -0.258 OA
ENDBRANCH  89  91
ENDBRANCH  82  85
ENDBRANCH  79  82
ENDBRANCH  74  77
ENDBRANCH  72  73
ENDBRANCH   1  72
TORSDOF 13
ENDMDL
MODEL 2
REMARK VINA RESULT:     -12.7      0.066      1.594
REMARK SMILES O=C(NCCCNC(=O)[C@H]1CCCN1S(=O)(=O)c1cccc([N+](=O)[O-])c1)c1ccc(-c2c3nc(c(-c4c(F)c(F)c(F)c(F)c4F)c4ccc([nH]4)c(-c4c(F)c(F)c(F)c(F)c4F)c4nc(c(-c5c(F)c(F)c(F)c(F)c5F)c5ccc2[nH]5)C=C4)C=C3)cc1
REMARK SMILES IDX 5 1 4 2 3 3 1 4 2 5 27 7 28 8 89 9 29 10 88 11 30 12 31 13
REMARK SMILES IDX 32 14 82 15 33 16 87 17 81 18 83 19 34 20 86 21 80 22 79 23
REMARK SMILES IDX 35 25 67 26 47 27 66 28 48 29 51 30 65 31 84 32 49 33 50 34
REMARK SMILES IDX 64 36 85 37 52 38 36 39 37 40 45 41 38 42 39 43 43 44 46 45
REMARK SMILES IDX 40 46 41 47 44 48 42 49 68 50 69 51 77 52 70 53 71 54 75 55
REMARK SMILES IDX 78 56 72 57 73 58 76 59 74 60 53 61 54 62 62 63 55 64 56 65
REMARK SMILES IDX 60 66 63 67 57 68 58 69 61 70 59 71 6 72 7 73 8 74 9 76
REMARK SMILES IDX 10 77 11 78 14 79 12 80 13 81 15 82 16 83 17 84 18 85 19 86
REMARK SMILES IDX 26 87 20 88 22 89 21 90 23 91 24 92 25 93
REMARK H PARENT 3 6 83 24 51 35 7 75
REMARK Flexibility Score: inf
ROOT
ATOM      1  C   UNL A   1      31.261  32.235  26.503  1.00  0.00     0.042 C 
ENDROOT
BRANCH   1   2
ATOM      2  C   UNL A   1      32.569  32.803  27.038  1.00  0.00     0.118 C 
BRANCH   2   3
ATOM      3  N   UNL A   1      32.407  34.126  27.627  1.00  0.00    -0.352 N 
ATOM      4  O   UNL A   1      32.608  35.761  29.159  1.00  0.00    -0.269 OA
ATOM      5  C   UNL A   1      33.041  34.710  28.697  1.00  0.00     0.251 C 
ATOM      6  H   UNL A   1      31.736  34.695  27.186  1.00  0.00     0.163 HD
BRANCH   5   7
ATOM      7  C   UNL A   1      34.229  34.075  29.306  1.00  0.00     0.039 A 
ATOM      8  C   UNL A   1      34.089  33.055  30.247  1.00  0.00     0.014 A 
ATOM      9  C   UNL A   1      35.508  34.470  28.897  1.00  0.00     0.014 A 
ATOM     10  C   UNL A   1      35.205  32.557  30.902  1.00  0.00     0.010 A 
ATOM     11  C   UNL A   1      36.639  33.883  29.475  1.00  0.00     0.010 A 
ATOM     12  C   UNL A   1      36.495  32.942  30.503  1.00  0.00    -0.014 A 
BRANCH  12  13
ATOM     13  C   UNL A   1      37.662  32.264  31.121  1.00  0.00     0.031 A 
ATOM     14  C   UNL A   1      38.095  32.570  32.526  1.00  0.00     0.074 A 
ATOM     15  C   UNL A   1      38.305  31.323  30.401  1.00  0.00     0.049 A 
ATOM     16  N   UNL A   1      39.075  32.044  33.216  1.00  0.00    -0.248 NA
ATOM     17  C   UNL A   1      37.343  33.606  33.250  1.00  0.00     0.031 C 
ATOM     18  C   UNL A   1      37.984  30.957  29.018  1.00  0.00     0.029 A 
ATOM     19  N   UNL A   1      39.337  30.482  30.731  1.00  0.00    -0.354 N 
ATOM     20  C   UNL A   1      39.075  32.698  34.440  1.00  0.00     0.074 A 
ATOM     21  C   UNL A   1      38.005  33.672  34.398  1.00  0.00     0.031 C 
ATOM     22  C   UNL A   1      38.756  29.930  28.641  1.00  0.00     0.029 A 
ATOM     23  C   UNL A   1      39.675  29.610  29.725  1.00  0.00     0.049 A 
ATOM     24  H   UNL A   1      39.792  30.503  31.603  1.00  0.00     0.167 HD
ATOM     25  C   UNL A   1      39.893  32.497  35.500  1.00  0.00     0.037 A 
ATOM     26  C   UNL A   1      40.632  28.666  29.672  1.00  0.00     0.037 A 
ATOM     27  C   UNL A   1      40.932  31.499  35.548  1.00  0.00     0.049 A 
ATOM     28  C   UNL A   1      41.515  28.464  30.869  1.00  0.00     0.074 A 
ATOM     29  C   UNL A   1      41.778  31.184  36.597  1.00  0.00     0.029 A 
ATOM     30  N   UNL A   1      41.262  30.652  34.500  1.00  0.00    -0.354 N 
ATOM     31  N   UNL A   1      41.484  29.072  32.028  1.00  0.00    -0.248 NA
ATOM     32  C   UNL A   1      42.573  27.452  30.744  1.00  0.00     0.031 C 
ATOM     33  C   UNL A   1      42.647  30.173  36.172  1.00  0.00     0.029 A 
ATOM     34  C   UNL A   1      42.316  29.831  34.871  1.00  0.00     0.049 A 
ATOM     35  H   UNL A   1      40.816  30.636  33.623  1.00  0.00     0.167 HD
ATOM     36  C   UNL A   1      42.513  28.519  32.773  1.00  0.00     0.074 A 
ATOM     37  C   UNL A   1      43.130  27.503  31.945  1.00  0.00     0.031 C 
ATOM     38  C   UNL A   1      42.919  28.831  34.028  1.00  0.00     0.037 A 
BRANCH  25  39
ATOM     39  C   UNL A   1      39.719  33.376  36.703  1.00  0.00     0.064 A 
ATOM     40  C   UNL A   1      40.381  34.607  36.818  1.00  0.00     0.173 A 
ATOM     41  C   UNL A   1      38.813  33.020  37.714  1.00  0.00     0.173 A 
ATOM     42  F   UNL A   1      41.263  34.989  35.883  1.00  0.00    -0.203 F 
ATOM     43  C   UNL A   1      40.149  35.445  37.906  1.00  0.00     0.198 A 
ATOM     44  C   UNL A   1      38.567  33.869  38.789  1.00  0.00     0.198 A 
ATOM     45  F   UNL A   1      38.150  31.855  37.646  1.00  0.00    -0.203 F 
ATOM     46  F   UNL A   1      40.808  36.607  38.009  1.00  0.00    -0.200 F 
ATOM     47  C   UNL A   1      39.236  35.080  38.886  1.00  0.00     0.200 A 
ATOM     48  F   UNL A   1      37.676  33.520  39.727  1.00  0.00    -0.200 F 
ATOM     49  F   UNL A   1      39.000  35.895  39.923  1.00  0.00    -0.200 F 
ENDBRANCH  25  39
BRANCH  26  50
ATOM     50  C   UNL A   1      40.809  27.862  28.438  1.00  0.00     0.064 A 
ATOM     51  C   UNL A   1      41.626  28.311  27.392  1.00  0.00     0.173 A 
ATOM     52  C   UNL A   1      40.174  26.620  28.284  1.00  0.00     0.173 A 
ATOM     53  F   UNL A   1      42.240  29.500  27.485  1.00  0.00    -0.203 F 
ATOM     54  C   UNL A   1      41.792  27.554  26.234  1.00  0.00     0.198 A 
ATOM     55  C   UNL A   1      40.364  25.851  27.139  1.00  0.00     0.198 A 
ATOM     56  F   UNL A   1      39.386  26.144  29.259  1.00  0.00    -0.203 F 
ATOM     57  F   UNL A   1      42.547  28.024  25.232  1.00  0.00    -0.200 F 
ATOM     58  C   UNL A   1      41.166  26.322  26.112  1.00  0.00     0.200 A 
ATOM     59  F   UNL A   1      39.773  24.653  27.034  1.00  0.00    -0.200 F 
ATOM     60  F   UNL A   1      41.333  25.591  25.001  1.00  0.00    -0.200 F 
ENDBRANCH  26  50
BRANCH  38  61
ATOM     61  C   UNL A   1      44.080  28.059  34.573  1.00  0.00     0.064 A 
ATOM     62  C   UNL A   1      43.893  26.837  35.236  1.00  0.00     0.173 A 
ATOM     63  C   UNL A   1      45.389  28.535  34.419  1.00  0.00     0.173 A 
ATOM     64  F   UNL A   1      42.657  26.352  35.424  1.00  0.00    -0.203 F 
ATOM     65  C   UNL A   1      44.978  26.131  35.747  1.00  0.00     0.198 A 
ATOM     66  C   UNL A   1      46.473  27.814  34.909  1.00  0.00     0.198 A 
ATOM     67  F   UNL A   1      45.616  29.698  33.789  1.00  0.00    -0.203 F 
ATOM     68  F   UNL A   1      44.776  24.988  36.418  1.00  0.00    -0.200 F 
ATOM     69  C   UNL A   1      46.266  26.616  35.579  1.00  0.00     0.200 A 
ATOM     70  F   UNL A   1      47.718  28.280  34.740  1.00  0.00    -0.200 F 
ATOM     71  F   UNL A   1      47.310  25.935  36.071  1.00  0.00    -0.200 F 
ENDBRANCH  38  61
ENDBRANCH  12  13
ENDBRANCH   5   7
ENDBRANCH   2   3
ENDBRANCH   1   2
BRANCH   1  72
ATOM     72  C   UNL A   1      31.408  30.849  25.897  1.00  0.00     0.117 C 
BRANCH  72  73
ATOM     73  N   UNL A   1      32.126  29.944  26.780  1.00  0.00    -0.355 N 
ATOM     74  C   UNL A   1      32.832  28.817  26.470  1.00  0.00     0.238 C 
ATOM     75  H   UNL A   1      32.099  30.177  27.735  1.00  0.00     0.163 HD
ATOM     76  O   UNL A   1      33.367  28.207  27.399  1.00  0.00    -0.273 OA
BRANCH  74  77
ATOM     77  C   UNL A   1      32.938  28.388  25.002  1.00  0.00     0.162 C 
ATOM     78  C   UNL A   1      33.858  27.180  24.853  1.00  0.00     0.032 C 
ATOM     79  N   UNL A   1      31.626  27.905  24.470  1.00  0.00    -0.185 NA
ATOM     80  C   UNL A   1      32.962  26.024  25.240  1.00  0.00     0.019 C 
ATOM     81  C   UNL A   1      31.572  26.433  24.764  1.00  0.00     0.103 C 
BRANCH  79  82
ATOM     82  S   UNL A   1      31.265  28.306  22.856  1.00  0.00     0.244 S 
ATOM     83  O   UNL A   1      32.284  29.223  22.384  1.00  0.00    -0.207 OA
ATOM     84  O   UNL A   1      30.986  27.078  22.146  1.00  0.00    -0.207 OA
BRANCH  82  85
ATOM     85  C   UNL A   1      29.735  29.223  22.922  1.00  0.00     0.089 A 
ATOM     86  C   UNL A   1      28.533  28.531  23.127  1.00  0.00     0.022 A 
ATOM     87  C   UNL A   1      29.713  30.584  22.612  1.00  0.00     0.107 A 
ATOM     88  C   UNL A   1      27.310  29.202  23.040  1.00  0.00     0.008 A 
ATOM     89  C   UNL A   1      28.484  31.257  22.568  1.00  0.00     0.270 A 
ATOM     90  C   UNL A   1      27.280  30.570  22.767  1.00  0.00     0.086 A 
BRANCH  89  91
ATOM     91  N   UNL A   1      28.465  32.700  22.311  1.00  0.00     0.062 N 
ATOM     92  O   UNL A   1      27.771  33.111  21.372  1.00  0.00    -0.258 OA
ATOM     93  O   UNL A   1      29.139  33.421  23.062  1.00  0.00    -0.258 OA
ENDBRANCH  89  91
ENDBRANCH  82  85
ENDBRANCH  79  82
ENDBRANCH  74  77
ENDBRANCH  72  73
ENDBRANCH   1  72
TORSDOF 13
ENDMDL
MODEL 3
REMARK VINA RESULT:     -12.6      6.510     11.578
REMARK SMILES O=C(NCCCNC(=O)[C@H]1CCCN1S(=O)(=O)c1cccc([N+](=O)[O-])c1)c1ccc(-c2c3nc(c(-c4c(F)c(F)c(F)c(F)c4F)c4ccc([nH]4)c(-c4c(F)c(F)c(F)c(F)c4F)c4nc(c(-c5c(F)c(F)c(F)c(F)c5F)c5ccc2[nH]5)C=C4)C=C3)cc1
REMARK SMILES IDX 5 1 4 2 3 3 1 4 2 5 27 7 28 8 89 9 29 10 88 11 30 12 31 13
REMARK SMILES IDX 32 14 82 15 33 16 87 17 81 18 83 19 34 20 86 21 80 22 79 23
REMARK SMILES IDX 35 25 67 26 47 27 66 28 48 29 51 30 65 31 84 32 49 33 50 34
REMARK SMILES IDX 64 36 85 37 52 38 36 39 37 40 45 41 38 42 39 43 43 44 46 45
REMARK SMILES IDX 40 46 41 47 44 48 42 49 68 50 69 51 77 52 70 53 71 54 75 55
REMARK SMILES IDX 78 56 72 57 73 58 76 59 74 60 53 61 54 62 62 63 55 64 56 65
REMARK SMILES IDX 60 66 63 67 57 68 58 69 61 70 59 71 6 72 7 73 8 74 9 76
REMARK SMILES IDX 10 77 11 78 14 79 12 80 13 81 15 82 16 83 17 84 18 85 19 86
REMARK SMILES IDX 26 87 20 88 22 89 21 90 23 91 24 92 25 93
REMARK H PARENT 3 6 83 24 51 35 7 75
REMARK Flexibility Score: inf
ROOT
ATOM      1  C   UNL A   1      38.146  19.250  25.003  1.00  0.00     0.042 C 
ENDROOT
BRANCH   1   2
ATOM      2  C   UNL A   1      39.305  19.865  25.774  1.00  0.00     0.118 C 
BRANCH   2   3
ATOM      3  N   UNL A   1      40.463  18.983  25.847  1.00  0.00    -0.352 N 
ATOM      4  O   UNL A   1      42.635  18.396  25.867  1.00  0.00    -0.269 OA
ATOM      5  C   UNL A   1      41.792  19.269  26.049  1.00  0.00     0.251 C 
ATOM      6  H   UNL A   1      40.261  18.027  25.734  1.00  0.00     0.163 HD
BRANCH   5   7
ATOM      7  C   UNL A   1      42.215  20.622  26.467  1.00  0.00     0.039 A 
ATOM      8  C   UNL A   1      42.559  21.586  25.519  1.00  0.00     0.014 A 
ATOM      9  C   UNL A   1      42.224  20.952  27.827  1.00  0.00     0.014 A 
ATOM     10  C   UNL A   1      43.074  22.807  25.928  1.00  0.00     0.010 A 
ATOM     11  C   UNL A   1      42.635  22.227  28.234  1.00  0.00     0.010 A 
ATOM     12  C   UNL A   1      43.089  23.155  27.288  1.00  0.00    -0.014 A 
BRANCH  12  13
ATOM     13  C   UNL A   1      43.498  24.531  27.666  1.00  0.00     0.031 A 
ATOM     14  C   UNL A   1      44.937  24.959  27.636  1.00  0.00     0.074 A 
ATOM     15  C   UNL A   1      42.533  25.412  27.996  1.00  0.00     0.049 A 
ATOM     16  N   UNL A   1      45.451  26.131  27.911  1.00  0.00    -0.248 NA
ATOM     17  C   UNL A   1      45.933  23.943  27.263  1.00  0.00     0.031 C 
ATOM     18  C   UNL A   1      41.102  25.101  28.077  1.00  0.00     0.029 A 
ATOM     19  N   UNL A   1      42.595  26.749  28.295  1.00  0.00    -0.354 N 
ATOM     20  C   UNL A   1      46.824  25.989  27.770  1.00  0.00     0.074 A 
ATOM     21  C   UNL A   1      47.070  24.612  27.398  1.00  0.00     0.031 C 
ATOM     22  C   UNL A   1      40.420  26.223  28.342  1.00  0.00     0.029 A 
ATOM     23  C   UNL A   1      41.365  27.317  28.520  1.00  0.00     0.049 A 
ATOM     24  H   UNL A   1      43.439  27.252  28.344  1.00  0.00     0.167 HD
ATOM     25  C   UNL A   1      47.786  26.927  27.934  1.00  0.00     0.037 A 
ATOM     26  C   UNL A   1      41.032  28.577  28.852  1.00  0.00     0.037 A 
ATOM     27  C   UNL A   1      47.531  28.306  28.268  1.00  0.00     0.049 A 
ATOM     28  C   UNL A   1      42.124  29.594  29.017  1.00  0.00     0.074 A 
ATOM     29  C   UNL A   1      48.436  29.344  28.404  1.00  0.00     0.029 A 
ATOM     30  N   UNL A   1      46.273  28.838  28.515  1.00  0.00    -0.354 N 
ATOM     31  N   UNL A   1      43.415  29.450  28.853  1.00  0.00    -0.248 NA
ATOM     32  C   UNL A   1      41.712  30.944  29.423  1.00  0.00     0.031 C 
ATOM     33  C   UNL A   1      47.732  30.495  28.772  1.00  0.00     0.029 A 
ATOM     34  C   UNL A   1      46.384  30.185  28.826  1.00  0.00     0.049 A 
ATOM     35  H   UNL A   1      45.428  28.335  28.476  1.00  0.00     0.167 HD
ATOM     36  C   UNL A   1      43.973  30.687  29.133  1.00  0.00     0.074 A 
ATOM     37  C   UNL A   1      42.875  31.580  29.447  1.00  0.00     0.031 C 
ATOM     38  C   UNL A   1      45.278  31.051  29.141  1.00  0.00     0.037 A 
BRANCH  25  39
ATOM     39  C   UNL A   1      49.217  26.507  27.769  1.00  0.00     0.064 A 
ATOM     40  C   UNL A   1      49.809  26.386  26.504  1.00  0.00     0.173 A 
ATOM     41  C   UNL A   1      50.028  26.304  28.897  1.00  0.00     0.173 A 
ATOM     42  F   UNL A   1      49.074  26.562  25.396  1.00  0.00    -0.203 F 
ATOM     43  C   UNL A   1      51.159  26.069  26.373  1.00  0.00     0.198 A 
ATOM     44  C   UNL A   1      51.382  26.009  28.762  1.00  0.00     0.198 A 
ATOM     45  F   UNL A   1      49.511  26.414  30.129  1.00  0.00    -0.203 F 
ATOM     46  F   UNL A   1      51.700  25.937  25.154  1.00  0.00    -0.200 F 
ATOM     47  C   UNL A   1      51.946  25.889  27.502  1.00  0.00     0.200 A 
ATOM     48  F   UNL A   1      52.143  25.847  29.854  1.00  0.00    -0.200 F 
ATOM     49  F   UNL A   1      53.249  25.602  27.373  1.00  0.00    -0.200 F 
ENDBRANCH  25  39
BRANCH  26  50
ATOM     50  C   UNL A   1      39.608  28.933  29.067  1.00  0.00     0.064 A 
ATOM     51  C   UNL A   1      38.805  29.379  28.008  1.00  0.00     0.173 A 
ATOM     52  C   UNL A   1      39.015  28.822  30.334  1.00  0.00     0.173 A 
ATOM     53  F   UNL A   1      39.331  29.518  26.782  1.00  0.00    -0.203 F 
ATOM     54  C   UNL A   1      37.467  29.711  28.211  1.00  0.00     0.198 A 
ATOM     55  C   UNL A   1      37.671  29.126  30.529  1.00  0.00     0.198 A 
ATOM     56  F   UNL A   1      39.740  28.395  31.379  1.00  0.00    -0.203 F 
ATOM     57  F   UNL A   1      36.732  30.172  27.190  1.00  0.00    -0.200 F 
ATOM     58  C   UNL A   1      36.900  29.578  29.470  1.00  0.00     0.200 A 
ATOM     59  F   UNL A   1      37.123  28.978  31.743  1.00  0.00    -0.200 F 
ATOM     60  F   UNL A   1      35.611  29.890  29.663  1.00  0.00    -0.200 F 
ENDBRANCH  26  50
BRANCH  38  61
ATOM     61  C   UNL A   1      45.579  32.475  29.496  1.00  0.00     0.064 A 
ATOM     62  C   UNL A   1      45.843  32.854  30.821  1.00  0.00     0.173 A 
ATOM     63  C   UNL A   1      45.621  33.464  28.504  1.00  0.00     0.173 A 
ATOM     64  F   UNL A   1      45.794  31.945  31.806  1.00  0.00    -0.203 F 
ATOM     65  C   UNL A   1      46.114  34.180  31.141  1.00  0.00     0.198 A 
ATOM     66  C   UNL A   1      45.918  34.784  28.825  1.00  0.00     0.198 A 
ATOM     67  F   UNL A   1      45.379  33.147  27.223  1.00  0.00    -0.203 F 
ATOM     68  F   UNL A   1      46.316  34.531  32.419  1.00  0.00    -0.200 F 
ATOM     69  C   UNL A   1      46.156  35.143  30.144  1.00  0.00     0.200 A 
ATOM     70  F   UNL A   1      45.966  35.713  27.860  1.00  0.00    -0.200 F 
ATOM     71  F   UNL A   1      46.418  36.420  30.455  1.00  0.00    -0.200 F 
ENDBRANCH  38  61
ENDBRANCH  12  13
ENDBRANCH   5   7
ENDBRANCH   2   3
ENDBRANCH   1   2
BRANCH   1  72
ATOM     72  C   UNL A   1      36.920  20.146  24.939  1.00  0.00     0.117 C 
BRANCH  72  73
ATOM     73  N   UNL A   1      37.273  21.527  24.654  1.00  0.00    -0.355 N 
ATOM     74  C   UNL A   1      36.572  22.669  24.923  1.00  0.00     0.238 C 
ATOM     75  H   UNL A   1      38.138  21.658  24.205  1.00  0.00     0.163 HD
ATOM     76  O   UNL A   1      37.081  23.740  24.589  1.00  0.00    -0.273 OA
BRANCH  74  77
ATOM     77  C   UNL A   1      35.219  22.558  25.634  1.00  0.00     0.162 C 
ATOM     78  C   UNL A   1      34.678  23.939  25.992  1.00  0.00     0.032 C 
ATOM     79  N   UNL A   1      34.167  21.983  24.738  1.00  0.00    -0.185 NA
ATOM     80  C   UNL A   1      34.076  24.414  24.686  1.00  0.00     0.019 C 
ATOM     81  C   UNL A   1      33.550  23.148  24.017  1.00  0.00     0.103 C 
BRANCH  79  82
ATOM     82  S   UNL A   1      33.038  20.937  25.462  1.00  0.00     0.244 S 
ATOM     83  O   UNL A   1      33.465  20.693  26.826  1.00  0.00    -0.207 OA
ATOM     84  O   UNL A   1      31.716  21.445  25.178  1.00  0.00    -0.207 OA
BRANCH  82  85
ATOM     85  C   UNL A   1      33.193  19.388  24.588  1.00  0.00     0.089 A 
ATOM     86  C   UNL A   1      32.585  19.248  23.333  1.00  0.00     0.022 A 
ATOM     87  C   UNL A   1      33.770  18.280  25.211  1.00  0.00     0.107 A 
ATOM     88  C   UNL A   1      32.568  18.006  22.692  1.00  0.00     0.008 A 
ATOM     89  C   UNL A   1      33.785  17.048  24.541  1.00  0.00     0.270 A 
ATOM     90  C   UNL A   1      33.174  16.901  23.290  1.00  0.00     0.086 A 
BRANCH  89  91
ATOM     91  N   UNL A   1      34.451  15.901  25.166  1.00  0.00     0.062 N 
ATOM     92  O   UNL A   1      33.768  14.899  25.412  1.00  0.00    -0.258 OA
ATOM     93  O   UNL A   1      35.666  16.004  25.394  1.00  0.00    -0.258 OA
ENDBRANCH  89  91
ENDBRANCH  82  85
ENDBRANCH  79  82
ENDBRANCH  74  77
ENDBRANCH  72  73
ENDBRANCH   1  72
TORSDOF 13
ENDMDL
