MODEL 1
REMARK VINA RESULT:     -13.7      0.000      0.000
REMARK SMILES O=C(NCCCNC(=O)[C@H]1CCN(c2ccc(F)cc2)[C@@H]1c1ccc(C(F)(F)F)cc1)c1ccc(-c2c3nc(c(-c4c(F)c(F)c(F)c(F)c4F)c4ccc([nH]4)c(-c4c(F)c(F)c(F)c(F)c4F)c4nc(c(-c5c(F)c(F)c(F)c(F)c5F)c5ccc2[nH]5)C=C4)C=C3)cc1
REMARK SMILES IDX 5 1 4 2 3 3 1 4 2 5 32 7 33 8 94 9 34 10 93 11 35 12 36 13
REMARK SMILES IDX 37 14 87 15 38 16 92 17 86 18 88 19 39 20 91 21 85 22 84 23
REMARK SMILES IDX 40 25 72 26 52 27 71 28 53 29 56 30 70 31 89 32 54 33 55 34
REMARK SMILES IDX 69 36 90 37 57 38 41 39 42 40 50 41 43 42 44 43 48 44 51 45
REMARK SMILES IDX 45 46 46 47 49 48 47 49 73 50 74 51 82 52 75 53 76 54 80 55
REMARK SMILES IDX 83 56 77 57 78 58 81 59 79 60 58 61 59 62 67 63 60 64 61 65
REMARK SMILES IDX 65 66 68 67 62 68 63 69 66 70 64 71 6 72 7 73 8 74 9 76
REMARK SMILES IDX 10 77 11 78 21 79 12 80 13 81 22 82 23 83 31 84 24 85 30 86
REMARK SMILES IDX 25 87 26 88 27 89 28 90 29 91 14 92 15 93 20 94 16 95 19 96
REMARK SMILES IDX 17 97 18 98
REMARK H PARENT 3 6 88 24 56 35 7 75
REMARK Flexibility Score: inf
ROOT
ATOM      1  C   UNL A   1      33.477  28.950  23.320  1.00  0.00     0.042 C 
ENDROOT
BRANCH   1   2
ATOM      2  C   UNL A   1      33.668  29.029  24.830  1.00  0.00     0.118 C 
BRANCH   2   3
ATOM      3  N   UNL A   1      32.911  30.115  25.435  1.00  0.00    -0.352 N 
ATOM      4  O   UNL A   1      32.288  31.568  27.039  1.00  0.00    -0.269 OA
ATOM      5  C   UNL A   1      33.140  30.797  26.605  1.00  0.00     0.251 C 
ATOM      6  H   UNL A   1      32.115  30.403  24.930  1.00  0.00     0.163 HD
BRANCH   5   7
ATOM      7  C   UNL A   1      34.400  30.595  27.355  1.00  0.00     0.039 A 
ATOM      8  C   UNL A   1      34.783  29.322  27.778  1.00  0.00     0.014 A 
ATOM      9  C   UNL A   1      35.227  31.694  27.612  1.00  0.00     0.014 A 
ATOM     10  C   UNL A   1      35.909  29.169  28.577  1.00  0.00     0.010 A 
ATOM     11  C   UNL A   1      36.412  31.523  28.336  1.00  0.00     0.010 A 
ATOM     12  C   UNL A   1      36.750  30.262  28.848  1.00  0.00    -0.014 A 
BRANCH  12  13
ATOM     13  C   UNL A   1      38.006  30.027  29.605  1.00  0.00     0.031 A 
ATOM     14  C   UNL A   1      38.194  30.561  30.997  1.00  0.00     0.074 A 
ATOM     15  C   UNL A   1      38.957  29.257  29.040  1.00  0.00     0.049 A 
ATOM     16  N   UNL A   1      39.200  30.379  31.817  1.00  0.00    -0.248 NA
ATOM     17  C   UNL A   1      37.124  31.410  31.544  1.00  0.00     0.031 C 
ATOM     18  C   UNL A   1      38.885  28.694  27.690  1.00  0.00     0.029 A 
ATOM     19  N   UNL A   1      40.144  28.781  29.533  1.00  0.00    -0.354 N 
ATOM     20  C   UNL A   1      38.891  31.094  32.966  1.00  0.00     0.074 A 
ATOM     21  C   UNL A   1      37.615  31.737  32.732  1.00  0.00     0.031 C 
ATOM     22  C   UNL A   1      39.938  27.888  27.492  1.00  0.00     0.029 A 
ATOM     23  C   UNL A   1      40.794  27.929  28.672  1.00  0.00     0.049 A 
ATOM     24  H   UNL A   1      40.498  29.025  30.420  1.00  0.00     0.167 HD
ATOM     25  C   UNL A   1      39.604  31.193  34.112  1.00  0.00     0.037 A 
ATOM     26  C   UNL A   1      41.949  27.255  28.814  1.00  0.00     0.037 A 
ATOM     27  C   UNL A   1      40.865  30.532  34.346  1.00  0.00     0.049 A 
ATOM     28  C   UNL A   1      42.724  27.400  30.091  1.00  0.00     0.074 A 
ATOM     29  C   UNL A   1      41.654  30.562  35.483  1.00  0.00     0.029 A 
ATOM     30  N   UNL A   1      41.515  29.720  33.429  1.00  0.00    -0.354 N 
ATOM     31  N   UNL A   1      42.413  28.072  31.172  1.00  0.00    -0.248 NA
ATOM     32  C   UNL A   1      44.014  26.703  30.165  1.00  0.00     0.031 C 
ATOM     33  C   UNL A   1      42.800  29.799  35.242  1.00  0.00     0.029 A 
ATOM     34  C   UNL A   1      42.704  29.257  33.971  1.00  0.00     0.049 A 
ATOM     35  H   UNL A   1      41.183  29.506  32.528  1.00  0.00     0.167 HD
ATOM     36  C   UNL A   1      43.462  27.873  32.057  1.00  0.00     0.074 A 
ATOM     37  C   UNL A   1      44.406  26.995  31.398  1.00  0.00     0.031 C 
ATOM     38  C   UNL A   1      43.630  28.382  33.301  1.00  0.00     0.037 A 
BRANCH  25  39
ATOM     39  C   UNL A   1      39.053  32.038  35.222  1.00  0.00     0.064 A 
ATOM     40  C   UNL A   1      39.336  33.412  35.277  1.00  0.00     0.173 A 
ATOM     41  C   UNL A   1      38.342  31.471  36.288  1.00  0.00     0.173 A 
ATOM     42  F   UNL A   1      40.021  34.001  34.285  1.00  0.00    -0.203 F 
ATOM     43  C   UNL A   1      38.948  34.180  36.371  1.00  0.00     0.198 A 
ATOM     44  C   UNL A   1      37.935  32.247  37.371  1.00  0.00     0.198 A 
ATOM     45  F   UNL A   1      38.038  30.164  36.278  1.00  0.00    -0.203 F 
ATOM     46  F   UNL A   1      39.266  35.482  36.422  1.00  0.00    -0.200 F 
ATOM     47  C   UNL A   1      38.250  33.598  37.417  1.00  0.00     0.200 A 
ATOM     48  F   UNL A   1      37.246  31.687  38.375  1.00  0.00    -0.200 F 
ATOM     49  F   UNL A   1      37.881  34.337  38.473  1.00  0.00    -0.200 F 
ENDBRANCH  25  39
BRANCH  26  50
ATOM     50  C   UNL A   1      42.431  26.375  27.717  1.00  0.00     0.064 A 
ATOM     51  C   UNL A   1      41.993  25.047  27.601  1.00  0.00     0.173 A 
ATOM     52  C   UNL A   1      43.357  26.841  26.776  1.00  0.00     0.173 A 
ATOM     53  F   UNL A   1      41.109  24.552  28.480  1.00  0.00    -0.203 F 
ATOM     54  C   UNL A   1      42.480  24.214  26.598  1.00  0.00     0.198 A 
ATOM     55  C   UNL A   1      43.821  26.016  25.754  1.00  0.00     0.198 A 
ATOM     56  F   UNL A   1      43.791  28.109  26.834  1.00  0.00    -0.203 F 
ATOM     57  F   UNL A   1      42.073  22.939  26.533  1.00  0.00    -0.200 F 
ATOM     58  C   UNL A   1      43.388  24.701  25.671  1.00  0.00     0.200 A 
ATOM     59  F   UNL A   1      44.680  26.497  24.844  1.00  0.00    -0.200 F 
ATOM     60  F   UNL A   1      43.845  23.903  24.695  1.00  0.00    -0.200 F 
ENDBRANCH  26  50
BRANCH  38  61
ATOM     61  C   UNL A   1      44.878  27.993  34.038  1.00  0.00     0.064 A 
ATOM     62  C   UNL A   1      46.060  28.730  33.875  1.00  0.00     0.173 A 
ATOM     63  C   UNL A   1      44.913  26.861  34.865  1.00  0.00     0.173 A 
ATOM     64  F   UNL A   1      46.076  29.817  33.088  1.00  0.00    -0.203 F 
ATOM     65  C   UNL A   1      47.237  28.341  34.508  1.00  0.00     0.198 A 
ATOM     66  C   UNL A   1      46.086  26.491  35.517  1.00  0.00     0.198 A 
ATOM     67  F   UNL A   1      43.803  26.135  35.064  1.00  0.00    -0.203 F 
ATOM     68  F   UNL A   1      48.362  29.044  34.317  1.00  0.00    -0.200 F 
ATOM     69  C   UNL A   1      47.248  27.226  35.331  1.00  0.00     0.200 A 
ATOM     70  F   UNL A   1      46.089  25.429  36.334  1.00  0.00    -0.200 F 
ATOM     71  F   UNL A   1      48.378  26.862  35.953  1.00  0.00    -0.200 F 
ENDBRANCH  38  61
ENDBRANCH  12  13
ENDBRANCH   5   7
ENDBRANCH   2   3
ENDBRANCH   1   2
BRANCH   1  72
ATOM     72  C   UNL A   1      32.266  28.125  22.907  1.00  0.00     0.117 C 
BRANCH  72  73
ATOM     73  N   UNL A   1      32.624  27.162  21.883  1.00  0.00    -0.356 N 
ATOM     74  C   UNL A   1      32.912  25.837  21.980  1.00  0.00     0.225 C 
ATOM     75  H   UNL A   1      32.664  27.527  20.970  1.00  0.00     0.163 HD
ATOM     76  O   UNL A   1      33.295  25.277  20.952  1.00  0.00    -0.275 OA
BRANCH  74  77
ATOM     77  C   UNL A   1      32.716  25.096  23.294  1.00  0.00     0.107 C 
ATOM     78  C   UNL A   1      31.235  24.722  23.474  1.00  0.00     0.037 C 
ATOM     79  C   UNL A   1      33.446  23.726  23.332  1.00  0.00     0.125 C 
ATOM     80  C   UNL A   1      31.272  23.511  24.382  1.00  0.00     0.118 C 
ATOM     81  N   UNL A   1      32.476  22.805  23.970  1.00  0.00    -0.364 N 
BRANCH  79  82
ATOM     82  C   UNL A   1      34.742  23.673  24.139  1.00  0.00    -0.025 A 
ATOM     83  C   UNL A   1      34.794  24.299  25.398  1.00  0.00     0.006 A 
ATOM     84  C   UNL A   1      35.931  23.123  23.633  1.00  0.00     0.006 A 
ATOM     85  C   UNL A   1      35.987  24.370  26.124  1.00  0.00     0.013 A 
ATOM     86  C   UNL A   1      37.118  23.165  24.372  1.00  0.00     0.013 A 
ATOM     87  C   UNL A   1      37.161  23.796  25.622  1.00  0.00     0.056 A 
BRANCH  87  88
ATOM     88  C   UNL A   1      38.465  23.918  26.370  1.00  0.00     0.416 C 
ATOM     89  F   UNL A   1      39.297  24.842  25.816  1.00  0.00    -0.166 F 
ATOM     90  F   UNL A   1      38.306  24.291  27.672  1.00  0.00    -0.166 F 
ATOM     91  F   UNL A   1      39.170  22.752  26.404  1.00  0.00    -0.166 F 
ENDBRANCH  87  88
ENDBRANCH  79  82
BRANCH  81  92
ATOM     92  C   UNL A   1      32.399  21.498  23.515  1.00  0.00     0.037 A 
ATOM     93  C   UNL A   1      32.018  21.177  22.204  1.00  0.00     0.029 A 
ATOM     94  C   UNL A   1      32.720  20.443  24.382  1.00  0.00     0.029 A 
ATOM     95  C   UNL A   1      31.952  19.846  21.778  1.00  0.00     0.041 A 
ATOM     96  C   UNL A   1      32.665  19.113  23.962  1.00  0.00     0.041 A 
ATOM     97  C   UNL A   1      32.278  18.827  22.662  1.00  0.00     0.123 A 
ATOM     98  F   UNL A   1      32.214  17.553  22.255  1.00  0.00    -0.207 F 
ENDBRANCH  81  92
ENDBRANCH  74  77
ENDBRANCH  72  73
ENDBRANCH   1  72
TORSDOF 13
ENDMDL
MODEL 2
REMARK VINA RESULT:     -13.7      0.115      1.600
REMARK SMILES O=C(NCCCNC(=O)[C@H]1CCN(c2ccc(F)cc2)[C@@H]1c1ccc(C(F)(F)F)cc1)c1ccc(-c2c3nc(c(-c4c(F)c(F)c(F)c(F)c4F)c4ccc([nH]4)c(-c4c(F)c(F)c(F)c(F)c4F)c4nc(c(-c5c(F)c(F)c(F)c(F)c5F)c5ccc2[nH]5)C=C4)C=C3)cc1
REMARK SMILES IDX 5 1 4 2 3 3 1 4 2 5 32 7 33 8 94 9 34 10 93 11 35 12 36 13
REMARK SMILES IDX 37 14 87 15 38 16 92 17 86 18 88 19 39 20 91 21 85 22 84 23
REMARK SMILES IDX 40 25 72 26 52 27 71 28 53 29 56 30 70 31 89 32 54 33 55 34
REMARK SMILES IDX 69 36 90 37 57 38 41 39 42 40 50 41 43 42 44 43 48 44 51 45
REMARK SMILES IDX 45 46 46 47 49 48 47 49 73 50 74 51 82 52 75 53 76 54 80 55
REMARK SMILES IDX 83 56 77 57 78 58 81 59 79 60 58 61 59 62 67 63 60 64 61 65
REMARK SMILES IDX 65 66 68 67 62 68 63 69 66 70 64 71 6 72 7 73 8 74 9 76
REMARK SMILES IDX 10 77 11 78 21 79 12 80 13 81 22 82 23 83 31 84 24 85 30 86
REMARK SMILES IDX 25 87 26 88 27 89 28 90 29 91 14 92 15 93 20 94 16 95 19 96
REMARK SMILES IDX 17 97 18 98
REMARK H PARENT 3 6 88 24 56 35 7 75
REMARK Flexibility Score: inf
ROOT
ATOM      1  C   UNL A   1      33.546  28.825  23.436  1.00  0.00     0.042 C 
ENDROOT
BRANCH   1   2
ATOM      2  C   UNL A   1      33.650  28.902  24.955  1.00  0.00     0.118 C 
BRANCH   2   3
ATOM      3  N   UNL A   1      32.935  30.042  25.508  1.00  0.00    -0.352 N 
ATOM      4  O   UNL A   1      32.375  31.596  27.040  1.00  0.00    -0.269 OA
ATOM      5  C   UNL A   1      33.197  30.775  26.640  1.00  0.00     0.251 C 
ATOM      6  H   UNL A   1      32.145  30.331  24.996  1.00  0.00     0.163 HD
BRANCH   5   7
ATOM      7  C   UNL A   1      34.457  30.570  27.390  1.00  0.00     0.039 A 
ATOM      8  C   UNL A   1      34.815  29.304  27.852  1.00  0.00     0.014 A 
ATOM      9  C   UNL A   1      35.309  31.658  27.607  1.00  0.00     0.014 A 
ATOM     10  C   UNL A   1      35.943  29.152  28.650  1.00  0.00     0.010 A 
ATOM     11  C   UNL A   1      36.494  31.486  28.330  1.00  0.00     0.010 A 
ATOM     12  C   UNL A   1      36.808  30.234  28.880  1.00  0.00    -0.014 A 
BRANCH  12  13
ATOM     13  C   UNL A   1      38.064  29.997  29.638  1.00  0.00     0.031 A 
ATOM     14  C   UNL A   1      38.260  30.549  31.021  1.00  0.00     0.074 A 
ATOM     15  C   UNL A   1      39.005  29.208  29.082  1.00  0.00     0.049 A 
ATOM     16  N   UNL A   1      39.266  30.368  31.842  1.00  0.00    -0.248 NA
ATOM     17  C   UNL A   1      37.202  31.417  31.558  1.00  0.00     0.031 C 
ATOM     18  C   UNL A   1      38.923  28.626  27.740  1.00  0.00     0.029 A 
ATOM     19  N   UNL A   1      40.188  28.726  29.580  1.00  0.00    -0.354 N 
ATOM     20  C   UNL A   1      38.967  31.102  32.981  1.00  0.00     0.074 A 
ATOM     21  C   UNL A   1      37.698  31.756  32.741  1.00  0.00     0.031 C 
ATOM     22  C   UNL A   1      39.967  27.806  27.552  1.00  0.00     0.029 A 
ATOM     23  C   UNL A   1      40.825  27.854  28.730  1.00  0.00     0.049 A 
ATOM     24  H   UNL A   1      40.546  28.979  30.462  1.00  0.00     0.167 HD
ATOM     25  C   UNL A   1      39.685  31.210  34.125  1.00  0.00     0.037 A 
ATOM     26  C   UNL A   1      41.974  27.169  28.879  1.00  0.00     0.037 A 
ATOM     27  C   UNL A   1      40.938  30.539  34.365  1.00  0.00     0.049 A 
ATOM     28  C   UNL A   1      42.753  27.325  30.152  1.00  0.00     0.074 A 
ATOM     29  C   UNL A   1      41.730  30.576  35.500  1.00  0.00     0.029 A 
ATOM     30  N   UNL A   1      41.578  29.706  33.459  1.00  0.00    -0.354 N 
ATOM     31  N   UNL A   1      42.452  28.016  31.224  1.00  0.00    -0.248 NA
ATOM     32  C   UNL A   1      44.036  26.614  30.234  1.00  0.00     0.031 C 
ATOM     33  C   UNL A   1      42.867  29.797  35.268  1.00  0.00     0.029 A 
ATOM     34  C   UNL A   1      42.763  29.238  34.005  1.00  0.00     0.049 A 
ATOM     35  H   UNL A   1      41.241  29.482  32.562  1.00  0.00     0.167 HD
ATOM     36  C   UNL A   1      43.500  27.818  32.110  1.00  0.00     0.074 A 
ATOM     37  C   UNL A   1      44.433  26.920  31.462  1.00  0.00     0.031 C 
ATOM     38  C   UNL A   1      43.678  28.343  33.346  1.00  0.00     0.037 A 
BRANCH  25  39
ATOM     39  C   UNL A   1      39.145  32.077  35.223  1.00  0.00     0.064 A 
ATOM     40  C   UNL A   1      39.451  33.447  35.262  1.00  0.00     0.173 A 
ATOM     41  C   UNL A   1      38.422  31.534  36.294  1.00  0.00     0.173 A 
ATOM     42  F   UNL A   1      40.147  34.013  34.265  1.00  0.00    -0.203 F 
ATOM     43  C   UNL A   1      39.073  34.234  36.346  1.00  0.00     0.198 A 
ATOM     44  C   UNL A   1      38.027  32.330  37.367  1.00  0.00     0.198 A 
ATOM     45  F   UNL A   1      38.098  30.233  36.299  1.00  0.00    -0.203 F 
ATOM     46  F   UNL A   1      39.413  35.531  36.382  1.00  0.00    -0.200 F 
ATOM     47  C   UNL A   1      38.364  33.676  37.398  1.00  0.00     0.200 A 
ATOM     48  F   UNL A   1      37.327  31.793  38.376  1.00  0.00    -0.200 F 
ATOM     49  F   UNL A   1      38.005  34.433  38.444  1.00  0.00    -0.200 F 
ENDBRANCH  25  39
BRANCH  26  50
ATOM     50  C   UNL A   1      42.443  26.269  27.794  1.00  0.00     0.064 A 
ATOM     51  C   UNL A   1      43.340  26.715  26.812  1.00  0.00     0.173 A 
ATOM     52  C   UNL A   1      41.985  24.948  27.707  1.00  0.00     0.173 A 
ATOM     53  F   UNL A   1      43.805  27.972  26.849  1.00  0.00    -0.203 F 
ATOM     54  C   UNL A   1      43.742  25.881  25.772  1.00  0.00     0.198 A 
ATOM     55  C   UNL A   1      42.411  24.105  26.685  1.00  0.00     0.198 A 
ATOM     56  F   UNL A   1      41.141  24.469  28.634  1.00  0.00    -0.203 F 
ATOM     57  F   UNL A   1      44.570  26.344  24.826  1.00  0.00    -0.200 F 
ATOM     58  C   UNL A   1      43.283  24.574  25.714  1.00  0.00     0.200 A 
ATOM     59  F   UNL A   1      41.986  22.834  26.644  1.00  0.00    -0.200 F 
ATOM     60  F   UNL A   1      43.684  23.766  24.722  1.00  0.00    -0.200 F 
ENDBRANCH  26  50
BRANCH  38  61
ATOM     61  C   UNL A   1      44.922  27.951  34.086  1.00  0.00     0.064 A 
ATOM     62  C   UNL A   1      44.929  26.825  34.920  1.00  0.00     0.173 A 
ATOM     63  C   UNL A   1      46.091  28.723  34.007  1.00  0.00     0.173 A 
ATOM     64  F   UNL A   1      43.833  26.059  35.033  1.00  0.00    -0.203 F 
ATOM     65  C   UNL A   1      46.061  26.488  35.657  1.00  0.00     0.198 A 
ATOM     66  C   UNL A   1      47.228  28.369  34.725  1.00  0.00     0.198 A 
ATOM     67  F   UNL A   1      46.136  29.801  33.210  1.00  0.00    -0.203 F 
ATOM     68  F   UNL A   1      46.038  25.422  36.468  1.00  0.00    -0.200 F 
ATOM     69  C   UNL A   1      47.211  27.257  35.555  1.00  0.00     0.200 A 
ATOM     70  F   UNL A   1      48.347  29.097  34.606  1.00  0.00    -0.200 F 
ATOM     71  F   UNL A   1      48.305  26.923  36.253  1.00  0.00    -0.200 F 
ENDBRANCH  38  61
ENDBRANCH  12  13
ENDBRANCH   5   7
ENDBRANCH   2   3
ENDBRANCH   1   2
BRANCH   1  72
ATOM     72  C   UNL A   1      32.297  28.099  22.953  1.00  0.00     0.117 C 
BRANCH  72  73
ATOM     73  N   UNL A   1      32.628  27.138  21.919  1.00  0.00    -0.356 N 
ATOM     74  C   UNL A   1      32.893  25.806  22.002  1.00  0.00     0.225 C 
ATOM     75  H   UNL A   1      32.667  27.509  21.008  1.00  0.00     0.163 HD
ATOM     76  O   UNL A   1      33.257  25.248  20.966  1.00  0.00    -0.275 OA
BRANCH  74  77
ATOM     77  C   UNL A   1      32.695  25.059  23.312  1.00  0.00     0.107 C 
ATOM     78  C   UNL A   1      31.216  24.676  23.484  1.00  0.00     0.037 C 
ATOM     79  C   UNL A   1      33.433  23.693  23.346  1.00  0.00     0.125 C 
ATOM     80  C   UNL A   1      31.255  23.461  24.386  1.00  0.00     0.118 C 
ATOM     81  N   UNL A   1      32.465  22.763  23.976  1.00  0.00    -0.364 N 
BRANCH  79  82
ATOM     82  C   UNL A   1      34.726  23.643  24.159  1.00  0.00    -0.025 A 
ATOM     83  C   UNL A   1      34.771  24.270  25.418  1.00  0.00     0.006 A 
ATOM     84  C   UNL A   1      35.918  23.094  23.659  1.00  0.00     0.006 A 
ATOM     85  C   UNL A   1      35.962  24.345  26.148  1.00  0.00     0.013 A 
ATOM     86  C   UNL A   1      37.101  23.139  24.403  1.00  0.00     0.013 A 
ATOM     87  C   UNL A   1      37.139  23.772  25.652  1.00  0.00     0.056 A 
BRANCH  87  88
ATOM     88  C   UNL A   1      38.439  23.897  26.405  1.00  0.00     0.416 C 
ATOM     89  F   UNL A   1      38.257  24.309  27.690  1.00  0.00    -0.166 F 
ATOM     90  F   UNL A   1      39.131  22.726  26.481  1.00  0.00    -0.166 F 
ATOM     91  F   UNL A   1      39.295  24.796  25.842  1.00  0.00    -0.166 F 
ENDBRANCH  87  88
ENDBRANCH  79  82
BRANCH  81  92
ATOM     92  C   UNL A   1      32.397  21.458  23.515  1.00  0.00     0.037 A 
ATOM     93  C   UNL A   1      32.045  21.142  22.195  1.00  0.00     0.029 A 
ATOM     94  C   UNL A   1      32.697  20.399  24.385  1.00  0.00     0.029 A 
ATOM     95  C   UNL A   1      31.988  19.813  21.762  1.00  0.00     0.041 A 
ATOM     96  C   UNL A   1      32.651  19.071  23.959  1.00  0.00     0.041 A 
ATOM     97  C   UNL A   1      32.292  18.790  22.650  1.00  0.00     0.123 A 
ATOM     98  F   UNL A   1      32.237  17.517  22.237  1.00  0.00    -0.207 F 
ENDBRANCH  81  92
ENDBRANCH  74  77
ENDBRANCH  72  73
ENDBRANCH   1  72
TORSDOF 13
ENDMDL
MODEL 3
REMARK VINA RESULT:     -13.3      0.313      7.294
REMARK SMILES O=C(NCCCNC(=O)[C@H]1CCN(c2ccc(F)cc2)[C@@H]1c1ccc(C(F)(F)F)cc1)c1ccc(-c2c3nc(c(-c4c(F)c(F)c(F)c(F)c4F)c4ccc([nH]4)c(-c4c(F)c(F)c(F)c(F)c4F)c4nc(c(-c5c(F)c(F)c(F)c(F)c5F)c5ccc2[nH]5)C=C4)C=C3)cc1
REMARK SMILES IDX 5 1 4 2 3 3 1 4 2 5 32 7 33 8 94 9 34 10 93 11 35 12 36 13
REMARK SMILES IDX 37 14 87 15 38 16 92 17 86 18 88 19 39 20 91 21 85 22 84 23
REMARK SMILES IDX 40 25 72 26 52 27 71 28 53 29 56 30 70 31 89 32 54 33 55 34
REMARK SMILES IDX 69 36 90 37 57 38 41 39 42 40 50 41 43 42 44 43 48 44 51 45
REMARK SMILES IDX 45 46 46 47 49 48 47 49 73 50 74 51 82 52 75 53 76 54 80 55
REMARK SMILES IDX 83 56 77 57 78 58 81 59 79 60 58 61 59 62 67 63 60 64 61 65
REMARK SMILES IDX 65 66 68 67 62 68 63 69 66 70 64 71 6 72 7 73 8 74 9 76
REMARK SMILES IDX 10 77 11 78 21 79 12 80 13 81 22 82 23 83 31 84 24 85 30 86
REMARK SMILES IDX 25 87 26 88 27 89 28 90 29 91 14 92 15 93 20 94 16 95 19 96
REMARK SMILES IDX 17 97 18 98
REMARK H PARENT 3 6 88 24 56 35 7 75
REMARK Flexibility Score: inf
ROOT
ATOM      1  C   UNL A   1      33.341  28.998  23.327  1.00  0.00     0.042 C 
ENDROOT
BRANCH   1   2
ATOM      2  C   UNL A   1      33.576  29.101  24.829  1.00  0.00     0.118 C 
BRANCH   2   3
ATOM      3  N   UNL A   1      32.910  30.250  25.424  1.00  0.00    -0.352 N 
ATOM      4  O   UNL A   1      32.382  31.742  27.025  1.00  0.00    -0.269 OA
ATOM      5  C   UNL A   1      33.167  30.895  26.609  1.00  0.00     0.251 C 
ATOM      6  H   UNL A   1      32.164  30.620  24.898  1.00  0.00     0.163 HD
BRANCH   5   7
ATOM      7  C   UNL A   1      34.376  30.563  27.395  1.00  0.00     0.039 A 
ATOM      8  C   UNL A   1      34.560  29.281  27.915  1.00  0.00     0.014 A 
ATOM      9  C   UNL A   1      35.358  31.541  27.589  1.00  0.00     0.014 A 
ATOM     10  C   UNL A   1      35.644  29.020  28.745  1.00  0.00     0.010 A 
ATOM     11  C   UNL A   1      36.497  31.249  28.346  1.00  0.00     0.010 A 
ATOM     12  C   UNL A   1      36.637  29.992  28.953  1.00  0.00    -0.014 A 
BRANCH  12  13
ATOM     13  C   UNL A   1      37.838  29.629  29.749  1.00  0.00     0.031 A 
ATOM     14  C   UNL A   1      38.917  28.751  29.181  1.00  0.00     0.074 A 
ATOM     15  C   UNL A   1      37.976  30.165  30.977  1.00  0.00     0.049 A 
ATOM     16  N   UNL A   1      40.060  28.404  29.720  1.00  0.00    -0.248 NA
ATOM     17  C   UNL A   1      38.692  28.184  27.843  1.00  0.00     0.031 C 
ATOM     18  C   UNL A   1      36.985  31.024  31.632  1.00  0.00     0.029 A 
ATOM     19  N   UNL A   1      39.009  30.108  31.877  1.00  0.00    -0.354 N 
ATOM     20  C   UNL A   1      40.683  27.576  28.796  1.00  0.00     0.074 A 
ATOM     21  C   UNL A   1      39.782  27.447  27.670  1.00  0.00     0.031 C 
ATOM     22  C   UNL A   1      37.489  31.473  32.790  1.00  0.00     0.029 A 
ATOM     23  C   UNL A   1      38.808  30.885  32.992  1.00  0.00     0.049 A 
ATOM     24  H   UNL A   1      39.817  29.562  31.738  1.00  0.00     0.167 HD
ATOM     25  C   UNL A   1      41.900  26.988  28.880  1.00  0.00     0.037 A 
ATOM     26  C   UNL A   1      39.597  31.102  34.061  1.00  0.00     0.037 A 
ATOM     27  C   UNL A   1      42.801  27.137  29.996  1.00  0.00     0.049 A 
ATOM     28  C   UNL A   1      40.932  30.421  34.130  1.00  0.00     0.074 A 
ATOM     29  C   UNL A   1      44.062  26.590  30.162  1.00  0.00     0.029 A 
ATOM     30  N   UNL A   1      42.540  27.891  31.130  1.00  0.00    -0.354 N 
ATOM     31  N   UNL A   1      41.510  29.649  33.244  1.00  0.00    -0.248 NA
ATOM     32  C   UNL A   1      41.720  30.633  35.351  1.00  0.00     0.031 C 
ATOM     33  C   UNL A   1      44.549  26.982  31.412  1.00  0.00     0.029 A 
ATOM     34  C   UNL A   1      43.610  27.809  32.007  1.00  0.00     0.049 A 
ATOM     35  H   UNL A   1      41.716  28.406  31.288  1.00  0.00     0.167 HD
ATOM     36  C   UNL A   1      42.731  29.289  33.793  1.00  0.00     0.074 A 
ATOM     37  C   UNL A   1      42.824  29.949  35.078  1.00  0.00     0.031 C 
ATOM     38  C   UNL A   1      43.685  28.475  33.281  1.00  0.00     0.037 A 
BRANCH  25  39
ATOM     39  C   UNL A   1      42.353  26.126  27.738  1.00  0.00     0.064 A 
ATOM     40  C   UNL A   1      41.986  24.772  27.681  1.00  0.00     0.173 A 
ATOM     41  C   UNL A   1      43.238  26.609  26.766  1.00  0.00     0.173 A 
ATOM     42  F   UNL A   1      41.147  24.260  28.594  1.00  0.00    -0.203 F 
ATOM     43  C   UNL A   1      42.510  23.929  26.705  1.00  0.00     0.198 A 
ATOM     44  C   UNL A   1      43.744  25.768  25.777  1.00  0.00     0.198 A 
ATOM     45  F   UNL A   1      43.611  27.897  26.772  1.00  0.00    -0.203 F 
ATOM     46  F   UNL A   1      42.179  22.630  26.694  1.00  0.00    -0.200 F 
ATOM     47  C   UNL A   1      43.389  24.426  25.755  1.00  0.00     0.200 A 
ATOM     48  F   UNL A   1      44.581  26.253  24.849  1.00  0.00    -0.200 F 
ATOM     49  F   UNL A   1      43.898  23.613  24.820  1.00  0.00    -0.200 F 
ENDBRANCH  25  39
BRANCH  26  50
ATOM     50  C   UNL A   1      39.141  32.015  35.142  1.00  0.00     0.064 A 
ATOM     51  C   UNL A   1      39.432  33.387  35.110  1.00  0.00     0.173 A 
ATOM     52  C   UNL A   1      38.422  31.526  36.240  1.00  0.00     0.173 A 
ATOM     53  F   UNL A   1      40.121  33.904  34.082  1.00  0.00    -0.203 F 
ATOM     54  C   UNL A   1      39.041  34.230  36.147  1.00  0.00     0.198 A 
ATOM     55  C   UNL A   1      38.005  32.375  37.262  1.00  0.00     0.198 A 
ATOM     56  F   UNL A   1      38.103  30.225  36.307  1.00  0.00    -0.203 F 
ATOM     57  F   UNL A   1      39.365  35.529  36.109  1.00  0.00    -0.200 F 
ATOM     58  C   UNL A   1      38.321  33.725  37.218  1.00  0.00     0.200 A 
ATOM     59  F   UNL A   1      37.287  31.889  38.285  1.00  0.00    -0.200 F 
ATOM     60  F   UNL A   1      37.930  34.540  38.209  1.00  0.00    -0.200 F 
ENDBRANCH  26  50
BRANCH  38  61
ATOM     61  C   UNL A   1      44.919  28.260  34.106  1.00  0.00     0.064 A 
ATOM     62  C   UNL A   1      44.980  27.213  35.036  1.00  0.00     0.173 A 
ATOM     63  C   UNL A   1      46.020  29.124  34.011  1.00  0.00     0.173 A 
ATOM     64  F   UNL A   1      43.949  26.365  35.169  1.00  0.00    -0.203 F 
ATOM     65  C   UNL A   1      46.098  27.043  35.849  1.00  0.00     0.198 A 
ATOM     66  C   UNL A   1      47.146  28.935  34.806  1.00  0.00     0.198 A 
ATOM     67  F   UNL A   1      46.013  30.131  33.124  1.00  0.00    -0.203 F 
ATOM     68  F   UNL A   1      46.124  26.051  36.750  1.00  0.00    -0.200 F 
ATOM     69  C   UNL A   1      47.181  27.901  35.730  1.00  0.00     0.200 A 
ATOM     70  F   UNL A   1      48.203  29.748  34.672  1.00  0.00    -0.200 F 
ATOM     71  F   UNL A   1      48.262  27.726  36.501  1.00  0.00    -0.200 F 
ENDBRANCH  38  61
ENDBRANCH  12  13
ENDBRANCH   5   7
ENDBRANCH   2   3
ENDBRANCH   1   2
BRANCH   1  72
ATOM     72  C   UNL A   1      32.182  28.082  22.958  1.00  0.00     0.117 C 
BRANCH  72  73
ATOM     73  N   UNL A   1      32.581  27.131  21.939  1.00  0.00    -0.356 N 
ATOM     74  C   UNL A   1      32.915  25.816  22.040  1.00  0.00     0.225 C 
ATOM     75  H   UNL A   1      32.615  27.496  21.025  1.00  0.00     0.163 HD
ATOM     76  O   UNL A   1      33.326  25.269  21.015  1.00  0.00    -0.275 OA
BRANCH  74  77
ATOM     77  C   UNL A   1      32.736  25.071  23.353  1.00  0.00     0.107 C 
ATOM     78  C   UNL A   1      31.259  24.693  23.549  1.00  0.00     0.037 C 
ATOM     79  C   UNL A   1      33.471  23.703  23.378  1.00  0.00     0.125 C 
ATOM     80  C   UNL A   1      31.309  23.479  24.452  1.00  0.00     0.118 C 
ATOM     81  N   UNL A   1      32.510  22.777  24.024  1.00  0.00    -0.364 N 
BRANCH  79  82
ATOM     82  C   UNL A   1      34.776  23.651  24.170  1.00  0.00    -0.025 A 
ATOM     83  C   UNL A   1      34.797  24.130  25.493  1.00  0.00     0.006 A 
ATOM     84  C   UNL A   1      35.995  23.248  23.601  1.00  0.00     0.006 A 
ATOM     85  C   UNL A   1      35.991  24.203  26.219  1.00  0.00     0.013 A 
ATOM     86  C   UNL A   1      37.184  23.290  24.337  1.00  0.00     0.013 A 
ATOM     87  C   UNL A   1      37.197  23.776  25.651  1.00  0.00     0.056 A 
BRANCH  87  88
ATOM     88  C   UNL A   1      38.497  23.904  26.404  1.00  0.00     0.416 C 
ATOM     89  F   UNL A   1      38.322  24.398  27.661  1.00  0.00    -0.166 F 
ATOM     90  F   UNL A   1      39.150  22.717  26.555  1.00  0.00    -0.166 F 
ATOM     91  F   UNL A   1      39.384  24.739  25.794  1.00  0.00    -0.166 F 
ENDBRANCH  87  88
ENDBRANCH  79  82
BRANCH  81  92
ATOM     92  C   UNL A   1      32.431  21.472  23.566  1.00  0.00     0.037 A 
ATOM     93  C   UNL A   1      32.027  21.154  22.261  1.00  0.00     0.029 A 
ATOM     94  C   UNL A   1      32.774  20.415  24.423  1.00  0.00     0.029 A 
ATOM     95  C   UNL A   1      31.960  19.824  21.831  1.00  0.00     0.041 A 
ATOM     96  C   UNL A   1      32.718  19.086  23.999  1.00  0.00     0.041 A 
ATOM     97  C   UNL A   1      32.307  18.803  22.705  1.00  0.00     0.123 A 
ATOM     98  F   UNL A   1      32.243  17.530  22.295  1.00  0.00    -0.207 F 
ENDBRANCH  81  92
ENDBRANCH  74  77
ENDBRANCH  72  73
ENDBRANCH   1  72
TORSDOF 13
ENDMDL
