MODEL 1
REMARK VINA RESULT:     -10.1      0.000      0.000
REMARK SMILES O=C(CCCC[C@@H]1CCSS1)NCCCNC(=O)c1ccc(-c2c3nc(c(-c4c(F)c(F)c(F)c(F)c4F)c4ccc([nH]4)c(-c4c(F)c(F)c(F)c(F)c4F)c4nc(c(-c5c(F)c(F)c(F)c(F)c5F)c5ccc2[nH]5)C=C4)C=C3)cc1
REMARK SMILES IDX 13 1 12 2 1 3 2 4 3 6 4 7 5 8 6 9 7 10 8 11 11 12 9 13 10 14
REMARK SMILES IDX 14 15 15 16 16 17 17 18 18 20 19 21 20 22 81 23 21 24 80 25
REMARK SMILES IDX 22 26 23 27 24 28 74 29 25 30 79 31 73 32 75 33 26 34 78 35
REMARK SMILES IDX 72 36 71 37 27 39 59 40 39 41 58 42 40 43 43 44 57 45 76 46
REMARK SMILES IDX 41 47 42 48 56 50 77 51 44 52 28 53 29 54 37 55 30 56 31 57
REMARK SMILES IDX 35 58 38 59 32 60 33 61 36 62 34 63 60 64 61 65 69 66 62 67
REMARK SMILES IDX 63 68 67 69 70 70 64 71 65 72 68 73 66 74 45 75 46 76 54 77
REMARK SMILES IDX 47 78 48 79 52 80 55 81 49 82 50 83 53 84 51 85
REMARK H PARENT 12 5 16 19 75 38 43 49
REMARK Flexibility Score: inf
ROOT
ATOM      1  C   UNL A   1      34.653  34.858  28.181  1.00  0.00     0.117 C 
ENDROOT
BRANCH   1   2
ATOM      2  N   UNL A   1      34.222  35.309  29.488  1.00  0.00    -0.356 N 
ATOM      3  O   UNL A   1      32.374  36.453  28.751  1.00  0.00    -0.275 OA
ATOM      4  C   UNL A   1      33.061  36.020  29.671  1.00  0.00     0.219 C 
ATOM      5  H   UNL A   1      34.779  35.098  30.271  1.00  0.00     0.163 HD
BRANCH   4   6
ATOM      6  C   UNL A   1      32.678  36.227  31.123  1.00  0.00     0.100 C 
BRANCH   6   7
ATOM      7  C   UNL A   1      33.410  35.269  32.069  1.00  0.00     0.010 C 
BRANCH   7   8
ATOM      8  C   UNL A   1      34.525  35.858  32.952  1.00  0.00     0.002 C 
BRANCH   8   9
ATOM      9  C   UNL A   1      35.153  34.929  34.001  1.00  0.00     0.015 C 
BRANCH   9  10
ATOM     10  C   UNL A   1      36.207  33.925  33.504  1.00  0.00     0.059 C 
ATOM     11  C   UNL A   1      35.701  32.591  32.958  1.00  0.00     0.027 C 
ATOM     12  S   UNL A   1      37.356  33.514  34.867  1.00  0.00    -0.091 SA
ATOM     13  C   UNL A   1      36.874  31.644  32.728  1.00  0.00     0.083 C 
ATOM     14  S   UNL A   1      37.778  31.592  34.292  1.00  0.00    -0.094 SA
ENDBRANCH   9  10
ENDBRANCH   8   9
ENDBRANCH   7   8
ENDBRANCH   6   7
ENDBRANCH   4   6
ENDBRANCH   1   2
BRANCH   1  15
ATOM     15  C   UNL A   1      35.351  33.504  28.224  1.00  0.00     0.042 C 
BRANCH  15  16
ATOM     16  C   UNL A   1      34.777  32.510  29.228  1.00  0.00     0.118 C 
BRANCH  16  17
ATOM     17  N   UNL A   1      34.126  31.366  28.608  1.00  0.00    -0.352 N 
ATOM     18  C   UNL A   1      34.657  30.187  28.150  1.00  0.00     0.251 C 
ATOM     19  H   UNL A   1      33.152  31.452  28.500  1.00  0.00     0.163 HD
ATOM     20  O   UNL A   1      33.931  29.397  27.546  1.00  0.00    -0.269 OA
BRANCH  18  21
ATOM     21  C   UNL A   1      36.087  29.856  28.345  1.00  0.00     0.039 A 
ATOM     22  C   UNL A   1      36.486  29.328  29.577  1.00  0.00     0.014 A 
ATOM     23  C   UNL A   1      37.045  30.099  27.357  1.00  0.00     0.014 A 
ATOM     24  C   UNL A   1      37.826  29.004  29.800  1.00  0.00     0.010 A 
ATOM     25  C   UNL A   1      38.369  29.703  27.552  1.00  0.00     0.010 A 
ATOM     26  C   UNL A   1      38.777  29.166  28.781  1.00  0.00    -0.014 A 
BRANCH  26  27
ATOM     27  C   UNL A   1      40.203  28.805  29.006  1.00  0.00     0.031 A 
ATOM     28  C   UNL A   1      41.124  29.752  29.728  1.00  0.00     0.074 A 
ATOM     29  C   UNL A   1      40.680  27.635  28.537  1.00  0.00     0.049 A 
ATOM     30  N   UNL A   1      42.393  29.612  30.021  1.00  0.00    -0.248 NA
ATOM     31  C   UNL A   1      40.551  31.037  30.157  1.00  0.00     0.031 C 
ATOM     32  C   UNL A   1      39.909  26.654  27.774  1.00  0.00     0.029 A 
ATOM     33  N   UNL A   1      41.930  27.075  28.634  1.00  0.00    -0.354 N 
ATOM     34  C   UNL A   1      42.770  30.791  30.653  1.00  0.00     0.074 A 
ATOM     35  C   UNL A   1      41.612  31.658  30.650  1.00  0.00     0.031 C 
ATOM     36  C   UNL A   1      40.692  25.599  27.497  1.00  0.00     0.029 A 
ATOM     37  C   UNL A   1      42.026  25.839  28.041  1.00  0.00     0.049 A 
ATOM     38  H   UNL A   1      42.684  27.516  29.086  1.00  0.00     0.167 HD
ATOM     39  C   UNL A   1      43.962  31.112  31.210  1.00  0.00     0.037 A 
ATOM     40  C   UNL A   1      43.070  24.993  27.952  1.00  0.00     0.037 A 
ATOM     41  C   UNL A   1      45.108  30.241  31.236  1.00  0.00     0.049 A 
ATOM     42  C   UNL A   1      44.376  25.364  28.602  1.00  0.00     0.074 A 
ATOM     43  C   UNL A   1      46.346  30.458  31.818  1.00  0.00     0.029 A 
ATOM     44  N   UNL A   1      45.155  28.983  30.655  1.00  0.00    -0.354 N 
ATOM     45  N   UNL A   1      44.696  26.450  29.260  1.00  0.00    -0.248 NA
ATOM     46  C   UNL A   1      45.460  24.376  28.512  1.00  0.00     0.031 C 
ATOM     47  C   UNL A   1      47.154  29.346  31.556  1.00  0.00     0.029 A 
ATOM     48  C   UNL A   1      46.404  28.415  30.857  1.00  0.00     0.049 A 
ATOM     49  H   UNL A   1      44.412  28.556  30.172  1.00  0.00     0.167 HD
ATOM     50  C   UNL A   1      46.003  26.263  29.694  1.00  0.00     0.074 A 
ATOM     51  C   UNL A   1      46.410  24.952  29.235  1.00  0.00     0.031 C 
ATOM     52  C   UNL A   1      46.793  27.103  30.408  1.00  0.00     0.037 A 
BRANCH  39  53
ATOM     53  C   UNL A   1      44.085  32.468  31.847  1.00  0.00     0.064 A 
ATOM     54  C   UNL A   1      43.776  32.673  33.201  1.00  0.00     0.173 A 
ATOM     55  C   UNL A   1      44.544  33.566  31.105  1.00  0.00     0.173 A 
ATOM     56  F   UNL A   1      43.321  31.660  33.952  1.00  0.00    -0.203 F 
ATOM     57  C   UNL A   1      43.892  33.936  33.779  1.00  0.00     0.198 A 
ATOM     58  C   UNL A   1      44.689  34.820  31.695  1.00  0.00     0.198 A 
ATOM     59  F   UNL A   1      44.860  33.425  29.810  1.00  0.00    -0.203 F 
ATOM     60  F   UNL A   1      43.541  34.118  35.060  1.00  0.00    -0.200 F 
ATOM     61  C   UNL A   1      44.355  35.005  33.028  1.00  0.00     0.200 A 
ATOM     62  F   UNL A   1      45.150  35.850  30.972  1.00  0.00    -0.200 F 
ATOM     63  F   UNL A   1      44.471  36.217  33.588  1.00  0.00    -0.200 F 
ENDBRANCH  39  53
BRANCH  40  64
ATOM     64  C   UNL A   1      42.910  23.687  27.261  1.00  0.00     0.064 A 
ATOM     65  C   UNL A   1      42.324  22.594  27.916  1.00  0.00     0.173 A 
ATOM     66  C   UNL A   1      43.350  23.499  25.943  1.00  0.00     0.173 A 
ATOM     67  F   UNL A   1      41.907  22.719  29.184  1.00  0.00    -0.203 F 
ATOM     68  C   UNL A   1      42.206  21.357  27.287  1.00  0.00     0.198 A 
ATOM     69  C   UNL A   1      43.205  22.270  25.305  1.00  0.00     0.198 A 
ATOM     70  F   UNL A   1      43.912  24.515  25.271  1.00  0.00    -0.203 F 
ATOM     71  F   UNL A   1      41.689  20.316  27.954  1.00  0.00    -0.200 F 
ATOM     72  C   UNL A   1      42.642  21.196  25.981  1.00  0.00     0.200 A 
ATOM     73  F   UNL A   1      43.616  22.122  24.039  1.00  0.00    -0.200 F 
ATOM     74  F   UNL A   1      42.529  20.007  25.376  1.00  0.00    -0.200 F 
ENDBRANCH  40  64
BRANCH  52  75
ATOM     75  C   UNL A   1      48.158  26.605  30.784  1.00  0.00     0.064 A 
ATOM     76  C   UNL A   1      48.382  25.866  31.956  1.00  0.00     0.173 A 
ATOM     77  C   UNL A   1      49.258  26.859  29.949  1.00  0.00     0.173 A 
ATOM     78  F   UNL A   1      47.368  25.609  32.795  1.00  0.00    -0.203 F 
ATOM     79  C   UNL A   1      49.662  25.436  32.298  1.00  0.00     0.198 A 
ATOM     80  C   UNL A   1      50.530  26.400  30.278  1.00  0.00     0.198 A 
ATOM     81  F   UNL A   1      49.098  27.553  28.812  1.00  0.00    -0.203 F 
ATOM     82  F   UNL A   1      49.861  24.786  33.452  1.00  0.00    -0.200 F 
ATOM     83  C   UNL A   1      50.733  25.699  31.457  1.00  0.00     0.200 A 
ATOM     84  F   UNL A   1      51.562  26.642  29.457  1.00  0.00    -0.200 F 
ATOM     85  F   UNL A   1      51.964  25.285  31.788  1.00  0.00    -0.200 F 
ENDBRANCH  52  75
ENDBRANCH  26  27
ENDBRANCH  18  21
ENDBRANCH  16  17
ENDBRANCH  15  16
ENDBRANCH   1  15
TORSDOF 14
ENDMDL
MODEL 2
REMARK VINA RESULT:     -10.1      4.164     11.361
REMARK SMILES O=C(CCCC[C@@H]1CCSS1)NCCCNC(=O)c1ccc(-c2c3nc(c(-c4c(F)c(F)c(F)c(F)c4F)c4ccc([nH]4)c(-c4c(F)c(F)c(F)c(F)c4F)c4nc(c(-c5c(F)c(F)c(F)c(F)c5F)c5ccc2[nH]5)C=C4)C=C3)cc1
REMARK SMILES IDX 13 1 12 2 1 3 2 4 3 6 4 7 5 8 6 9 7 10 8 11 11 12 9 13 10 14
REMARK SMILES IDX 14 15 15 16 16 17 17 18 18 20 19 21 20 22 81 23 21 24 80 25
REMARK SMILES IDX 22 26 23 27 24 28 74 29 25 30 79 31 73 32 75 33 26 34 78 35
REMARK SMILES IDX 72 36 71 37 27 39 59 40 39 41 58 42 40 43 43 44 57 45 76 46
REMARK SMILES IDX 41 47 42 48 56 50 77 51 44 52 28 53 29 54 37 55 30 56 31 57
REMARK SMILES IDX 35 58 38 59 32 60 33 61 36 62 34 63 60 64 61 65 69 66 62 67
REMARK SMILES IDX 63 68 67 69 70 70 64 71 65 72 68 73 66 74 45 75 46 76 54 77
REMARK SMILES IDX 47 78 48 79 52 80 55 81 49 82 50 83 53 84 51 85
REMARK H PARENT 12 5 16 19 75 38 43 49
REMARK Flexibility Score: inf
ROOT
ATOM      1  C   UNL A   1      41.753  19.515  26.303  1.00  0.00     0.117 C 
ENDROOT
BRANCH   1   2
ATOM      2  N   UNL A   1      42.822  19.769  25.359  1.00  0.00    -0.356 N 
ATOM      3  O   UNL A   1      44.172  18.049  26.054  1.00  0.00    -0.275 OA
ATOM      4  C   UNL A   1      43.926  18.957  25.267  1.00  0.00     0.219 C 
ATOM      5  H   UNL A   1      42.753  20.549  24.763  1.00  0.00     0.163 HD
BRANCH   4   6
ATOM      6  C   UNL A   1      44.832  19.266  24.092  1.00  0.00     0.100 C 
BRANCH   6   7
ATOM      7  C   UNL A   1      46.107  20.008  24.508  1.00  0.00     0.010 C 
BRANCH   7   8
ATOM      8  C   UNL A   1      46.020  21.537  24.664  1.00  0.00     0.002 C 
BRANCH   8   9
ATOM      9  C   UNL A   1      45.655  22.080  26.053  1.00  0.00     0.015 C 
BRANCH   9  10
ATOM     10  C   UNL A   1      44.678  23.265  26.106  1.00  0.00     0.059 C 
ATOM     11  C   UNL A   1      44.149  23.797  24.774  1.00  0.00     0.027 C 
ATOM     12  S   UNL A   1      45.476  24.685  26.939  1.00  0.00    -0.091 SA
ATOM     13  C   UNL A   1      43.385  25.097  24.999  1.00  0.00     0.083 C 
ATOM     14  S   UNL A   1      44.508  26.176  25.916  1.00  0.00    -0.094 SA
ENDBRANCH   9  10
ENDBRANCH   8   9
ENDBRANCH   7   8
ENDBRANCH   6   7
ENDBRANCH   4   6
ENDBRANCH   1   2
BRANCH   1  15
ATOM     15  C   UNL A   1      41.386  20.744  27.125  1.00  0.00     0.042 C 
BRANCH  15  16
ATOM     16  C   UNL A   1      41.185  22.025  26.322  1.00  0.00     0.118 C 
BRANCH  16  17
ATOM     17  N   UNL A   1      39.817  22.217  25.866  1.00  0.00    -0.352 N 
ATOM     18  C   UNL A   1      38.939  23.243  26.108  1.00  0.00     0.251 C 
ATOM     19  H   UNL A   1      39.466  21.497  25.293  1.00  0.00     0.163 HD
ATOM     20  O   UNL A   1      37.777  23.144  25.714  1.00  0.00    -0.269 OA
BRANCH  18  21
ATOM     21  C   UNL A   1      39.353  24.454  26.853  1.00  0.00     0.039 A 
ATOM     22  C   UNL A   1      38.979  24.569  28.197  1.00  0.00     0.014 A 
ATOM     23  C   UNL A   1      40.058  25.494  26.243  1.00  0.00     0.014 A 
ATOM     24  C   UNL A   1      39.349  25.696  28.934  1.00  0.00     0.010 A 
ATOM     25  C   UNL A   1      40.494  26.583  27.000  1.00  0.00     0.010 A 
ATOM     26  C   UNL A   1      40.131  26.704  28.349  1.00  0.00    -0.014 A 
BRANCH  26  27
ATOM     27  C   UNL A   1      40.544  27.899  29.134  1.00  0.00     0.031 A 
ATOM     28  C   UNL A   1      41.947  28.011  29.668  1.00  0.00     0.074 A 
ATOM     29  C   UNL A   1      39.649  28.872  29.393  1.00  0.00     0.049 A 
ATOM     30  N   UNL A   1      42.492  28.974  30.370  1.00  0.00    -0.248 NA
ATOM     31  C   UNL A   1      42.851  26.882  29.400  1.00  0.00     0.031 C 
ATOM     32  C   UNL A   1      38.245  28.860  28.983  1.00  0.00     0.029 A 
ATOM     33  N   UNL A   1      39.790  30.061  30.065  1.00  0.00    -0.354 N 
ATOM     34  C   UNL A   1      43.792  28.561  30.636  1.00  0.00     0.074 A 
ATOM     35  C   UNL A   1      43.937  27.238  30.072  1.00  0.00     0.031 C 
ATOM     36  C   UNL A   1      37.660  30.000  29.384  1.00  0.00     0.029 A 
ATOM     37  C   UNL A   1      38.640  30.812  30.102  1.00  0.00     0.049 A 
ATOM     38  H   UNL A   1      40.635  30.348  30.481  1.00  0.00     0.167 HD
ATOM     39  C   UNL A   1      44.784  29.234  31.268  1.00  0.00     0.037 A 
ATOM     40  C   UNL A   1      38.404  32.021  30.645  1.00  0.00     0.037 A 
ATOM     41  C   UNL A   1      44.649  30.562  31.808  1.00  0.00     0.049 A 
ATOM     42  C   UNL A   1      39.530  32.758  31.319  1.00  0.00     0.074 A 
ATOM     43  C   UNL A   1      45.610  31.346  32.425  1.00  0.00     0.029 A 
ATOM     44  N   UNL A   1      43.478  31.303  31.794  1.00  0.00    -0.354 N 
ATOM     45  N   UNL A   1      40.774  32.387  31.499  1.00  0.00    -0.248 NA
ATOM     46  C   UNL A   1      39.220  34.093  31.849  1.00  0.00     0.031 C 
ATOM     47  C   UNL A   1      45.009  32.547  32.817  1.00  0.00     0.029 A 
ATOM     48  C   UNL A   1      43.688  32.533  32.400  1.00  0.00     0.049 A 
ATOM     49  H   UNL A   1      42.623  31.002  31.411  1.00  0.00     0.167 HD
ATOM     50  C   UNL A   1      41.404  33.455  32.128  1.00  0.00     0.074 A 
ATOM     51  C   UNL A   1      40.407  34.493  32.284  1.00  0.00     0.031 C 
ATOM     52  C   UNL A   1      42.692  33.564  32.537  1.00  0.00     0.037 A 
BRANCH  39  53
ATOM     53  C   UNL A   1      46.111  28.542  31.403  1.00  0.00     0.064 A 
ATOM     54  C   UNL A   1      47.108  28.670  30.423  1.00  0.00     0.173 A 
ATOM     55  C   UNL A   1      46.402  27.769  32.537  1.00  0.00     0.173 A 
ATOM     56  F   UNL A   1      46.877  29.387  29.313  1.00  0.00    -0.203 F 
ATOM     57  C   UNL A   1      48.334  28.022  30.558  1.00  0.00     0.198 A 
ATOM     58  C   UNL A   1      47.640  27.150  32.684  1.00  0.00     0.198 A 
ATOM     59  F   UNL A   1      45.488  27.620  33.506  1.00  0.00    -0.203 F 
ATOM     60  F   UNL A   1      49.250  28.116  29.584  1.00  0.00    -0.200 F 
ATOM     61  C   UNL A   1      48.602  27.270  31.691  1.00  0.00     0.200 A 
ATOM     62  F   UNL A   1      47.903  26.433  33.785  1.00  0.00    -0.200 F 
ATOM     63  F   UNL A   1      49.784  26.652  31.822  1.00  0.00    -0.200 F 
ENDBRANCH  39  53
BRANCH  40  64
ATOM     64  C   UNL A   1      37.056  32.636  30.533  1.00  0.00     0.064 A 
ATOM     65  C   UNL A   1      36.684  33.348  29.383  1.00  0.00     0.173 A 
ATOM     66  C   UNL A   1      36.119  32.538  31.571  1.00  0.00     0.173 A 
ATOM     67  F   UNL A   1      37.554  33.486  28.372  1.00  0.00    -0.203 F 
ATOM     68  C   UNL A   1      35.437  33.960  29.286  1.00  0.00     0.198 A 
ATOM     69  C   UNL A   1      34.860  33.125  31.461  1.00  0.00     0.198 A 
ATOM     70  F   UNL A   1      36.424  31.863  32.689  1.00  0.00    -0.203 F 
ATOM     71  F   UNL A   1      35.127  34.676  28.198  1.00  0.00    -0.200 F 
ATOM     72  C   UNL A   1      34.524  33.844  30.323  1.00  0.00     0.200 A 
ATOM     73  F   UNL A   1      33.977  33.000  32.460  1.00  0.00    -0.200 F 
ATOM     74  F   UNL A   1      33.323  34.431  30.231  1.00  0.00    -0.200 F 
ENDBRANCH  40  64
BRANCH  52  75
ATOM     75  C   UNL A   1      43.110  34.872  33.143  1.00  0.00     0.064 A 
ATOM     76  C   UNL A   1      43.063  35.097  34.527  1.00  0.00     0.173 A 
ATOM     77  C   UNL A   1      43.579  35.913  32.326  1.00  0.00     0.173 A 
ATOM     78  F   UNL A   1      42.609  34.140  35.351  1.00  0.00    -0.203 F 
ATOM     79  C   UNL A   1      43.431  36.327  35.066  1.00  0.00     0.198 A 
ATOM     80  C   UNL A   1      43.977  37.130  32.871  1.00  0.00     0.198 A 
ATOM     81  F   UNL A   1      43.652  35.748  30.997  1.00  0.00    -0.203 F 
ATOM     82  F   UNL A   1      43.319  36.539  36.385  1.00  0.00    -0.200 F 
ATOM     83  C   UNL A   1      43.892  37.340  34.239  1.00  0.00     0.200 A 
ATOM     84  F   UNL A   1      44.435  38.103  32.071  1.00  0.00    -0.200 F 
ATOM     85  F   UNL A   1      44.246  38.524  34.759  1.00  0.00    -0.200 F 
ENDBRANCH  52  75
ENDBRANCH  26  27
ENDBRANCH  18  21
ENDBRANCH  16  17
ENDBRANCH  15  16
ENDBRANCH   1  15
TORSDOF 14
ENDMDL
MODEL 3
REMARK VINA RESULT:     -10.1      6.662      9.837
REMARK SMILES O=C(CCCC[C@@H]1CCSS1)NCCCNC(=O)c1ccc(-c2c3nc(c(-c4c(F)c(F)c(F)c(F)c4F)c4ccc([nH]4)c(-c4c(F)c(F)c(F)c(F)c4F)c4nc(c(-c5c(F)c(F)c(F)c(F)c5F)c5ccc2[nH]5)C=C4)C=C3)cc1
REMARK SMILES IDX 13 1 12 2 1 3 2 4 3 6 4 7 5 8 6 9 7 10 8 11 11 12 9 13 10 14
REMARK SMILES IDX 14 15 15 16 16 17 17 18 18 20 19 21 20 22 81 23 21 24 80 25
REMARK SMILES IDX 22 26 23 27 24 28 74 29 25 30 79 31 73 32 75 33 26 34 78 35
REMARK SMILES IDX 72 36 71 37 27 39 59 40 39 41 58 42 40 43 43 44 57 45 76 46
REMARK SMILES IDX 41 47 42 48 56 50 77 51 44 52 28 53 29 54 37 55 30 56 31 57
REMARK SMILES IDX 35 58 38 59 32 60 33 61 36 62 34 63 60 64 61 65 69 66 62 67
REMARK SMILES IDX 63 68 67 69 70 70 64 71 65 72 68 73 66 74 45 75 46 76 54 77
REMARK SMILES IDX 47 78 48 79 52 80 55 81 49 82 50 83 53 84 51 85
REMARK H PARENT 12 5 16 19 75 38 43 49
REMARK Flexibility Score: inf
ROOT
ATOM      1  C   UNL A   1      42.398  39.213  27.149  1.00  0.00     0.117 C 
ENDROOT
BRANCH   1   2
ATOM      2  N   UNL A   1      42.745  40.077  26.040  1.00  0.00    -0.356 N 
ATOM      3  O   UNL A   1      40.721  41.151  25.926  1.00  0.00    -0.275 OA
ATOM      4  C   UNL A   1      41.887  41.037  25.561  1.00  0.00     0.219 C 
ATOM      5  H   UNL A   1      43.627  39.973  25.615  1.00  0.00     0.163 HD
BRANCH   4   6
ATOM      6  C   UNL A   1      42.501  41.970  24.538  1.00  0.00     0.100 C 
BRANCH   6   7
ATOM      7  C   UNL A   1      41.667  42.070  23.255  1.00  0.00     0.010 C 
BRANCH   7   8
ATOM      8  C   UNL A   1      42.017  43.197  22.267  1.00  0.00     0.002 C 
BRANCH   8   9
ATOM      9  C   UNL A   1      42.374  42.785  20.832  1.00  0.00     0.015 C 
BRANCH   9  10
ATOM     10  C   UNL A   1      42.216  43.854  19.737  1.00  0.00     0.059 C 
ATOM     11  C   UNL A   1      41.040  43.701  18.773  1.00  0.00     0.027 C 
ATOM     12  S   UNL A   1      43.722  43.900  18.700  1.00  0.00    -0.091 SA
ATOM     13  C   UNL A   1      41.168  44.704  17.632  1.00  0.00     0.083 C 
ATOM     14  S   UNL A   1      42.821  44.458  16.944  1.00  0.00    -0.094 SA
ENDBRANCH   9  10
ENDBRANCH   8   9
ENDBRANCH   7   8
ENDBRANCH   6   7
ENDBRANCH   4   6
ENDBRANCH   1   2
BRANCH   1  15
ATOM     15  C   UNL A   1      42.923  39.724  28.484  1.00  0.00     0.042 C 
BRANCH  15  16
ATOM     16  C   UNL A   1      43.718  38.710  29.299  1.00  0.00     0.118 C 
BRANCH  16  17
ATOM     17  N   UNL A   1      45.145  38.727  29.018  1.00  0.00    -0.352 N 
ATOM     18  C   UNL A   1      46.024  37.690  28.834  1.00  0.00     0.251 C 
ATOM     19  H   UNL A   1      45.543  39.625  28.950  1.00  0.00     0.163 HD
ATOM     20  O   UNL A   1      47.226  37.934  28.722  1.00  0.00    -0.269 OA
BRANCH  18  21
ATOM     21  C   UNL A   1      45.561  36.284  28.790  1.00  0.00     0.039 A 
ATOM     22  C   UNL A   1      44.860  35.849  27.660  1.00  0.00     0.014 A 
ATOM     23  C   UNL A   1      45.764  35.404  29.856  1.00  0.00     0.014 A 
ATOM     24  C   UNL A   1      44.406  34.531  27.581  1.00  0.00     0.010 A 
ATOM     25  C   UNL A   1      45.380  34.067  29.743  1.00  0.00     0.010 A 
ATOM     26  C   UNL A   1      44.682  33.619  28.612  1.00  0.00    -0.014 A 
BRANCH  26  27
ATOM     27  C   UNL A   1      44.217  32.208  28.525  1.00  0.00     0.031 A 
ATOM     28  C   UNL A   1      42.909  31.798  29.144  1.00  0.00     0.074 A 
ATOM     29  C   UNL A   1      44.986  31.287  27.913  1.00  0.00     0.049 A 
ATOM     30  N   UNL A   1      42.337  30.619  29.170  1.00  0.00    -0.248 NA
ATOM     31  C   UNL A   1      42.152  32.843  29.850  1.00  0.00     0.031 C 
ATOM     32  C   UNL A   1      46.300  31.541  27.322  1.00  0.00     0.029 A 
ATOM     33  N   UNL A   1      44.772  29.949  27.688  1.00  0.00    -0.354 N 
ATOM     34  C   UNL A   1      41.167  30.780  29.901  1.00  0.00     0.074 A 
ATOM     35  C   UNL A   1      41.137  32.154  30.352  1.00  0.00     0.031 C 
ATOM     36  C   UNL A   1      46.763  30.405  26.774  1.00  0.00     0.029 A 
ATOM     37  C   UNL A   1      45.791  29.338  26.998  1.00  0.00     0.049 A 
ATOM     38  H   UNL A   1      43.966  29.475  27.991  1.00  0.00     0.167 HD
ATOM     39  C   UNL A   1      40.191  29.874  30.152  1.00  0.00     0.037 A 
ATOM     40  C   UNL A   1      45.923  28.063  26.585  1.00  0.00     0.037 A 
ATOM     41  C   UNL A   1      40.205  28.513  29.683  1.00  0.00     0.049 A 
ATOM     42  C   UNL A   1      44.812  27.083  26.855  1.00  0.00     0.074 A 
ATOM     43  C   UNL A   1      39.241  27.532  29.845  1.00  0.00     0.029 A 
ATOM     44  N   UNL A   1      41.239  27.940  28.957  1.00  0.00    -0.354 N 
ATOM     45  N   UNL A   1      43.678  27.267  27.484  1.00  0.00    -0.248 NA
ATOM     46  C   UNL A   1      44.996  25.720  26.336  1.00  0.00     0.031 C 
ATOM     47  C   UNL A   1      39.710  26.356  29.249  1.00  0.00     0.029 A 
ATOM     48  C   UNL A   1      40.940  26.617  28.671  1.00  0.00     0.049 A 
ATOM     49  H   UNL A   1      42.063  28.405  28.684  1.00  0.00     0.167 HD
ATOM     50  C   UNL A   1      42.997  26.058  27.406  1.00  0.00     0.074 A 
ATOM     51  C   UNL A   1      43.841  25.152  26.655  1.00  0.00     0.031 C 
ATOM     52  C   UNL A   1      41.782  25.730  27.910  1.00  0.00     0.037 A 
BRANCH  39  53
ATOM     53  C   UNL A   1      39.015  30.332  30.969  1.00  0.00     0.064 A 
ATOM     54  C   UNL A   1      38.997  30.198  32.366  1.00  0.00     0.173 A 
ATOM     55  C   UNL A   1      37.909  30.936  30.353  1.00  0.00     0.173 A 
ATOM     56  F   UNL A   1      40.024  29.616  33.004  1.00  0.00    -0.203 F 
ATOM     57  C   UNL A   1      37.900  30.624  33.113  1.00  0.00     0.198 A 
ATOM     58  C   UNL A   1      36.829  31.389  31.106  1.00  0.00     0.198 A 
ATOM     59  F   UNL A   1      37.878  31.094  29.023  1.00  0.00    -0.203 F 
ATOM     60  F   UNL A   1      37.883  30.437  34.440  1.00  0.00    -0.200 F 
ATOM     61  C   UNL A   1      36.821  31.225  32.484  1.00  0.00     0.200 A 
ATOM     62  F   UNL A   1      35.792  31.982  30.498  1.00  0.00    -0.200 F 
ATOM     63  F   UNL A   1      35.770  31.638  33.204  1.00  0.00    -0.200 F 
ENDBRANCH  39  53
BRANCH  40  64
ATOM     64  C   UNL A   1      47.133  27.648  25.829  1.00  0.00     0.064 A 
ATOM     65  C   UNL A   1      48.283  27.208  26.500  1.00  0.00     0.173 A 
ATOM     66  C   UNL A   1      47.172  27.695  24.429  1.00  0.00     0.173 A 
ATOM     67  F   UNL A   1      48.302  27.165  27.840  1.00  0.00    -0.203 F 
ATOM     68  C   UNL A   1      49.434  26.854  25.799  1.00  0.00     0.198 A 
ATOM     69  C   UNL A   1      48.313  27.313  23.728  1.00  0.00     0.198 A 
ATOM     70  F   UNL A   1      46.095  28.103  23.741  1.00  0.00    -0.203 F 
ATOM     71  F   UNL A   1      50.536  26.486  26.467  1.00  0.00    -0.200 F 
ATOM     72  C   UNL A   1      49.447  26.903  24.414  1.00  0.00     0.200 A 
ATOM     73  F   UNL A   1      48.317  27.349  22.389  1.00  0.00    -0.200 F 
ATOM     74  F   UNL A   1      50.553  26.562  23.739  1.00  0.00    -0.200 F 
ENDBRANCH  40  64
BRANCH  52  75
ATOM     75  C   UNL A   1      41.270  24.349  27.619  1.00  0.00     0.064 A 
ATOM     76  C   UNL A   1      41.815  23.210  28.231  1.00  0.00     0.173 A 
ATOM     77  C   UNL A   1      40.205  24.165  26.723  1.00  0.00     0.173 A 
ATOM     78  F   UNL A   1      42.843  23.330  29.084  1.00  0.00    -0.203 F 
ATOM     79  C   UNL A   1      41.341  21.937  27.926  1.00  0.00     0.198 A 
ATOM     80  C   UNL A   1      39.712  22.893  26.445  1.00  0.00     0.198 A 
ATOM     81  F   UNL A   1      39.641  25.220  26.116  1.00  0.00    -0.203 F 
ATOM     82  F   UNL A   1      41.919  20.860  28.476  1.00  0.00    -0.200 F 
ATOM     83  C   UNL A   1      40.287  21.780  27.038  1.00  0.00     0.200 A 
ATOM     84  F   UNL A   1      38.684  22.744  25.597  1.00  0.00    -0.200 F 
ATOM     85  F   UNL A   1      39.832  20.553  26.746  1.00  0.00    -0.200 F 
ENDBRANCH  52  75
ENDBRANCH  26  27
ENDBRANCH  18  21
ENDBRANCH  16  17
ENDBRANCH  15  16
ENDBRANCH   1  15
TORSDOF 14
ENDMDL
