MODEL 1
REMARK VINA RESULT:     -13.6      0.000      0.000
REMARK SMILES O=C(C[N@@H+]1CCC[C@@H]1c1nc2ccccc2s1)Nc1sc2c(c1C(=O)NCCCNC(=O)c1ccc(-c3c4nc(c(-c5c(F)c(F)c(F)c(F)c5F)c5ccc([nH]5)c(-c5c(F)c(F)c(F)c(F)c5F)c5nc(c(-c6c(F)c(F)c(F)c(F)c6F)c6ccc3[nH]6)C=C5)C=C4)cc1)CCCC2
REMARK SMILES IDX 27 1 26 2 24 3 25 4 23 6 19 7 20 8 21 9 22 10 99 11 96 12
REMARK SMILES IDX 98 13 97 14 18 15 1 16 2 17 3 19 4 20 5 21 8 22 6 24 7 25
REMARK SMILES IDX 9 26 10 27 17 28 11 29 16 30 12 31 15 32 13 33 14 34 28 35
REMARK SMILES IDX 29 36 30 37 31 38 32 40 33 41 34 42 95 43 35 44 94 45 36 46
REMARK SMILES IDX 37 47 38 48 88 49 39 50 93 51 87 52 89 53 40 54 92 55 86 56
REMARK SMILES IDX 85 57 41 59 73 60 53 61 72 62 54 63 57 64 71 65 90 66 55 67
REMARK SMILES IDX 56 68 70 70 91 71 58 72 42 73 43 74 51 75 44 76 45 77 49 78
REMARK SMILES IDX 52 79 46 80 47 81 50 82 48 83 74 84 75 85 83 86 76 87 77 88
REMARK SMILES IDX 81 89 84 90 78 91 79 92 82 93 80 94 59 95 60 96 68 97 61 98
REMARK SMILES IDX 62 99 66 100 69 101 63 102 64 103 67 104 65 105
REMARK H PARENT 26 5 18 18 4 23 30 39 89 58 57 69
REMARK Flexibility Score: inf
ROOT
ATOM      1  C   UNL A   1      37.245  21.036  24.410  1.00  0.00     0.118 C 
ENDROOT
BRANCH   1   2
ATOM      2  N   UNL A   1      36.253  21.468  25.372  1.00  0.00    -0.352 N 
ATOM      3  C   UNL A   1      34.920  21.214  25.554  1.00  0.00     0.254 C 
ATOM      4  O   UNL A   1      34.435  21.762  26.553  1.00  0.00    -0.269 OA
ATOM      5  H   UNL A   1      36.620  22.085  26.047  1.00  0.00     0.163 HD
BRANCH   3   6
ATOM      6  C   UNL A   1      34.099  20.289  24.753  1.00  0.00     0.078 A 
ATOM      7  C   UNL A   1      33.070  20.840  23.973  1.00  0.00     0.109 A 
ATOM      8  S   UNL A   1      32.290  19.711  22.987  1.00  0.00    -0.122 S 
ATOM      9  C   UNL A   1      33.194  18.437  23.619  1.00  0.00     0.011 A 
ATOM     10  C   UNL A   1      34.139  18.840  24.550  1.00  0.00    -0.019 A 
ATOM     11  C   UNL A   1      32.964  17.035  23.142  1.00  0.00     0.047 C 
ATOM     12  C   UNL A   1      35.029  17.805  25.179  1.00  0.00     0.037 C 
ATOM     13  C   UNL A   1      33.505  16.039  24.167  1.00  0.00     0.006 C 
ATOM     14  C   UNL A   1      34.939  16.406  24.549  1.00  0.00     0.005 C 
BRANCH   7  15
ATOM     15  N   UNL A   1      32.687  22.180  23.935  1.00  0.00    -0.312 N 
ATOM     16  O   UNL A   1      34.138  23.086  22.327  1.00  0.00    -0.268 OA
ATOM     17  C   UNL A   1      33.196  23.181  23.109  1.00  0.00     0.280 C 
ATOM     18  H   UNL A   1      31.978  22.449  24.562  1.00  0.00     0.170 HD
BRANCH  17  19
ATOM     19  C   UNL A   1      32.509  24.529  23.349  1.00  0.00     0.364 C 
BRANCH  19  20
ATOM     20  N   UNL A   1      33.290  25.699  23.848  1.00  0.00    -0.319 N 
ATOM     21  C   UNL A   1      34.178  25.230  24.931  1.00  0.00     0.263 C 
ATOM     22  C   UNL A   1      32.634  26.881  24.473  1.00  0.00     0.245 C 
ATOM     23  H   UNL A   1      33.682  26.030  22.966  1.00  0.00     0.349 HD
ATOM     24  C   UNL A   1      33.287  25.280  26.168  1.00  0.00     0.068 C 
ATOM     25  C   UNL A   1      32.335  26.449  25.909  1.00  0.00     0.079 C 
BRANCH  22  26
ATOM     26  C   UNL A   1      31.563  27.561  23.663  1.00  0.00     0.151 A 
ATOM     27  N   UNL A   1      30.316  27.138  23.651  1.00  0.00    -0.235 NA
ATOM     28  S   UNL A   1      31.848  28.923  22.650  1.00  0.00    -0.113 S 
ATOM     29  C   UNL A   1      29.491  28.130  23.170  1.00  0.00     0.082 A 
ATOM     30  C   UNL A   1      30.145  29.218  22.591  1.00  0.00     0.055 A 
ATOM     31  C   UNL A   1      28.089  28.150  23.286  1.00  0.00     0.030 A 
ATOM     32  C   UNL A   1      29.435  30.333  22.115  1.00  0.00     0.021 A 
ATOM     33  C   UNL A   1      27.379  29.277  22.869  1.00  0.00     0.002 A 
ATOM     34  C   UNL A   1      28.046  30.352  22.290  1.00  0.00     0.002 A 
ENDBRANCH  22  26
ENDBRANCH  19  20
ENDBRANCH  17  19
ENDBRANCH   7  15
ENDBRANCH   3   6
ENDBRANCH   1   2
BRANCH   1  35
ATOM     35  C   UNL A   1      37.987  19.809  24.938  1.00  0.00     0.042 C 
BRANCH  35  36
ATOM     36  C   UNL A   1      39.024  20.131  26.009  1.00  0.00     0.118 C 
BRANCH  36  37
ATOM     37  N   UNL A   1      40.139  19.202  25.982  1.00  0.00    -0.352 N 
ATOM     38  C   UNL A   1      41.494  19.446  26.016  1.00  0.00     0.251 C 
ATOM     39  H   UNL A   1      39.889  18.251  25.934  1.00  0.00     0.163 HD
ATOM     40  O   UNL A   1      42.274  18.537  25.757  1.00  0.00    -0.269 OA
BRANCH  38  41
ATOM     41  C   UNL A   1      42.027  20.794  26.346  1.00  0.00     0.039 A 
ATOM     42  C   UNL A   1      42.291  21.103  27.684  1.00  0.00     0.014 A 
ATOM     43  C   UNL A   1      42.204  21.774  25.367  1.00  0.00     0.014 A 
ATOM     44  C   UNL A   1      42.769  22.371  28.033  1.00  0.00     0.010 A 
ATOM     45  C   UNL A   1      42.761  23.008  25.702  1.00  0.00     0.010 A 
ATOM     46  C   UNL A   1      43.029  23.330  27.041  1.00  0.00    -0.014 A 
BRANCH  46  47
ATOM     47  C   UNL A   1      43.525  24.690  27.386  1.00  0.00     0.031 A 
ATOM     48  C   UNL A   1      42.579  25.711  27.960  1.00  0.00     0.074 A 
ATOM     49  C   UNL A   1      44.802  25.030  27.130  1.00  0.00     0.049 A 
ATOM     50  N   UNL A   1      42.785  26.976  28.234  1.00  0.00    -0.248 NA
ATOM     51  C   UNL A   1      41.205  25.258  28.233  1.00  0.00     0.031 C 
ATOM     52  C   UNL A   1      45.810  24.153  26.534  1.00  0.00     0.029 A 
ATOM     53  N   UNL A   1      45.470  26.215  27.327  1.00  0.00    -0.354 N 
ATOM     54  C   UNL A   1      41.565  27.471  28.675  1.00  0.00     0.074 A 
ATOM     55  C   UNL A   1      40.612  26.386  28.594  1.00  0.00     0.031 C 
ATOM     56  C   UNL A   1      46.972  24.820  26.434  1.00  0.00     0.029 A 
ATOM     57  C   UNL A   1      46.783  26.181  26.927  1.00  0.00     0.049 A 
ATOM     58  H   UNL A   1      45.045  27.012  27.719  1.00  0.00     0.167 HD
ATOM     59  C   UNL A   1      41.269  28.712  29.132  1.00  0.00     0.037 A 
ATOM     60  C   UNL A   1      47.726  27.142  26.952  1.00  0.00     0.037 A 
ATOM     61  C   UNL A   1      42.228  29.777  29.266  1.00  0.00     0.049 A 
ATOM     62  C   UNL A   1      47.384  28.500  27.501  1.00  0.00     0.074 A 
ATOM     63  C   UNL A   1      42.041  31.048  29.780  1.00  0.00     0.029 A 
ATOM     64  N   UNL A   1      43.559  29.687  28.892  1.00  0.00    -0.354 N 
ATOM     65  N   UNL A   1      46.240  28.941  27.963  1.00  0.00    -0.248 NA
ATOM     66  C   UNL A   1      48.467  29.493  27.539  1.00  0.00     0.031 C 
ATOM     67  C   UNL A   1      43.255  31.739  29.692  1.00  0.00     0.029 A 
ATOM     68  C   UNL A   1      44.206  30.883  29.158  1.00  0.00     0.049 A 
ATOM     69  H   UNL A   1      43.984  28.892  28.497  1.00  0.00     0.167 HD
ATOM     70  C   UNL A   1      46.470  30.248  28.370  1.00  0.00     0.074 A 
ATOM     71  C   UNL A   1      47.867  30.527  28.112  1.00  0.00     0.031 C 
ATOM     72  C   UNL A   1      45.600  31.138  28.907  1.00  0.00     0.037 A 
BRANCH  59  73
ATOM     73  C   UNL A   1      39.847  28.984  29.529  1.00  0.00     0.064 A 
ATOM     74  C   UNL A   1      38.897  29.435  28.601  1.00  0.00     0.173 A 
ATOM     75  C   UNL A   1      39.422  28.764  30.848  1.00  0.00     0.173 A 
ATOM     76  F   UNL A   1      39.256  29.673  27.330  1.00  0.00    -0.203 F 
ATOM     77  C   UNL A   1      37.583  29.684  28.984  1.00  0.00     0.198 A 
ATOM     78  C   UNL A   1      38.100  28.987  31.221  1.00  0.00     0.198 A 
ATOM     79  F   UNL A   1      40.290  28.328  31.775  1.00  0.00    -0.203 F 
ATOM     80  F   UNL A   1      36.705  30.162  28.090  1.00  0.00    -0.200 F 
ATOM     81  C   UNL A   1      37.183  29.454  30.292  1.00  0.00     0.200 A 
ATOM     82  F   UNL A   1      37.712  28.755  32.483  1.00  0.00    -0.200 F 
ATOM     83  F   UNL A   1      35.916  29.692  30.658  1.00  0.00    -0.200 F 
ENDBRANCH  59  73
BRANCH  60  84
ATOM     84  C   UNL A   1      49.100  26.843  26.472  1.00  0.00     0.064 A 
ATOM     85  C   UNL A   1      50.077  26.358  27.353  1.00  0.00     0.173 A 
ATOM     86  C   UNL A   1      49.466  27.033  25.132  1.00  0.00     0.173 A 
ATOM     87  F   UNL A   1      49.779  26.180  28.650  1.00  0.00    -0.203 F 
ATOM     88  C   UNL A   1      51.371  26.089  26.917  1.00  0.00     0.198 A 
ATOM     89  C   UNL A   1      50.755  26.741  24.691  1.00  0.00     0.198 A 
ATOM     90  F   UNL A   1      48.566  27.491  24.249  1.00  0.00    -0.203 F 
ATOM     91  F   UNL A   1      52.296  25.664  27.789  1.00  0.00    -0.200 F 
ATOM     92  C   UNL A   1      51.708  26.276  25.585  1.00  0.00     0.200 A 
ATOM     93  F   UNL A   1      51.074  26.911  23.401  1.00  0.00    -0.200 F 
ATOM     94  F   UNL A   1      52.953  26.014  25.163  1.00  0.00    -0.200 F 
ENDBRANCH  60  84
BRANCH  72  95
ATOM     95  C   UNL A   1      46.142  32.484  29.285  1.00  0.00     0.064 A 
ATOM     96  C   UNL A   1      46.699  32.721  30.549  1.00  0.00     0.173 A 
ATOM     97  C   UNL A   1      46.142  33.535  28.356  1.00  0.00     0.173 A 
ATOM     98  F   UNL A   1      46.708  31.751  31.476  1.00  0.00    -0.203 F 
ATOM     99  C   UNL A   1      47.217  33.971  30.879  1.00  0.00     0.198 A 
ATOM    100  C   UNL A   1      46.682  34.776  28.680  1.00  0.00     0.198 A 
ATOM    101  F   UNL A   1      45.626  33.355  27.131  1.00  0.00    -0.203 F 
ATOM    102  F   UNL A   1      47.707  34.189  32.106  1.00  0.00    -0.200 F 
ATOM    103  C   UNL A   1      47.214  34.995  29.941  1.00  0.00     0.200 A 
ATOM    104  F   UNL A   1      46.688  35.761  27.771  1.00  0.00    -0.200 F 
ATOM    105  F   UNL A   1      47.717  36.196  30.259  1.00  0.00    -0.200 F 
ENDBRANCH  72  95
ENDBRANCH  46  47
ENDBRANCH  38  41
ENDBRANCH  36  37
ENDBRANCH  35  36
ENDBRANCH   1  35
TORSDOF 14
ENDMDL
MODEL 2
REMARK VINA RESULT:     -13.4      1.943      7.379
REMARK SMILES O=C(C[N@@H+]1CCC[C@@H]1c1nc2ccccc2s1)Nc1sc2c(c1C(=O)NCCCNC(=O)c1ccc(-c3c4nc(c(-c5c(F)c(F)c(F)c(F)c5F)c5ccc([nH]5)c(-c5c(F)c(F)c(F)c(F)c5F)c5nc(c(-c6c(F)c(F)c(F)c(F)c6F)c6ccc3[nH]6)C=C5)C=C4)cc1)CCCC2
REMARK SMILES IDX 27 1 26 2 24 3 25 4 23 6 19 7 20 8 21 9 22 10 99 11 96 12
REMARK SMILES IDX 98 13 97 14 18 15 1 16 2 17 3 19 4 20 5 21 8 22 6 24 7 25
REMARK SMILES IDX 9 26 10 27 17 28 11 29 16 30 12 31 15 32 13 33 14 34 28 35
REMARK SMILES IDX 29 36 30 37 31 38 32 40 33 41 34 42 95 43 35 44 94 45 36 46
REMARK SMILES IDX 37 47 38 48 88 49 39 50 93 51 87 52 89 53 40 54 92 55 86 56
REMARK SMILES IDX 85 57 41 59 73 60 53 61 72 62 54 63 57 64 71 65 90 66 55 67
REMARK SMILES IDX 56 68 70 70 91 71 58 72 42 73 43 74 51 75 44 76 45 77 49 78
REMARK SMILES IDX 52 79 46 80 47 81 50 82 48 83 74 84 75 85 83 86 76 87 77 88
REMARK SMILES IDX 81 89 84 90 78 91 79 92 82 93 80 94 59 95 60 96 68 97 61 98
REMARK SMILES IDX 62 99 66 100 69 101 63 102 64 103 67 104 65 105
REMARK H PARENT 26 5 18 18 4 23 30 39 89 58 57 69
REMARK Flexibility Score: inf
ROOT
ATOM      1  C   UNL A   1      36.927  22.453  24.807  1.00  0.00     0.118 C 
ENDROOT
BRANCH   1   2
ATOM      2  N   UNL A   1      35.944  23.020  25.704  1.00  0.00    -0.352 N 
ATOM      3  C   UNL A   1      34.576  23.028  25.745  1.00  0.00     0.254 C 
ATOM      4  O   UNL A   1      34.105  23.606  26.734  1.00  0.00    -0.269 OA
ATOM      5  H   UNL A   1      36.351  23.512  26.454  1.00  0.00     0.163 HD
BRANCH   3   6
ATOM      6  C   UNL A   1      33.678  22.333  24.805  1.00  0.00     0.078 A 
ATOM      7  C   UNL A   1      32.814  23.120  24.026  1.00  0.00     0.109 A 
ATOM      8  S   UNL A   1      31.938  22.234  22.884  1.00  0.00    -0.122 S 
ATOM      9  C   UNL A   1      32.573  20.773  23.435  1.00  0.00     0.011 A 
ATOM     10  C   UNL A   1      33.498  20.923  24.456  1.00  0.00    -0.019 A 
ATOM     11  C   UNL A   1      32.155  19.480  22.802  1.00  0.00     0.047 C 
ATOM     12  C   UNL A   1      34.158  19.700  25.027  1.00  0.00     0.037 C 
ATOM     13  C   UNL A   1      32.448  18.317  23.750  1.00  0.00     0.006 C 
ATOM     14  C   UNL A   1      33.890  18.399  24.252  1.00  0.00     0.005 C 
BRANCH   7  15
ATOM     15  N   UNL A   1      32.657  24.503  24.104  1.00  0.00    -0.312 N 
ATOM     16  O   UNL A   1      33.841  25.263  22.225  1.00  0.00    -0.268 OA
ATOM     17  C   UNL A   1      33.126  25.458  23.204  1.00  0.00     0.280 C 
ATOM     18  H   UNL A   1      32.161  24.843  24.883  1.00  0.00     0.170 HD
BRANCH  17  19
ATOM     19  C   UNL A   1      32.740  26.880  23.622  1.00  0.00     0.364 C 
BRANCH  19  20
ATOM     20  N   UNL A   1      31.403  27.156  24.227  1.00  0.00    -0.319 N 
ATOM     21  C   UNL A   1      30.377  26.952  23.185  1.00  0.00     0.263 C 
ATOM     22  C   UNL A   1      31.039  28.496  24.765  1.00  0.00     0.245 C 
ATOM     23  H   UNL A   1      31.450  26.533  25.034  1.00  0.00     0.349 HD
ATOM     24  C   UNL A   1      30.338  28.291  22.456  1.00  0.00     0.068 C 
ATOM     25  C   UNL A   1      30.669  29.324  23.534  1.00  0.00     0.079 C 
BRANCH  22  26
ATOM     26  C   UNL A   1      31.962  29.076  25.803  1.00  0.00     0.151 A 
ATOM     27  N   UNL A   1      32.975  28.399  26.301  1.00  0.00    -0.235 NA
ATOM     28  S   UNL A   1      31.780  30.652  26.472  1.00  0.00    -0.113 S 
ATOM     29  C   UNL A   1      33.861  29.261  26.907  1.00  0.00     0.082 A 
ATOM     30  C   UNL A   1      33.396  30.565  27.080  1.00  0.00     0.055 A 
ATOM     31  C   UNL A   1      35.179  28.942  27.283  1.00  0.00     0.030 A 
ATOM     32  C   UNL A   1      34.213  31.569  27.626  1.00  0.00     0.021 A 
ATOM     33  C   UNL A   1      36.017  29.945  27.773  1.00  0.00     0.002 A 
ATOM     34  C   UNL A   1      35.537  31.241  27.943  1.00  0.00     0.002 A 
ENDBRANCH  22  26
ENDBRANCH  19  20
ENDBRANCH  17  19
ENDBRANCH   7  15
ENDBRANCH   3   6
ENDBRANCH   1   2
BRANCH   1  35
ATOM     35  C   UNL A   1      37.501  21.168  25.403  1.00  0.00     0.042 C 
BRANCH  35  36
ATOM     36  C   UNL A   1      39.017  21.058  25.285  1.00  0.00     0.118 C 
BRANCH  36  37
ATOM     37  N   UNL A   1      39.592  20.276  26.365  1.00  0.00    -0.352 N 
ATOM     38  C   UNL A   1      40.552  20.619  27.290  1.00  0.00     0.251 C 
ATOM     39  H   UNL A   1      39.240  19.361  26.450  1.00  0.00     0.163 HD
ATOM     40  O   UNL A   1      41.063  19.742  27.977  1.00  0.00    -0.269 OA
BRANCH  38  41
ATOM     41  C   UNL A   1      40.992  22.029  27.459  1.00  0.00     0.039 A 
ATOM     42  C   UNL A   1      40.448  23.007  26.620  1.00  0.00     0.014 A 
ATOM     43  C   UNL A   1      41.977  22.387  28.383  1.00  0.00     0.014 A 
ATOM     44  C   UNL A   1      40.858  24.340  26.734  1.00  0.00     0.010 A 
ATOM     45  C   UNL A   1      42.324  23.727  28.555  1.00  0.00     0.010 A 
ATOM     46  C   UNL A   1      41.786  24.716  27.719  1.00  0.00    -0.014 A 
BRANCH  46  47
ATOM     47  C   UNL A   1      42.249  26.124  27.854  1.00  0.00     0.031 A 
ATOM     48  C   UNL A   1      43.553  26.549  27.230  1.00  0.00     0.074 A 
ATOM     49  C   UNL A   1      41.537  27.005  28.582  1.00  0.00     0.049 A 
ATOM     50  N   UNL A   1      44.181  27.695  27.315  1.00  0.00    -0.248 NA
ATOM     51  C   UNL A   1      44.262  25.537  26.431  1.00  0.00     0.031 C 
ATOM     52  C   UNL A   1      40.282  26.713  29.275  1.00  0.00     0.029 A 
ATOM     53  N   UNL A   1      41.776  28.327  28.872  1.00  0.00    -0.354 N 
ATOM     54  C   UNL A   1      45.367  27.529  26.612  1.00  0.00     0.074 A 
ATOM     55  C   UNL A   1      45.394  26.160  26.143  1.00  0.00     0.031 C 
ATOM     56  C   UNL A   1      39.850  27.826  29.892  1.00  0.00     0.029 A 
ATOM     57  C   UNL A   1      40.813  28.900  29.665  1.00  0.00     0.049 A 
ATOM     58  H   UNL A   1      42.563  28.816  28.540  1.00  0.00     0.167 HD
ATOM     59  C   UNL A   1      46.337  28.440  26.357  1.00  0.00     0.037 A 
ATOM     60  C   UNL A   1      40.719  30.150  30.156  1.00  0.00     0.037 A 
ATOM     61  C   UNL A   1      46.286  29.817  26.775  1.00  0.00     0.049 A 
ATOM     62  C   UNL A   1      41.788  31.156  29.826  1.00  0.00     0.074 A 
ATOM     63  C   UNL A   1      47.186  30.834  26.510  1.00  0.00     0.029 A 
ATOM     64  N   UNL A   1      45.269  30.369  27.538  1.00  0.00    -0.354 N 
ATOM     65  N   UNL A   1      42.879  31.000  29.117  1.00  0.00    -0.248 NA
ATOM     66  C   UNL A   1      41.608  32.515  30.358  1.00  0.00     0.031 C 
ATOM     67  C   UNL A   1      46.728  31.998  27.137  1.00  0.00     0.029 A 
ATOM     68  C   UNL A   1      45.523  31.713  27.760  1.00  0.00     0.049 A 
ATOM     69  H   UNL A   1      44.484  29.880  27.873  1.00  0.00     0.167 HD
ATOM     70  C   UNL A   1      43.501  32.241  29.096  1.00  0.00     0.074 A 
ATOM     71  C   UNL A   1      42.659  33.145  29.852  1.00  0.00     0.031 C 
ATOM     72  C   UNL A   1      44.667  32.600  28.504  1.00  0.00     0.037 A 
BRANCH  59  73
ATOM     73  C   UNL A   1      47.536  27.979  25.581  1.00  0.00     0.064 A 
ATOM     74  C   UNL A   1      47.521  27.902  24.181  1.00  0.00     0.173 A 
ATOM     75  C   UNL A   1      48.725  27.636  26.245  1.00  0.00     0.173 A 
ATOM     76  F   UNL A   1      46.405  28.207  23.500  1.00  0.00    -0.203 F 
ATOM     77  C   UNL A   1      48.640  27.471  23.475  1.00  0.00     0.198 A 
ATOM     78  C   UNL A   1      49.851  27.232  25.533  1.00  0.00     0.198 A 
ATOM     79  F   UNL A   1      48.794  27.696  27.583  1.00  0.00    -0.203 F 
ATOM     80  F   UNL A   1      48.585  27.358  22.140  1.00  0.00    -0.200 F 
ATOM     81  C   UNL A   1      49.806  27.143  24.150  1.00  0.00     0.200 A 
ATOM     82  F   UNL A   1      50.980  26.924  26.186  1.00  0.00    -0.200 F 
ATOM     83  F   UNL A   1      50.884  26.731  23.468  1.00  0.00    -0.200 F 
ENDBRANCH  59  73
BRANCH  60  84
ATOM     84  C   UNL A   1      39.548  30.534  30.986  1.00  0.00     0.064 A 
ATOM     85  C   UNL A   1      39.468  30.152  32.332  1.00  0.00     0.173 A 
ATOM     86  C   UNL A   1      38.491  31.287  30.456  1.00  0.00     0.173 A 
ATOM     87  F   UNL A   1      40.446  29.412  32.877  1.00  0.00    -0.203 F 
ATOM     88  C   UNL A   1      38.367  30.494  33.114  1.00  0.00     0.198 A 
ATOM     89  C   UNL A   1      37.401  31.650  31.246  1.00  0.00     0.198 A 
ATOM     90  F   UNL A   1      38.523  31.681  29.175  1.00  0.00    -0.203 F 
ATOM     91  F   UNL A   1      38.298  30.082  34.387  1.00  0.00    -0.200 F 
ATOM     92  C   UNL A   1      37.337  31.247  32.572  1.00  0.00     0.200 A 
ATOM     93  F   UNL A   1      36.414  32.389  30.723  1.00  0.00    -0.200 F 
ATOM     94  F   UNL A   1      36.280  31.581  33.324  1.00  0.00    -0.200 F 
ENDBRANCH  60  84
BRANCH  72  95
ATOM     95  C   UNL A   1      45.082  34.036  28.620  1.00  0.00     0.064 A 
ATOM     96  C   UNL A   1      45.928  34.474  29.648  1.00  0.00     0.173 A 
ATOM     97  C   UNL A   1      44.660  34.974  27.666  1.00  0.00     0.173 A 
ATOM     98  F   UNL A   1      46.345  33.616  30.591  1.00  0.00    -0.203 F 
ATOM     99  C   UNL A   1      46.320  35.808  29.730  1.00  0.00     0.198 A 
ATOM    100  C   UNL A   1      45.074  36.301  27.737  1.00  0.00     0.198 A 
ATOM    101  F   UNL A   1      43.855  34.602  26.660  1.00  0.00    -0.203 F 
ATOM    102  F   UNL A   1      47.096  36.215  30.744  1.00  0.00    -0.200 F 
ATOM    103  C   UNL A   1      45.898  36.718  28.771  1.00  0.00     0.200 A 
ATOM    104  F   UNL A   1      44.674  37.177  26.805  1.00  0.00    -0.200 F 
ATOM    105  F   UNL A   1      46.281  38.000  28.849  1.00  0.00    -0.200 F 
ENDBRANCH  72  95
ENDBRANCH  46  47
ENDBRANCH  38  41
ENDBRANCH  36  37
ENDBRANCH  35  36
ENDBRANCH   1  35
TORSDOF 14
ENDMDL
MODEL 3
REMARK VINA RESULT:     -13.2      0.566      6.948
REMARK SMILES O=C(C[N@@H+]1CCC[C@@H]1c1nc2ccccc2s1)Nc1sc2c(c1C(=O)NCCCNC(=O)c1ccc(-c3c4nc(c(-c5c(F)c(F)c(F)c(F)c5F)c5ccc([nH]5)c(-c5c(F)c(F)c(F)c(F)c5F)c5nc(c(-c6c(F)c(F)c(F)c(F)c6F)c6ccc3[nH]6)C=C5)C=C4)cc1)CCCC2
REMARK SMILES IDX 27 1 26 2 24 3 25 4 23 6 19 7 20 8 21 9 22 10 99 11 96 12
REMARK SMILES IDX 98 13 97 14 18 15 1 16 2 17 3 19 4 20 5 21 8 22 6 24 7 25
REMARK SMILES IDX 9 26 10 27 17 28 11 29 16 30 12 31 15 32 13 33 14 34 28 35
REMARK SMILES IDX 29 36 30 37 31 38 32 40 33 41 34 42 95 43 35 44 94 45 36 46
REMARK SMILES IDX 37 47 38 48 88 49 39 50 93 51 87 52 89 53 40 54 92 55 86 56
REMARK SMILES IDX 85 57 41 59 73 60 53 61 72 62 54 63 57 64 71 65 90 66 55 67
REMARK SMILES IDX 56 68 70 70 91 71 58 72 42 73 43 74 51 75 44 76 45 77 49 78
REMARK SMILES IDX 52 79 46 80 47 81 50 82 48 83 74 84 75 85 83 86 76 87 77 88
REMARK SMILES IDX 81 89 84 90 78 91 79 92 82 93 80 94 59 95 60 96 68 97 61 98
REMARK SMILES IDX 62 99 66 100 69 101 63 102 64 103 67 104 65 105
REMARK H PARENT 26 5 18 18 4 23 30 39 89 58 57 69
REMARK Flexibility Score: inf
ROOT
ATOM      1  C   UNL A   1      37.306  21.011  24.363  1.00  0.00     0.118 C 
ENDROOT
BRANCH   1   2
ATOM      2  N   UNL A   1      36.340  21.470  25.338  1.00  0.00    -0.352 N 
ATOM      3  C   UNL A   1      35.005  21.247  25.542  1.00  0.00     0.254 C 
ATOM      4  O   UNL A   1      34.548  21.810  26.546  1.00  0.00    -0.269 OA
ATOM      5  H   UNL A   1      36.731  22.080  26.005  1.00  0.00     0.163 HD
BRANCH   3   6
ATOM      6  C   UNL A   1      34.150  20.339  24.757  1.00  0.00     0.078 A 
ATOM      7  C   UNL A   1      33.093  20.906  24.027  1.00  0.00     0.109 A 
ATOM      8  S   UNL A   1      32.271  19.796  23.053  1.00  0.00    -0.122 S 
ATOM      9  C   UNL A   1      33.195  18.509  23.628  1.00  0.00     0.011 A 
ATOM     10  C   UNL A   1      34.177  18.893  24.528  1.00  0.00    -0.019 A 
ATOM     11  C   UNL A   1      32.941  17.116  23.136  1.00  0.00     0.047 C 
ATOM     12  C   UNL A   1      35.086  17.845  25.104  1.00  0.00     0.037 C 
ATOM     13  C   UNL A   1      33.518  16.101  24.123  1.00  0.00     0.006 C 
ATOM     14  C   UNL A   1      34.967  16.457  24.455  1.00  0.00     0.005 C 
BRANCH   7  15
ATOM     15  N   UNL A   1      32.714  22.248  24.027  1.00  0.00    -0.312 N 
ATOM     16  O   UNL A   1      33.718  23.067  22.069  1.00  0.00    -0.268 OA
ATOM     17  C   UNL A   1      33.001  23.206  23.057  1.00  0.00     0.280 C 
ATOM     18  H   UNL A   1      32.185  22.552  24.798  1.00  0.00     0.170 HD
BRANCH  17  19
ATOM     19  C   UNL A   1      32.397  24.571  23.401  1.00  0.00     0.364 C 
BRANCH  19  20
ATOM     20  N   UNL A   1      33.281  25.738  23.695  1.00  0.00    -0.319 N 
ATOM     21  C   UNL A   1      34.266  25.323  24.712  1.00  0.00     0.263 C 
ATOM     22  C   UNL A   1      32.752  27.006  24.271  1.00  0.00     0.245 C 
ATOM     23  H   UNL A   1      33.582  25.966  22.746  1.00  0.00     0.349 HD
ATOM     24  C   UNL A   1      33.528  25.534  26.030  1.00  0.00     0.068 C 
ATOM     25  C   UNL A   1      32.604  26.724  25.766  1.00  0.00     0.079 C 
BRANCH  22  26
ATOM     26  C   UNL A   1      31.625  27.665  23.523  1.00  0.00     0.151 A 
ATOM     27  N   UNL A   1      30.397  27.189  23.539  1.00  0.00    -0.235 NA
ATOM     28  S   UNL A   1      31.815  29.073  22.549  1.00  0.00    -0.113 S 
ATOM     29  C   UNL A   1      29.514  28.160  23.122  1.00  0.00     0.082 A 
ATOM     30  C   UNL A   1      30.100  29.294  22.560  1.00  0.00     0.055 A 
ATOM     31  C   UNL A   1      28.117  28.115  23.287  1.00  0.00     0.030 A 
ATOM     32  C   UNL A   1      29.327  30.393  22.148  1.00  0.00     0.021 A 
ATOM     33  C   UNL A   1      27.346  29.223  22.935  1.00  0.00     0.002 A 
ATOM     34  C   UNL A   1      27.946  30.346  22.372  1.00  0.00     0.002 A 
ENDBRANCH  22  26
ENDBRANCH  19  20
ENDBRANCH  17  19
ENDBRANCH   7  15
ENDBRANCH   3   6
ENDBRANCH   1   2
BRANCH   1  35
ATOM     35  C   UNL A   1      38.123  19.855  24.938  1.00  0.00     0.042 C 
BRANCH  35  36
ATOM     36  C   UNL A   1      39.113  20.279  26.018  1.00  0.00     0.118 C 
BRANCH  36  37
ATOM     37  N   UNL A   1      40.294  19.435  26.035  1.00  0.00    -0.352 N 
ATOM     38  C   UNL A   1      41.625  19.780  26.107  1.00  0.00     0.251 C 
ATOM     39  H   UNL A   1      40.117  18.468  25.988  1.00  0.00     0.163 HD
ATOM     40  O   UNL A   1      42.478  18.929  25.880  1.00  0.00    -0.269 OA
BRANCH  38  41
ATOM     41  C   UNL A   1      42.046  21.166  26.438  1.00  0.00     0.039 A 
ATOM     42  C   UNL A   1      42.290  21.493  27.776  1.00  0.00     0.014 A 
ATOM     43  C   UNL A   1      42.138  22.161  25.461  1.00  0.00     0.014 A 
ATOM     44  C   UNL A   1      42.664  22.795  28.127  1.00  0.00     0.010 A 
ATOM     45  C   UNL A   1      42.591  23.436  25.798  1.00  0.00     0.010 A 
ATOM     46  C   UNL A   1      42.839  23.775  27.137  1.00  0.00    -0.014 A 
BRANCH  46  47
ATOM     47  C   UNL A   1      43.222  25.170  27.483  1.00  0.00     0.031 A 
ATOM     48  C   UNL A   1      44.639  25.634  27.268  1.00  0.00     0.074 A 
ATOM     49  C   UNL A   1      42.323  26.001  28.043  1.00  0.00     0.049 A 
ATOM     50  N   UNL A   1      45.200  26.773  27.595  1.00  0.00    -0.248 NA
ATOM     51  C   UNL A   1      45.558  24.677  26.631  1.00  0.00     0.031 C 
ATOM     52  C   UNL A   1      40.933  25.664  28.346  1.00  0.00     0.029 A 
ATOM     53  N   UNL A   1      42.450  27.301  28.470  1.00  0.00    -0.354 N 
ATOM     54  C   UNL A   1      46.536  26.653  27.234  1.00  0.00     0.074 A 
ATOM     55  C   UNL A   1      46.714  25.318  26.704  1.00  0.00     0.031 C 
ATOM     56  C   UNL A   1      40.329  26.734  28.890  1.00  0.00     0.029 A 
ATOM     57  C   UNL A   1      41.297  27.820  29.004  1.00  0.00     0.049 A 
ATOM     58  H   UNL A   1      43.290  27.811  28.399  1.00  0.00     0.167 HD
ATOM     59  C   UNL A   1      47.523  27.579  27.314  1.00  0.00     0.037 A 
ATOM     60  C   UNL A   1      41.051  29.036  29.530  1.00  0.00     0.037 A 
ATOM     61  C   UNL A   1      47.335  28.924  27.788  1.00  0.00     0.049 A 
ATOM     62  C   UNL A   1      42.151  30.061  29.570  1.00  0.00     0.074 A 
ATOM     63  C   UNL A   1      48.255  29.957  27.845  1.00  0.00     0.029 A 
ATOM     64  N   UNL A   1      46.139  29.426  28.278  1.00  0.00    -0.354 N 
ATOM     65  N   UNL A   1      43.397  29.952  29.179  1.00  0.00    -0.248 NA
ATOM     66  C   UNL A   1      41.809  31.381  30.118  1.00  0.00     0.031 C 
ATOM     67  C   UNL A   1      47.622  31.077  28.395  1.00  0.00     0.029 A 
ATOM     68  C   UNL A   1      46.298  30.751  28.646  1.00  0.00     0.049 A 
ATOM     69  H   UNL A   1      45.300  28.916  28.353  1.00  0.00     0.167 HD
ATOM     70  C   UNL A   1      43.980  31.191  29.408  1.00  0.00     0.074 A 
ATOM     71  C   UNL A   1      42.947  32.043  29.961  1.00  0.00     0.031 C 
ATOM     72  C   UNL A   1      45.256  31.587  29.182  1.00  0.00     0.037 A 
BRANCH  59  73
ATOM     73  C   UNL A   1      48.896  27.169  26.868  1.00  0.00     0.064 A 
ATOM     74  C   UNL A   1      49.843  26.666  27.772  1.00  0.00     0.173 A 
ATOM     75  C   UNL A   1      49.260  27.254  25.515  1.00  0.00     0.173 A 
ATOM     76  F   UNL A   1      49.549  26.577  29.078  1.00  0.00    -0.203 F 
ATOM     77  C   UNL A   1      51.114  26.291  27.344  1.00  0.00     0.198 A 
ATOM     78  C   UNL A   1      50.522  26.852  25.087  1.00  0.00     0.198 A 
ATOM     79  F   UNL A   1      48.390  27.724  24.608  1.00  0.00    -0.203 F 
ATOM     80  F   UNL A   1      52.019  25.861  28.235  1.00  0.00    -0.200 F 
ATOM     81  C   UNL A   1      51.450  26.379  26.002  1.00  0.00     0.200 A 
ATOM     82  F   UNL A   1      50.843  26.927  23.788  1.00  0.00    -0.200 F 
ATOM     83  F   UNL A   1      52.673  26.014  25.591  1.00  0.00    -0.200 F 
ENDBRANCH  59  73
BRANCH  60  84
ATOM     84  C   UNL A   1      39.691  29.364  30.030  1.00  0.00     0.064 A 
ATOM     85  C   UNL A   1      39.368  29.203  31.385  1.00  0.00     0.173 A 
ATOM     86  C   UNL A   1      38.691  29.844  29.173  1.00  0.00     0.173 A 
ATOM     87  F   UNL A   1      40.286  28.727  32.239  1.00  0.00    -0.203 F 
ATOM     88  C   UNL A   1      38.092  29.494  31.861  1.00  0.00     0.198 A 
ATOM     89  C   UNL A   1      37.421  30.158  29.654  1.00  0.00     0.198 A 
ATOM     90  F   UNL A   1      38.952  30.020  27.869  1.00  0.00    -0.203 F 
ATOM     91  F   UNL A   1      37.799  29.294  33.153  1.00  0.00    -0.200 F 
ATOM     92  C   UNL A   1      37.121  29.976  30.996  1.00  0.00     0.200 A 
ATOM     93  F   UNL A   1      36.490  30.636  28.818  1.00  0.00    -0.200 F 
ATOM     94  F   UNL A   1      35.894  30.261  31.453  1.00  0.00    -0.200 F 
ENDBRANCH  60  84
BRANCH  72  95
ATOM     95  C   UNL A   1      45.598  33.013  29.498  1.00  0.00     0.064 A 
ATOM     96  C   UNL A   1      46.113  33.383  30.748  1.00  0.00     0.173 A 
ATOM     97  C   UNL A   1      45.447  34.010  28.523  1.00  0.00     0.173 A 
ATOM     98  F   UNL A   1      46.261  32.466  31.716  1.00  0.00    -0.203 F 
ATOM     99  C   UNL A   1      46.444  34.708  31.019  1.00  0.00     0.198 A 
ATOM    100  C   UNL A   1      45.802  35.330  28.790  1.00  0.00     0.198 A 
ATOM    101  F   UNL A   1      44.964  33.704  27.310  1.00  0.00    -0.203 F 
ATOM    102  F   UNL A   1      46.896  35.049  32.234  1.00  0.00    -0.200 F 
ATOM    103  C   UNL A   1      46.295  35.678  30.038  1.00  0.00     0.200 A 
ATOM    104  F   UNL A   1      45.667  36.264  27.839  1.00  0.00    -0.200 F 
ATOM    105  F   UNL A   1      46.619  36.952  30.300  1.00  0.00    -0.200 F 
ENDBRANCH  72  95
ENDBRANCH  46  47
ENDBRANCH  38  41
ENDBRANCH  36  37
ENDBRANCH  35  36
ENDBRANCH   1  35
TORSDOF 14
ENDMDL
