MODEL 1
REMARK VINA RESULT:     -12.3      0.000      0.000
REMARK SMILES COc1ccc(CCNC(=O)[C@@]2(C)CC[C@@H](C(=O)NCCCNC(=O)c3ccc(-c4c5nc(c(-c6c(F)c(F)c(F)c(F)c6F)c6ccc([nH]6)c(-c6c(F)c(F)c(F)c(F)c6F)c6nc(c(-c7c(F)c(F)c(F)c(F)c7F)c7ccc4[nH]7)C=C6)C=C5)cc3)C2(C)C)cc1OC
REMARK SMILES IDX 17 1 18 2 19 3 16 5 12 6 13 7 14 8 89 9 15 10 90 11 91 12
REMARK SMILES IDX 10 13 9 14 11 16 8 17 7 18 6 19 3 20 4 21 93 22 5 23 92 24
REMARK SMILES IDX 2 25 1 26 94 27 95 28 20 29 21 30 22 31 23 32 24 33 25 35
REMARK SMILES IDX 26 36 27 37 88 38 28 39 87 40 29 41 30 42 31 43 81 44 32 45
REMARK SMILES IDX 86 46 80 47 82 48 33 49 85 50 79 51 78 52 34 54 66 55 46 56
REMARK SMILES IDX 65 57 47 58 50 59 64 60 83 61 48 62 49 63 63 65 84 66 51 67
REMARK SMILES IDX 35 68 36 69 44 70 37 71 38 72 42 73 45 74 39 75 40 76 43 77
REMARK SMILES IDX 41 78 67 79 68 80 76 81 69 82 70 83 74 84 77 85 71 86 72 87
REMARK SMILES IDX 75 88 73 89 52 90 53 91 61 92 54 93 55 94 59 95 62 96 56 97
REMARK SMILES IDX 57 98 60 99 58 100
REMARK H PARENT 19 4 9 15 23 34 82 53 50 64
REMARK Flexibility Score: inf
ROOT
ATOM      1  C   UNL A   1      31.738  28.453  26.275  1.00  0.00     0.223 C 
ATOM      2  O   UNL A   1      32.215  27.636  27.072  1.00  0.00    -0.275 OA
ATOM      3  N   UNL A   1      31.833  29.749  26.653  1.00  0.00    -0.356 N 
ATOM      4  H   UNL A   1      32.289  29.889  27.515  1.00  0.00     0.163 HD
ENDROOT
BRANCH   1   5
ATOM      5  C   UNL A   1      31.156  27.943  24.941  1.00  0.00     0.085 C 
ATOM      6  C   UNL A   1      32.094  26.242  23.310  1.00  0.00     0.052 C 
ATOM      7  C   UNL A   1      31.396  25.856  21.971  1.00  0.00     0.022 C 
ATOM      8  C   UNL A   1      31.261  25.572  24.421  1.00  0.00     0.018 C 
ATOM      9  C   UNL A   1      31.989  27.829  23.623  1.00  0.00    -0.010 C 
ATOM     10  C   UNL A   1      30.378  26.637  25.044  1.00  0.00     0.015 C 
ATOM     11  C   UNL A   1      33.330  28.581  23.696  1.00  0.00     0.013 C 
ATOM     12  C   UNL A   1      31.194  28.611  22.534  1.00  0.00     0.013 C 
BRANCH   6  13
ATOM     13  C   UNL A   1      33.565  25.773  23.064  1.00  0.00     0.226 C 
ATOM     14  N   UNL A   1      34.455  25.256  23.940  1.00  0.00    -0.355 N 
ATOM     15  H   UNL A   1      35.285  25.003  23.477  1.00  0.00     0.163 HD
ATOM     16  O   UNL A   1      34.020  25.849  21.909  1.00  0.00    -0.274 OA
BRANCH  14  17
ATOM     17  C   UNL A   1      34.556  24.959  25.368  1.00  0.00     0.120 C 
BRANCH  17  18
ATOM     18  C   UNL A   1      35.330  23.677  25.670  1.00  0.00     0.057 C 
BRANCH  18  19
ATOM     19  C   UNL A   1      34.503  22.446  25.403  1.00  0.00    -0.042 A 
ATOM     20  C   UNL A   1      32.927  20.170  24.958  1.00  0.00     0.160 A 
ATOM     21  C   UNL A   1      34.314  20.124  24.761  1.00  0.00     0.051 A 
ATOM     22  C   UNL A   1      32.319  21.342  25.412  1.00  0.00     0.160 A 
ATOM     23  C   UNL A   1      35.097  21.260  24.968  1.00  0.00     0.008 A 
ATOM     24  C   UNL A   1      33.119  22.468  25.642  1.00  0.00     0.054 A 
BRANCH  20  25
ATOM     25  O   UNL A   1      32.210  19.017  24.778  1.00  0.00    -0.493 OA
ATOM     26  C   UNL A   1      32.582  18.028  25.740  1.00  0.00     0.278 C 
ENDBRANCH  20  25
BRANCH  22  27
ATOM     27  O   UNL A   1      31.001  21.544  25.716  1.00  0.00    -0.493 OA
ATOM     28  C   UNL A   1      30.666  22.704  26.462  1.00  0.00     0.278 C 
ENDBRANCH  22  27
ENDBRANCH  18  19
ENDBRANCH  17  18
ENDBRANCH  14  17
ENDBRANCH   6  13
ENDBRANCH   1   5
BRANCH   3  29
ATOM     29  C   UNL A   1      31.385  30.959  26.017  1.00  0.00     0.117 C 
BRANCH  29  30
ATOM     30  C   UNL A   1      31.359  32.154  26.954  1.00  0.00     0.042 C 
BRANCH  30  31
ATOM     31  C   UNL A   1      32.646  32.947  26.983  1.00  0.00     0.118 C 
BRANCH  31  32
ATOM     32  N   UNL A   1      32.529  34.218  27.684  1.00  0.00    -0.352 N 
ATOM     33  C   UNL A   1      33.202  34.755  28.757  1.00  0.00     0.251 C 
ATOM     34  H   UNL A   1      31.833  34.809  27.318  1.00  0.00     0.163 HD
ATOM     35  O   UNL A   1      32.806  35.823  29.214  1.00  0.00    -0.269 OA
BRANCH  33  36
ATOM     36  C   UNL A   1      34.365  34.074  29.381  1.00  0.00     0.039 A 
ATOM     37  C   UNL A   1      34.138  33.011  30.263  1.00  0.00     0.014 A 
ATOM     38  C   UNL A   1      35.675  34.485  29.151  1.00  0.00     0.014 A 
ATOM     39  C   UNL A   1      35.219  32.343  30.853  1.00  0.00     0.010 A 
ATOM     40  C   UNL A   1      36.746  33.723  29.603  1.00  0.00     0.010 A 
ATOM     41  C   UNL A   1      36.537  32.668  30.499  1.00  0.00    -0.014 A 
BRANCH  41  42
ATOM     42  C   UNL A   1      37.712  31.977  31.094  1.00  0.00     0.031 A 
ATOM     43  C   UNL A   1      38.179  32.338  32.486  1.00  0.00     0.074 A 
ATOM     44  C   UNL A   1      38.400  31.070  30.372  1.00  0.00     0.049 A 
ATOM     45  N   UNL A   1      39.218  31.902  33.156  1.00  0.00    -0.248 NA
ATOM     46  C   UNL A   1      37.398  33.357  33.208  1.00  0.00     0.031 C 
ATOM     47  C   UNL A   1      38.098  30.677  28.995  1.00  0.00     0.029 A 
ATOM     48  N   UNL A   1      39.503  30.318  30.697  1.00  0.00    -0.354 N 
ATOM     49  C   UNL A   1      39.223  32.612  34.351  1.00  0.00     0.074 A 
ATOM     50  C   UNL A   1      38.139  33.563  34.284  1.00  0.00     0.031 C 
ATOM     51  C   UNL A   1      38.964  29.727  28.609  1.00  0.00     0.029 A 
ATOM     52  C   UNL A   1      39.909  29.474  29.692  1.00  0.00     0.049 A 
ATOM     53  H   UNL A   1      39.958  30.377  31.567  1.00  0.00     0.167 HD
ATOM     54  C   UNL A   1      40.031  32.460  35.429  1.00  0.00     0.037 A 
ATOM     55  C   UNL A   1      40.926  28.593  29.651  1.00  0.00     0.037 A 
ATOM     56  C   UNL A   1      41.084  31.482  35.511  1.00  0.00     0.049 A 
ATOM     57  C   UNL A   1      41.802  28.431  30.865  1.00  0.00     0.074 A 
ATOM     58  C   UNL A   1      41.919  31.200  36.578  1.00  0.00     0.029 A 
ATOM     59  N   UNL A   1      41.443  30.624  34.482  1.00  0.00    -0.354 N 
ATOM     60  N   UNL A   1      41.748  29.053  32.018  1.00  0.00    -0.248 NA
ATOM     61  C   UNL A   1      42.872  27.429  30.776  1.00  0.00     0.031 C 
ATOM     62  C   UNL A   1      42.818  30.207  36.175  1.00  0.00     0.029 A 
ATOM     63  C   UNL A   1      42.500  29.824  34.882  1.00  0.00     0.049 A 
ATOM     64  H   UNL A   1      41.009  30.590  33.598  1.00  0.00     0.167 HD
ATOM     65  C   UNL A   1      42.749  28.495  32.802  1.00  0.00     0.074 A 
ATOM     66  C   UNL A   1      43.383  27.471  31.998  1.00  0.00     0.031 C 
ATOM     67  C   UNL A   1      43.111  28.801  34.073  1.00  0.00     0.037 A 
BRANCH  54  68
ATOM     68  C   UNL A   1      39.795  33.362  36.610  1.00  0.00     0.064 A 
ATOM     69  C   UNL A   1      38.895  33.021  37.633  1.00  0.00     0.173 A 
ATOM     70  C   UNL A   1      40.496  34.571  36.735  1.00  0.00     0.173 A 
ATOM     71  F   UNL A   1      38.188  31.883  37.561  1.00  0.00    -0.203 F 
ATOM     72  C   UNL A   1      38.676  33.875  38.711  1.00  0.00     0.198 A 
ATOM     73  C   UNL A   1      40.303  35.404  37.835  1.00  0.00     0.198 A 
ATOM     74  F   UNL A   1      41.374  34.945  35.792  1.00  0.00    -0.203 F 
ATOM     75  F   UNL A   1      37.763  33.557  39.640  1.00  0.00    -0.200 F 
ATOM     76  C   UNL A   1      39.385  35.061  38.816  1.00  0.00     0.200 A 
ATOM     77  F   UNL A   1      41.002  36.542  37.942  1.00  0.00    -0.200 F 
ATOM     78  F   UNL A   1      39.179  35.878  39.858  1.00  0.00    -0.200 F 
ENDBRANCH  54  68
BRANCH  55  79
ATOM     79  C   UNL A   1      41.148  27.766  28.435  1.00  0.00     0.064 A 
ATOM     80  C   UNL A   1      42.031  28.186  27.429  1.00  0.00     0.173 A 
ATOM     81  C   UNL A   1      40.478  26.549  28.246  1.00  0.00     0.173 A 
ATOM     82  F   UNL A   1      42.682  29.351  27.554  1.00  0.00    -0.203 F 
ATOM     83  C   UNL A   1      42.212  27.435  26.269  1.00  0.00     0.198 A 
ATOM     84  C   UNL A   1      40.685  25.782  27.099  1.00  0.00     0.198 A 
ATOM     85  F   UNL A   1      39.628  26.096  29.179  1.00  0.00    -0.203 F 
ATOM     86  F   UNL A   1      43.020  27.888  25.300  1.00  0.00    -0.200 F 
ATOM     87  C   UNL A   1      41.544  26.232  26.108  1.00  0.00     0.200 A 
ATOM     88  F   UNL A   1      40.052  24.611  26.955  1.00  0.00    -0.200 F 
ATOM     89  F   UNL A   1      41.721  25.509  24.993  1.00  0.00    -0.200 F 
ENDBRANCH  55  79
BRANCH  67  90
ATOM     90  C   UNL A   1      44.209  27.982  34.690  1.00  0.00     0.064 A 
ATOM     91  C   UNL A   1      43.948  26.789  35.380  1.00  0.00     0.173 A 
ATOM     92  C   UNL A   1      45.547  28.390  34.569  1.00  0.00     0.173 A 
ATOM     93  F   UNL A   1      42.686  26.360  35.535  1.00  0.00    -0.203 F 
ATOM     94  C   UNL A   1      44.982  26.058  35.961  1.00  0.00     0.198 A 
ATOM     95  C   UNL A   1      46.580  27.636  35.116  1.00  0.00     0.198 A 
ATOM     96  F   UNL A   1      45.854  29.518  33.910  1.00  0.00    -0.203 F 
ATOM     97  F   UNL A   1      44.702  24.956  36.671  1.00  0.00    -0.200 F 
ATOM     98  C   UNL A   1      46.296  26.478  35.823  1.00  0.00     0.200 A 
ATOM     99  F   UNL A   1      47.851  28.034  34.966  1.00  0.00    -0.200 F 
ATOM    100  F   UNL A   1      47.288  25.770  36.379  1.00  0.00    -0.200 F 
ENDBRANCH  67  90
ENDBRANCH  41  42
ENDBRANCH  33  36
ENDBRANCH  31  32
ENDBRANCH  30  31
ENDBRANCH  29  30
ENDBRANCH   3  29
TORSDOF 16
ENDMDL
MODEL 2
REMARK VINA RESULT:     -12.2      1.640      2.890
REMARK SMILES COc1ccc(CCNC(=O)[C@@]2(C)CC[C@@H](C(=O)NCCCNC(=O)c3ccc(-c4c5nc(c(-c6c(F)c(F)c(F)c(F)c6F)c6ccc([nH]6)c(-c6c(F)c(F)c(F)c(F)c6F)c6nc(c(-c7c(F)c(F)c(F)c(F)c7F)c7ccc4[nH]7)C=C6)C=C5)cc3)C2(C)C)cc1OC
REMARK SMILES IDX 17 1 18 2 19 3 16 5 12 6 13 7 14 8 89 9 15 10 90 11 91 12
REMARK SMILES IDX 10 13 9 14 11 16 8 17 7 18 6 19 3 20 4 21 93 22 5 23 92 24
REMARK SMILES IDX 2 25 1 26 94 27 95 28 20 29 21 30 22 31 23 32 24 33 25 35
REMARK SMILES IDX 26 36 27 37 88 38 28 39 87 40 29 41 30 42 31 43 81 44 32 45
REMARK SMILES IDX 86 46 80 47 82 48 33 49 85 50 79 51 78 52 34 54 66 55 46 56
REMARK SMILES IDX 65 57 47 58 50 59 64 60 83 61 48 62 49 63 63 65 84 66 51 67
REMARK SMILES IDX 35 68 36 69 44 70 37 71 38 72 42 73 45 74 39 75 40 76 43 77
REMARK SMILES IDX 41 78 67 79 68 80 76 81 69 82 70 83 74 84 77 85 71 86 72 87
REMARK SMILES IDX 75 88 73 89 52 90 53 91 61 92 54 93 55 94 59 95 62 96 56 97
REMARK SMILES IDX 57 98 60 99 58 100
REMARK H PARENT 19 4 9 15 23 34 82 53 50 64
REMARK Flexibility Score: inf
ROOT
ATOM      1  C   UNL A   1      33.139  28.288  22.892  1.00  0.00     0.223 C 
ATOM      2  O   UNL A   1      34.224  28.588  22.377  1.00  0.00    -0.275 OA
ATOM      3  N   UNL A   1      32.484  29.310  23.490  1.00  0.00    -0.356 N 
ATOM      4  H   UNL A   1      32.944  30.178  23.431  1.00  0.00     0.163 HD
ENDROOT
BRANCH   1   5
ATOM      5  C   UNL A   1      32.620  26.842  22.752  1.00  0.00     0.085 C 
ATOM      6  C   UNL A   1      31.241  25.453  24.366  1.00  0.00     0.052 C 
ATOM      7  C   UNL A   1      30.821  23.977  24.092  1.00  0.00     0.022 C 
ATOM      8  C   UNL A   1      30.352  26.316  23.447  1.00  0.00     0.018 C 
ATOM      9  C   UNL A   1      32.755  25.764  23.876  1.00  0.00    -0.010 C 
ATOM     10  C   UNL A   1      31.186  26.728  22.249  1.00  0.00     0.015 C 
ATOM     11  C   UNL A   1      33.740  26.174  24.984  1.00  0.00     0.013 C 
ATOM     12  C   UNL A   1      33.443  24.531  23.217  1.00  0.00     0.013 C 
BRANCH   6  13
ATOM     13  C   UNL A   1      31.076  25.562  25.917  1.00  0.00     0.226 C 
ATOM     14  N   UNL A   1      31.352  24.646  26.872  1.00  0.00    -0.355 N 
ATOM     15  H   UNL A   1      31.196  25.026  27.766  1.00  0.00     0.163 HD
ATOM     16  O   UNL A   1      30.654  26.633  26.388  1.00  0.00    -0.274 OA
BRANCH  14  17
ATOM     17  C   UNL A   1      31.810  23.262  26.978  1.00  0.00     0.120 C 
BRANCH  17  18
ATOM     18  C   UNL A   1      33.274  23.074  26.587  1.00  0.00     0.057 C 
BRANCH  18  19
ATOM     19  C   UNL A   1      33.508  21.747  25.910  1.00  0.00    -0.042 A 
ATOM     20  C   UNL A   1      33.997  19.306  24.621  1.00  0.00     0.160 A 
ATOM     21  C   UNL A   1      32.684  19.759  24.811  1.00  0.00     0.051 A 
ATOM     22  C   UNL A   1      35.078  20.084  25.040  1.00  0.00     0.160 A 
ATOM     23  C   UNL A   1      32.440  20.967  25.466  1.00  0.00     0.008 A 
ATOM     24  C   UNL A   1      34.821  21.306  25.672  1.00  0.00     0.054 A 
BRANCH  20  25
ATOM     25  O   UNL A   1      34.183  18.133  23.939  1.00  0.00    -0.493 OA
ATOM     26  C   UNL A   1      33.547  17.044  24.612  1.00  0.00     0.278 C 
ENDBRANCH  20  25
BRANCH  22  27
ATOM     27  O   UNL A   1      36.412  19.828  24.880  1.00  0.00    -0.493 OA
ATOM     28  C   UNL A   1      37.311  20.920  24.995  1.00  0.00     0.278 C 
ENDBRANCH  22  27
ENDBRANCH  18  19
ENDBRANCH  17  18
ENDBRANCH  14  17
ENDBRANCH   6  13
ENDBRANCH   1   5
BRANCH   3  29
ATOM     29  C   UNL A   1      31.234  29.349  24.200  1.00  0.00     0.117 C 
BRANCH  29  30
ATOM     30  C   UNL A   1      31.403  29.498  25.703  1.00  0.00     0.042 C 
BRANCH  30  31
ATOM     31  C   UNL A   1      32.734  30.082  26.121  1.00  0.00     0.118 C 
BRANCH  31  32
ATOM     32  N   UNL A   1      32.658  31.486  26.499  1.00  0.00    -0.352 N 
ATOM     33  C   UNL A   1      33.403  32.261  27.358  1.00  0.00     0.251 C 
ATOM     34  H   UNL A   1      31.933  31.978  26.051  1.00  0.00     0.163 HD
ATOM     35  O   UNL A   1      33.033  33.412  27.568  1.00  0.00    -0.269 OA
BRANCH  33  36
ATOM     36  C   UNL A   1      34.614  31.740  28.042  1.00  0.00     0.039 A 
ATOM     37  C   UNL A   1      35.709  32.591  28.229  1.00  0.00     0.014 A 
ATOM     38  C   UNL A   1      34.714  30.418  28.466  1.00  0.00     0.014 A 
ATOM     39  C   UNL A   1      36.858  32.128  28.884  1.00  0.00     0.010 A 
ATOM     40  C   UNL A   1      35.780  30.008  29.258  1.00  0.00     0.010 A 
ATOM     41  C   UNL A   1      36.890  30.841  29.440  1.00  0.00    -0.014 A 
BRANCH  41  42
ATOM     42  C   UNL A   1      38.086  30.314  30.152  1.00  0.00     0.031 A 
ATOM     43  C   UNL A   1      38.362  30.730  31.579  1.00  0.00     0.074 A 
ATOM     44  C   UNL A   1      38.958  29.514  29.508  1.00  0.00     0.049 A 
ATOM     45  N   UNL A   1      39.382  30.438  32.350  1.00  0.00    -0.248 NA
ATOM     46  C   UNL A   1      37.383  31.629  32.214  1.00  0.00     0.031 C 
ATOM     47  C   UNL A   1      38.846  29.088  28.111  1.00  0.00     0.029 A 
ATOM     48  N   UNL A   1      40.116  28.918  29.944  1.00  0.00    -0.354 N 
ATOM     49  C   UNL A   1      39.174  31.136  33.534  1.00  0.00     0.074 A 
ATOM     50  C   UNL A   1      37.981  31.929  33.354  1.00  0.00     0.031 C 
ATOM     51  C   UNL A   1      39.867  28.268  27.819  1.00  0.00     0.029 A 
ATOM     52  C   UNL A   1      40.729  28.142  28.990  1.00  0.00     0.049 A 
ATOM     53  H   UNL A   1      40.473  29.035  30.853  1.00  0.00     0.167 HD
ATOM     54  C   UNL A   1      39.887  31.091  34.685  1.00  0.00     0.037 A 
ATOM     55  C   UNL A   1      41.856  27.409  29.055  1.00  0.00     0.037 A 
ATOM     56  C   UNL A   1      41.051  30.267  34.877  1.00  0.00     0.049 A 
ATOM     57  C   UNL A   1      42.625  27.363  30.349  1.00  0.00     0.074 A 
ATOM     58  C   UNL A   1      41.810  30.097  36.021  1.00  0.00     0.029 A 
ATOM     59  N   UNL A   1      41.622  29.471  33.895  1.00  0.00    -0.354 N 
ATOM     60  N   UNL A   1      42.375  27.967  31.485  1.00  0.00    -0.248 NA
ATOM     61  C   UNL A   1      43.825  26.518  30.372  1.00  0.00     0.031 C 
ATOM     62  C   UNL A   1      42.872  29.238  35.716  1.00  0.00     0.029 A 
ATOM     63  C   UNL A   1      42.735  28.821  34.402  1.00  0.00     0.049 A 
ATOM     64  H   UNL A   1      41.284  29.381  32.974  1.00  0.00     0.167 HD
ATOM     65  C   UNL A   1      43.363  27.548  32.367  1.00  0.00     0.074 A 
ATOM     66  C   UNL A   1      44.206  26.624  31.636  1.00  0.00     0.031 C 
ATOM     67  C   UNL A   1      43.556  27.895  33.664  1.00  0.00     0.037 A 
BRANCH  54  68
ATOM     68  C   UNL A   1      39.418  31.948  35.830  1.00  0.00     0.064 A 
ATOM     69  C   UNL A   1      38.441  31.501  36.735  1.00  0.00     0.173 A 
ATOM     70  C   UNL A   1      39.968  33.220  36.041  1.00  0.00     0.173 A 
ATOM     71  F   UNL A   1      37.871  30.297  36.576  1.00  0.00    -0.203 F 
ATOM     72  C   UNL A   1      38.005  32.312  37.780  1.00  0.00     0.198 A 
ATOM     73  C   UNL A   1      39.558  34.013  37.110  1.00  0.00     0.198 A 
ATOM     74  F   UNL A   1      40.910  33.697  35.213  1.00  0.00    -0.203 F 
ATOM     75  F   UNL A   1      37.025  31.888  38.590  1.00  0.00    -0.200 F 
ATOM     76  C   UNL A   1      38.569  33.563  37.972  1.00  0.00     0.200 A 
ATOM     77  F   UNL A   1      40.116  35.216  37.304  1.00  0.00    -0.200 F 
ATOM     78  F   UNL A   1      38.154  34.340  38.983  1.00  0.00    -0.200 F 
ENDBRANCH  54  68
BRANCH  55  79
ATOM     79  C   UNL A   1      42.305  26.625  27.873  1.00  0.00     0.064 A 
ATOM     80  C   UNL A   1      41.812  25.334  27.636  1.00  0.00     0.173 A 
ATOM     81  C   UNL A   1      43.241  27.141  26.965  1.00  0.00     0.173 A 
ATOM     82  F   UNL A   1      40.928  24.789  28.485  1.00  0.00    -0.203 F 
ATOM     83  C   UNL A   1      42.258  24.579  26.553  1.00  0.00     0.198 A 
ATOM     84  C   UNL A   1      43.663  26.397  25.863  1.00  0.00     0.198 A 
ATOM     85  F   UNL A   1      43.740  28.373  27.140  1.00  0.00    -0.203 F 
ATOM     86  F   UNL A   1      41.810  23.327  26.382  1.00  0.00    -0.200 F 
ATOM     87  C   UNL A   1      43.178  25.113  25.665  1.00  0.00     0.200 A 
ATOM     88  F   UNL A   1      44.539  26.923  24.997  1.00  0.00    -0.200 F 
ATOM     89  F   UNL A   1      43.605  24.387  24.623  1.00  0.00    -0.200 F 
ENDBRANCH  55  79
BRANCH  67  90
ATOM     90  C   UNL A   1      44.690  27.232  34.391  1.00  0.00     0.064 A 
ATOM     91  C   UNL A   1      45.968  27.806  34.456  1.00  0.00     0.173 A 
ATOM     92  C   UNL A   1      44.486  26.010  35.053  1.00  0.00     0.173 A 
ATOM     93  F   UNL A   1      46.221  28.966  33.831  1.00  0.00    -0.203 F 
ATOM     94  C   UNL A   1      47.009  27.161  35.121  1.00  0.00     0.198 A 
ATOM     95  C   UNL A   1      45.518  25.390  35.750  1.00  0.00     0.198 A 
ATOM     96  F   UNL A   1      43.280  25.422  35.033  1.00  0.00    -0.203 F 
ATOM     97  F   UNL A   1      48.238  27.696  35.114  1.00  0.00    -0.200 F 
ATOM     98  C   UNL A   1      46.782  25.958  35.772  1.00  0.00     0.200 A 
ATOM     99  F   UNL A   1      45.291  24.237  36.394  1.00  0.00    -0.200 F 
ATOM    100  F   UNL A   1      47.784  25.343  36.414  1.00  0.00    -0.200 F 
ENDBRANCH  67  90
ENDBRANCH  41  42
ENDBRANCH  33  36
ENDBRANCH  31  32
ENDBRANCH  30  31
ENDBRANCH  29  30
ENDBRANCH   3  29
TORSDOF 16
ENDMDL
MODEL 3
REMARK VINA RESULT:     -12.1      2.102      3.490
REMARK SMILES COc1ccc(CCNC(=O)[C@@]2(C)CC[C@@H](C(=O)NCCCNC(=O)c3ccc(-c4c5nc(c(-c6c(F)c(F)c(F)c(F)c6F)c6ccc([nH]6)c(-c6c(F)c(F)c(F)c(F)c6F)c6nc(c(-c7c(F)c(F)c(F)c(F)c7F)c7ccc4[nH]7)C=C6)C=C5)cc3)C2(C)C)cc1OC
REMARK SMILES IDX 17 1 18 2 19 3 16 5 12 6 13 7 14 8 89 9 15 10 90 11 91 12
REMARK SMILES IDX 10 13 9 14 11 16 8 17 7 18 6 19 3 20 4 21 93 22 5 23 92 24
REMARK SMILES IDX 2 25 1 26 94 27 95 28 20 29 21 30 22 31 23 32 24 33 25 35
REMARK SMILES IDX 26 36 27 37 88 38 28 39 87 40 29 41 30 42 31 43 81 44 32 45
REMARK SMILES IDX 86 46 80 47 82 48 33 49 85 50 79 51 78 52 34 54 66 55 46 56
REMARK SMILES IDX 65 57 47 58 50 59 64 60 83 61 48 62 49 63 63 65 84 66 51 67
REMARK SMILES IDX 35 68 36 69 44 70 37 71 38 72 42 73 45 74 39 75 40 76 43 77
REMARK SMILES IDX 41 78 67 79 68 80 76 81 69 82 70 83 74 84 77 85 71 86 72 87
REMARK SMILES IDX 75 88 73 89 52 90 53 91 61 92 54 93 55 94 59 95 62 96 56 97
REMARK SMILES IDX 57 98 60 99 58 100
REMARK H PARENT 19 4 9 15 23 34 82 53 50 64
REMARK Flexibility Score: inf
ROOT
ATOM      1  C   UNL A   1      33.154  28.540  23.331  1.00  0.00     0.223 C 
ATOM      2  O   UNL A   1      34.176  28.941  22.760  1.00  0.00    -0.275 OA
ATOM      3  N   UNL A   1      32.622  29.401  24.230  1.00  0.00    -0.356 N 
ATOM      4  H   UNL A   1      33.105  30.255  24.310  1.00  0.00     0.163 HD
ENDROOT
BRANCH   1   5
ATOM      5  C   UNL A   1      32.564  27.171  22.934  1.00  0.00     0.085 C 
ATOM      6  C   UNL A   1      31.070  25.606  24.258  1.00  0.00     0.052 C 
ATOM      7  C   UNL A   1      30.581  24.225  23.725  1.00  0.00     0.022 C 
ATOM      8  C   UNL A   1      30.253  26.662  23.485  1.00  0.00     0.018 C 
ATOM      9  C   UNL A   1      32.611  25.910  23.858  1.00  0.00    -0.010 C 
ATOM     10  C   UNL A   1      31.142  27.225  22.392  1.00  0.00     0.015 C 
ATOM     11  C   UNL A   1      33.585  26.069  25.039  1.00  0.00     0.013 C 
ATOM     12  C   UNL A   1      33.253  24.771  23.010  1.00  0.00     0.013 C 
BRANCH   6  13
ATOM     13  C   UNL A   1      30.867  25.457  25.801  1.00  0.00     0.226 C 
ATOM     14  N   UNL A   1      31.182  24.420  26.608  1.00  0.00    -0.355 N 
ATOM     15  H   UNL A   1      30.984  24.643  27.546  1.00  0.00     0.163 HD
ATOM     16  O   UNL A   1      30.364  26.411  26.421  1.00  0.00    -0.274 OA
BRANCH  14  17
ATOM     17  C   UNL A   1      31.729  23.068  26.510  1.00  0.00     0.120 C 
BRANCH  17  18
ATOM     18  C   UNL A   1      32.925  22.826  27.427  1.00  0.00     0.057 C 
BRANCH  18  19
ATOM     19  C   UNL A   1      34.143  22.381  26.658  1.00  0.00    -0.042 A 
ATOM     20  C   UNL A   1      36.411  21.613  25.200  1.00  0.00     0.160 A 
ATOM     21  C   UNL A   1      35.350  20.717  25.388  1.00  0.00     0.051 A 
ATOM     22  C   UNL A   1      36.333  22.912  25.707  1.00  0.00     0.160 A 
ATOM     23  C   UNL A   1      34.227  21.093  26.126  1.00  0.00     0.008 A 
ATOM     24  C   UNL A   1      35.191  23.286  26.423  1.00  0.00     0.054 A 
BRANCH  20  25
ATOM     25  O   UNL A   1      37.472  21.207  24.435  1.00  0.00    -0.493 OA
ATOM     26  C   UNL A   1      37.900  19.895  24.810  1.00  0.00     0.278 C 
ENDBRANCH  20  25
BRANCH  22  27
ATOM     27  O   UNL A   1      37.239  23.927  25.563  1.00  0.00    -0.493 OA
ATOM     28  C   UNL A   1      38.293  24.008  26.509  1.00  0.00     0.278 C 
ENDBRANCH  22  27
ENDBRANCH  18  19
ENDBRANCH  17  18
ENDBRANCH  14  17
ENDBRANCH   6  13
ENDBRANCH   1   5
BRANCH   3  29
ATOM     29  C   UNL A   1      31.474  29.285  25.090  1.00  0.00     0.117 C 
BRANCH  29  30
ATOM     30  C   UNL A   1      31.831  29.281  26.566  1.00  0.00     0.042 C 
BRANCH  30  31
ATOM     31  C   UNL A   1      33.224  29.788  26.869  1.00  0.00     0.118 C 
BRANCH  31  32
ATOM     32  N   UNL A   1      33.264  31.202  27.215  1.00  0.00    -0.352 N 
ATOM     33  C   UNL A   1      34.151  31.956  27.949  1.00  0.00     0.251 C 
ATOM     34  H   UNL A   1      32.509  31.719  26.854  1.00  0.00     0.163 HD
ATOM     35  O   UNL A   1      33.866  33.128  28.175  1.00  0.00    -0.269 OA
BRANCH  33  36
ATOM     36  C   UNL A   1      35.416  31.389  28.482  1.00  0.00     0.039 A 
ATOM     37  C   UNL A   1      36.613  32.085  28.276  1.00  0.00     0.014 A 
ATOM     38  C   UNL A   1      35.459  30.165  29.143  1.00  0.00     0.014 A 
ATOM     39  C   UNL A   1      37.818  31.578  28.782  1.00  0.00     0.010 A 
ATOM     40  C   UNL A   1      36.619  29.747  29.785  1.00  0.00     0.010 A 
ATOM     41  C   UNL A   1      37.827  30.421  29.576  1.00  0.00    -0.014 A 
BRANCH  41  42
ATOM     42  C   UNL A   1      39.083  29.856  30.140  1.00  0.00     0.031 A 
ATOM     43  C   UNL A   1      39.640  30.395  31.437  1.00  0.00     0.074 A 
ATOM     44  C   UNL A   1      39.759  28.906  29.464  1.00  0.00     0.049 A 
ATOM     45  N   UNL A   1      40.753  30.086  32.058  1.00  0.00    -0.248 NA
ATOM     46  C   UNL A   1      38.865  31.453  32.108  1.00  0.00     0.031 C 
ATOM     47  C   UNL A   1      39.368  28.345  28.170  1.00  0.00     0.029 A 
ATOM     48  N   UNL A   1      40.924  28.246  29.773  1.00  0.00    -0.354 N 
ATOM     49  C   UNL A   1      40.815  30.927  33.164  1.00  0.00     0.074 A 
ATOM     50  C   UNL A   1      39.678  31.813  33.087  1.00  0.00     0.031 C 
ATOM     51  C   UNL A   1      40.251  27.398  27.817  1.00  0.00     0.029 A 
ATOM     52  C   UNL A   1      41.293  27.313  28.835  1.00  0.00     0.049 A 
ATOM     53  H   UNL A   1      41.444  28.425  30.589  1.00  0.00     0.167 HD
ATOM     54  C   UNL A   1      41.715  30.936  34.178  1.00  0.00     0.037 A 
ATOM     55  C   UNL A   1      42.351  26.481  28.803  1.00  0.00     0.037 A 
ATOM     56  C   UNL A   1      42.823  30.023  34.275  1.00  0.00     0.049 A 
ATOM     57  C   UNL A   1      43.330  26.498  29.947  1.00  0.00     0.074 A 
ATOM     58  C   UNL A   1      43.756  29.902  35.290  1.00  0.00     0.029 A 
ATOM     59  N   UNL A   1      43.144  29.071  33.319  1.00  0.00    -0.354 N 
ATOM     60  N   UNL A   1      43.335  27.244  31.025  1.00  0.00    -0.248 NA
ATOM     61  C   UNL A   1      44.442  25.542  29.876  1.00  0.00     0.031 C 
ATOM     62  C   UNL A   1      44.673  28.912  34.922  1.00  0.00     0.029 A 
ATOM     63  C   UNL A   1      44.273  28.370  33.711  1.00  0.00     0.049 A 
ATOM     64  H   UNL A   1      42.643  28.916  32.485  1.00  0.00     0.167 HD
ATOM     65  C   UNL A   1      44.425  26.826  31.776  1.00  0.00     0.074 A 
ATOM     66  C   UNL A   1      45.047  25.746  31.037  1.00  0.00     0.031 C 
ATOM     67  C   UNL A   1      44.872  27.290  32.969  1.00  0.00     0.037 A 
BRANCH  54  68
ATOM     68  C   UNL A   1      41.526  31.955  35.268  1.00  0.00     0.064 A 
ATOM     69  C   UNL A   1      42.299  33.126  35.327  1.00  0.00     0.173 A 
ATOM     70  C   UNL A   1      40.544  31.773  36.253  1.00  0.00     0.173 A 
ATOM     71  F   UNL A   1      43.261  33.348  34.419  1.00  0.00    -0.203 F 
ATOM     72  C   UNL A   1      42.124  34.053  36.352  1.00  0.00     0.198 A 
ATOM     73  C   UNL A   1      40.345  32.720  37.255  1.00  0.00     0.198 A 
ATOM     74  F   UNL A   1      39.770  30.676  36.244  1.00  0.00    -0.203 F 
ATOM     75  F   UNL A   1      42.919  35.129  36.422  1.00  0.00    -0.200 F 
ATOM     76  C   UNL A   1      41.142  33.854  37.310  1.00  0.00     0.200 A 
ATOM     77  F   UNL A   1      39.385  32.534  38.170  1.00  0.00    -0.200 F 
ATOM     78  F   UNL A   1      40.969  34.750  38.291  1.00  0.00    -0.200 F 
ENDBRANCH  54  68
BRANCH  55  79
ATOM     79  C   UNL A   1      42.518  25.531  27.671  1.00  0.00     0.064 A 
ATOM     80  C   UNL A   1      41.819  24.315  27.641  1.00  0.00     0.173 A 
ATOM     81  C   UNL A   1      43.385  25.809  26.604  1.00  0.00     0.173 A 
ATOM     82  F   UNL A   1      40.992  23.995  28.647  1.00  0.00    -0.203 F 
ATOM     83  C   UNL A   1      42.002  23.403  26.603  1.00  0.00     0.198 A 
ATOM     84  C   UNL A   1      43.542  24.910  25.549  1.00  0.00     0.198 A 
ATOM     85  F   UNL A   1      44.072  26.960  26.578  1.00  0.00    -0.203 F 
ATOM     86  F   UNL A   1      41.362  22.226  26.629  1.00  0.00    -0.200 F 
ATOM     87  C   UNL A   1      42.858  23.704  25.556  1.00  0.00     0.200 A 
ATOM     88  F   UNL A   1      44.357  25.213  24.530  1.00  0.00    -0.200 F 
ATOM     89  F   UNL A   1      43.032  22.828  24.557  1.00  0.00    -0.200 F 
ENDBRANCH  55  79
BRANCH  67  90
ATOM     90  C   UNL A   1      46.059  26.598  33.576  1.00  0.00     0.064 A 
ATOM     91  C   UNL A   1      45.920  25.492  34.426  1.00  0.00     0.173 A 
ATOM     92  C   UNL A   1      47.360  27.039  33.281  1.00  0.00     0.173 A 
ATOM     93  F   UNL A   1      44.700  25.037  34.750  1.00  0.00    -0.203 F 
ATOM     94  C   UNL A   1      47.036  24.879  34.991  1.00  0.00     0.198 A 
ATOM     95  C   UNL A   1      48.473  26.400  33.816  1.00  0.00     0.198 A 
ATOM     96  F   UNL A   1      47.550  28.086  32.464  1.00  0.00    -0.203 F 
ATOM     97  F   UNL A   1      46.876  23.865  35.853  1.00  0.00    -0.200 F 
ATOM     98  C   UNL A   1      48.311  25.329  34.681  1.00  0.00     0.200 A 
ATOM     99  F   UNL A   1      49.704  26.824  33.500  1.00  0.00    -0.200 F 
ATOM    100  F   UNL A   1      49.383  24.735  35.223  1.00  0.00    -0.200 F 
ENDBRANCH  67  90
ENDBRANCH  41  42
ENDBRANCH  33  36
ENDBRANCH  31  32
ENDBRANCH  30  31
ENDBRANCH  29  30
ENDBRANCH   3  29
TORSDOF 16
ENDMDL
