MODEL 1
REMARK VINA RESULT:     -12.4      0.000      0.000
REMARK SMILES COc1ccccc1NC(=O)[C@H](C)c1nc(CC(=O)NCCCNC(=O)c2ccc(-c3c4nc(c(-c5c(F)c(F)c(F)c(F)c5F)c5ccc([nH]5)c(-c5c(F)c(F)c(F)c(F)c5F)c5nc(c(-c6c(F)c(F)c(F)c(F)c6F)c6ccc3[nH]6)C=C5)C=C4)cc2)cs1
REMARK SMILES IDX 18 1 19 2 20 3 17 5 16 6 14 7 15 8 91 9 90 10 12 11 13 12
REMARK SMILES IDX 10 13 9 14 11 16 8 17 3 18 4 19 5 20 7 21 6 22 2 23 1 24
REMARK SMILES IDX 21 25 22 26 23 27 24 28 25 29 26 31 27 32 28 33 89 34 29 35
REMARK SMILES IDX 88 36 30 37 31 38 32 39 82 40 33 41 87 42 81 43 83 44 34 45
REMARK SMILES IDX 86 46 80 47 79 48 35 50 67 51 47 52 66 53 48 54 51 55 65 56
REMARK SMILES IDX 84 57 49 58 50 59 64 61 85 62 52 63 36 64 37 65 45 66 38 67
REMARK SMILES IDX 39 68 43 69 46 70 40 71 41 72 44 73 42 74 68 75 69 76 77 77
REMARK SMILES IDX 70 78 71 79 75 80 78 81 72 82 73 83 76 84 74 85 53 86 54 87
REMARK SMILES IDX 62 88 55 89 56 90 60 91 63 92 57 93 58 94 61 95 59 96
REMARK H PARENT 20 4 9 15 24 30 83 49 51 60
REMARK Flexibility Score: inf
ROOT
ATOM      1  C   UNL A   1      32.950  29.191  27.173  1.00  0.00     0.226 C 
ATOM      2  O   UNL A   1      34.097  28.920  27.535  1.00  0.00    -0.275 OA
ATOM      3  N   UNL A   1      32.737  30.369  26.517  1.00  0.00    -0.356 N 
ATOM      4  H   UNL A   1      33.544  30.888  26.299  1.00  0.00     0.163 HD
ENDROOT
BRANCH   1   5
ATOM      5  C   UNL A   1      31.797  28.239  27.425  1.00  0.00     0.157 C 
BRANCH   5   6
ATOM      6  C   UNL A   1      31.612  27.276  26.302  1.00  0.00     0.061 A 
ATOM      7  C   UNL A   1      31.091  25.259  25.499  1.00  0.00     0.105 A 
ATOM      8  N   UNL A   1      31.135  26.005  26.587  1.00  0.00    -0.245 NA
ATOM      9  S   UNL A   1      31.506  26.103  24.051  1.00  0.00    -0.126 S 
ATOM     10  C   UNL A   1      31.865  27.503  24.964  1.00  0.00     0.091 A 
BRANCH   7  11
ATOM     11  C   UNL A   1      30.638  23.819  25.467  1.00  0.00     0.135 C 
ATOM     12  C   UNL A   1      31.299  22.989  24.357  1.00  0.00     0.026 C 
BRANCH  11  13
ATOM     13  C   UNL A   1      31.004  23.166  26.795  1.00  0.00     0.234 C 
ATOM     14  N   UNL A   1      32.289  22.929  27.175  1.00  0.00    -0.322 N 
ATOM     15  H   UNL A   1      32.354  22.680  28.125  1.00  0.00     0.170 HD
ATOM     16  O   UNL A   1      30.130  22.903  27.635  1.00  0.00    -0.274 OA
BRANCH  14  17
ATOM     17  C   UNL A   1      33.545  22.954  26.546  1.00  0.00     0.083 A 
ATOM     18  C   UNL A   1      34.102  21.706  26.196  1.00  0.00     0.142 A 
ATOM     19  C   UNL A   1      35.379  21.608  25.641  1.00  0.00     0.048 A 
ATOM     20  C   UNL A   1      36.103  22.766  25.376  1.00  0.00     0.004 A 
ATOM     21  C   UNL A   1      34.260  24.105  26.220  1.00  0.00     0.030 A 
ATOM     22  C   UNL A   1      35.538  24.011  25.651  1.00  0.00     0.002 A 
BRANCH  18  23
ATOM     23  O   UNL A   1      33.445  20.534  26.487  1.00  0.00    -0.495 OA
ATOM     24  C   UNL A   1      33.082  19.820  25.302  1.00  0.00     0.278 C 
ENDBRANCH  18  23
ENDBRANCH  14  17
ENDBRANCH  11  13
ENDBRANCH   7  11
ENDBRANCH   5   6
ENDBRANCH   1   5
BRANCH   3  25
ATOM     25  C   UNL A   1      31.476  30.958  26.095  1.00  0.00     0.117 C 
BRANCH  25  26
ATOM     26  C   UNL A   1      31.312  32.389  26.601  1.00  0.00     0.042 C 
BRANCH  26  27
ATOM     27  C   UNL A   1      32.549  32.961  27.284  1.00  0.00     0.118 C 
BRANCH  27  28
ATOM     28  N   UNL A   1      32.375  34.346  27.702  1.00  0.00    -0.352 N 
ATOM     29  C   UNL A   1      33.016  35.058  28.683  1.00  0.00     0.251 C 
ATOM     30  H   UNL A   1      31.691  34.848  27.202  1.00  0.00     0.163 HD
ATOM     31  O   UNL A   1      32.601  36.174  28.998  1.00  0.00    -0.269 OA
BRANCH  29  32
ATOM     32  C   UNL A   1      34.197  34.499  29.376  1.00  0.00     0.039 A 
ATOM     33  C   UNL A   1      34.017  33.860  30.607  1.00  0.00     0.014 A 
ATOM     34  C   UNL A   1      35.480  34.634  28.843  1.00  0.00     0.014 A 
ATOM     35  C   UNL A   1      35.114  33.305  31.273  1.00  0.00     0.010 A 
ATOM     36  C   UNL A   1      36.562  34.020  29.470  1.00  0.00     0.010 A 
ATOM     37  C   UNL A   1      36.391  33.354  30.693  1.00  0.00    -0.014 A 
BRANCH  37  38
ATOM     38  C   UNL A   1      37.569  32.732  31.351  1.00  0.00     0.031 A 
ATOM     39  C   UNL A   1      38.287  31.591  30.683  1.00  0.00     0.074 A 
ATOM     40  C   UNL A   1      37.943  33.136  32.580  1.00  0.00     0.049 A 
ATOM     41  N   UNL A   1      39.246  30.828  31.146  1.00  0.00    -0.248 NA
ATOM     42  C   UNL A   1      37.844  31.243  29.324  1.00  0.00     0.031 C 
ATOM     43  C   UNL A   1      37.312  34.210  33.348  1.00  0.00     0.029 A 
ATOM     44  N   UNL A   1      38.937  32.675  33.409  1.00  0.00    -0.354 N 
ATOM     45  C   UNL A   1      39.502  29.899  30.147  1.00  0.00     0.074 A 
ATOM     46  C   UNL A   1      38.570  30.164  29.072  1.00  0.00     0.031 C 
ATOM     47  C   UNL A   1      37.938  34.334  34.528  1.00  0.00     0.029 A 
ATOM     48  C   UNL A   1      38.987  33.322  34.620  1.00  0.00     0.049 A 
ATOM     49  H   UNL A   1      39.554  31.951  33.159  1.00  0.00     0.167 HD
ATOM     50  C   UNL A   1      40.442  28.924  30.120  1.00  0.00     0.037 A 
ATOM     51  C   UNL A   1      39.778  33.112  35.689  1.00  0.00     0.037 A 
ATOM     52  C   UNL A   1      41.389  28.683  31.177  1.00  0.00     0.049 A 
ATOM     53  C   UNL A   1      40.811  32.019  35.637  1.00  0.00     0.074 A 
ATOM     54  C   UNL A   1      42.415  27.754  31.223  1.00  0.00     0.029 A 
ATOM     55  N   UNL A   1      41.427  29.379  32.376  1.00  0.00    -0.354 N 
ATOM     56  N   UNL A   1      41.079  31.176  34.668  1.00  0.00    -0.248 NA
ATOM     57  C   UNL A   1      41.658  31.850  36.827  1.00  0.00     0.031 C 
ATOM     58  C   UNL A   1      43.048  27.862  32.465  1.00  0.00     0.029 A 
ATOM     59  C   UNL A   1      42.448  28.891  33.175  1.00  0.00     0.049 A 
ATOM     60  H   UNL A   1      40.818  30.113  32.623  1.00  0.00     0.167 HD
ATOM     61  C   UNL A   1      42.142  30.403  35.115  1.00  0.00     0.074 A 
ATOM     62  C   UNL A   1      42.477  30.881  36.441  1.00  0.00     0.031 C 
ATOM     63  C   UNL A   1      42.783  29.389  34.484  1.00  0.00     0.037 A 
BRANCH  50  64
ATOM     64  C   UNL A   1      40.493  28.041  28.906  1.00  0.00     0.064 A 
ATOM     65  C   UNL A   1      39.753  26.851  28.830  1.00  0.00     0.173 A 
ATOM     66  C   UNL A   1      41.265  28.406  27.793  1.00  0.00     0.173 A 
ATOM     67  F   UNL A   1      39.008  26.453  29.873  1.00  0.00    -0.203 F 
ATOM     68  C   UNL A   1      39.809  26.043  27.698  1.00  0.00     0.198 A 
ATOM     69  C   UNL A   1      41.293  27.610  26.649  1.00  0.00     0.198 A 
ATOM     70  F   UNL A   1      41.985  29.536  27.808  1.00  0.00    -0.203 F 
ATOM     71  F   UNL A   1      39.134  24.885  27.669  1.00  0.00    -0.200 F 
ATOM     72  C   UNL A   1      40.573  26.426  26.607  1.00  0.00     0.200 A 
ATOM     73  F   UNL A   1      42.021  27.989  25.589  1.00  0.00    -0.200 F 
ATOM     74  F   UNL A   1      40.620  25.651  25.514  1.00  0.00    -0.200 F 
ENDBRANCH  50  64
BRANCH  51  75
ATOM     75  C   UNL A   1      39.638  33.966  36.896  1.00  0.00     0.064 A 
ATOM     76  C   UNL A   1      38.847  33.553  37.978  1.00  0.00     0.173 A 
ATOM     77  C   UNL A   1      40.282  35.207  36.994  1.00  0.00     0.173 A 
ATOM     78  F   UNL A   1      38.192  32.384  37.921  1.00  0.00    -0.203 F 
ATOM     79  C   UNL A   1      38.690  34.359  39.104  1.00  0.00     0.198 A 
ATOM     80  C   UNL A   1      40.147  36.000  38.133  1.00  0.00     0.198 A 
ATOM     81  F   UNL A   1      41.053  35.646  35.989  1.00  0.00    -0.203 F 
ATOM     82  F   UNL A   1      37.891  33.961  40.103  1.00  0.00    -0.200 F 
ATOM     83  C   UNL A   1      39.344  35.579  39.183  1.00  0.00     0.200 A 
ATOM     84  F   UNL A   1      40.791  37.172  38.211  1.00  0.00    -0.200 F 
ATOM     85  F   UNL A   1      39.194  36.353  40.266  1.00  0.00    -0.200 F 
ENDBRANCH  51  75
BRANCH  63  86
ATOM     86  C   UNL A   1      43.945  28.759  35.193  1.00  0.00     0.064 A 
ATOM     87  C   UNL A   1      45.259  29.206  34.997  1.00  0.00     0.173 A 
ATOM     88  C   UNL A   1      43.732  27.725  36.117  1.00  0.00     0.173 A 
ATOM     89  F   UNL A   1      45.516  30.181  34.114  1.00  0.00    -0.203 F 
ATOM     90  C   UNL A   1      46.322  28.625  35.687  1.00  0.00     0.198 A 
ATOM     91  C   UNL A   1      44.792  27.166  36.825  1.00  0.00     0.198 A 
ATOM     92  F   UNL A   1      42.491  27.265  36.344  1.00  0.00    -0.203 F 
ATOM     93  F   UNL A   1      47.575  29.039  35.453  1.00  0.00    -0.200 F 
ATOM     94  C   UNL A   1      46.086  27.613  36.605  1.00  0.00     0.200 A 
ATOM     95  F   UNL A   1      44.562  26.197  37.722  1.00  0.00    -0.200 F 
ATOM     96  F   UNL A   1      47.109  27.063  37.274  1.00  0.00    -0.200 F 
ENDBRANCH  63  86
ENDBRANCH  37  38
ENDBRANCH  29  32
ENDBRANCH  27  28
ENDBRANCH  26  27
ENDBRANCH  25  26
ENDBRANCH   3  25
TORSDOF 15
ENDMDL
MODEL 2
REMARK VINA RESULT:     -12.4      5.323     10.613
REMARK SMILES COc1ccccc1NC(=O)[C@H](C)c1nc(CC(=O)NCCCNC(=O)c2ccc(-c3c4nc(c(-c5c(F)c(F)c(F)c(F)c5F)c5ccc([nH]5)c(-c5c(F)c(F)c(F)c(F)c5F)c5nc(c(-c6c(F)c(F)c(F)c(F)c6F)c6ccc3[nH]6)C=C5)C=C4)cc2)cs1
REMARK SMILES IDX 18 1 19 2 20 3 17 5 16 6 14 7 15 8 91 9 90 10 12 11 13 12
REMARK SMILES IDX 10 13 9 14 11 16 8 17 3 18 4 19 5 20 7 21 6 22 2 23 1 24
REMARK SMILES IDX 21 25 22 26 23 27 24 28 25 29 26 31 27 32 28 33 89 34 29 35
REMARK SMILES IDX 88 36 30 37 31 38 32 39 82 40 33 41 87 42 81 43 83 44 34 45
REMARK SMILES IDX 86 46 80 47 79 48 35 50 67 51 47 52 66 53 48 54 51 55 65 56
REMARK SMILES IDX 84 57 49 58 50 59 64 61 85 62 52 63 36 64 37 65 45 66 38 67
REMARK SMILES IDX 39 68 43 69 46 70 40 71 41 72 44 73 42 74 68 75 69 76 77 77
REMARK SMILES IDX 70 78 71 79 75 80 78 81 72 82 73 83 76 84 74 85 53 86 54 87
REMARK SMILES IDX 62 88 55 89 56 90 60 91 63 92 57 93 58 94 61 95 59 96
REMARK H PARENT 20 4 9 15 24 30 83 49 51 60
REMARK Flexibility Score: inf
ROOT
ATOM      1  C   UNL A   1      36.618  23.025  25.345  1.00  0.00     0.226 C 
ATOM      2  O   UNL A   1      36.868  23.937  26.137  1.00  0.00    -0.275 OA
ATOM      3  N   UNL A   1      36.653  21.739  25.803  1.00  0.00    -0.356 N 
ATOM      4  H   UNL A   1      36.793  21.635  26.771  1.00  0.00     0.163 HD
ENDROOT
BRANCH   1   5
ATOM      5  C   UNL A   1      36.258  23.311  23.900  1.00  0.00     0.157 C 
BRANCH   5   6
ATOM      6  C   UNL A   1      34.820  23.673  23.744  1.00  0.00     0.061 A 
ATOM      7  C   UNL A   1      32.683  23.579  24.385  1.00  0.00     0.105 A 
ATOM      8  N   UNL A   1      33.916  23.233  24.701  1.00  0.00    -0.245 NA
ATOM      9  S   UNL A   1      32.571  24.569  22.974  1.00  0.00    -0.126 S 
ATOM     10  C   UNL A   1      34.257  24.420  22.730  1.00  0.00     0.091 A 
BRANCH   7  11
ATOM     11  C   UNL A   1      31.461  23.238  25.205  1.00  0.00     0.135 C 
ATOM     12  C   UNL A   1      31.450  21.793  25.721  1.00  0.00     0.026 C 
BRANCH  11  13
ATOM     13  C   UNL A   1      31.425  24.153  26.423  1.00  0.00     0.234 C 
ATOM     14  N   UNL A   1      30.942  25.423  26.383  1.00  0.00    -0.322 N 
ATOM     15  H   UNL A   1      30.819  25.802  27.283  1.00  0.00     0.170 HD
ATOM     16  O   UNL A   1      31.761  23.733  27.541  1.00  0.00    -0.274 OA
BRANCH  14  17
ATOM     17  C   UNL A   1      30.572  26.328  25.373  1.00  0.00     0.083 A 
ATOM     18  C   UNL A   1      31.389  27.468  25.214  1.00  0.00     0.142 A 
ATOM     19  C   UNL A   1      31.070  28.470  24.298  1.00  0.00     0.048 A 
ATOM     20  C   UNL A   1      29.952  28.324  23.481  1.00  0.00     0.004 A 
ATOM     21  C   UNL A   1      29.491  26.171  24.507  1.00  0.00     0.030 A 
ATOM     22  C   UNL A   1      29.175  27.171  23.576  1.00  0.00     0.002 A 
BRANCH  18  23
ATOM     23  O   UNL A   1      32.471  27.678  26.035  1.00  0.00    -0.495 OA
ATOM     24  C   UNL A   1      33.470  28.482  25.399  1.00  0.00     0.278 C 
ENDBRANCH  18  23
ENDBRANCH  14  17
ENDBRANCH  11  13
ENDBRANCH   7  11
ENDBRANCH   5   6
ENDBRANCH   1   5
BRANCH   3  25
ATOM     25  C   UNL A   1      36.508  20.504  25.050  1.00  0.00     0.117 C 
BRANCH  25  26
ATOM     26  C   UNL A   1      37.851  19.822  24.799  1.00  0.00     0.042 C 
BRANCH  26  27
ATOM     27  C   UNL A   1      38.937  20.181  25.807  1.00  0.00     0.118 C 
BRANCH  27  28
ATOM     28  N   UNL A   1      40.007  19.194  25.860  1.00  0.00    -0.352 N 
ATOM     29  C   UNL A   1      41.350  19.362  26.080  1.00  0.00     0.251 C 
ATOM     30  H   UNL A   1      39.721  18.263  25.716  1.00  0.00     0.163 HD
ATOM     31  O   UNL A   1      42.119  18.414  25.914  1.00  0.00    -0.269 OA
BRANCH  29  32
ATOM     32  C   UNL A   1      41.891  20.670  26.507  1.00  0.00     0.039 A 
ATOM     33  C   UNL A   1      42.261  21.600  25.529  1.00  0.00     0.014 A 
ATOM     34  C   UNL A   1      42.072  20.973  27.858  1.00  0.00     0.014 A 
ATOM     35  C   UNL A   1      42.756  22.851  25.906  1.00  0.00     0.010 A 
ATOM     36  C   UNL A   1      42.497  22.245  28.235  1.00  0.00     0.010 A 
ATOM     37  C   UNL A   1      42.848  23.195  27.264  1.00  0.00    -0.014 A 
BRANCH  37  38
ATOM     38  C   UNL A   1      43.323  24.533  27.698  1.00  0.00     0.031 A 
ATOM     39  C   UNL A   1      42.329  25.603  28.057  1.00  0.00     0.074 A 
ATOM     40  C   UNL A   1      44.641  24.813  27.691  1.00  0.00     0.049 A 
ATOM     41  N   UNL A   1      42.531  26.869  28.329  1.00  0.00    -0.248 NA
ATOM     42  C   UNL A   1      40.914  25.202  28.084  1.00  0.00     0.031 C 
ATOM     43  C   UNL A   1      45.704  23.874  27.334  1.00  0.00     0.029 A 
ATOM     44  N   UNL A   1      45.309  25.979  27.976  1.00  0.00    -0.354 N 
ATOM     45  C   UNL A   1      41.272  27.416  28.534  1.00  0.00     0.074 A 
ATOM     46  C   UNL A   1      40.309  26.358  28.312  1.00  0.00     0.031 C 
ATOM     47  C   UNL A   1      46.890  24.494  27.432  1.00  0.00     0.029 A 
ATOM     48  C   UNL A   1      46.670  25.886  27.817  1.00  0.00     0.049 A 
ATOM     49  H   UNL A   1      44.855  26.802  28.268  1.00  0.00     0.167 HD
ATOM     50  C   UNL A   1      40.948  28.681  28.893  1.00  0.00     0.037 A 
ATOM     51  C   UNL A   1      47.630  26.820  27.950  1.00  0.00     0.037 A 
ATOM     52  C   UNL A   1      41.910  29.723  29.144  1.00  0.00     0.049 A 
ATOM     53  C   UNL A   1      47.244  28.221  28.344  1.00  0.00     0.074 A 
ATOM     54  C   UNL A   1      41.686  31.023  29.564  1.00  0.00     0.029 A 
ATOM     55  N   UNL A   1      43.282  29.581  29.001  1.00  0.00    -0.354 N 
ATOM     56  N   UNL A   1      46.054  28.717  28.583  1.00  0.00    -0.248 NA
ATOM     57  C   UNL A   1      48.338  29.193  28.493  1.00  0.00     0.031 C 
ATOM     58  C   UNL A   1      42.919  31.679  29.637  1.00  0.00     0.029 A 
ATOM     59  C   UNL A   1      43.916  30.774  29.309  1.00  0.00     0.049 A 
ATOM     60  H   UNL A   1      43.739  28.754  28.722  1.00  0.00     0.167 HD
ATOM     61  C   UNL A   1      46.256  30.043  28.942  1.00  0.00     0.074 A 
ATOM     62  C   UNL A   1      47.686  30.273  28.897  1.00  0.00     0.031 C 
ATOM     63  C   UNL A   1      45.341  30.983  29.278  1.00  0.00     0.037 A 
BRANCH  50  64
ATOM     64  C   UNL A   1      39.491  29.012  29.035  1.00  0.00     0.064 A 
ATOM     65  C   UNL A   1      38.719  29.423  27.938  1.00  0.00     0.173 A 
ATOM     66  C   UNL A   1      38.849  28.884  30.276  1.00  0.00     0.173 A 
ATOM     67  F   UNL A   1      39.288  29.571  26.731  1.00  0.00    -0.203 F 
ATOM     68  C   UNL A   1      37.368  29.725  28.084  1.00  0.00     0.198 A 
ATOM     69  C   UNL A   1      37.490  29.157  30.412  1.00  0.00     0.198 A 
ATOM     70  F   UNL A   1      39.537  28.488  31.357  1.00  0.00    -0.203 F 
ATOM     71  F   UNL A   1      36.664  30.165  27.031  1.00  0.00    -0.200 F 
ATOM     72  C   UNL A   1      36.753  29.585  29.319  1.00  0.00     0.200 A 
ATOM     73  F   UNL A   1      36.894  29.007  31.603  1.00  0.00    -0.200 F 
ATOM     74  F   UNL A   1      35.451  29.869  29.456  1.00  0.00    -0.200 F 
ENDBRANCH  50  64
BRANCH  51  75
ATOM     75  C   UNL A   1      49.054  26.460  27.725  1.00  0.00     0.064 A 
ATOM     76  C   UNL A   1      49.909  26.211  28.809  1.00  0.00     0.173 A 
ATOM     77  C   UNL A   1      49.590  26.363  26.434  1.00  0.00     0.173 A 
ATOM     78  F   UNL A   1      49.447  26.315  30.063  1.00  0.00    -0.203 F 
ATOM     79  C   UNL A   1      51.252  25.897  28.608  1.00  0.00     0.198 A 
ATOM     80  C   UNL A   1      50.927  26.021  26.234  1.00  0.00     0.198 A 
ATOM     81  F   UNL A   1      48.813  26.588  25.364  1.00  0.00    -0.203 F 
ATOM     82  F   UNL A   1      52.058  25.710  29.661  1.00  0.00    -0.200 F 
ATOM     83  C   UNL A   1      51.758  25.797  27.321  1.00  0.00     0.200 A 
ATOM     84  F   UNL A   1      51.408  25.912  24.988  1.00  0.00    -0.200 F 
ATOM     85  F   UNL A   1      53.048  25.493  27.128  1.00  0.00    -0.200 F 
ENDBRANCH  51  75
BRANCH  63  86
ATOM     86  C   UNL A   1      45.854  32.336  29.676  1.00  0.00     0.064 A 
ATOM     87  C   UNL A   1      46.214  32.629  30.999  1.00  0.00     0.173 A 
ATOM     88  C   UNL A   1      46.033  33.336  28.708  1.00  0.00     0.173 A 
ATOM     89  F   UNL A   1      46.047  31.712  31.963  1.00  0.00    -0.203 F 
ATOM     90  C   UNL A   1      46.714  33.884  31.342  1.00  0.00     0.198 A 
ATOM     91  C   UNL A   1      46.560  34.578  29.049  1.00  0.00     0.198 A 
ATOM     92  F   UNL A   1      45.709  33.103  27.426  1.00  0.00    -0.203 F 
ATOM     93  F   UNL A   1      47.012  34.157  32.620  1.00  0.00    -0.200 F 
ATOM     94  C   UNL A   1      46.894  34.852  30.366  1.00  0.00     0.200 A 
ATOM     95  F   UNL A   1      46.745  35.509  28.103  1.00  0.00    -0.200 F 
ATOM     96  F   UNL A   1      47.386  36.055  30.697  1.00  0.00    -0.200 F 
ENDBRANCH  63  86
ENDBRANCH  37  38
ENDBRANCH  29  32
ENDBRANCH  27  28
ENDBRANCH  26  27
ENDBRANCH  25  26
ENDBRANCH   3  25
TORSDOF 15
ENDMDL
MODEL 3
REMARK VINA RESULT:     -12.3      0.225      1.590
REMARK SMILES COc1ccccc1NC(=O)[C@H](C)c1nc(CC(=O)NCCCNC(=O)c2ccc(-c3c4nc(c(-c5c(F)c(F)c(F)c(F)c5F)c5ccc([nH]5)c(-c5c(F)c(F)c(F)c(F)c5F)c5nc(c(-c6c(F)c(F)c(F)c(F)c6F)c6ccc3[nH]6)C=C5)C=C4)cc2)cs1
REMARK SMILES IDX 18 1 19 2 20 3 17 5 16 6 14 7 15 8 91 9 90 10 12 11 13 12
REMARK SMILES IDX 10 13 9 14 11 16 8 17 3 18 4 19 5 20 7 21 6 22 2 23 1 24
REMARK SMILES IDX 21 25 22 26 23 27 24 28 25 29 26 31 27 32 28 33 89 34 29 35
REMARK SMILES IDX 88 36 30 37 31 38 32 39 82 40 33 41 87 42 81 43 83 44 34 45
REMARK SMILES IDX 86 46 80 47 79 48 35 50 67 51 47 52 66 53 48 54 51 55 65 56
REMARK SMILES IDX 84 57 49 58 50 59 64 61 85 62 52 63 36 64 37 65 45 66 38 67
REMARK SMILES IDX 39 68 43 69 46 70 40 71 41 72 44 73 42 74 68 75 69 76 77 77
REMARK SMILES IDX 70 78 71 79 75 80 78 81 72 82 73 83 76 84 74 85 53 86 54 87
REMARK SMILES IDX 62 88 55 89 56 90 60 91 63 92 57 93 58 94 61 95 59 96
REMARK H PARENT 20 4 9 15 24 30 83 49 51 60
REMARK Flexibility Score: inf
ROOT
ATOM      1  C   UNL A   1      33.436  29.256  26.867  1.00  0.00     0.226 C 
ATOM      2  O   UNL A   1      34.658  29.123  26.970  1.00  0.00    -0.275 OA
ATOM      3  N   UNL A   1      32.952  30.411  26.324  1.00  0.00    -0.356 N 
ATOM      4  H   UNL A   1      33.628  31.031  25.968  1.00  0.00     0.163 HD
ENDROOT
BRANCH   1   5
ATOM      5  C   UNL A   1      32.483  28.162  27.309  1.00  0.00     0.157 C 
BRANCH   5   6
ATOM      6  C   UNL A   1      32.219  27.179  26.221  1.00  0.00     0.061 A 
ATOM      7  C   UNL A   1      31.444  25.221  25.477  1.00  0.00     0.105 A 
ATOM      8  N   UNL A   1      31.539  26.010  26.531  1.00  0.00    -0.245 NA
ATOM      9  S   UNL A   1      32.065  25.914  24.023  1.00  0.00    -0.126 S 
ATOM     10  C   UNL A   1      32.579  27.293  24.893  1.00  0.00     0.091 A 
BRANCH   7  11
ATOM     11  C   UNL A   1      30.780  23.865  25.481  1.00  0.00     0.135 C 
ATOM     12  C   UNL A   1      31.270  22.936  24.361  1.00  0.00     0.026 C 
BRANCH  11  13
ATOM     13  C   UNL A   1      31.090  23.177  26.805  1.00  0.00     0.234 C 
ATOM     14  N   UNL A   1      32.352  22.848  27.191  1.00  0.00    -0.322 N 
ATOM     15  H   UNL A   1      32.394  22.587  28.139  1.00  0.00     0.170 HD
ATOM     16  O   UNL A   1      30.194  22.966  27.636  1.00  0.00    -0.274 OA
BRANCH  14  17
ATOM     17  C   UNL A   1      33.613  22.792  26.571  1.00  0.00     0.083 A 
ATOM     18  C   UNL A   1      34.059  21.519  26.158  1.00  0.00     0.142 A 
ATOM     19  C   UNL A   1      35.327  21.336  25.606  1.00  0.00     0.048 A 
ATOM     20  C   UNL A   1      36.155  22.436  25.406  1.00  0.00     0.004 A 
ATOM     21  C   UNL A   1      34.431  23.889  26.310  1.00  0.00     0.030 A 
ATOM     22  C   UNL A   1      35.701  23.711  25.743  1.00  0.00     0.002 A 
BRANCH  18  23
ATOM     23  O   UNL A   1      33.296  20.398  26.385  1.00  0.00    -0.495 OA
ATOM     24  C   UNL A   1      32.943  19.742  25.163  1.00  0.00     0.278 C 
ENDBRANCH  18  23
ENDBRANCH  14  17
ENDBRANCH  11  13
ENDBRANCH   7  11
ENDBRANCH   5   6
ENDBRANCH   1   5
BRANCH   3  25
ATOM     25  C   UNL A   1      31.570  30.847  26.202  1.00  0.00     0.117 C 
BRANCH  25  26
ATOM     26  C   UNL A   1      31.383  32.296  26.643  1.00  0.00     0.042 C 
BRANCH  26  27
ATOM     27  C   UNL A   1      32.645  32.959  27.182  1.00  0.00     0.118 C 
BRANCH  27  28
ATOM     28  N   UNL A   1      32.411  34.312  27.666  1.00  0.00    -0.352 N 
ATOM     29  C   UNL A   1      33.001  34.994  28.700  1.00  0.00     0.251 C 
ATOM     30  H   UNL A   1      31.722  34.816  27.174  1.00  0.00     0.163 HD
ATOM     31  O   UNL A   1      32.538  36.076  29.060  1.00  0.00    -0.269 OA
BRANCH  29  32
ATOM     32  C   UNL A   1      34.184  34.440  29.395  1.00  0.00     0.039 A 
ATOM     33  C   UNL A   1      34.002  33.782  30.615  1.00  0.00     0.014 A 
ATOM     34  C   UNL A   1      35.469  34.599  28.874  1.00  0.00     0.014 A 
ATOM     35  C   UNL A   1      35.100  33.232  31.282  1.00  0.00     0.010 A 
ATOM     36  C   UNL A   1      36.554  33.990  29.501  1.00  0.00     0.010 A 
ATOM     37  C   UNL A   1      36.381  33.305  30.714  1.00  0.00    -0.014 A 
BRANCH  37  38
ATOM     38  C   UNL A   1      37.562  32.690  31.372  1.00  0.00     0.031 A 
ATOM     39  C   UNL A   1      38.273  31.538  30.716  1.00  0.00     0.074 A 
ATOM     40  C   UNL A   1      37.945  33.109  32.594  1.00  0.00     0.049 A 
ATOM     41  N   UNL A   1      39.233  30.779  31.182  1.00  0.00    -0.248 NA
ATOM     42  C   UNL A   1      37.822  31.174  29.364  1.00  0.00     0.031 C 
ATOM     43  C   UNL A   1      37.320  34.194  33.351  1.00  0.00     0.029 A 
ATOM     44  N   UNL A   1      38.942  32.657  33.423  1.00  0.00    -0.354 N 
ATOM     45  C   UNL A   1      39.482  29.836  30.194  1.00  0.00     0.074 A 
ATOM     46  C   UNL A   1      38.543  30.090  29.121  1.00  0.00     0.031 C 
ATOM     47  C   UNL A   1      37.954  34.332  34.526  1.00  0.00     0.029 A 
ATOM     48  C   UNL A   1      39.001  33.319  34.625  1.00  0.00     0.049 A 
ATOM     49  H   UNL A   1      39.557  31.928  33.179  1.00  0.00     0.167 HD
ATOM     50  C   UNL A   1      40.420  28.859  30.174  1.00  0.00     0.037 A 
ATOM     51  C   UNL A   1      39.798  33.121  35.692  1.00  0.00     0.037 A 
ATOM     52  C   UNL A   1      41.372  28.630  31.229  1.00  0.00     0.049 A 
ATOM     53  C   UNL A   1      40.829  32.025  35.648  1.00  0.00     0.074 A 
ATOM     54  C   UNL A   1      42.396  27.699  31.281  1.00  0.00     0.029 A 
ATOM     55  N   UNL A   1      41.418  29.342  32.418  1.00  0.00    -0.354 N 
ATOM     56  N   UNL A   1      41.088  31.169  34.689  1.00  0.00    -0.248 NA
ATOM     57  C   UNL A   1      41.682  31.870  36.835  1.00  0.00     0.031 C 
ATOM     58  C   UNL A   1      43.037  27.823  32.518  1.00  0.00     0.029 A 
ATOM     59  C   UNL A   1      42.444  28.862  33.217  1.00  0.00     0.049 A 
ATOM     60  H   UNL A   1      40.813  30.080  32.660  1.00  0.00     0.167 HD
ATOM     61  C   UNL A   1      42.152  30.400  35.140  1.00  0.00     0.074 A 
ATOM     62  C   UNL A   1      42.496  30.895  36.457  1.00  0.00     0.031 C 
ATOM     63  C   UNL A   1      42.787  29.377  34.518  1.00  0.00     0.037 A 
BRANCH  50  64
ATOM     64  C   UNL A   1      40.461  27.960  28.972  1.00  0.00     0.064 A 
ATOM     65  C   UNL A   1      41.255  28.261  27.855  1.00  0.00     0.173 A 
ATOM     66  C   UNL A   1      39.724  26.767  28.950  1.00  0.00     0.173 A 
ATOM     67  F   UNL A   1      41.970  29.396  27.822  1.00  0.00    -0.203 F 
ATOM     68  C   UNL A   1      41.284  27.418  26.748  1.00  0.00     0.198 A 
ATOM     69  C   UNL A   1      39.781  25.910  27.853  1.00  0.00     0.198 A 
ATOM     70  F   UNL A   1      38.955  26.426  29.994  1.00  0.00    -0.203 F 
ATOM     71  F   UNL A   1      42.010  27.753  25.672  1.00  0.00    -0.200 F 
ATOM     72  C   UNL A   1      40.553  26.240  26.751  1.00  0.00     0.200 A 
ATOM     73  F   UNL A   1      39.084  24.764  27.863  1.00  0.00    -0.200 F 
ATOM     74  F   UNL A   1      40.588  25.426  25.687  1.00  0.00    -0.200 F 
ENDBRANCH  50  64
BRANCH  51  75
ATOM     75  C   UNL A   1      39.667  33.991  36.889  1.00  0.00     0.064 A 
ATOM     76  C   UNL A   1      40.346  35.216  36.962  1.00  0.00     0.173 A 
ATOM     77  C   UNL A   1      38.869  33.620  37.981  1.00  0.00     0.173 A 
ATOM     78  F   UNL A   1      41.139  35.603  35.952  1.00  0.00    -0.203 F 
ATOM     79  C   UNL A   1      40.248  36.027  38.091  1.00  0.00     0.198 A 
ATOM     80  C   UNL A   1      38.750  34.446  39.098  1.00  0.00     0.198 A 
ATOM     81  F   UNL A   1      38.196  32.461  37.958  1.00  0.00    -0.203 F 
ATOM     82  F   UNL A   1      40.945  37.170  38.154  1.00  0.00    -0.200 F 
ATOM     83  C   UNL A   1      39.446  35.644  39.155  1.00  0.00     0.200 A 
ATOM     84  F   UNL A   1      37.964  34.078  40.119  1.00  0.00    -0.200 F 
ATOM     85  F   UNL A   1      39.351  36.424  40.240  1.00  0.00    -0.200 F 
ENDBRANCH  51  75
BRANCH  63  86
ATOM     86  C   UNL A   1      43.952  28.754  35.228  1.00  0.00     0.064 A 
ATOM     87  C   UNL A   1      45.260  29.231  35.061  1.00  0.00     0.173 A 
ATOM     88  C   UNL A   1      43.748  27.693  36.124  1.00  0.00     0.173 A 
ATOM     89  F   UNL A   1      45.509  30.232  34.205  1.00  0.00    -0.203 F 
ATOM     90  C   UNL A   1      46.324  28.655  35.752  1.00  0.00     0.198 A 
ATOM     91  C   UNL A   1      44.809  27.139  36.834  1.00  0.00     0.198 A 
ATOM     92  F   UNL A   1      42.514  27.203  36.323  1.00  0.00    -0.203 F 
ATOM     93  F   UNL A   1      47.572  29.100  35.546  1.00  0.00    -0.200 F 
ATOM     94  C   UNL A   1      46.097  27.617  36.642  1.00  0.00     0.200 A 
ATOM     95  F   UNL A   1      44.587  26.144  37.704  1.00  0.00    -0.200 F 
ATOM     96  F   UNL A   1      47.122  27.072  37.313  1.00  0.00    -0.200 F 
ENDBRANCH  63  86
ENDBRANCH  37  38
ENDBRANCH  29  32
ENDBRANCH  27  28
ENDBRANCH  26  27
ENDBRANCH  25  26
ENDBRANCH   3  25
TORSDOF 15
ENDMDL
