MODEL 1
REMARK VINA RESULT:     -15.8      0.000      0.000
REMARK SMILES Cc1ccc(S(=O)(=O)n2cc(C(=O)C(=O)N[C@@H](Cc3c[nH]c4ccccc34)C(=O)NCC(=O)NCCCNC(=O)c3ccc(-c4c5nc(c(-c6c(F)c(F)c(F)c(F)c6F)c6ccc([nH]6)c(-c6c(F)c(F)c(F)c(F)c6F)c6nc(c(-c7c(F)c(F)c(F)c(F)c7F)c7ccc4[nH]7)C=C6)C=C5)cc3)c3ccccc32)cc1
REMARK SMILES IDX 32 1 33 2 34 3 31 5 30 6 28 7 29 8 17 10 16 11 14 12 15 13
REMARK SMILES IDX 12 15 13 16 11 17 9 18 10 19 109 20 104 21 108 22 105 23
REMARK SMILES IDX 107 24 106 25 6 26 7 27 8 28 5 29 1 30 2 31 3 32 111 33 4 34
REMARK SMILES IDX 110 35 18 36 19 37 20 38 27 39 21 40 22 41 26 42 23 44 25 45
REMARK SMILES IDX 24 46 35 47 36 48 37 49 38 50 39 51 40 53 41 54 42 55 103 56
REMARK SMILES IDX 43 57 102 58 44 59 45 60 46 61 96 62 47 63 101 64 95 65
REMARK SMILES IDX 97 66 48 67 100 68 94 69 93 70 49 72 81 73 61 74 80 75 62 76
REMARK SMILES IDX 65 77 79 78 98 79 63 80 64 81 78 83 99 84 66 85 50 86 51 87
REMARK SMILES IDX 59 88 52 89 53 90 57 91 60 92 54 93 55 94 58 95 56 96 82 97
REMARK SMILES IDX 83 98 91 99 84 100 85 101 89 102 92 103 86 104 87 105 90 106
REMARK SMILES IDX 88 107 67 108 68 109 76 110 69 111 70 112 74 113 77 114
REMARK SMILES IDX 71 115 72 116 75 117 73 118
REMARK H PARENT 34 4 30 9 16 14 21 43 38 52 97 71 65 82
REMARK Flexibility Score: inf
ROOT
ATOM      1  C   UNL A   1      36.616  22.803  23.891  1.00  0.00     0.239 C 
ATOM      2  O   UNL A   1      36.445  23.085  22.706  1.00  0.00    -0.273 OA
ATOM      3  N   UNL A   1      37.509  23.533  24.631  1.00  0.00    -0.355 N 
ATOM      4  H   UNL A   1      37.931  24.306  24.189  1.00  0.00     0.163 HD
ENDROOT
BRANCH   1   5
ATOM      5  C   UNL A   1      35.836  21.681  24.586  1.00  0.00     0.216 C 
BRANCH   5   6
ATOM      6  N   UNL A   1      35.460  21.885  25.973  1.00  0.00    -0.345 N 
ATOM      7  C   UNL A   1      34.302  21.623  26.643  1.00  0.00     0.243 C 
ATOM      8  O   UNL A   1      34.408  21.566  27.876  1.00  0.00    -0.273 OA
ATOM      9  H   UNL A   1      36.168  22.284  26.529  1.00  0.00     0.164 HD
BRANCH   7  10
ATOM     10  C   UNL A   1      32.924  21.292  25.982  1.00  0.00     0.176 C 
BRANCH  10  11
ATOM     11  N   UNL A   1      31.728  21.987  26.505  1.00  0.00    -0.337 N 
ATOM     12  C   UNL A   1      31.446  23.338  26.705  1.00  0.00     0.293 C 
ATOM     13  O   UNL A   1      30.407  23.660  27.272  1.00  0.00    -0.265 OA
ATOM     14  H   UNL A   1      30.994  21.383  26.759  1.00  0.00     0.164 HD
BRANCH  12  15
ATOM     15  C   UNL A   1      32.351  24.437  26.135  1.00  0.00     0.252 C 
ATOM     16  O   UNL A   1      33.561  24.222  26.215  1.00  0.00    -0.283 OA
BRANCH  15  17
ATOM     17  C   UNL A   1      31.842  25.714  25.600  1.00  0.00     0.054 A 
ATOM     18  N   UNL A   1      30.734  27.416  24.589  1.00  0.00    -0.240 N 
ATOM     19  C   UNL A   1      30.857  26.025  24.649  1.00  0.00     0.117 A 
ATOM     20  C   UNL A   1      31.544  27.954  25.604  1.00  0.00     0.065 A 
ATOM     21  C   UNL A   1      32.454  26.959  25.938  1.00  0.00     0.012 A 
ATOM     22  C   UNL A   1      31.721  29.281  26.046  1.00  0.00     0.028 A 
ATOM     23  C   UNL A   1      33.674  27.332  26.542  1.00  0.00     0.011 A 
ATOM     24  C   UNL A   1      32.952  29.634  26.595  1.00  0.00     0.002 A 
ATOM     25  C   UNL A   1      33.937  28.680  26.795  1.00  0.00     0.001 A 
BRANCH  18  26
ATOM     26  S   UNL A   1      30.719  28.441  23.176  1.00  0.00     0.268 S 
ATOM     27  O   UNL A   1      30.380  27.514  22.109  1.00  0.00    -0.201 OA
ATOM     28  O   UNL A   1      32.041  29.054  23.242  1.00  0.00    -0.201 OA
BRANCH  26  29
ATOM     29  C   UNL A   1      29.727  29.860  22.877  1.00  0.00     0.088 A 
ATOM     30  C   UNL A   1      27.637  33.198  21.086  1.00  0.00     0.044 C 
ATOM     31  C   UNL A   1      28.312  32.032  21.753  1.00  0.00    -0.051 A 
ATOM     32  C   UNL A   1      28.624  30.938  20.959  1.00  0.00     0.005 A 
ATOM     33  C   UNL A   1      28.692  32.017  23.115  1.00  0.00     0.005 A 
ATOM     34  C   UNL A   1      29.305  29.873  21.521  1.00  0.00     0.022 A 
ATOM     35  C   UNL A   1      29.408  30.932  23.690  1.00  0.00     0.022 A 
ENDBRANCH  26  29
ENDBRANCH  18  26
ENDBRANCH  15  17
ENDBRANCH  12  15
ENDBRANCH  10  11
BRANCH  10  36
ATOM     36  C   UNL A   1      32.988  21.286  24.419  1.00  0.00     0.072 C 
BRANCH  36  37
ATOM     37  C   UNL A   1      32.891  19.955  23.706  1.00  0.00    -0.020 A 
ATOM     38  C   UNL A   1      31.948  19.633  22.742  1.00  0.00     0.087 A 
ATOM     39  C   UNL A   1      33.683  18.768  23.899  1.00  0.00     0.003 A 
ATOM     40  N   UNL A   1      32.052  18.296  22.455  1.00  0.00    -0.361 N 
ATOM     41  C   UNL A   1      33.021  17.725  23.245  1.00  0.00     0.046 A 
ATOM     42  C   UNL A   1      34.813  18.444  24.677  1.00  0.00     0.010 A 
ATOM     43  H   UNL A   1      31.514  17.818  21.784  1.00  0.00     0.166 HD
ATOM     44  C   UNL A   1      33.337  16.375  23.449  1.00  0.00     0.026 A 
ATOM     45  C   UNL A   1      35.126  17.101  24.918  1.00  0.00     0.001 A 
ATOM     46  C   UNL A   1      34.377  16.082  24.335  1.00  0.00     0.002 A 
ENDBRANCH  36  37
ENDBRANCH  10  36
ENDBRANCH   7  10
ENDBRANCH   5   6
ENDBRANCH   1   5
BRANCH   3  47
ATOM     47  C   UNL A   1      37.890  23.273  26.005  1.00  0.00     0.117 C 
BRANCH  47  48
ATOM     48  C   UNL A   1      39.088  22.330  26.064  1.00  0.00     0.042 C 
BRANCH  48  49
ATOM     49  C   UNL A   1      39.996  22.630  27.230  1.00  0.00     0.118 C 
BRANCH  49  50
ATOM     50  N   UNL A   1      41.319  23.130  26.875  1.00  0.00    -0.352 N 
ATOM     51  C   UNL A   1      41.697  24.450  26.656  1.00  0.00     0.251 C 
ATOM     52  H   UNL A   1      42.027  22.454  26.781  1.00  0.00     0.163 HD
ATOM     53  O   UNL A   1      42.825  24.743  26.328  1.00  0.00    -0.269 OA
BRANCH  51  54
ATOM     54  C   UNL A   1      40.696  25.502  26.974  1.00  0.00     0.039 A 
ATOM     55  C   UNL A   1      40.839  26.728  26.323  1.00  0.00     0.014 A 
ATOM     56  C   UNL A   1      39.928  25.387  28.129  1.00  0.00     0.014 A 
ATOM     57  C   UNL A   1      40.457  27.887  26.990  1.00  0.00     0.010 A 
ATOM     58  C   UNL A   1      39.674  26.539  28.848  1.00  0.00     0.010 A 
ATOM     59  C   UNL A   1      40.006  27.786  28.307  1.00  0.00    -0.014 A 
BRANCH  59  60
ATOM     60  C   UNL A   1      39.951  28.932  29.208  1.00  0.00     0.031 A 
ATOM     61  C   UNL A   1      38.918  29.968  29.007  1.00  0.00     0.074 A 
ATOM     62  C   UNL A   1      40.816  29.032  30.244  1.00  0.00     0.049 A 
ATOM     63  N   UNL A   1      39.043  31.201  29.364  1.00  0.00    -0.248 NA
ATOM     64  C   UNL A   1      37.657  29.691  28.332  1.00  0.00     0.031 C 
ATOM     65  C   UNL A   1      40.778  30.002  31.338  1.00  0.00     0.029 A 
ATOM     66  N   UNL A   1      42.057  28.389  30.397  1.00  0.00    -0.354 N 
ATOM     67  C   UNL A   1      37.814  31.805  29.224  1.00  0.00     0.074 A 
ATOM     68  C   UNL A   1      37.002  30.837  28.525  1.00  0.00     0.031 C 
ATOM     69  C   UNL A   1      42.015  30.136  31.839  1.00  0.00     0.029 A 
ATOM     70  C   UNL A   1      42.904  29.343  31.010  1.00  0.00     0.049 A 
ATOM     71  H   UNL A   1      42.289  27.468  30.132  1.00  0.00     0.167 HD
ATOM     72  C   UNL A   1      37.587  33.004  29.835  1.00  0.00     0.037 A 
ATOM     73  C   UNL A   1      44.023  29.808  30.385  1.00  0.00     0.037 A 
ATOM     74  C   UNL A   1      38.801  33.507  30.475  1.00  0.00     0.049 A 
ATOM     75  C   UNL A   1      44.016  31.303  30.164  1.00  0.00     0.074 A 
ATOM     76  C   UNL A   1      39.256  33.463  31.782  1.00  0.00     0.029 A 
ATOM     77  N   UNL A   1      39.894  33.864  29.690  1.00  0.00    -0.354 N 
ATOM     78  N   UNL A   1      42.938  32.037  30.205  1.00  0.00    -0.248 NA
ATOM     79  C   UNL A   1      45.210  32.081  29.851  1.00  0.00     0.031 C 
ATOM     80  C   UNL A   1      40.645  33.740  31.775  1.00  0.00     0.029 A 
ATOM     81  C   UNL A   1      41.032  33.973  30.467  1.00  0.00     0.049 A 
ATOM     82  H   UNL A   1      39.863  34.017  28.718  1.00  0.00     0.167 HD
ATOM     83  C   UNL A   1      43.261  33.340  29.927  1.00  0.00     0.074 A 
ATOM     84  C   UNL A   1      44.699  33.318  29.727  1.00  0.00     0.031 C 
ATOM     85  C   UNL A   1      42.317  34.325  29.883  1.00  0.00     0.037 A 
BRANCH  72  86
ATOM     86  C   UNL A   1      36.196  33.536  30.119  1.00  0.00     0.064 A 
ATOM     87  C   UNL A   1      35.397  34.070  29.085  1.00  0.00     0.173 A 
ATOM     88  C   UNL A   1      35.624  33.622  31.402  1.00  0.00     0.173 A 
ATOM     89  F   UNL A   1      35.740  33.944  27.797  1.00  0.00    -0.203 F 
ATOM     90  C   UNL A   1      34.209  34.764  29.334  1.00  0.00     0.198 A 
ATOM     91  C   UNL A   1      34.469  34.368  31.661  1.00  0.00     0.198 A 
ATOM     92  F   UNL A   1      36.132  32.939  32.435  1.00  0.00    -0.203 F 
ATOM     93  F   UNL A   1      33.502  35.261  28.309  1.00  0.00    -0.200 F 
ATOM     94  C   UNL A   1      33.769  34.954  30.627  1.00  0.00     0.200 A 
ATOM     95  F   UNL A   1      34.041  34.514  32.923  1.00  0.00    -0.200 F 
ATOM     96  F   UNL A   1      32.662  35.667  30.871  1.00  0.00    -0.200 F 
ENDBRANCH  72  86
BRANCH  73  97
ATOM     97  C   UNL A   1      44.659  28.800  29.499  1.00  0.00     0.064 A 
ATOM     98  C   UNL A   1      44.365  28.852  28.121  1.00  0.00     0.173 A 
ATOM     99  C   UNL A   1      45.789  28.075  29.889  1.00  0.00     0.173 A 
ATOM    100  F   UNL A   1      43.289  29.532  27.692  1.00  0.00    -0.203 F 
ATOM    101  C   UNL A   1      45.232  28.318  27.171  1.00  0.00     0.198 A 
ATOM    102  C   UNL A   1      46.647  27.523  28.935  1.00  0.00     0.198 A 
ATOM    103  F   UNL A   1      46.133  28.002  31.183  1.00  0.00    -0.203 F 
ATOM    104  F   UNL A   1      44.982  28.493  25.866  1.00  0.00    -0.200 F 
ATOM    105  C   UNL A   1      46.389  27.678  27.579  1.00  0.00     0.200 A 
ATOM    106  F   UNL A   1      47.779  26.921  29.326  1.00  0.00    -0.200 F 
ATOM    107  F   UNL A   1      47.271  27.244  26.669  1.00  0.00    -0.200 F 
ENDBRANCH  73  97
BRANCH  85 108
ATOM    108  C   UNL A   1      42.530  35.741  29.401  1.00  0.00     0.064 A 
ATOM    109  C   UNL A   1      43.246  36.714  30.116  1.00  0.00     0.173 A 
ATOM    110  C   UNL A   1      42.119  36.122  28.099  1.00  0.00     0.173 A 
ATOM    111  F   UNL A   1      43.796  36.439  31.307  1.00  0.00    -0.203 F 
ATOM    112  C   UNL A   1      43.472  37.993  29.601  1.00  0.00     0.198 A 
ATOM    113  C   UNL A   1      42.397  37.380  27.567  1.00  0.00     0.198 A 
ATOM    114  F   UNL A   1      41.455  35.277  27.297  1.00  0.00    -0.203 F 
ATOM    115  F   UNL A   1      44.121  38.902  30.343  1.00  0.00    -0.200 F 
ATOM    116  C   UNL A   1      43.057  38.323  28.324  1.00  0.00     0.200 A 
ATOM    117  F   UNL A   1      42.034  37.663  26.307  1.00  0.00    -0.200 F 
ATOM    118  F   UNL A   1      43.313  39.537  27.818  1.00  0.00    -0.200 F 
ENDBRANCH  85 108
ENDBRANCH  59  60
ENDBRANCH  51  54
ENDBRANCH  49  50
ENDBRANCH  48  49
ENDBRANCH  47  48
ENDBRANCH   3  47
TORSDOF 19
ENDMDL
MODEL 2
REMARK VINA RESULT:     -15.6      1.662      3.156
REMARK SMILES Cc1ccc(S(=O)(=O)n2cc(C(=O)C(=O)N[C@@H](Cc3c[nH]c4ccccc34)C(=O)NCC(=O)NCCCNC(=O)c3ccc(-c4c5nc(c(-c6c(F)c(F)c(F)c(F)c6F)c6ccc([nH]6)c(-c6c(F)c(F)c(F)c(F)c6F)c6nc(c(-c7c(F)c(F)c(F)c(F)c7F)c7ccc4[nH]7)C=C6)C=C5)cc3)c3ccccc32)cc1
REMARK SMILES IDX 32 1 33 2 34 3 31 5 30 6 28 7 29 8 17 10 16 11 14 12 15 13
REMARK SMILES IDX 12 15 13 16 11 17 9 18 10 19 109 20 104 21 108 22 105 23
REMARK SMILES IDX 107 24 106 25 6 26 7 27 8 28 5 29 1 30 2 31 3 32 111 33 4 34
REMARK SMILES IDX 110 35 18 36 19 37 20 38 27 39 21 40 22 41 26 42 23 44 25 45
REMARK SMILES IDX 24 46 35 47 36 48 37 49 38 50 39 51 40 53 41 54 42 55 103 56
REMARK SMILES IDX 43 57 102 58 44 59 45 60 46 61 96 62 47 63 101 64 95 65
REMARK SMILES IDX 97 66 48 67 100 68 94 69 93 70 49 72 81 73 61 74 80 75 62 76
REMARK SMILES IDX 65 77 79 78 98 79 63 80 64 81 78 83 99 84 66 85 50 86 51 87
REMARK SMILES IDX 59 88 52 89 53 90 57 91 60 92 54 93 55 94 58 95 56 96 82 97
REMARK SMILES IDX 83 98 91 99 84 100 85 101 89 102 92 103 86 104 87 105 90 106
REMARK SMILES IDX 88 107 67 108 68 109 76 110 69 111 70 112 74 113 77 114
REMARK SMILES IDX 71 115 72 116 75 117 73 118
REMARK H PARENT 34 4 30 9 16 14 21 43 38 52 97 71 65 82
REMARK Flexibility Score: inf
ROOT
ATOM      1  C   UNL A   1      36.085  23.093  24.092  1.00  0.00     0.239 C 
ATOM      2  O   UNL A   1      35.835  23.110  22.887  1.00  0.00    -0.273 OA
ATOM      3  N   UNL A   1      37.262  23.635  24.540  1.00  0.00    -0.355 N 
ATOM      4  H   UNL A   1      37.832  24.080  23.871  1.00  0.00     0.163 HD
ENDROOT
BRANCH   1   5
ATOM      5  C   UNL A   1      35.107  22.516  25.122  1.00  0.00     0.216 C 
BRANCH   5   6
ATOM      6  N   UNL A   1      34.141  23.425  25.711  1.00  0.00    -0.345 N 
ATOM      7  C   UNL A   1      32.784  23.356  25.818  1.00  0.00     0.243 C 
ATOM      8  O   UNL A   1      32.284  24.091  26.681  1.00  0.00    -0.273 OA
ATOM      9  H   UNL A   1      34.536  24.237  26.104  1.00  0.00     0.164 HD
BRANCH   7  10
ATOM     10  C   UNL A   1      31.859  22.370  25.032  1.00  0.00     0.176 C 
BRANCH  10  11
ATOM     11  N   UNL A   1      30.781  22.952  24.203  1.00  0.00    -0.337 N 
ATOM     12  C   UNL A   1      30.693  24.149  23.493  1.00  0.00     0.293 C 
ATOM     13  O   UNL A   1      29.628  24.464  22.971  1.00  0.00    -0.265 OA
ATOM     14  H   UNL A   1      29.975  22.391  24.142  1.00  0.00     0.164 HD
BRANCH  12  15
ATOM     15  C   UNL A   1      31.925  25.030  23.253  1.00  0.00     0.252 C 
ATOM     16  O   UNL A   1      32.781  24.551  22.507  1.00  0.00    -0.283 OA
BRANCH  15  17
ATOM     17  C   UNL A   1      32.141  26.327  23.920  1.00  0.00     0.054 A 
ATOM     18  N   UNL A   1      32.879  28.141  25.065  1.00  0.00    -0.240 N 
ATOM     19  C   UNL A   1      33.122  26.787  24.815  1.00  0.00     0.117 A 
ATOM     20  C   UNL A   1      31.834  28.546  24.217  1.00  0.00     0.065 A 
ATOM     21  C   UNL A   1      31.185  27.382  23.825  1.00  0.00     0.012 A 
ATOM     22  C   UNL A   1      31.259  29.813  23.991  1.00  0.00     0.028 A 
ATOM     23  C   UNL A   1      29.844  27.468  23.393  1.00  0.00     0.011 A 
ATOM     24  C   UNL A   1      29.920  29.870  23.613  1.00  0.00     0.002 A 
ATOM     25  C   UNL A   1      29.204  28.709  23.364  1.00  0.00     0.001 A 
BRANCH  18  26
ATOM     26  S   UNL A   1      32.801  28.958  26.606  1.00  0.00     0.268 S 
ATOM     27  O   UNL A   1      33.993  28.479  27.286  1.00  0.00    -0.201 OA
ATOM     28  O   UNL A   1      31.472  28.581  27.073  1.00  0.00    -0.201 OA
BRANCH  26  29
ATOM     29  C   UNL A   1      32.767  30.687  26.915  1.00  0.00     0.088 A 
ATOM     30  C   UNL A   1      33.350  34.658  28.532  1.00  0.00     0.044 C 
ATOM     31  C   UNL A   1      33.143  33.306  27.908  1.00  0.00    -0.051 A 
ATOM     32  C   UNL A   1      34.120  32.347  28.129  1.00  0.00     0.005 A 
ATOM     33  C   UNL A   1      31.992  32.950  27.167  1.00  0.00     0.005 A 
ATOM     34  C   UNL A   1      33.934  31.070  27.628  1.00  0.00     0.022 A 
ATOM     35  C   UNL A   1      31.791  31.634  26.667  1.00  0.00     0.022 A 
ENDBRANCH  26  29
ENDBRANCH  18  26
ENDBRANCH  15  17
ENDBRANCH  12  15
ENDBRANCH  10  11
BRANCH  10  36
ATOM     36  C   UNL A   1      32.660  21.252  24.287  1.00  0.00     0.072 C 
BRANCH  36  37
ATOM     37  C   UNL A   1      32.743  19.885  24.928  1.00  0.00    -0.020 A 
ATOM     38  C   UNL A   1      32.650  19.633  26.288  1.00  0.00     0.087 A 
ATOM     39  C   UNL A   1      32.980  18.608  24.304  1.00  0.00     0.003 A 
ATOM     40  N   UNL A   1      32.949  18.314  26.513  1.00  0.00    -0.361 N 
ATOM     41  C   UNL A   1      33.277  17.703  25.326  1.00  0.00     0.046 A 
ATOM     42  C   UNL A   1      33.112  18.164  22.972  1.00  0.00     0.010 A 
ATOM     43  H   UNL A   1      32.931  17.871  27.391  1.00  0.00     0.166 HD
ATOM     44  C   UNL A   1      33.837  16.440  25.086  1.00  0.00     0.026 A 
ATOM     45  C   UNL A   1      33.699  16.919  22.713  1.00  0.00     0.001 A 
ATOM     46  C   UNL A   1      34.083  16.084  23.758  1.00  0.00     0.002 A 
ENDBRANCH  36  37
ENDBRANCH  10  36
ENDBRANCH   7  10
ENDBRANCH   5   6
ENDBRANCH   1   5
BRANCH   3  47
ATOM     47  C   UNL A   1      37.743  23.613  25.906  1.00  0.00     0.117 C 
BRANCH  47  48
ATOM     48  C   UNL A   1      38.709  22.451  26.120  1.00  0.00     0.042 C 
BRANCH  48  49
ATOM     49  C   UNL A   1      39.816  22.797  27.084  1.00  0.00     0.118 C 
BRANCH  49  50
ATOM     50  N   UNL A   1      41.068  23.219  26.466  1.00  0.00    -0.352 N 
ATOM     51  C   UNL A   1      41.506  24.519  26.236  1.00  0.00     0.251 C 
ATOM     52  H   UNL A   1      41.674  22.499  26.180  1.00  0.00     0.163 HD
ATOM     53  O   UNL A   1      42.556  24.748  25.679  1.00  0.00    -0.269 OA
BRANCH  51  54
ATOM     54  C   UNL A   1      40.699  25.619  26.826  1.00  0.00     0.039 A 
ATOM     55  C   UNL A   1      40.793  26.870  26.215  1.00  0.00     0.014 A 
ATOM     56  C   UNL A   1      40.209  25.488  28.123  1.00  0.00     0.014 A 
ATOM     57  C   UNL A   1      40.674  28.009  27.004  1.00  0.00     0.010 A 
ATOM     58  C   UNL A   1      40.227  26.607  28.932  1.00  0.00     0.010 A 
ATOM     59  C   UNL A   1      40.530  27.858  28.383  1.00  0.00    -0.014 A 
BRANCH  59  60
ATOM     60  C   UNL A   1      40.782  28.946  29.323  1.00  0.00     0.031 A 
ATOM     61  C   UNL A   1      39.710  29.919  29.613  1.00  0.00     0.074 A 
ATOM     62  C   UNL A   1      41.975  29.047  29.953  1.00  0.00     0.049 A 
ATOM     63  N   UNL A   1      39.913  31.137  29.989  1.00  0.00    -0.248 NA
ATOM     64  C   UNL A   1      38.299  29.596  29.455  1.00  0.00     0.031 C 
ATOM     65  C   UNL A   1      42.324  29.950  31.049  1.00  0.00     0.029 A 
ATOM     66  N   UNL A   1      43.205  28.482  29.567  1.00  0.00    -0.354 N 
ATOM     67  C   UNL A   1      38.702  31.663  30.378  1.00  0.00     0.074 A 
ATOM     68  C   UNL A   1      37.723  30.683  29.972  1.00  0.00     0.031 C 
ATOM     69  C   UNL A   1      43.653  30.139  31.046  1.00  0.00     0.029 A 
ATOM     70  C   UNL A   1      44.183  29.455  29.880  1.00  0.00     0.049 A 
ATOM     71  H   UNL A   1      43.353  27.595  29.164  1.00  0.00     0.167 HD
ATOM     72  C   UNL A   1      38.680  32.808  31.120  1.00  0.00     0.037 A 
ATOM     73  C   UNL A   1      44.952  30.029  28.913  1.00  0.00     0.037 A 
ATOM     74  C   UNL A   1      40.026  33.356  31.283  1.00  0.00     0.049 A 
ATOM     75  C   UNL A   1      44.799  31.529  28.827  1.00  0.00     0.074 A 
ATOM     76  C   UNL A   1      40.953  33.270  32.308  1.00  0.00     0.029 A 
ATOM     77  N   UNL A   1      40.715  33.829  30.169  1.00  0.00    -0.354 N 
ATOM     78  N   UNL A   1      43.793  32.186  29.335  1.00  0.00    -0.248 NA
ATOM     79  C   UNL A   1      45.747  32.403  28.142  1.00  0.00     0.031 C 
ATOM     80  C   UNL A   1      42.218  33.640  31.791  1.00  0.00     0.029 A 
ATOM     81  C   UNL A   1      42.059  33.971  30.457  1.00  0.00     0.049 A 
ATOM     82  H   UNL A   1      40.303  34.033  29.299  1.00  0.00     0.167 HD
ATOM     83  C   UNL A   1      43.929  33.521  29.056  1.00  0.00     0.074 A 
ATOM     84  C   UNL A   1      45.177  33.608  28.319  1.00  0.00     0.031 C 
ATOM     85  C   UNL A   1      43.002  34.441  29.454  1.00  0.00     0.037 A 
BRANCH  72  86
ATOM     86  C   UNL A   1      37.487  33.229  31.957  1.00  0.00     0.064 A 
ATOM     87  C   UNL A   1      36.403  33.922  31.377  1.00  0.00     0.173 A 
ATOM     88  C   UNL A   1      37.389  33.050  33.349  1.00  0.00     0.173 A 
ATOM     89  F   UNL A   1      36.283  34.054  30.051  1.00  0.00    -0.203 F 
ATOM     90  C   UNL A   1      35.393  34.514  32.143  1.00  0.00     0.198 A 
ATOM     91  C   UNL A   1      36.416  33.693  34.122  1.00  0.00     0.198 A 
ATOM     92  F   UNL A   1      38.195  32.201  33.997  1.00  0.00    -0.203 F 
ATOM     93  F   UNL A   1      34.397  35.172  31.534  1.00  0.00    -0.200 F 
ATOM     94  C   UNL A   1      35.426  34.440  33.519  1.00  0.00     0.200 A 
ATOM     95  F   UNL A   1      36.448  33.581  35.458  1.00  0.00    -0.200 F 
ATOM     96  F   UNL A   1      34.492  35.055  34.256  1.00  0.00    -0.200 F 
ENDBRANCH  72  86
BRANCH  73  97
ATOM     97  C   UNL A   1      45.237  29.117  27.775  1.00  0.00     0.064 A 
ATOM     98  C   UNL A   1      46.218  28.121  27.957  1.00  0.00     0.173 A 
ATOM     99  C   UNL A   1      44.346  28.956  26.710  1.00  0.00     0.173 A 
ATOM    100  F   UNL A   1      47.101  28.227  28.964  1.00  0.00    -0.203 F 
ATOM    101  C   UNL A   1      46.222  26.956  27.194  1.00  0.00     0.198 A 
ATOM    102  C   UNL A   1      44.365  27.795  25.933  1.00  0.00     0.198 A 
ATOM    103  F   UNL A   1      43.379  29.860  26.494  1.00  0.00    -0.203 F 
ATOM    104  F   UNL A   1      47.093  25.977  27.476  1.00  0.00    -0.200 F 
ATOM    105  C   UNL A   1      45.276  26.782  26.200  1.00  0.00     0.200 A 
ATOM    106  F   UNL A   1      43.436  27.615  24.983  1.00  0.00    -0.200 F 
ATOM    107  F   UNL A   1      45.218  25.625  25.525  1.00  0.00    -0.200 F 
ENDBRANCH  73  97
BRANCH  85 108
ATOM    108  C   UNL A   1      42.954  35.893  29.038  1.00  0.00     0.064 A 
ATOM    109  C   UNL A   1      42.153  36.384  27.995  1.00  0.00     0.173 A 
ATOM    110  C   UNL A   1      43.634  36.877  29.797  1.00  0.00     0.173 A 
ATOM    111  F   UNL A   1      41.363  35.570  27.281  1.00  0.00    -0.203 F 
ATOM    112  C   UNL A   1      42.093  37.746  27.686  1.00  0.00     0.198 A 
ATOM    113  C   UNL A   1      43.526  38.239  29.523  1.00  0.00     0.198 A 
ATOM    114  F   UNL A   1      44.407  36.547  30.842  1.00  0.00    -0.203 F 
ATOM    115  F   UNL A   1      41.350  38.159  26.650  1.00  0.00    -0.200 F 
ATOM    116  C   UNL A   1      42.771  38.674  28.456  1.00  0.00     0.200 A 
ATOM    117  F   UNL A   1      44.147  39.128  30.313  1.00  0.00    -0.200 F 
ATOM    118  F   UNL A   1      42.676  39.981  28.183  1.00  0.00    -0.200 F 
ENDBRANCH  85 108
ENDBRANCH  59  60
ENDBRANCH  51  54
ENDBRANCH  49  50
ENDBRANCH  48  49
ENDBRANCH  47  48
ENDBRANCH   3  47
TORSDOF 19
ENDMDL
MODEL 3
REMARK VINA RESULT:     -15.2      1.395      2.306
REMARK SMILES Cc1ccc(S(=O)(=O)n2cc(C(=O)C(=O)N[C@@H](Cc3c[nH]c4ccccc34)C(=O)NCC(=O)NCCCNC(=O)c3ccc(-c4c5nc(c(-c6c(F)c(F)c(F)c(F)c6F)c6ccc([nH]6)c(-c6c(F)c(F)c(F)c(F)c6F)c6nc(c(-c7c(F)c(F)c(F)c(F)c7F)c7ccc4[nH]7)C=C6)C=C5)cc3)c3ccccc32)cc1
REMARK SMILES IDX 32 1 33 2 34 3 31 5 30 6 28 7 29 8 17 10 16 11 14 12 15 13
REMARK SMILES IDX 12 15 13 16 11 17 9 18 10 19 109 20 104 21 108 22 105 23
REMARK SMILES IDX 107 24 106 25 6 26 7 27 8 28 5 29 1 30 2 31 3 32 111 33 4 34
REMARK SMILES IDX 110 35 18 36 19 37 20 38 27 39 21 40 22 41 26 42 23 44 25 45
REMARK SMILES IDX 24 46 35 47 36 48 37 49 38 50 39 51 40 53 41 54 42 55 103 56
REMARK SMILES IDX 43 57 102 58 44 59 45 60 46 61 96 62 47 63 101 64 95 65
REMARK SMILES IDX 97 66 48 67 100 68 94 69 93 70 49 72 81 73 61 74 80 75 62 76
REMARK SMILES IDX 65 77 79 78 98 79 63 80 64 81 78 83 99 84 66 85 50 86 51 87
REMARK SMILES IDX 59 88 52 89 53 90 57 91 60 92 54 93 55 94 58 95 56 96 82 97
REMARK SMILES IDX 83 98 91 99 84 100 85 101 89 102 92 103 86 104 87 105 90 106
REMARK SMILES IDX 88 107 67 108 68 109 76 110 69 111 70 112 74 113 77 114
REMARK SMILES IDX 71 115 72 116 75 117 73 118
REMARK H PARENT 34 4 30 9 16 14 21 43 38 52 97 71 65 82
REMARK Flexibility Score: inf
ROOT
ATOM      1  C   UNL A   1      37.614  21.830  24.980  1.00  0.00     0.239 C 
ATOM      2  O   UNL A   1      37.328  21.845  23.783  1.00  0.00    -0.273 OA
ATOM      3  N   UNL A   1      38.895  22.128  25.366  1.00  0.00    -0.355 N 
ATOM      4  H   UNL A   1      39.520  22.412  24.660  1.00  0.00     0.163 HD
ENDROOT
BRANCH   1   5
ATOM      5  C   UNL A   1      36.576  21.521  26.065  1.00  0.00     0.216 C 
BRANCH   5   6
ATOM      6  N   UNL A   1      35.661  22.584  26.439  1.00  0.00    -0.345 N 
ATOM      7  C   UNL A   1      34.302  22.613  26.538  1.00  0.00     0.243 C 
ATOM      8  O   UNL A   1      33.843  23.537  27.223  1.00  0.00    -0.273 OA
ATOM      9  H   UNL A   1      36.101  23.436  26.662  1.00  0.00     0.164 HD
BRANCH   7  10
ATOM     10  C   UNL A   1      33.325  21.538  25.959  1.00  0.00     0.176 C 
BRANCH  10  11
ATOM     11  N   UNL A   1      31.902  21.620  26.355  1.00  0.00    -0.337 N 
ATOM     12  C   UNL A   1      30.869  22.466  25.955  1.00  0.00     0.293 C 
ATOM     13  O   UNL A   1      29.785  22.409  26.527  1.00  0.00    -0.265 OA
ATOM     14  H   UNL A   1      31.635  20.952  27.027  1.00  0.00     0.164 HD
BRANCH  12  15
ATOM     15  C   UNL A   1      31.017  23.392  24.741  1.00  0.00     0.252 C 
ATOM     16  O   UNL A   1      30.703  22.898  23.657  1.00  0.00    -0.283 OA
BRANCH  15  17
ATOM     17  C   UNL A   1      31.574  24.755  24.819  1.00  0.00     0.054 A 
ATOM     18  N   UNL A   1      32.352  26.808  25.390  1.00  0.00    -0.240 N 
ATOM     19  C   UNL A   1      31.628  25.705  25.852  1.00  0.00     0.117 A 
ATOM     20  C   UNL A   1      32.861  26.477  24.123  1.00  0.00     0.065 A 
ATOM     21  C   UNL A   1      32.090  25.416  23.664  1.00  0.00     0.012 A 
ATOM     22  C   UNL A   1      33.726  27.177  23.257  1.00  0.00     0.028 A 
ATOM     23  C   UNL A   1      32.017  25.183  22.274  1.00  0.00     0.011 A 
ATOM     24  C   UNL A   1      33.599  26.964  21.886  1.00  0.00     0.002 A 
ATOM     25  C   UNL A   1      32.719  26.012  21.395  1.00  0.00     0.001 A 
BRANCH  18  26
ATOM     26  S   UNL A   1      31.924  28.498  25.482  1.00  0.00     0.268 S 
ATOM     27  O   UNL A   1      33.180  29.165  25.182  1.00  0.00    -0.201 OA
ATOM     28  O   UNL A   1      31.335  28.580  26.814  1.00  0.00    -0.201 OA
BRANCH  26  29
ATOM     29  C   UNL A   1      30.715  29.363  24.547  1.00  0.00     0.088 A 
ATOM     30  C   UNL A   1      27.995  30.721  21.468  1.00  0.00     0.044 C 
ATOM     31  C   UNL A   1      28.896  30.271  22.585  1.00  0.00    -0.051 A 
ATOM     32  C   UNL A   1      29.275  28.937  22.597  1.00  0.00     0.005 A 
ATOM     33  C   UNL A   1      29.414  31.137  23.575  1.00  0.00     0.005 A 
ATOM     34  C   UNL A   1      30.156  28.498  23.569  1.00  0.00     0.022 A 
ATOM     35  C   UNL A   1      30.334  30.692  24.564  1.00  0.00     0.022 A 
ENDBRANCH  26  29
ENDBRANCH  18  26
ENDBRANCH  15  17
ENDBRANCH  12  15
ENDBRANCH  10  11
BRANCH  10  36
ATOM     36  C   UNL A   1      33.515  21.312  24.423  1.00  0.00     0.072 C 
BRANCH  36  37
ATOM     37  C   UNL A   1      33.183  19.950  23.855  1.00  0.00    -0.020 A 
ATOM     38  C   UNL A   1      32.079  19.660  23.068  1.00  0.00     0.087 A 
ATOM     39  C   UNL A   1      33.877  18.701  24.041  1.00  0.00     0.003 A 
ATOM     40  N   UNL A   1      32.009  18.302  22.893  1.00  0.00    -0.361 N 
ATOM     41  C   UNL A   1      33.027  17.690  23.586  1.00  0.00     0.046 A 
ATOM     42  C   UNL A   1      35.075  18.317  24.677  1.00  0.00     0.010 A 
ATOM     43  H   UNL A   1      31.332  17.835  22.352  1.00  0.00     0.166 HD
ATOM     44  C   UNL A   1      33.238  16.333  23.865  1.00  0.00     0.026 A 
ATOM     45  C   UNL A   1      35.289  16.969  24.994  1.00  0.00     0.001 A 
ATOM     46  C   UNL A   1      34.366  15.997  24.618  1.00  0.00     0.002 A 
ENDBRANCH  36  37
ENDBRANCH  10  36
ENDBRANCH   7  10
ENDBRANCH   5   6
ENDBRANCH   1   5
BRANCH   3  47
ATOM     47  C   UNL A   1      39.412  22.066  26.718  1.00  0.00     0.117 C 
BRANCH  47  48
ATOM     48  C   UNL A   1      40.891  21.686  26.713  1.00  0.00     0.042 C 
BRANCH  48  49
ATOM     49  C   UNL A   1      41.767  22.791  27.250  1.00  0.00     0.118 C 
BRANCH  49  50
ATOM     50  N   UNL A   1      42.621  23.440  26.262  1.00  0.00    -0.352 N 
ATOM     51  C   UNL A   1      42.500  24.728  25.750  1.00  0.00     0.251 C 
ATOM     52  H   UNL A   1      43.371  22.905  25.919  1.00  0.00     0.163 HD
ATOM     53  O   UNL A   1      43.253  25.149  24.902  1.00  0.00    -0.269 OA
BRANCH  51  54
ATOM     54  C   UNL A   1      41.494  25.617  26.387  1.00  0.00     0.039 A 
ATOM     55  C   UNL A   1      41.316  26.880  25.819  1.00  0.00     0.014 A 
ATOM     56  C   UNL A   1      41.067  25.346  27.685  1.00  0.00     0.014 A 
ATOM     57  C   UNL A   1      40.979  27.943  26.649  1.00  0.00     0.010 A 
ATOM     58  C   UNL A   1      40.867  26.419  28.532  1.00  0.00     0.010 A 
ATOM     59  C   UNL A   1      40.895  27.723  28.024  1.00  0.00    -0.014 A 
BRANCH  59  60
ATOM     60  C   UNL A   1      40.935  28.809  28.997  1.00  0.00     0.031 A 
ATOM     61  C   UNL A   1      39.795  29.744  29.090  1.00  0.00     0.074 A 
ATOM     62  C   UNL A   1      41.988  28.942  29.835  1.00  0.00     0.049 A 
ATOM     63  N   UNL A   1      39.885  30.963  29.502  1.00  0.00    -0.248 NA
ATOM     64  C   UNL A   1      38.448  29.376  28.675  1.00  0.00     0.031 C 
ATOM     65  C   UNL A   1      42.100  29.845  30.980  1.00  0.00     0.029 A 
ATOM     66  N   UNL A   1      43.286  28.421  29.679  1.00  0.00    -0.354 N 
ATOM     67  C   UNL A   1      38.606  31.446  29.665  1.00  0.00     0.074 A 
ATOM     68  C   UNL A   1      37.751  30.439  29.082  1.00  0.00     0.031 C 
ATOM     69  C   UNL A   1      43.400  30.077  31.221  1.00  0.00     0.029 A 
ATOM     70  C   UNL A   1      44.157  29.423  30.170  1.00  0.00     0.049 A 
ATOM     71  H   UNL A   1      43.535  27.543  29.307  1.00  0.00     0.167 HD
ATOM     72  C   UNL A   1      38.410  32.583  30.395  1.00  0.00     0.037 A 
ATOM     73  C   UNL A   1      45.070  30.031  29.361  1.00  0.00     0.037 A 
ATOM     74  C   UNL A   1      39.684  33.172  30.802  1.00  0.00     0.049 A 
ATOM     75  C   UNL A   1      44.884  31.526  29.255  1.00  0.00     0.074 A 
ATOM     76  C   UNL A   1      40.411  33.107  31.980  1.00  0.00     0.029 A 
ATOM     77  N   UNL A   1      40.548  33.678  29.835  1.00  0.00    -0.354 N 
ATOM     78  N   UNL A   1      43.781  32.145  29.572  1.00  0.00    -0.248 NA
ATOM     79  C   UNL A   1      45.912  32.437  28.758  1.00  0.00     0.031 C 
ATOM     80  C   UNL A   1      41.736  33.522  31.704  1.00  0.00     0.029 A 
ATOM     81  C   UNL A   1      41.812  33.861  30.365  1.00  0.00     0.049 A 
ATOM     82  H   UNL A   1      40.296  33.878  28.905  1.00  0.00     0.167 HD
ATOM     83  C   UNL A   1      43.921  33.487  29.328  1.00  0.00     0.074 A 
ATOM     84  C   UNL A   1      45.279  33.621  28.832  1.00  0.00     0.031 C 
ATOM     85  C   UNL A   1      42.906  34.372  29.553  1.00  0.00     0.037 A 
BRANCH  72  86
ATOM     86  C   UNL A   1      37.071  32.956  31.000  1.00  0.00     0.064 A 
ATOM     87  C   UNL A   1      36.094  33.635  30.240  1.00  0.00     0.173 A 
ATOM     88  C   UNL A   1      36.720  32.744  32.346  1.00  0.00     0.173 A 
ATOM     89  F   UNL A   1      36.220  33.793  28.916  1.00  0.00    -0.203 F 
ATOM     90  C   UNL A   1      34.944  34.185  30.813  1.00  0.00     0.198 A 
ATOM     91  C   UNL A   1      35.602  33.347  32.934  1.00  0.00     0.198 A 
ATOM     92  F   UNL A   1      37.415  31.901  33.120  1.00  0.00    -0.203 F 
ATOM     93  F   UNL A   1      34.061  34.832  30.039  1.00  0.00    -0.200 F 
ATOM     94  C   UNL A   1      34.721  34.083  32.170  1.00  0.00     0.200 A 
ATOM     95  F   UNL A   1      35.388  33.207  34.251  1.00  0.00    -0.200 F 
ATOM     96  F   UNL A   1      33.650  34.659  32.729  1.00  0.00    -0.200 F 
ENDBRANCH  72  86
BRANCH  73  97
ATOM     97  C   UNL A   1      45.588  29.140  28.292  1.00  0.00     0.064 A 
ATOM     98  C   UNL A   1      46.504  28.132  28.658  1.00  0.00     0.173 A 
ATOM     99  C   UNL A   1      44.946  29.008  27.057  1.00  0.00     0.173 A 
ATOM    100  F   UNL A   1      47.152  28.211  29.832  1.00  0.00    -0.203 F 
ATOM    101  C   UNL A   1      46.668  26.983  27.888  1.00  0.00     0.198 A 
ATOM    102  C   UNL A   1      45.127  27.863  26.277  1.00  0.00     0.198 A 
ATOM    103  F   UNL A   1      44.051  29.924  26.659  1.00  0.00    -0.203 F 
ATOM    104  F   UNL A   1      47.454  25.991  28.329  1.00  0.00    -0.200 F 
ATOM    105  C   UNL A   1      45.956  26.837  26.711  1.00  0.00     0.200 A 
ATOM    106  F   UNL A   1      44.423  27.709  25.147  1.00  0.00    -0.200 F 
ATOM    107  F   UNL A   1      46.039  25.695  26.014  1.00  0.00    -0.200 F 
ENDBRANCH  73  97
BRANCH  85 108
ATOM    108  C   UNL A   1      42.885  35.825  29.141  1.00  0.00     0.064 A 
ATOM    109  C   UNL A   1      42.172  36.317  28.036  1.00  0.00     0.173 A 
ATOM    110  C   UNL A   1      43.496  36.808  29.958  1.00  0.00     0.173 A 
ATOM    111  F   UNL A   1      41.448  35.503  27.256  1.00  0.00    -0.203 F 
ATOM    112  C   UNL A   1      42.131  37.680  27.730  1.00  0.00     0.198 A 
ATOM    113  C   UNL A   1      43.405  38.171  29.681  1.00  0.00     0.198 A 
ATOM    114  F   UNL A   1      44.181  36.477  31.062  1.00  0.00    -0.203 F 
ATOM    115  F   UNL A   1      41.475  38.095  26.637  1.00  0.00    -0.200 F 
ATOM    116  C   UNL A   1      42.738  38.608  28.557  1.00  0.00     0.200 A 
ATOM    117  F   UNL A   1      43.953  39.059  30.524  1.00  0.00    -0.200 F 
ATOM    118  F   UNL A   1      42.661  39.916  28.283  1.00  0.00    -0.200 F 
ENDBRANCH  85 108
ENDBRANCH  59  60
ENDBRANCH  51  54
ENDBRANCH  49  50
ENDBRANCH  48  49
ENDBRANCH  47  48
ENDBRANCH   3  47
TORSDOF 19
ENDMDL
