MODEL 1
REMARK VINA RESULT:     -13.0      0.000      0.000
REMARK SMILES CCC[C@H]1CCc2c(sc(NC(=O)[C@H]3[C@@H](C(=O)NCCCNC(=O)c4ccc(-c5c6nc(c(-c7c(F)c(F)c(F)c(F)c7F)c7ccc([nH]7)c(-c7c(F)c(F)c(F)c(F)c7F)c7nc(c(-c8c(F)c(F)c(F)c(F)c8F)c8ccc5[nH]8)C=C7)C=C6)cc4)[C@H]4CC[C@@H]3O4)c2C(N)=O)C1
REMARK SMILES IDX 19 1 18 2 16 3 17 4 15 6 14 7 91 8 88 9 90 10 92 11 89 12
REMARK SMILES IDX 12 13 11 14 13 16 10 17 4 18 5 19 97 20 6 21 8 22 7 23 9 24
REMARK SMILES IDX 93 25 3 26 2 27 1 28 94 29 95 30 96 31 20 34 21 35 22 36
REMARK SMILES IDX 23 37 24 39 25 40 26 41 87 42 27 43 86 44 28 45 29 46 30 47
REMARK SMILES IDX 80 48 31 49 85 50 79 51 81 52 32 53 84 54 78 55 77 56 33 58
REMARK SMILES IDX 65 59 45 60 64 61 46 62 49 63 63 64 82 65 47 66 48 67 62 69
REMARK SMILES IDX 83 70 50 71 34 72 35 73 43 74 36 75 37 76 41 77 44 78 38 79
REMARK SMILES IDX 39 80 42 81 40 82 66 83 67 84 75 85 68 86 69 87 73 88 76 89
REMARK SMILES IDX 70 90 71 91 74 92 72 93 51 94 52 95 60 96 53 97 54 98 58 99
REMARK SMILES IDX 61 100 55 101 56 102 59 103 57 104
REMARK H PARENT 18 5 11 15 95 32 95 33 22 38 81 57 49 68
REMARK Flexibility Score: inf
ROOT
ATOM      1  C   UNL A   1      31.749  30.135  26.629  1.00  0.00     0.117 C 
ENDROOT
BRANCH   1   2
ATOM      2  N   UNL A   1      32.655  29.873  25.533  1.00  0.00    -0.356 N 
ATOM      3  C   UNL A   1      32.837  28.767  24.777  1.00  0.00     0.226 C 
ATOM      4  O   UNL A   1      33.984  28.566  24.366  1.00  0.00    -0.275 OA
ATOM      5  H   UNL A   1      33.238  30.630  25.295  1.00  0.00     0.163 HD
BRANCH   3   6
ATOM      6  C   UNL A   1      31.733  27.807  24.398  1.00  0.00     0.122 C 
ATOM      7  C   UNL A   1      31.766  26.919  23.165  1.00  0.00     0.123 C 
ATOM      8  C   UNL A   1      30.575  27.521  22.356  1.00  0.00     0.132 C 
ATOM      9  C   UNL A   1      30.358  28.480  24.304  1.00  0.00     0.132 C 
ATOM     10  C   UNL A   1      30.497  29.030  22.028  1.00  0.00     0.035 C 
ATOM     11  O   UNL A   1      29.616  27.545  23.462  1.00  0.00    -0.373 OA
ATOM     12  C   UNL A   1      30.390  29.697  23.401  1.00  0.00     0.035 C 
BRANCH   7  13
ATOM     13  C   UNL A   1      33.023  26.507  22.407  1.00  0.00     0.231 C 
ATOM     14  N   UNL A   1      33.650  25.286  22.474  1.00  0.00    -0.317 N 
ATOM     15  H   UNL A   1      34.303  25.128  21.755  1.00  0.00     0.170 HD
ATOM     16  O   UNL A   1      33.532  27.320  21.623  1.00  0.00    -0.274 OA
BRANCH  14  17
ATOM     17  C   UNL A   1      33.530  24.241  23.370  1.00  0.00     0.108 A 
ATOM     18  C   UNL A   1      33.262  19.537  24.693  1.00  0.00    -0.006 C 
ATOM     19  C   UNL A   1      34.726  19.992  24.888  1.00  0.00     0.009 C 
ATOM     20  C   UNL A   1      32.500  20.463  23.705  1.00  0.00     0.050 C 
ATOM     21  C   UNL A   1      34.777  21.417  25.475  1.00  0.00     0.038 C 
ATOM     22  C   UNL A   1      32.941  21.903  23.835  1.00  0.00     0.011 A 
ATOM     23  C   UNL A   1      33.964  22.369  24.640  1.00  0.00    -0.019 A 
ATOM     24  S   UNL A   1      32.273  23.159  22.900  1.00  0.00    -0.122 S 
ATOM     25  C   UNL A   1      34.139  23.812  24.538  1.00  0.00     0.077 A 
BRANCH  18  26
ATOM     26  C   UNL A   1      33.163  18.018  24.407  1.00  0.00     0.004 C 
BRANCH  26  27
ATOM     27  C   UNL A   1      34.424  17.231  24.040  1.00  0.00    -0.003 C 
ATOM     28  C   UNL A   1      34.794  16.115  25.001  1.00  0.00     0.004 C 
ENDBRANCH  26  27
ENDBRANCH  18  26
BRANCH  25  29
ATOM     29  C   UNL A   1      34.912  24.620  25.475  1.00  0.00     0.251 C 
ATOM     30  N   UNL A   1      34.280  25.693  26.022  1.00  0.00    -0.365 N 
ATOM     31  O   UNL A   1      36.065  24.353  25.817  1.00  0.00    -0.269 OA
ATOM     32  H   UNL A   1      33.359  25.912  25.753  1.00  0.00     0.159 HD
ATOM     33  H   UNL A   1      34.745  26.252  26.687  1.00  0.00     0.159 HD
ENDBRANCH  25  29
ENDBRANCH  14  17
ENDBRANCH   7  13
ENDBRANCH   3   6
ENDBRANCH   1   2
BRANCH   1  34
ATOM     34  C   UNL A   1      31.461  31.619  26.674  1.00  0.00     0.042 C 
BRANCH  34  35
ATOM     35  C   UNL A   1      32.779  32.352  26.814  1.00  0.00     0.118 C 
BRANCH  35  36
ATOM     36  N   UNL A   1      32.548  33.719  27.260  1.00  0.00    -0.352 N 
ATOM     37  C   UNL A   1      33.068  34.350  28.367  1.00  0.00     0.251 C 
ATOM     38  H   UNL A   1      31.945  34.260  26.701  1.00  0.00     0.163 HD
ATOM     39  O   UNL A   1      32.528  35.351  28.824  1.00  0.00    -0.269 OA
BRANCH  37  40
ATOM     40  C   UNL A   1      34.276  33.792  29.006  1.00  0.00     0.039 A 
ATOM     41  C   UNL A   1      35.528  34.353  28.752  1.00  0.00     0.014 A 
ATOM     42  C   UNL A   1      34.157  32.704  29.871  1.00  0.00     0.014 A 
ATOM     43  C   UNL A   1      36.651  33.848  29.411  1.00  0.00     0.010 A 
ATOM     44  C   UNL A   1      35.239  32.311  30.639  1.00  0.00     0.010 A 
ATOM     45  C   UNL A   1      36.508  32.843  30.383  1.00  0.00    -0.014 A 
BRANCH  45  46
ATOM     46  C   UNL A   1      37.668  32.260  31.098  1.00  0.00     0.031 A 
ATOM     47  C   UNL A   1      38.450  31.150  30.445  1.00  0.00     0.074 A 
ATOM     48  C   UNL A   1      37.961  32.660  32.350  1.00  0.00     0.049 A 
ATOM     49  N   UNL A   1      39.408  30.406  30.937  1.00  0.00    -0.248 NA
ATOM     50  C   UNL A   1      38.069  30.791  29.067  1.00  0.00     0.031 C 
ATOM     51  C   UNL A   1      37.239  33.684  33.106  1.00  0.00     0.029 A 
ATOM     52  N   UNL A   1      38.941  32.239  33.213  1.00  0.00    -0.354 N 
ATOM     53  C   UNL A   1      39.712  29.481  29.946  1.00  0.00     0.074 A 
ATOM     54  C   UNL A   1      38.788  29.702  28.858  1.00  0.00     0.031 C 
ATOM     55  C   UNL A   1      37.821  33.836  34.306  1.00  0.00     0.029 A 
ATOM     56  C   UNL A   1      38.924  32.889  34.423  1.00  0.00     0.049 A 
ATOM     57  H   UNL A   1      39.594  31.539  32.986  1.00  0.00     0.167 HD
ATOM     58  C   UNL A   1      40.697  28.554  29.928  1.00  0.00     0.037 A 
ATOM     59  C   UNL A   1      39.709  32.727  35.504  1.00  0.00     0.037 A 
ATOM     60  C   UNL A   1      41.643  28.378  30.996  1.00  0.00     0.049 A 
ATOM     61  C   UNL A   1      40.808  31.699  35.456  1.00  0.00     0.074 A 
ATOM     62  C   UNL A   1      42.728  27.523  31.056  1.00  0.00     0.029 A 
ATOM     63  N   UNL A   1      41.617  29.081  32.192  1.00  0.00    -0.354 N 
ATOM     64  N   UNL A   1      41.132  30.877  34.487  1.00  0.00    -0.248 NA
ATOM     65  C   UNL A   1      41.657  31.583  36.649  1.00  0.00     0.031 C 
ATOM     66  C   UNL A   1      43.328  27.672  32.309  1.00  0.00     0.029 A 
ATOM     67  C   UNL A   1      42.654  28.662  33.008  1.00  0.00     0.049 A 
ATOM     68  H   UNL A   1      40.958  29.774  32.426  1.00  0.00     0.167 HD
ATOM     69  C   UNL A   1      42.235  30.167  34.940  1.00  0.00     0.074 A 
ATOM     70  C   UNL A   1      42.537  30.670  36.265  1.00  0.00     0.031 C 
ATOM     71  C   UNL A   1      42.938  29.187  34.319  1.00  0.00     0.037 A 
BRANCH  58  72
ATOM     72  C   UNL A   1      40.804  27.673  28.716  1.00  0.00     0.064 A 
ATOM     73  C   UNL A   1      41.654  27.989  27.642  1.00  0.00     0.173 A 
ATOM     74  C   UNL A   1      40.060  26.486  28.630  1.00  0.00     0.173 A 
ATOM     75  F   UNL A   1      42.377  29.119  27.665  1.00  0.00    -0.203 F 
ATOM     76  C   UNL A   1      41.725  27.173  26.517  1.00  0.00     0.198 A 
ATOM     77  C   UNL A   1      40.162  25.653  27.518  1.00  0.00     0.198 A 
ATOM     78  F   UNL A   1      39.234  26.132  29.625  1.00  0.00    -0.203 F 
ATOM     79  F   UNL A   1      42.495  27.531  25.480  1.00  0.00    -0.200 F 
ATOM     80  C   UNL A   1      40.986  26.002  26.459  1.00  0.00     0.200 A 
ATOM     81  F   UNL A   1      39.456  24.514  27.470  1.00  0.00    -0.200 F 
ATOM     82  F   UNL A   1      41.060  25.214  25.378  1.00  0.00    -0.200 F 
ENDBRANCH  58  72
BRANCH  59  83
ATOM     83  C   UNL A   1      39.504  33.578  36.706  1.00  0.00     0.064 A 
ATOM     84  C   UNL A   1      40.092  34.848  36.796  1.00  0.00     0.173 A 
ATOM     85  C   UNL A   1      38.721  33.146  37.785  1.00  0.00     0.173 A 
ATOM     86  F   UNL A   1      40.864  35.300  35.796  1.00  0.00    -0.203 F 
ATOM     87  C   UNL A   1      39.923  35.642  37.928  1.00  0.00     0.198 A 
ATOM     88  C   UNL A   1      38.527  33.954  38.904  1.00  0.00     0.198 A 
ATOM     89  F   UNL A   1      38.128  31.943  37.747  1.00  0.00    -0.203 F 
ATOM     90  F   UNL A   1      40.536  36.832  38.006  1.00  0.00    -0.200 F 
ATOM     91  C   UNL A   1      39.136  35.198  38.978  1.00  0.00     0.200 A 
ATOM     92  F   UNL A   1      37.751  33.527  39.909  1.00  0.00    -0.200 F 
ATOM     93  F   UNL A   1      38.969  35.963  40.065  1.00  0.00    -0.200 F 
ENDBRANCH  59  83
BRANCH  71  94
ATOM     94  C   UNL A   1      44.121  28.622  35.050  1.00  0.00     0.064 A 
ATOM     95  C   UNL A   1      45.395  29.198  34.946  1.00  0.00     0.173 A 
ATOM     96  C   UNL A   1      43.964  27.518  35.902  1.00  0.00     0.173 A 
ATOM     97  F   UNL A   1      45.598  30.247  34.135  1.00  0.00    -0.203 F 
ATOM     98  C   UNL A   1      46.476  28.670  35.647  1.00  0.00     0.198 A 
ATOM     99  C   UNL A   1      45.039  27.014  36.626  1.00  0.00     0.198 A 
ATOM    100  F   UNL A   1      42.763  26.936  36.043  1.00  0.00    -0.203 F 
ATOM    101  F   UNL A   1      47.695  29.204  35.493  1.00  0.00    -0.200 F 
ATOM    102  C   UNL A   1      46.296  27.585  36.492  1.00  0.00     0.200 A 
ATOM    103  F   UNL A   1      44.859  25.978  37.456  1.00  0.00    -0.200 F 
ATOM    104  F   UNL A   1      47.336  27.085  37.173  1.00  0.00    -0.200 F 
ENDBRANCH  71  94
ENDBRANCH  45  46
ENDBRANCH  37  40
ENDBRANCH  35  36
ENDBRANCH  34  35
ENDBRANCH   1  34
TORSDOF 15
ENDMDL
MODEL 2
REMARK VINA RESULT:     -12.8      0.694      1.684
REMARK SMILES CCC[C@H]1CCc2c(sc(NC(=O)[C@H]3[C@@H](C(=O)NCCCNC(=O)c4ccc(-c5c6nc(c(-c7c(F)c(F)c(F)c(F)c7F)c7ccc([nH]7)c(-c7c(F)c(F)c(F)c(F)c7F)c7nc(c(-c8c(F)c(F)c(F)c(F)c8F)c8ccc5[nH]8)C=C7)C=C6)cc4)[C@H]4CC[C@@H]3O4)c2C(N)=O)C1
REMARK SMILES IDX 19 1 18 2 16 3 17 4 15 6 14 7 91 8 88 9 90 10 92 11 89 12
REMARK SMILES IDX 12 13 11 14 13 16 10 17 4 18 5 19 97 20 6 21 8 22 7 23 9 24
REMARK SMILES IDX 93 25 3 26 2 27 1 28 94 29 95 30 96 31 20 34 21 35 22 36
REMARK SMILES IDX 23 37 24 39 25 40 26 41 87 42 27 43 86 44 28 45 29 46 30 47
REMARK SMILES IDX 80 48 31 49 85 50 79 51 81 52 32 53 84 54 78 55 77 56 33 58
REMARK SMILES IDX 65 59 45 60 64 61 46 62 49 63 63 64 82 65 47 66 48 67 62 69
REMARK SMILES IDX 83 70 50 71 34 72 35 73 43 74 36 75 37 76 41 77 44 78 38 79
REMARK SMILES IDX 39 80 42 81 40 82 66 83 67 84 75 85 68 86 69 87 73 88 76 89
REMARK SMILES IDX 70 90 71 91 74 92 72 93 51 94 52 95 60 96 53 97 54 98 58 99
REMARK SMILES IDX 61 100 55 101 56 102 59 103 57 104
REMARK H PARENT 18 5 11 15 95 32 95 33 22 38 81 57 49 68
REMARK Flexibility Score: inf
ROOT
ATOM      1  C   UNL A   1      31.743  30.152  26.423  1.00  0.00     0.117 C 
ENDROOT
BRANCH   1   2
ATOM      2  N   UNL A   1      32.572  29.836  25.282  1.00  0.00    -0.356 N 
ATOM      3  C   UNL A   1      32.907  28.648  24.730  1.00  0.00     0.226 C 
ATOM      4  O   UNL A   1      34.024  28.581  24.210  1.00  0.00    -0.275 OA
ATOM      5  H   UNL A   1      32.957  30.620  24.828  1.00  0.00     0.163 HD
BRANCH   3   6
ATOM      6  C   UNL A   1      31.996  27.442  24.696  1.00  0.00     0.122 C 
ATOM      7  C   UNL A   1      32.082  26.343  23.649  1.00  0.00     0.123 C 
ATOM      8  C   UNL A   1      30.710  26.535  22.930  1.00  0.00     0.132 C 
ATOM      9  C   UNL A   1      30.507  27.813  24.687  1.00  0.00     0.132 C 
ATOM     10  C   UNL A   1      30.279  27.904  22.354  1.00  0.00     0.035 C 
ATOM     11  O   UNL A   1      29.894  26.605  24.143  1.00  0.00    -0.373 OA
ATOM     12  C   UNL A   1      30.183  28.805  23.587  1.00  0.00     0.035 C 
BRANCH   7  13
ATOM     13  C   UNL A   1      33.308  26.027  22.799  1.00  0.00     0.231 C 
ATOM     14  N   UNL A   1      34.018  24.851  22.803  1.00  0.00    -0.317 N 
ATOM     15  H   UNL A   1      34.628  24.747  22.037  1.00  0.00     0.170 HD
ATOM     16  O   UNL A   1      33.705  26.883  21.996  1.00  0.00    -0.274 OA
BRANCH  14  17
ATOM     17  C   UNL A   1      34.032  23.790  23.687  1.00  0.00     0.108 A 
ATOM     18  C   UNL A   1      33.128  19.202  25.128  1.00  0.00    -0.006 C 
ATOM     19  C   UNL A   1      34.589  19.252  24.628  1.00  0.00     0.009 C 
ATOM     20  C   UNL A   1      32.287  20.379  24.564  1.00  0.00     0.050 C 
ATOM     21  C   UNL A   1      35.274  20.556  25.087  1.00  0.00     0.038 C 
ATOM     22  C   UNL A   1      33.107  21.643  24.437  1.00  0.00     0.011 A 
ATOM     23  C   UNL A   1      34.463  21.756  24.680  1.00  0.00    -0.019 A 
ATOM     24  S   UNL A   1      32.458  23.109  23.867  1.00  0.00    -0.122 S 
ATOM     25  C   UNL A   1      34.954  23.112  24.466  1.00  0.00     0.077 A 
BRANCH  18  26
ATOM     26  C   UNL A   1      32.510  17.791  24.964  1.00  0.00     0.004 C 
BRANCH  26  27
ATOM     27  C   UNL A   1      33.315  16.556  25.378  1.00  0.00    -0.003 C 
ATOM     28  C   UNL A   1      32.535  15.254  25.412  1.00  0.00     0.004 C 
ENDBRANCH  26  27
ENDBRANCH  18  26
BRANCH  25  29
ATOM     29  C   UNL A   1      36.247  23.606  24.929  1.00  0.00     0.251 C 
ATOM     30  N   UNL A   1      37.273  23.566  24.037  1.00  0.00    -0.365 N 
ATOM     31  O   UNL A   1      36.432  24.087  26.048  1.00  0.00    -0.269 OA
ATOM     32  H   UNL A   1      37.131  23.183  23.141  1.00  0.00     0.159 HD
ATOM     33  H   UNL A   1      38.157  23.920  24.287  1.00  0.00     0.159 HD
ENDBRANCH  25  29
ENDBRANCH  14  17
ENDBRANCH   7  13
ENDBRANCH   3   6
ENDBRANCH   1   2
BRANCH   1  34
ATOM     34  C   UNL A   1      31.527  31.648  26.465  1.00  0.00     0.042 C 
BRANCH  34  35
ATOM     35  C   UNL A   1      32.830  32.302  26.875  1.00  0.00     0.118 C 
BRANCH  35  36
ATOM     36  N   UNL A   1      32.590  33.672  27.309  1.00  0.00    -0.352 N 
ATOM     37  C   UNL A   1      33.095  34.312  28.418  1.00  0.00     0.251 C 
ATOM     38  H   UNL A   1      31.991  34.207  26.739  1.00  0.00     0.163 HD
ATOM     39  O   UNL A   1      32.546  35.313  28.863  1.00  0.00    -0.269 OA
BRANCH  37  40
ATOM     40  C   UNL A   1      34.297  33.761  29.074  1.00  0.00     0.039 A 
ATOM     41  C   UNL A   1      35.554  34.303  28.804  1.00  0.00     0.014 A 
ATOM     42  C   UNL A   1      34.168  32.701  29.972  1.00  0.00     0.014 A 
ATOM     43  C   UNL A   1      36.672  33.807  29.479  1.00  0.00     0.010 A 
ATOM     44  C   UNL A   1      35.245  32.322  30.752  1.00  0.00     0.010 A 
ATOM     45  C   UNL A   1      36.519  32.834  30.481  1.00  0.00    -0.014 A 
BRANCH  45  46
ATOM     46  C   UNL A   1      37.674  32.262  31.214  1.00  0.00     0.031 A 
ATOM     47  C   UNL A   1      38.440  31.119  30.600  1.00  0.00     0.074 A 
ATOM     48  C   UNL A   1      37.975  32.702  32.450  1.00  0.00     0.049 A 
ATOM     49  N   UNL A   1      39.389  30.381  31.115  1.00  0.00    -0.248 NA
ATOM     50  C   UNL A   1      38.050  30.716  29.236  1.00  0.00     0.031 C 
ATOM     51  C   UNL A   1      37.268  33.762  33.170  1.00  0.00     0.029 A 
ATOM     52  N   UNL A   1      38.952  32.300  33.325  1.00  0.00    -0.354 N 
ATOM     53  C   UNL A   1      39.678  29.416  30.158  1.00  0.00     0.074 A 
ATOM     54  C   UNL A   1      38.755  29.610  29.064  1.00  0.00     0.031 C 
ATOM     55  C   UNL A   1      37.855  33.949  34.363  1.00  0.00     0.029 A 
ATOM     56  C   UNL A   1      38.946  32.993  34.511  1.00  0.00     0.049 A 
ATOM     57  H   UNL A   1      39.595  31.584  33.122  1.00  0.00     0.167 HD
ATOM     58  C   UNL A   1      40.651  28.476  30.171  1.00  0.00     0.037 A 
ATOM     59  C   UNL A   1      39.732  32.859  35.596  1.00  0.00     0.037 A 
ATOM     60  C   UNL A   1      41.598  28.327  31.242  1.00  0.00     0.049 A 
ATOM     61  C   UNL A   1      40.818  31.816  35.582  1.00  0.00     0.074 A 
ATOM     62  C   UNL A   1      42.671  27.461  31.331  1.00  0.00     0.029 A 
ATOM     63  N   UNL A   1      41.584  29.072  32.413  1.00  0.00    -0.354 N 
ATOM     64  N   UNL A   1      41.128  30.955  34.643  1.00  0.00    -0.248 NA
ATOM     65  C   UNL A   1      41.667  31.732  36.777  1.00  0.00     0.031 C 
ATOM     66  C   UNL A   1      43.277  27.646  32.577  1.00  0.00     0.029 A 
ATOM     67  C   UNL A   1      42.618  28.670  33.241  1.00  0.00     0.049 A 
ATOM     68  H   UNL A   1      40.934  29.782  32.623  1.00  0.00     0.167 HD
ATOM     69  C   UNL A   1      42.223  30.248  35.119  1.00  0.00     0.074 A 
ATOM     70  C   UNL A   1      42.534  30.794  36.424  1.00  0.00     0.031 C 
ATOM     71  C   UNL A   1      42.911  29.237  34.532  1.00  0.00     0.037 A 
BRANCH  58  72
ATOM     72  C   UNL A   1      40.744  27.551  28.991  1.00  0.00     0.064 A 
ATOM     73  C   UNL A   1      41.666  27.764  27.953  1.00  0.00     0.173 A 
ATOM     74  C   UNL A   1      39.911  26.426  28.902  1.00  0.00     0.173 A 
ATOM     75  F   UNL A   1      42.477  28.833  27.979  1.00  0.00    -0.203 F 
ATOM     76  C   UNL A   1      41.724  26.909  26.855  1.00  0.00     0.198 A 
ATOM     77  C   UNL A   1      39.997  25.552  27.820  1.00  0.00     0.198 A 
ATOM     78  F   UNL A   1      39.013  26.170  29.864  1.00  0.00    -0.203 F 
ATOM     79  F   UNL A   1      42.568  27.172  25.849  1.00  0.00    -0.200 F 
ATOM     80  C   UNL A   1      40.896  25.800  26.794  1.00  0.00     0.200 A 
ATOM     81  F   UNL A   1      39.205  24.472  27.769  1.00  0.00    -0.200 F 
ATOM     82  F   UNL A   1      40.957  24.974  25.741  1.00  0.00    -0.200 F 
ENDBRANCH  58  72
BRANCH  59  83
ATOM     83  C   UNL A   1      39.541  33.755  36.767  1.00  0.00     0.064 A 
ATOM     84  C   UNL A   1      38.738  33.365  37.848  1.00  0.00     0.173 A 
ATOM     85  C   UNL A   1      40.155  35.015  36.834  1.00  0.00     0.173 A 
ATOM     86  F   UNL A   1      38.116  32.177  37.823  1.00  0.00    -0.203 F 
ATOM     87  C   UNL A   1      38.536  34.209  38.938  1.00  0.00     0.198 A 
ATOM     88  C   UNL A   1      39.978  35.844  37.940  1.00  0.00     0.198 A 
ATOM     89  F   UNL A   1      40.941  35.433  35.831  1.00  0.00    -0.203 F 
ATOM     90  F   UNL A   1      37.724  33.828  39.934  1.00  0.00    -0.200 F 
ATOM     91  C   UNL A   1      39.161  35.444  38.986  1.00  0.00     0.200 A 
ATOM     92  F   UNL A   1      40.599  37.031  37.989  1.00  0.00    -0.200 F 
ATOM     93  F   UNL A   1      38.972  36.254  40.038  1.00  0.00    -0.200 F 
ENDBRANCH  59  83
BRANCH  71  94
ATOM     94  C   UNL A   1      44.089  28.684  35.280  1.00  0.00     0.064 A 
ATOM     95  C   UNL A   1      43.967  27.576  36.131  1.00  0.00     0.173 A 
ATOM     96  C   UNL A   1      45.364  29.242  35.102  1.00  0.00     0.173 A 
ATOM     97  F   UNL A   1      42.768  27.015  36.343  1.00  0.00    -0.203 F 
ATOM     98  C   UNL A   1      45.077  27.067  36.801  1.00  0.00     0.198 A 
ATOM     99  C   UNL A   1      46.476  28.709  35.747  1.00  0.00     0.198 A 
ATOM    100  F   UNL A   1      45.535  30.298  34.290  1.00  0.00    -0.203 F 
ATOM    101  F   UNL A   1      44.929  26.041  37.650  1.00  0.00    -0.200 F 
ATOM    102  C   UNL A   1      46.330  27.627  36.602  1.00  0.00     0.200 A 
ATOM    103  F   UNL A   1      47.688  29.240  35.539  1.00  0.00    -0.200 F 
ATOM    104  F   UNL A   1      47.397  27.128  37.241  1.00  0.00    -0.200 F 
ENDBRANCH  71  94
ENDBRANCH  45  46
ENDBRANCH  37  40
ENDBRANCH  35  36
ENDBRANCH  34  35
ENDBRANCH   1  34
TORSDOF 15
ENDMDL
MODEL 3
REMARK VINA RESULT:     -12.7      3.807      7.248
REMARK SMILES CCC[C@H]1CCc2c(sc(NC(=O)[C@H]3[C@@H](C(=O)NCCCNC(=O)c4ccc(-c5c6nc(c(-c7c(F)c(F)c(F)c(F)c7F)c7ccc([nH]7)c(-c7c(F)c(F)c(F)c(F)c7F)c7nc(c(-c8c(F)c(F)c(F)c(F)c8F)c8ccc5[nH]8)C=C7)C=C6)cc4)[C@H]4CC[C@@H]3O4)c2C(N)=O)C1
REMARK SMILES IDX 19 1 18 2 16 3 17 4 15 6 14 7 91 8 88 9 90 10 92 11 89 12
REMARK SMILES IDX 12 13 11 14 13 16 10 17 4 18 5 19 97 20 6 21 8 22 7 23 9 24
REMARK SMILES IDX 93 25 3 26 2 27 1 28 94 29 95 30 96 31 20 34 21 35 22 36
REMARK SMILES IDX 23 37 24 39 25 40 26 41 87 42 27 43 86 44 28 45 29 46 30 47
REMARK SMILES IDX 80 48 31 49 85 50 79 51 81 52 32 53 84 54 78 55 77 56 33 58
REMARK SMILES IDX 65 59 45 60 64 61 46 62 49 63 63 64 82 65 47 66 48 67 62 69
REMARK SMILES IDX 83 70 50 71 34 72 35 73 43 74 36 75 37 76 41 77 44 78 38 79
REMARK SMILES IDX 39 80 42 81 40 82 66 83 67 84 75 85 68 86 69 87 73 88 76 89
REMARK SMILES IDX 70 90 71 91 74 92 72 93 51 94 52 95 60 96 53 97 54 98 58 99
REMARK SMILES IDX 61 100 55 101 56 102 59 103 57 104
REMARK H PARENT 18 5 11 15 95 32 95 33 22 38 81 57 49 68
REMARK Flexibility Score: inf
ROOT
ATOM      1  C   UNL A   1      34.679  24.017  24.657  1.00  0.00     0.117 C 
ENDROOT
BRANCH   1   2
ATOM      2  N   UNL A   1      34.764  25.403  24.255  1.00  0.00    -0.356 N 
ATOM      3  C   UNL A   1      33.903  26.431  24.427  1.00  0.00     0.226 C 
ATOM      4  O   UNL A   1      33.884  27.286  23.537  1.00  0.00    -0.275 OA
ATOM      5  H   UNL A   1      35.590  25.638  23.775  1.00  0.00     0.163 HD
BRANCH   3   6
ATOM      6  C   UNL A   1      33.008  26.595  25.635  1.00  0.00     0.122 C 
ATOM      7  C   UNL A   1      31.508  26.823  25.554  1.00  0.00     0.123 C 
ATOM      8  C   UNL A   1      31.412  28.261  26.153  1.00  0.00     0.132 C 
ATOM      9  C   UNL A   1      33.477  27.704  26.585  1.00  0.00     0.132 C 
ATOM     10  C   UNL A   1      32.246  29.434  25.587  1.00  0.00     0.035 C 
ATOM     11  O   UNL A   1      32.255  28.011  27.323  1.00  0.00    -0.373 OA
ATOM     12  C   UNL A   1      33.693  29.014  25.854  1.00  0.00     0.035 C 
BRANCH   7  13
ATOM     13  C   UNL A   1      30.624  26.474  24.362  1.00  0.00     0.231 C 
ATOM     14  N   UNL A   1      30.141  25.228  24.044  1.00  0.00    -0.317 N 
ATOM     15  H   UNL A   1      29.414  25.234  23.381  1.00  0.00     0.170 HD
ATOM     16  O   UNL A   1      30.265  27.389  23.607  1.00  0.00    -0.274 OA
BRANCH  14  17
ATOM     17  C   UNL A   1      30.493  23.967  24.486  1.00  0.00     0.108 A 
ATOM     18  C   UNL A   1      33.454  20.102  24.978  1.00  0.00    -0.006 C 
ATOM     19  C   UNL A   1      33.606  20.968  26.249  1.00  0.00     0.009 C 
ATOM     20  C   UNL A   1      32.878  20.921  23.791  1.00  0.00     0.050 C 
ATOM     21  C   UNL A   1      32.235  21.512  26.701  1.00  0.00     0.038 C 
ATOM     22  C   UNL A   1      31.868  21.946  24.256  1.00  0.00     0.011 A 
ATOM     23  C   UNL A   1      31.546  22.228  25.570  1.00  0.00    -0.019 A 
ATOM     24  S   UNL A   1      31.047  22.982  23.184  1.00  0.00    -0.122 S 
ATOM     25  C   UNL A   1      30.535  23.271  25.683  1.00  0.00     0.077 A 
BRANCH  18  26
ATOM     26  C   UNL A   1      34.738  19.289  24.677  1.00  0.00     0.004 C 
BRANCH  26  27
ATOM     27  C   UNL A   1      34.625  17.897  24.049  1.00  0.00    -0.003 C 
ATOM     28  C   UNL A   1      34.818  16.736  25.006  1.00  0.00     0.004 C 
ENDBRANCH  26  27
ENDBRANCH  18  26
BRANCH  25  29
ATOM     29  C   UNL A   1      29.780  23.564  26.897  1.00  0.00     0.251 C 
ATOM     30  N   UNL A   1      29.059  24.717  26.906  1.00  0.00    -0.365 N 
ATOM     31  O   UNL A   1      29.732  22.809  27.870  1.00  0.00    -0.269 OA
ATOM     32  H   UNL A   1      29.093  25.325  26.132  1.00  0.00     0.159 HD
ATOM     33  H   UNL A   1      28.504  24.945  27.687  1.00  0.00     0.159 HD
ENDBRANCH  25  29
ENDBRANCH  14  17
ENDBRANCH   7  13
ENDBRANCH   3   6
ENDBRANCH   1   2
BRANCH   1  34
ATOM     34  C   UNL A   1      36.059  23.404  24.574  1.00  0.00     0.042 C 
BRANCH  34  35
ATOM     35  C   UNL A   1      36.768  23.656  25.888  1.00  0.00     0.118 C 
BRANCH  35  36
ATOM     36  N   UNL A   1      37.769  22.623  26.124  1.00  0.00    -0.352 N 
ATOM     37  C   UNL A   1      39.105  22.785  26.408  1.00  0.00     0.251 C 
ATOM     38  H   UNL A   1      37.449  21.694  26.075  1.00  0.00     0.163 HD
ATOM     39  O   UNL A   1      39.896  21.867  26.228  1.00  0.00    -0.269 OA
BRANCH  37  40
ATOM     40  C   UNL A   1      39.575  24.090  26.914  1.00  0.00     0.039 A 
ATOM     41  C   UNL A   1      40.145  25.017  26.041  1.00  0.00     0.014 A 
ATOM     42  C   UNL A   1      39.438  24.394  28.269  1.00  0.00     0.014 A 
ATOM     43  C   UNL A   1      40.531  26.269  26.528  1.00  0.00     0.010 A 
ATOM     44  C   UNL A   1      39.671  25.683  28.714  1.00  0.00     0.010 A 
ATOM     45  C   UNL A   1      40.266  26.620  27.863  1.00  0.00    -0.014 A 
BRANCH  45  46
ATOM     46  C   UNL A   1      40.669  27.927  28.434  1.00  0.00     0.031 A 
ATOM     47  C   UNL A   1      42.109  28.146  28.820  1.00  0.00     0.074 A 
ATOM     48  C   UNL A   1      39.742  28.871  28.684  1.00  0.00     0.049 A 
ATOM     49  N   UNL A   1      42.657  29.151  29.455  1.00  0.00    -0.248 NA
ATOM     50  C   UNL A   1      43.056  27.065  28.492  1.00  0.00     0.031 C 
ATOM     51  C   UNL A   1      38.310  28.749  28.408  1.00  0.00     0.029 A 
ATOM     52  N   UNL A   1      39.869  30.118  29.241  1.00  0.00    -0.354 N 
ATOM     53  C   UNL A   1      43.991  28.803  29.630  1.00  0.00     0.074 A 
ATOM     54  C   UNL A   1      44.156  27.467  29.106  1.00  0.00     0.031 C 
ATOM     55  C   UNL A   1      37.696  29.888  28.765  1.00  0.00     0.029 A 
ATOM     56  C   UNL A   1      38.680  30.799  29.338  1.00  0.00     0.049 A 
ATOM     57  H   UNL A   1      40.728  30.489  29.542  1.00  0.00     0.167 HD
ATOM     58  C   UNL A   1      44.998  29.546  30.146  1.00  0.00     0.037 A 
ATOM     59  C   UNL A   1      38.419  32.019  29.843  1.00  0.00     0.037 A 
ATOM     60  C   UNL A   1      44.832  30.893  30.616  1.00  0.00     0.049 A 
ATOM     61  C   UNL A   1      39.558  32.833  30.399  1.00  0.00     0.074 A 
ATOM     62  C   UNL A   1      45.792  31.767  31.089  1.00  0.00     0.029 A 
ATOM     63  N   UNL A   1      43.618  31.564  30.665  1.00  0.00    -0.354 N 
ATOM     64  N   UNL A   1      40.829  32.523  30.495  1.00  0.00    -0.248 NA
ATOM     65  C   UNL A   1      39.227  34.170  30.909  1.00  0.00     0.031 C 
ATOM     66  C   UNL A   1      45.153  32.949  31.472  1.00  0.00     0.029 A 
ATOM     67  C   UNL A   1      43.802  32.835  31.182  1.00  0.00     0.049 A 
ATOM     68  H   UNL A   1      42.754  31.192  30.375  1.00  0.00     0.167 HD
ATOM     69  C   UNL A   1      41.453  33.633  31.048  1.00  0.00     0.074 A 
ATOM     70  C   UNL A   1      40.421  34.631  31.249  1.00  0.00     0.031 C 
ATOM     71  C   UNL A   1      42.759  33.813  31.363  1.00  0.00     0.037 A 
BRANCH  58  72
ATOM     72  C   UNL A   1      46.361  28.919  30.215  1.00  0.00     0.064 A 
ATOM     73  C   UNL A   1      47.275  29.012  29.152  1.00  0.00     0.173 A 
ATOM     74  C   UNL A   1      46.770  28.228  31.366  1.00  0.00     0.173 A 
ATOM     75  F   UNL A   1      46.932  29.648  28.021  1.00  0.00    -0.203 F 
ATOM     76  C   UNL A   1      48.527  28.407  29.224  1.00  0.00     0.198 A 
ATOM     77  C   UNL A   1      48.036  27.656  31.450  1.00  0.00     0.198 A 
ATOM     78  F   UNL A   1      45.940  28.109  32.414  1.00  0.00    -0.203 F 
ATOM     79  F   UNL A   1      49.354  28.457  28.172  1.00  0.00    -0.200 F 
ATOM     80  C   UNL A   1      48.910  27.737  30.376  1.00  0.00     0.200 A 
ATOM     81  F   UNL A   1      48.410  27.019  32.569  1.00  0.00    -0.200 F 
ATOM     82  F   UNL A   1      50.117  27.161  30.447  1.00  0.00    -0.200 F 
ENDBRANCH  58  72
BRANCH  59  83
ATOM     83  C   UNL A   1      37.033  32.555  29.816  1.00  0.00     0.064 A 
ATOM     84  C   UNL A   1      36.554  33.254  28.698  1.00  0.00     0.173 A 
ATOM     85  C   UNL A   1      36.159  32.383  30.898  1.00  0.00     0.173 A 
ATOM     86  F   UNL A   1      37.358  33.460  27.644  1.00  0.00    -0.203 F 
ATOM     87  C   UNL A   1      35.264  33.778  28.674  1.00  0.00     0.198 A 
ATOM     88  C   UNL A   1      34.858  32.881  30.860  1.00  0.00     0.198 A 
ATOM     89  F   UNL A   1      36.563  31.714  31.989  1.00  0.00    -0.203 F 
ATOM     90  F   UNL A   1      34.850  34.483  27.612  1.00  0.00    -0.200 F 
ATOM     91  C   UNL A   1      34.415  33.586  29.752  1.00  0.00     0.200 A 
ATOM     92  F   UNL A   1      34.034  32.677  31.898  1.00  0.00    -0.200 F 
ATOM     93  F   UNL A   1      33.171  34.086  29.727  1.00  0.00    -0.200 F 
ENDBRANCH  59  83
BRANCH  71  94
ATOM     94  C   UNL A   1      43.153  35.149  31.921  1.00  0.00     0.064 A 
ATOM     95  C   UNL A   1      43.644  36.175  31.102  1.00  0.00     0.173 A 
ATOM     96  C   UNL A   1      42.991  35.419  33.290  1.00  0.00     0.173 A 
ATOM     97  F   UNL A   1      43.828  35.963  29.790  1.00  0.00    -0.203 F 
ATOM     98  C   UNL A   1      43.986  37.414  31.637  1.00  0.00     0.198 A 
ATOM     99  C   UNL A   1      43.302  36.669  33.815  1.00  0.00     0.198 A 
ATOM    100  F   UNL A   1      42.516  34.473  34.115  1.00  0.00    -0.203 F 
ATOM    101  F   UNL A   1      44.501  38.363  30.845  1.00  0.00    -0.200 F 
ATOM    102  C   UNL A   1      43.807  37.663  32.990  1.00  0.00     0.200 A 
ATOM    103  F   UNL A   1      43.111  36.912  35.118  1.00  0.00    -0.200 F 
ATOM    104  F   UNL A   1      44.128  38.859  33.500  1.00  0.00    -0.200 F 
ENDBRANCH  71  94
ENDBRANCH  45  46
ENDBRANCH  37  40
ENDBRANCH  35  36
ENDBRANCH  34  35
ENDBRANCH   1  34
TORSDOF 15
ENDMDL
