MODEL 1
REMARK VINA RESULT:     -12.8      0.000      0.000
REMARK SMILES CC(C)[C@@H](NC(=O)[C@@H]1CC[C@H]2CCCC[C@@H]2[NH2+]1)C(=O)NCCCNC(=O)c1ccc(-c2c3nc(c(-c4c(F)c(F)c(F)c(F)c4F)c4ccc([nH]4)c(-c4c(F)c(F)c(F)c(F)c4F)c4nc(c(-c5c(F)c(F)c(F)c(F)c5F)c5ccc2[nH]5)C=C4)C=C3)cc1
REMARK SMILES IDX 22 1 21 2 20 3 18 4 19 5 4 7 2 8 1 9 3 10 5 11 6 12 7 14
REMARK SMILES IDX 8 15 9 16 17 17 10 18 16 19 11 22 15 23 12 24 14 25 13 26
REMARK SMILES IDX 23 27 24 28 25 29 26 31 27 32 28 33 89 34 29 35 88 36 30 37
REMARK SMILES IDX 31 38 32 39 82 40 33 41 87 42 81 43 83 44 34 45 86 46 80 47
REMARK SMILES IDX 79 48 35 50 67 51 47 52 66 53 48 54 51 55 65 56 84 57 49 58
REMARK SMILES IDX 50 59 64 61 85 62 52 63 36 64 37 65 45 66 38 67 39 68 43 69
REMARK SMILES IDX 46 70 40 71 41 72 44 73 42 74 68 75 69 76 77 77 70 78 71 79
REMARK SMILES IDX 75 80 78 81 72 82 73 83 76 84 74 85 53 86 54 87 62 88 55 89
REMARK SMILES IDX 56 90 60 91 63 92 57 93 58 94 61 95 59 96
REMARK H PARENT 20 6 5 13 17 20 17 21 24 30 83 49 51 60
REMARK Flexibility Score: inf
ROOT
ATOM      1  C   UNL A   1      31.732  31.880  26.666  1.00  0.00     0.042 C 
ENDROOT
BRANCH   1   2
ATOM      2  C   UNL A   1      32.029  30.400  26.580  1.00  0.00     0.117 C 
BRANCH   2   3
ATOM      3  N   UNL A   1      32.684  30.077  25.326  1.00  0.00    -0.354 N 
ATOM      4  C   UNL A   1      32.210  29.381  24.257  1.00  0.00     0.242 C 
ATOM      5  O   UNL A   1      33.017  29.106  23.364  1.00  0.00    -0.273 OA
ATOM      6  H   UNL A   1      33.606  30.409  25.236  1.00  0.00     0.163 HD
BRANCH   4   7
ATOM      7  C   UNL A   1      30.783  28.801  24.273  1.00  0.00     0.174 C 
BRANCH   7   8
ATOM      8  C   UNL A   1      29.908  29.672  23.302  1.00  0.00     0.015 C 
ATOM      9  C   UNL A   1      28.681  28.928  22.764  1.00  0.00     0.010 C 
ATOM     10  C   UNL A   1      29.430  30.982  23.950  1.00  0.00     0.010 C 
ENDBRANCH   7   8
BRANCH   7  11
ATOM     11  N   UNL A   1      30.711  27.364  23.909  1.00  0.00    -0.339 N 
ATOM     12  C   UNL A   1      30.791  26.227  24.673  1.00  0.00     0.278 C 
ATOM     13  H   UNL A   1      30.580  27.196  22.948  1.00  0.00     0.164 HD
ATOM     14  O   UNL A   1      30.348  25.197  24.156  1.00  0.00    -0.268 OA
BRANCH  12  15
ATOM     15  C   UNL A   1      31.555  26.198  26.027  1.00  0.00     0.272 C 
ATOM     16  C   UNL A   1      33.059  26.537  25.926  1.00  0.00     0.076 C 
ATOM     17  N   UNL A   1      31.297  24.959  26.764  1.00  0.00    -0.333 N 
ATOM     18  C   UNL A   1      33.973  25.314  25.777  1.00  0.00     0.016 C 
ATOM     19  C   UNL A   1      32.066  23.801  26.313  1.00  0.00     0.186 C 
ATOM     20  H   UNL A   1      30.306  24.735  26.671  1.00  0.00     0.347 HD
ATOM     21  H   UNL A   1      31.584  25.134  27.727  1.00  0.00     0.347 HD
ATOM     22  C   UNL A   1      33.169  24.119  25.290  1.00  0.00     0.048 C 
ATOM     23  C   UNL A   1      31.129  22.735  25.744  1.00  0.00     0.065 C 
ATOM     24  C   UNL A   1      34.007  22.863  25.049  1.00  0.00     0.010 C 
ATOM     25  C   UNL A   1      31.904  21.466  25.393  1.00  0.00     0.006 C 
ATOM     26  C   UNL A   1      33.114  21.746  24.499  1.00  0.00     0.001 C 
ENDBRANCH  12  15
ENDBRANCH   7  11
ENDBRANCH   4   7
ENDBRANCH   2   3
ENDBRANCH   1   2
BRANCH   1  27
ATOM     27  C   UNL A   1      32.839  32.658  27.350  1.00  0.00     0.118 C 
BRANCH  27  28
ATOM     28  N   UNL A   1      32.484  34.047  27.620  1.00  0.00    -0.352 N 
ATOM     29  C   UNL A   1      33.008  34.878  28.579  1.00  0.00     0.251 C 
ATOM     30  H   UNL A   1      31.783  34.434  27.047  1.00  0.00     0.163 HD
ATOM     31  O   UNL A   1      32.531  35.985  28.800  1.00  0.00    -0.269 OA
BRANCH  29  32
ATOM     32  C   UNL A   1      34.147  34.376  29.365  1.00  0.00     0.039 A 
ATOM     33  C   UNL A   1      33.904  33.576  30.480  1.00  0.00     0.014 A 
ATOM     34  C   UNL A   1      35.445  34.583  28.890  1.00  0.00     0.014 A 
ATOM     35  C   UNL A   1      34.972  32.916  31.084  1.00  0.00     0.010 A 
ATOM     36  C   UNL A   1      36.486  33.842  29.426  1.00  0.00     0.010 A 
ATOM     37  C   UNL A   1      36.261  33.010  30.534  1.00  0.00    -0.014 A 
BRANCH  37  38
ATOM     38  C   UNL A   1      37.407  32.270  31.113  1.00  0.00     0.031 A 
ATOM     39  C   UNL A   1      37.893  32.631  32.488  1.00  0.00     0.074 A 
ATOM     40  C   UNL A   1      38.053  31.345  30.379  1.00  0.00     0.049 A 
ATOM     41  N   UNL A   1      38.933  32.184  33.143  1.00  0.00    -0.248 NA
ATOM     42  C   UNL A   1      37.132  33.666  33.208  1.00  0.00     0.031 C 
ATOM     43  C   UNL A   1      37.714  30.959  29.007  1.00  0.00     0.029 A 
ATOM     44  N   UNL A   1      39.140  30.565  30.683  1.00  0.00    -0.354 N 
ATOM     45  C   UNL A   1      38.964  32.902  34.330  1.00  0.00     0.074 A 
ATOM     46  C   UNL A   1      37.881  33.857  34.281  1.00  0.00     0.031 C 
ATOM     47  C   UNL A   1      38.556  29.996  28.600  1.00  0.00     0.029 A 
ATOM     48  C   UNL A   1      39.513  29.719  29.667  1.00  0.00     0.049 A 
ATOM     49  H   UNL A   1      39.608  30.607  31.548  1.00  0.00     0.167 HD
ATOM     50  C   UNL A   1      39.801  32.755  35.383  1.00  0.00     0.037 A 
ATOM     51  C   UNL A   1      40.516  28.822  29.610  1.00  0.00     0.037 A 
ATOM     52  C   UNL A   1      40.843  31.767  35.447  1.00  0.00     0.049 A 
ATOM     53  C   UNL A   1      41.409  28.651  30.808  1.00  0.00     0.074 A 
ATOM     54  C   UNL A   1      41.699  31.481  36.495  1.00  0.00     0.029 A 
ATOM     55  N   UNL A   1      41.162  30.895  34.416  1.00  0.00    -0.354 N 
ATOM     56  N   UNL A   1      41.385  29.285  31.955  1.00  0.00    -0.248 NA
ATOM     57  C   UNL A   1      42.464  27.633  30.708  1.00  0.00     0.031 C 
ATOM     58  C   UNL A   1      42.557  30.455  36.085  1.00  0.00     0.029 A 
ATOM     59  C   UNL A   1      42.210  30.076  34.799  1.00  0.00     0.049 A 
ATOM     60  H   UNL A   1      40.709  30.864  33.542  1.00  0.00     0.167 HD
ATOM     61  C   UNL A   1      42.400  28.729  32.721  1.00  0.00     0.074 A 
ATOM     62  C   UNL A   1      43.012  27.693  31.913  1.00  0.00     0.031 C 
ATOM     63  C   UNL A   1      42.791  29.045  33.980  1.00  0.00     0.037 A 
BRANCH  50  64
ATOM     64  C   UNL A   1      39.608  33.674  36.552  1.00  0.00     0.064 A 
ATOM     65  C   UNL A   1      38.807  33.312  37.647  1.00  0.00     0.173 A 
ATOM     66  C   UNL A   1      40.238  34.926  36.587  1.00  0.00     0.173 A 
ATOM     67  F   UNL A   1      38.168  32.133  37.654  1.00  0.00    -0.203 F 
ATOM     68  C   UNL A   1      38.621  34.182  38.717  1.00  0.00     0.198 A 
ATOM     69  C   UNL A   1      40.074  35.782  37.673  1.00  0.00     0.198 A 
ATOM     70  F   UNL A   1      41.014  35.322  35.566  1.00  0.00    -0.203 F 
ATOM     71  F   UNL A   1      37.806  33.836  39.725  1.00  0.00    -0.200 F 
ATOM     72  C   UNL A   1      39.259  35.412  38.733  1.00  0.00     0.200 A 
ATOM     73  F   UNL A   1      40.698  36.967  37.692  1.00  0.00    -0.200 F 
ATOM     74  F   UNL A   1      39.081  36.247  39.766  1.00  0.00    -0.200 F 
ENDBRANCH  50  64
BRANCH  51  75
ATOM     75  C   UNL A   1      40.702  27.990  28.393  1.00  0.00     0.064 A 
ATOM     76  C   UNL A   1      41.481  28.451  27.322  1.00  0.00     0.173 A 
ATOM     77  C   UNL A   1      40.109  26.725  28.273  1.00  0.00     0.173 A 
ATOM     78  F   UNL A   1      42.052  29.662  27.384  1.00  0.00    -0.203 F 
ATOM     79  C   UNL A   1      41.643  27.686  26.169  1.00  0.00     0.198 A 
ATOM     80  C   UNL A   1      40.293  25.951  27.129  1.00  0.00     0.198 A 
ATOM     81  F   UNL A   1      39.361  26.236  29.272  1.00  0.00    -0.203 F 
ATOM     82  F   UNL A   1      42.358  28.169  25.144  1.00  0.00    -0.200 F 
ATOM     83  C   UNL A   1      41.054  26.435  26.074  1.00  0.00     0.200 A 
ATOM     84  F   UNL A   1      39.733  24.736  27.047  1.00  0.00    -0.200 F 
ATOM     85  F   UNL A   1      41.212  25.699  24.966  1.00  0.00    -0.200 F 
ENDBRANCH  51  75
BRANCH  63  86
ATOM     86  C   UNL A   1      43.910  28.241  34.571  1.00  0.00     0.064 A 
ATOM     87  C   UNL A   1      45.243  28.669  34.490  1.00  0.00     0.173 A 
ATOM     88  C   UNL A   1      43.637  27.056  35.270  1.00  0.00     0.173 A 
ATOM     89  F   UNL A   1      45.553  29.789  33.818  1.00  0.00    -0.203 F 
ATOM     90  C   UNL A   1      46.267  27.926  35.069  1.00  0.00     0.198 A 
ATOM     91  C   UNL A   1      44.660  26.330  35.871  1.00  0.00     0.198 A 
ATOM     92  F   UNL A   1      42.378  26.611  35.381  1.00  0.00    -0.203 F 
ATOM     93  F   UNL A   1      47.539  28.330  34.945  1.00  0.00    -0.200 F 
ATOM     94  C   UNL A   1      45.974  26.762  35.766  1.00  0.00     0.200 A 
ATOM     95  F   UNL A   1      44.376  25.213  36.555  1.00  0.00    -0.200 F 
ATOM     96  F   UNL A   1      46.961  26.053  36.330  1.00  0.00    -0.200 F 
ENDBRANCH  63  86
ENDBRANCH  37  38
ENDBRANCH  29  32
ENDBRANCH  27  28
ENDBRANCH   1  27
TORSDOF 13
ENDMDL
MODEL 2
REMARK VINA RESULT:     -12.8      4.283      7.873
REMARK SMILES CC(C)[C@@H](NC(=O)[C@@H]1CC[C@H]2CCCC[C@@H]2[NH2+]1)C(=O)NCCCNC(=O)c1ccc(-c2c3nc(c(-c4c(F)c(F)c(F)c(F)c4F)c4ccc([nH]4)c(-c4c(F)c(F)c(F)c(F)c4F)c4nc(c(-c5c(F)c(F)c(F)c(F)c5F)c5ccc2[nH]5)C=C4)C=C3)cc1
REMARK SMILES IDX 22 1 21 2 20 3 18 4 19 5 4 7 2 8 1 9 3 10 5 11 6 12 7 14
REMARK SMILES IDX 8 15 9 16 17 17 10 18 16 19 11 22 15 23 12 24 14 25 13 26
REMARK SMILES IDX 23 27 24 28 25 29 26 31 27 32 28 33 89 34 29 35 88 36 30 37
REMARK SMILES IDX 31 38 32 39 82 40 33 41 87 42 81 43 83 44 34 45 86 46 80 47
REMARK SMILES IDX 79 48 35 50 67 51 47 52 66 53 48 54 51 55 65 56 84 57 49 58
REMARK SMILES IDX 50 59 64 61 85 62 52 63 36 64 37 65 45 66 38 67 39 68 43 69
REMARK SMILES IDX 46 70 40 71 41 72 44 73 42 74 68 75 69 76 77 77 70 78 71 79
REMARK SMILES IDX 75 80 78 81 72 82 73 83 76 84 74 85 53 86 54 87 62 88 55 89
REMARK SMILES IDX 56 90 60 91 63 92 57 93 58 94 61 95 59 96
REMARK H PARENT 20 6 5 13 17 20 17 21 24 30 83 49 51 60
REMARK Flexibility Score: inf
ROOT
ATOM      1  C   UNL A   1      33.676  33.561  28.327  1.00  0.00     0.042 C 
ENDROOT
BRANCH   1   2
ATOM      2  C   UNL A   1      34.000  34.677  29.293  1.00  0.00     0.117 C 
BRANCH   2   3
ATOM      3  N   UNL A   1      32.878  34.941  30.174  1.00  0.00    -0.354 N 
ATOM      4  C   UNL A   1      32.875  35.322  31.481  1.00  0.00     0.242 C 
ATOM      5  O   UNL A   1      31.784  35.335  32.059  1.00  0.00    -0.273 OA
ATOM      6  H   UNL A   1      31.988  34.828  29.767  1.00  0.00     0.163 HD
BRANCH   4   7
ATOM      7  C   UNL A   1      34.201  35.528  32.238  1.00  0.00     0.174 C 
BRANCH   7   8
ATOM      8  C   UNL A   1      34.237  37.018  32.730  1.00  0.00     0.015 C 
ATOM      9  C   UNL A   1      33.534  37.987  31.772  1.00  0.00     0.010 C 
ATOM     10  C   UNL A   1      33.624  37.196  34.128  1.00  0.00     0.010 C 
ENDBRANCH   7   8
BRANCH   7  11
ATOM     11  N   UNL A   1      34.403  34.589  33.369  1.00  0.00    -0.339 N 
ATOM     12  C   UNL A   1      35.256  33.527  33.528  1.00  0.00     0.278 C 
ATOM     13  H   UNL A   1      33.821  34.759  34.145  1.00  0.00     0.164 HD
ATOM     14  O   UNL A   1      35.449  33.158  34.691  1.00  0.00    -0.268 OA
BRANCH  12  15
ATOM     15  C   UNL A   1      35.805  32.722  32.315  1.00  0.00     0.272 C 
ATOM     16  C   UNL A   1      36.102  31.235  32.610  1.00  0.00     0.076 C 
ATOM     17  N   UNL A   1      36.926  33.413  31.674  1.00  0.00    -0.333 N 
ATOM     18  C   UNL A   1      37.553  30.950  33.017  1.00  0.00     0.016 C 
ATOM     19  C   UNL A   1      38.213  33.259  32.350  1.00  0.00     0.186 C 
ATOM     20  H   UNL A   1      36.706  34.408  31.638  1.00  0.00     0.347 HD
ATOM     21  H   UNL A   1      37.035  32.988  30.753  1.00  0.00     0.347 HD
ATOM     22  C   UNL A   1      38.222  32.231  33.492  1.00  0.00     0.048 C 
ATOM     23  C   UNL A   1      38.699  34.612  32.872  1.00  0.00     0.065 C 
ATOM     24  C   UNL A   1      39.658  32.037  33.981  1.00  0.00     0.010 C 
ATOM     25  C   UNL A   1      40.103  34.491  33.461  1.00  0.00     0.006 C 
ATOM     26  C   UNL A   1      40.211  33.369  34.496  1.00  0.00     0.001 C 
ENDBRANCH  12  15
ENDBRANCH   7  11
ENDBRANCH   4   7
ENDBRANCH   2   3
ENDBRANCH   1   2
BRANCH   1  27
ATOM     27  C   UNL A   1      34.647  32.400  28.429  1.00  0.00     0.118 C 
BRANCH  27  28
ATOM     28  N   UNL A   1      34.047  31.117  28.081  1.00  0.00    -0.352 N 
ATOM     29  C   UNL A   1      34.672  29.898  27.975  1.00  0.00     0.251 C 
ATOM     30  H   UNL A   1      33.080  31.126  27.900  1.00  0.00     0.163 HD
ATOM     31  O   UNL A   1      34.087  28.913  27.541  1.00  0.00    -0.269 OA
BRANCH  29  32
ATOM     32  C   UNL A   1      36.089  29.824  28.368  1.00  0.00     0.039 A 
ATOM     33  C   UNL A   1      36.420  29.329  29.628  1.00  0.00     0.014 A 
ATOM     34  C   UNL A   1      37.074  30.106  27.418  1.00  0.00     0.014 A 
ATOM     35  C   UNL A   1      37.754  29.045  29.913  1.00  0.00     0.010 A 
ATOM     36  C   UNL A   1      38.382  29.722  27.667  1.00  0.00     0.010 A 
ATOM     37  C   UNL A   1      38.735  29.198  28.919  1.00  0.00    -0.014 A 
BRANCH  37  38
ATOM     38  C   UNL A   1      40.152  28.843  29.169  1.00  0.00     0.031 A 
ATOM     39  C   UNL A   1      41.037  29.821  29.890  1.00  0.00     0.074 A 
ATOM     40  C   UNL A   1      40.656  27.694  28.681  1.00  0.00     0.049 A 
ATOM     41  N   UNL A   1      42.322  29.758  30.125  1.00  0.00    -0.248 NA
ATOM     42  C   UNL A   1      40.399  31.057  30.372  1.00  0.00     0.031 C 
ATOM     43  C   UNL A   1      39.910  26.698  27.909  1.00  0.00     0.029 A 
ATOM     44  N   UNL A   1      41.923  27.173  28.756  1.00  0.00    -0.354 N 
ATOM     45  C   UNL A   1      42.645  30.953  30.753  1.00  0.00     0.074 A 
ATOM     46  C   UNL A   1      41.440  31.749  30.805  1.00  0.00     0.031 C 
ATOM     47  C   UNL A   1      40.725  25.675  27.607  1.00  0.00     0.029 A 
ATOM     48  C   UNL A   1      42.056  25.955  28.135  1.00  0.00     0.049 A 
ATOM     49  H   UNL A   1      42.667  27.628  29.213  1.00  0.00     0.167 HD
ATOM     50  C   UNL A   1      43.834  31.339  31.270  1.00  0.00     0.037 A 
ATOM     51  C   UNL A   1      43.134  25.158  28.011  1.00  0.00     0.037 A 
ATOM     52  C   UNL A   1      45.016  30.520  31.261  1.00  0.00     0.049 A 
ATOM     53  C   UNL A   1      44.436  25.593  28.628  1.00  0.00     0.074 A 
ATOM     54  C   UNL A   1      46.251  30.781  31.825  1.00  0.00     0.029 A 
ATOM     55  N   UNL A   1      45.100  29.270  30.664  1.00  0.00    -0.354 N 
ATOM     56  N   UNL A   1      44.714  26.693  29.283  1.00  0.00    -0.248 NA
ATOM     57  C   UNL A   1      45.571  24.670  28.496  1.00  0.00     0.031 C 
ATOM     58  C   UNL A   1      47.094  29.701  31.539  1.00  0.00     0.029 A 
ATOM     59  C   UNL A   1      46.372  28.752  30.835  1.00  0.00     0.049 A 
ATOM     60  H   UNL A   1      44.364  28.820  30.189  1.00  0.00     0.167 HD
ATOM     61  C   UNL A   1      46.044  26.586  29.664  1.00  0.00     0.074 A 
ATOM     62  C   UNL A   1      46.514  25.304  29.179  1.00  0.00     0.031 C 
ATOM     63  C   UNL A   1      46.809  27.468  30.353  1.00  0.00     0.037 A 
BRANCH  50  64
ATOM     64  C   UNL A   1      43.904  32.697  31.901  1.00  0.00     0.064 A 
ATOM     65  C   UNL A   1      43.672  32.883  33.273  1.00  0.00     0.173 A 
ATOM     66  C   UNL A   1      44.220  33.826  31.131  1.00  0.00     0.173 A 
ATOM     67  F   UNL A   1      43.349  31.839  34.050  1.00  0.00    -0.203 F 
ATOM     68  C   UNL A   1      43.721  34.151  33.843  1.00  0.00     0.198 A 
ATOM     69  C   UNL A   1      44.298  35.090  31.710  1.00  0.00     0.198 A 
ATOM     70  F   UNL A   1      44.450  33.704  29.815  1.00  0.00    -0.203 F 
ATOM     71  F   UNL A   1      43.440  34.311  35.144  1.00  0.00    -0.200 F 
ATOM     72  C   UNL A   1      44.041  35.253  33.063  1.00  0.00     0.200 A 
ATOM     73  F   UNL A   1      44.616  36.152  30.958  1.00  0.00    -0.200 F 
ATOM     74  F   UNL A   1      44.091  36.473  33.614  1.00  0.00    -0.200 F 
ENDBRANCH  50  64
BRANCH  51  75
ATOM     75  C   UNL A   1      43.019  23.854  27.309  1.00  0.00     0.064 A 
ATOM     76  C   UNL A   1      43.392  23.728  25.964  1.00  0.00     0.173 A 
ATOM     77  C   UNL A   1      42.537  22.710  27.962  1.00  0.00     0.173 A 
ATOM     78  F   UNL A   1      43.842  24.798  25.293  1.00  0.00    -0.203 F 
ATOM     79  C   UNL A   1      43.268  22.514  25.292  1.00  0.00     0.198 A 
ATOM     80  C   UNL A   1      42.436  21.491  27.296  1.00  0.00     0.198 A 
ATOM     81  F   UNL A   1      42.174  22.776  29.252  1.00  0.00    -0.203 F 
ATOM     82  F   UNL A   1      43.592  22.432  23.995  1.00  0.00    -0.200 F 
ATOM     83  C   UNL A   1      42.795  21.394  25.960  1.00  0.00     0.200 A 
ATOM     84  F   UNL A   1      41.992  20.407  27.949  1.00  0.00    -0.200 F 
ATOM     85  F   UNL A   1      42.678  20.227  25.315  1.00  0.00    -0.200 F 
ENDBRANCH  51  75
BRANCH  63  86
ATOM     86  C   UNL A   1      48.222  27.063  30.650  1.00  0.00     0.064 A 
ATOM     87  C   UNL A   1      48.535  26.245  31.745  1.00  0.00     0.173 A 
ATOM     88  C   UNL A   1      49.265  27.459  29.800  1.00  0.00     0.173 A 
ATOM     89  F   UNL A   1      47.572  25.854  32.593  1.00  0.00    -0.203 F 
ATOM     90  C   UNL A   1      49.849  25.855  31.990  1.00  0.00     0.198 A 
ATOM     91  C   UNL A   1      50.572  27.045  30.033  1.00  0.00     0.198 A 
ATOM     92  F   UNL A   1      49.013  28.236  28.737  1.00  0.00    -0.203 F 
ATOM     93  F   UNL A   1      50.134  25.106  33.065  1.00  0.00    -0.200 F 
ATOM     94  C   UNL A   1      50.864  26.248  31.130  1.00  0.00     0.200 A 
ATOM     95  F   UNL A   1      51.550  27.414  29.195  1.00  0.00    -0.200 F 
ATOM     96  F   UNL A   1      52.126  25.864  31.363  1.00  0.00    -0.200 F 
ENDBRANCH  63  86
ENDBRANCH  37  38
ENDBRANCH  29  32
ENDBRANCH  27  28
ENDBRANCH   1  27
TORSDOF 13
ENDMDL
MODEL 3
REMARK VINA RESULT:     -12.8      0.109      1.596
REMARK SMILES CC(C)[C@@H](NC(=O)[C@@H]1CC[C@H]2CCCC[C@@H]2[NH2+]1)C(=O)NCCCNC(=O)c1ccc(-c2c3nc(c(-c4c(F)c(F)c(F)c(F)c4F)c4ccc([nH]4)c(-c4c(F)c(F)c(F)c(F)c4F)c4nc(c(-c5c(F)c(F)c(F)c(F)c5F)c5ccc2[nH]5)C=C4)C=C3)cc1
REMARK SMILES IDX 22 1 21 2 20 3 18 4 19 5 4 7 2 8 1 9 3 10 5 11 6 12 7 14
REMARK SMILES IDX 8 15 9 16 17 17 10 18 16 19 11 22 15 23 12 24 14 25 13 26
REMARK SMILES IDX 23 27 24 28 25 29 26 31 27 32 28 33 89 34 29 35 88 36 30 37
REMARK SMILES IDX 31 38 32 39 82 40 33 41 87 42 81 43 83 44 34 45 86 46 80 47
REMARK SMILES IDX 79 48 35 50 67 51 47 52 66 53 48 54 51 55 65 56 84 57 49 58
REMARK SMILES IDX 50 59 64 61 85 62 52 63 36 64 37 65 45 66 38 67 39 68 43 69
REMARK SMILES IDX 46 70 40 71 41 72 44 73 42 74 68 75 69 76 77 77 70 78 71 79
REMARK SMILES IDX 75 80 78 81 72 82 73 83 76 84 74 85 53 86 54 87 62 88 55 89
REMARK SMILES IDX 56 90 60 91 63 92 57 93 58 94 61 95 59 96
REMARK H PARENT 20 6 5 13 17 20 17 21 24 30 83 49 51 60
REMARK Flexibility Score: inf
ROOT
ATOM      1  C   UNL A   1      31.741  31.773  26.688  1.00  0.00     0.042 C 
ENDROOT
BRANCH   1   2
ATOM      2  C   UNL A   1      32.063  30.301  26.564  1.00  0.00     0.117 C 
BRANCH   2   3
ATOM      3  N   UNL A   1      32.685  30.014  25.285  1.00  0.00    -0.354 N 
ATOM      4  C   UNL A   1      32.183  29.347  24.210  1.00  0.00     0.242 C 
ATOM      5  O   UNL A   1      32.968  29.098  23.289  1.00  0.00    -0.273 OA
ATOM      6  H   UNL A   1      33.604  30.350  25.180  1.00  0.00     0.163 HD
BRANCH   4   7
ATOM      7  C   UNL A   1      30.758  28.764  24.247  1.00  0.00     0.174 C 
BRANCH   7   8
ATOM      8  C   UNL A   1      29.867  29.635  23.292  1.00  0.00     0.015 C 
ATOM      9  C   UNL A   1      28.613  28.902  22.802  1.00  0.00     0.010 C 
ATOM     10  C   UNL A   1      29.428  30.960  23.935  1.00  0.00     0.010 C 
ENDBRANCH   7   8
BRANCH   7  11
ATOM     11  N   UNL A   1      30.683  27.327  23.882  1.00  0.00    -0.339 N 
ATOM     12  C   UNL A   1      30.759  26.190  24.646  1.00  0.00     0.278 C 
ATOM     13  H   UNL A   1      30.555  27.160  22.921  1.00  0.00     0.164 HD
ATOM     14  O   UNL A   1      30.314  25.161  24.128  1.00  0.00    -0.268 OA
BRANCH  12  15
ATOM     15  C   UNL A   1      31.519  26.158  26.002  1.00  0.00     0.272 C 
ATOM     16  C   UNL A   1      33.025  26.493  25.906  1.00  0.00     0.076 C 
ATOM     17  N   UNL A   1      31.256  24.919  26.738  1.00  0.00    -0.333 N 
ATOM     18  C   UNL A   1      33.936  25.269  25.758  1.00  0.00     0.016 C 
ATOM     19  C   UNL A   1      32.024  23.760  26.288  1.00  0.00     0.186 C 
ATOM     20  H   UNL A   1      30.265  24.698  26.642  1.00  0.00     0.347 HD
ATOM     21  H   UNL A   1      31.541  25.093  27.702  1.00  0.00     0.347 HD
ATOM     22  C   UNL A   1      33.130  24.076  25.268  1.00  0.00     0.048 C 
ATOM     23  C   UNL A   1      31.085  22.696  25.716  1.00  0.00     0.065 C 
ATOM     24  C   UNL A   1      33.966  22.817  25.028  1.00  0.00     0.010 C 
ATOM     25  C   UNL A   1      31.858  21.425  25.366  1.00  0.00     0.006 C 
ATOM     26  C   UNL A   1      33.071  21.703  24.476  1.00  0.00     0.001 C 
ENDBRANCH  12  15
ENDBRANCH   7  11
ENDBRANCH   4   7
ENDBRANCH   2   3
ENDBRANCH   1   2
BRANCH   1  27
ATOM     27  C   UNL A   1      32.863  32.563  27.333  1.00  0.00     0.118 C 
BRANCH  27  28
ATOM     28  N   UNL A   1      32.510  33.955  27.594  1.00  0.00    -0.352 N 
ATOM     29  C   UNL A   1      33.039  34.792  28.545  1.00  0.00     0.251 C 
ATOM     30  H   UNL A   1      31.808  34.338  27.020  1.00  0.00     0.163 HD
ATOM     31  O   UNL A   1      32.564  35.901  28.759  1.00  0.00    -0.269 OA
BRANCH  29  32
ATOM     32  C   UNL A   1      34.180  34.294  29.331  1.00  0.00     0.039 A 
ATOM     33  C   UNL A   1      33.940  33.490  30.445  1.00  0.00     0.014 A 
ATOM     34  C   UNL A   1      35.477  34.509  28.858  1.00  0.00     0.014 A 
ATOM     35  C   UNL A   1      35.011  32.834  31.048  1.00  0.00     0.010 A 
ATOM     36  C   UNL A   1      36.521  33.772  29.393  1.00  0.00     0.010 A 
ATOM     37  C   UNL A   1      36.300  32.937  30.499  1.00  0.00    -0.014 A 
BRANCH  37  38
ATOM     38  C   UNL A   1      37.449  32.202  31.077  1.00  0.00     0.031 A 
ATOM     39  C   UNL A   1      37.932  32.562  32.453  1.00  0.00     0.074 A 
ATOM     40  C   UNL A   1      38.100  31.281  30.342  1.00  0.00     0.049 A 
ATOM     41  N   UNL A   1      38.975  32.119  33.108  1.00  0.00    -0.248 NA
ATOM     42  C   UNL A   1      37.165  33.592  33.175  1.00  0.00     0.031 C 
ATOM     43  C   UNL A   1      37.764  30.896  28.969  1.00  0.00     0.029 A 
ATOM     44  N   UNL A   1      39.191  30.506  30.645  1.00  0.00    -0.354 N 
ATOM     45  C   UNL A   1      39.001  32.835  34.297  1.00  0.00     0.074 A 
ATOM     46  C   UNL A   1      37.913  33.785  34.248  1.00  0.00     0.031 C 
ATOM     47  C   UNL A   1      38.612  29.938  28.561  1.00  0.00     0.029 A 
ATOM     48  C   UNL A   1      39.569  29.663  29.628  1.00  0.00     0.049 A 
ATOM     49  H   UNL A   1      39.658  30.548  31.511  1.00  0.00     0.167 HD
ATOM     50  C   UNL A   1      39.838  32.691  35.349  1.00  0.00     0.037 A 
ATOM     51  C   UNL A   1      40.576  28.772  29.569  1.00  0.00     0.037 A 
ATOM     52  C   UNL A   1      40.885  31.708  35.413  1.00  0.00     0.049 A 
ATOM     53  C   UNL A   1      41.470  28.603  30.768  1.00  0.00     0.074 A 
ATOM     54  C   UNL A   1      41.741  31.424  36.461  1.00  0.00     0.029 A 
ATOM     55  N   UNL A   1      41.208  30.839  34.380  1.00  0.00    -0.354 N 
ATOM     56  N   UNL A   1      41.442  29.235  31.916  1.00  0.00    -0.248 NA
ATOM     57  C   UNL A   1      42.529  27.591  30.666  1.00  0.00     0.031 C 
ATOM     58  C   UNL A   1      42.605  30.403  36.050  1.00  0.00     0.029 A 
ATOM     59  C   UNL A   1      42.260  30.025  34.762  1.00  0.00     0.049 A 
ATOM     60  H   UNL A   1      40.757  30.807  33.505  1.00  0.00     0.167 HD
ATOM     61  C   UNL A   1      42.459  28.682  32.682  1.00  0.00     0.074 A 
ATOM     62  C   UNL A   1      43.076  27.651  31.873  1.00  0.00     0.031 C 
ATOM     63  C   UNL A   1      42.848  28.998  33.941  1.00  0.00     0.037 A 
BRANCH  50  64
ATOM     64  C   UNL A   1      39.639  33.606  36.520  1.00  0.00     0.064 A 
ATOM     65  C   UNL A   1      38.830  33.243  37.608  1.00  0.00     0.173 A 
ATOM     66  C   UNL A   1      40.273  34.857  36.563  1.00  0.00     0.173 A 
ATOM     67  F   UNL A   1      38.187  32.066  37.608  1.00  0.00    -0.203 F 
ATOM     68  C   UNL A   1      38.639  34.110  38.680  1.00  0.00     0.198 A 
ATOM     69  C   UNL A   1      40.104  35.709  37.651  1.00  0.00     0.198 A 
ATOM     70  F   UNL A   1      41.057  35.253  35.549  1.00  0.00    -0.203 F 
ATOM     71  F   UNL A   1      37.816  33.764  39.681  1.00  0.00    -0.200 F 
ATOM     72  C   UNL A   1      39.280  35.339  38.704  1.00  0.00     0.200 A 
ATOM     73  F   UNL A   1      40.731  36.892  37.678  1.00  0.00    -0.200 F 
ATOM     74  F   UNL A   1      39.097  36.171  39.738  1.00  0.00    -0.200 F 
ENDBRANCH  50  64
BRANCH  51  75
ATOM     75  C   UNL A   1      40.767  27.943  28.351  1.00  0.00     0.064 A 
ATOM     76  C   UNL A   1      40.166  26.681  28.243  1.00  0.00     0.173 A 
ATOM     77  C   UNL A   1      41.548  28.389  27.276  1.00  0.00     0.173 A 
ATOM     78  F   UNL A   1      39.425  26.205  29.253  1.00  0.00    -0.203 F 
ATOM     79  C   UNL A   1      40.356  25.888  27.113  1.00  0.00     0.198 A 
ATOM     80  C   UNL A   1      41.718  27.605  26.136  1.00  0.00     0.198 A 
ATOM     81  F   UNL A   1      42.138  29.592  27.327  1.00  0.00    -0.203 F 
ATOM     82  F   UNL A   1      39.805  24.668  27.054  1.00  0.00    -0.200 F 
ATOM     83  C   UNL A   1      41.128  26.352  26.058  1.00  0.00     0.200 A 
ATOM     84  F   UNL A   1      42.452  28.063  25.113  1.00  0.00    -0.200 F 
ATOM     85  F   UNL A   1      41.309  25.590  24.972  1.00  0.00    -0.200 F 
ENDBRANCH  51  75
BRANCH  63  86
ATOM     86  C   UNL A   1      43.971  28.199  34.532  1.00  0.00     0.064 A 
ATOM     87  C   UNL A   1      43.740  26.978  35.180  1.00  0.00     0.173 A 
ATOM     88  C   UNL A   1      45.296  28.640  34.402  1.00  0.00     0.173 A 
ATOM     89  F   UNL A   1      42.487  26.525  35.341  1.00  0.00    -0.203 F 
ATOM     90  C   UNL A   1      44.797  26.235  35.698  1.00  0.00     0.198 A 
ATOM     91  C   UNL A   1      46.352  27.881  34.897  1.00  0.00     0.198 A 
ATOM     92  F   UNL A   1      45.567  29.798  33.784  1.00  0.00    -0.203 F 
ATOM     93  F   UNL A   1      44.553  25.090  36.351  1.00  0.00    -0.200 F 
ATOM     94  C   UNL A   1      46.102  26.683  35.549  1.00  0.00     0.200 A 
ATOM     95  F   UNL A   1      47.613  28.308  34.742  1.00  0.00    -0.200 F 
ATOM     96  F   UNL A   1      47.118  25.962  36.040  1.00  0.00    -0.200 F 
ENDBRANCH  63  86
ENDBRANCH  37  38
ENDBRANCH  29  32
ENDBRANCH  27  28
ENDBRANCH   1  27
TORSDOF 13
ENDMDL
