MODEL 1
REMARK VINA RESULT:     -13.8      0.000      0.000
REMARK SMILES C[C@@H](Oc1ccc(/C=C2\C(=O)[NH+]=C(NCCCNC(=O)c3ccc(-c4c5nc(c(-c6c(F)c(F)c(F)c(F)c6F)c6ccc([nH]6)c(-c6c(F)c(F)c(F)c(F)c6F)c6nc(c(-c7c(F)c(F)c(F)c(F)c7F)c7ccc4[nH]7)C=C6)C=C5)cc3)N(c3ccc4c(c3)OCO4)C2=O)cc1)C(=O)[O-]
REMARK SMILES IDX 15 1 14 2 8 3 9 4 10 5 94 6 11 7 12 8 84 9 95 10 13 11 7 14
REMARK SMILES IDX 4 15 5 16 97 17 6 18 96 19 3 20 2 21 1 22 98 23 99 24 100 25
REMARK SMILES IDX 85 26 86 27 90 28 87 29 89 30 88 31 91 32 93 33 92 34 16 35
REMARK SMILES IDX 17 36 18 37 19 38 20 40 21 41 22 42 83 43 23 44 82 45 24 46
REMARK SMILES IDX 25 47 26 48 76 49 27 50 81 51 75 52 77 53 28 54 80 55 74 56
REMARK SMILES IDX 73 57 29 59 61 60 41 61 60 62 42 63 45 64 59 65 78 66 43 67
REMARK SMILES IDX 44 68 58 70 79 71 46 72 30 73 31 74 39 75 32 76 33 77 37 78
REMARK SMILES IDX 40 79 34 80 35 81 38 82 36 83 62 84 63 85 71 86 64 87 65 88
REMARK SMILES IDX 69 89 72 90 66 91 67 92 70 93 68 94 47 95 48 96 56 97 49 98
REMARK SMILES IDX 50 99 54 100 57 101 51 102 52 103 55 104 53 105
REMARK H PARENT 12 12 14 13 18 39 77 58 45 69
REMARK Flexibility Score: inf
ROOT
ATOM      1  C   UNL A   1      37.048  20.905  24.623  1.00  0.00     0.199 C 
ENDROOT
BRANCH   1   2
ATOM      2  N   UNL A   1      35.658  20.501  24.719  1.00  0.00    -0.277 N 
ATOM      3  C   UNL A   1      31.688  24.019  25.116  1.00  0.00     0.031 C 
ATOM      4  C   UNL A   1      32.610  23.100  25.461  1.00  0.00     0.138 C 
ATOM      5  C   UNL A   1      33.941  23.344  26.042  1.00  0.00     0.321 C 
ATOM      6  C   UNL A   1      32.245  21.688  25.233  1.00  0.00     0.328 C 
ATOM      7  O   UNL A   1      34.150  24.238  26.847  1.00  0.00    -0.250 OA
ATOM      8  N   UNL A   1      34.920  22.500  25.597  1.00  0.00    -0.210 N 
ATOM      9  N   UNL A   1      33.337  20.839  25.105  1.00  0.00    -0.162 N 
ATOM     10  O   UNL A   1      31.068  21.339  25.143  1.00  0.00    -0.249 OA
ATOM     11  C   UNL A   1      34.642  21.309  25.166  1.00  0.00     0.366 C 
ATOM     12  H   UNL A   1      35.856  22.802  25.604  1.00  0.00     0.270 HD
ATOM     13  H   UNL A   1      35.427  19.585  24.445  1.00  0.00     0.260 HD
BRANCH   3  14
ATOM     14  C   UNL A   1      31.721  25.488  25.150  1.00  0.00    -0.024 A 
ATOM     15  C   UNL A   1      32.024  28.287  25.145  1.00  0.00     0.120 A 
ATOM     16  C   UNL A   1      31.301  27.662  26.158  1.00  0.00     0.047 A 
ATOM     17  C   UNL A   1      32.638  27.518  24.164  1.00  0.00     0.047 A 
ATOM     18  C   UNL A   1      31.161  26.268  26.167  1.00  0.00     0.012 A 
ATOM     19  C   UNL A   1      32.476  26.133  24.159  1.00  0.00     0.012 A 
BRANCH  15  20
ATOM     20  O   UNL A   1      32.227  29.633  25.242  1.00  0.00    -0.485 OA
BRANCH  20  21
ATOM     21  C   UNL A   1      32.005  30.174  26.552  1.00  0.00     0.216 C 
ATOM     22  C   UNL A   1      31.401  31.575  26.501  1.00  0.00     0.059 C 
BRANCH  21  23
ATOM     23  C   UNL A   1      33.355  30.283  27.253  1.00  0.00     0.082 C 
ATOM     24  O   UNL A   1      34.084  29.347  27.552  1.00  0.00    -0.546 OA
ATOM     25  O   UNL A   1      33.686  31.538  27.622  1.00  0.00    -0.546 OA
ENDBRANCH  21  23
ENDBRANCH  20  21
ENDBRANCH  15  20
ENDBRANCH   3  14
BRANCH   9  26
ATOM     26  C   UNL A   1      33.042  19.489  24.783  1.00  0.00     0.115 A 
ATOM     27  C   UNL A   1      33.067  19.068  23.436  1.00  0.00     0.048 A 
ATOM     28  C   UNL A   1      32.903  18.563  25.825  1.00  0.00     0.094 A 
ATOM     29  C   UNL A   1      33.012  17.704  23.126  1.00  0.00     0.054 A 
ATOM     30  C   UNL A   1      32.874  17.233  25.486  1.00  0.00     0.169 A 
ATOM     31  C   UNL A   1      32.945  16.812  24.178  1.00  0.00     0.166 A 
ATOM     32  O   UNL A   1      32.850  16.195  26.365  1.00  0.00    -0.453 OA
ATOM     33  O   UNL A   1      32.996  15.456  24.083  1.00  0.00    -0.454 OA
ATOM     34  C   UNL A   1      33.162  15.106  25.475  1.00  0.00     0.468 C 
ENDBRANCH   9  26
ENDBRANCH   1   2
BRANCH   1  35
ATOM     35  C   UNL A   1      37.970  19.755  25.003  1.00  0.00     0.059 C 
BRANCH  35  36
ATOM     36  C   UNL A   1      39.127  20.164  25.909  1.00  0.00     0.119 C 
BRANCH  36  37
ATOM     37  N   UNL A   1      40.186  19.164  25.972  1.00  0.00    -0.352 N 
ATOM     38  C   UNL A   1      41.542  19.313  26.119  1.00  0.00     0.251 C 
ATOM     39  H   UNL A   1      39.879  18.232  25.897  1.00  0.00     0.163 HD
ATOM     40  O   UNL A   1      42.276  18.338  25.982  1.00  0.00    -0.269 OA
BRANCH  38  41
ATOM     41  C   UNL A   1      42.129  20.636  26.421  1.00  0.00     0.039 A 
ATOM     42  C   UNL A   1      42.570  21.430  25.359  1.00  0.00     0.014 A 
ATOM     43  C   UNL A   1      42.272  21.087  27.735  1.00  0.00     0.014 A 
ATOM     44  C   UNL A   1      43.092  22.701  25.611  1.00  0.00     0.010 A 
ATOM     45  C   UNL A   1      42.716  22.383  27.980  1.00  0.00     0.010 A 
ATOM     46  C   UNL A   1      43.133  23.204  26.922  1.00  0.00    -0.014 A 
BRANCH  46  47
ATOM     47  C   UNL A   1      43.599  24.587  27.199  1.00  0.00     0.031 A 
ATOM     48  C   UNL A   1      42.644  25.620  27.732  1.00  0.00     0.074 A 
ATOM     49  C   UNL A   1      44.871  24.930  26.912  1.00  0.00     0.049 A 
ATOM     50  N   UNL A   1      42.848  26.891  27.974  1.00  0.00    -0.248 NA
ATOM     51  C   UNL A   1      41.271  25.171  28.006  1.00  0.00     0.031 C 
ATOM     52  C   UNL A   1      45.881  24.033  26.349  1.00  0.00     0.029 A 
ATOM     53  N   UNL A   1      45.527  26.128  27.044  1.00  0.00    -0.354 N 
ATOM     54  C   UNL A   1      41.631  27.392  28.414  1.00  0.00     0.074 A 
ATOM     55  C   UNL A   1      40.679  26.304  28.354  1.00  0.00     0.031 C 
ATOM     56  C   UNL A   1      47.035  24.704  26.206  1.00  0.00     0.029 A 
ATOM     57  C   UNL A   1      46.835  26.088  26.625  1.00  0.00     0.049 A 
ATOM     58  H   UNL A   1      45.102  26.940  27.404  1.00  0.00     0.167 HD
ATOM     59  C   UNL A   1      41.338  28.641  28.851  1.00  0.00     0.037 A 
ATOM     60  C   UNL A   1      47.766  27.060  26.573  1.00  0.00     0.037 A 
ATOM     61  C   UNL A   1      42.292  29.717  28.926  1.00  0.00     0.049 A 
ATOM     62  C   UNL A   1      47.410  28.443  27.048  1.00  0.00     0.074 A 
ATOM     63  C   UNL A   1      42.108  31.001  29.408  1.00  0.00     0.029 A 
ATOM     64  N   UNL A   1      43.612  29.635  28.503  1.00  0.00    -0.354 N 
ATOM     65  N   UNL A   1      46.274  28.888  27.528  1.00  0.00    -0.248 NA
ATOM     66  C   UNL A   1      48.469  29.459  26.979  1.00  0.00     0.031 C 
ATOM     67  C   UNL A   1      43.299  31.713  29.223  1.00  0.00     0.029 A 
ATOM     68  C   UNL A   1      44.245  30.855  28.686  1.00  0.00     0.049 A 
ATOM     69  H   UNL A   1      44.035  28.829  28.127  1.00  0.00     0.167 HD
ATOM     70  C   UNL A   1      46.491  30.222  27.847  1.00  0.00     0.074 A 
ATOM     71  C   UNL A   1      47.872  30.510  27.521  1.00  0.00     0.031 C 
ATOM     72  C   UNL A   1      45.623  31.127  28.365  1.00  0.00     0.037 A 
BRANCH  59  73
ATOM     73  C   UNL A   1      39.925  28.915  29.282  1.00  0.00     0.064 A 
ATOM     74  C   UNL A   1      38.964  29.412  28.388  1.00  0.00     0.173 A 
ATOM     75  C   UNL A   1      39.515  28.641  30.595  1.00  0.00     0.173 A 
ATOM     76  F   UNL A   1      39.305  29.702  27.122  1.00  0.00    -0.203 F 
ATOM     77  C   UNL A   1      37.656  29.653  28.800  1.00  0.00     0.198 A 
ATOM     78  C   UNL A   1      38.197  28.850  30.995  1.00  0.00     0.198 A 
ATOM     79  F   UNL A   1      40.390  28.158  31.491  1.00  0.00    -0.203 F 
ATOM     80  F   UNL A   1      36.771  30.178  27.942  1.00  0.00    -0.200 F 
ATOM     81  C   UNL A   1      37.272  29.364  30.100  1.00  0.00     0.200 A 
ATOM     82  F   UNL A   1      37.824  28.557  32.248  1.00  0.00    -0.200 F 
ATOM     83  F   UNL A   1      36.010  29.589  30.493  1.00  0.00    -0.200 F 
ENDBRANCH  59  73
BRANCH  60  84
ATOM     84  C   UNL A   1      49.132  26.757  26.069  1.00  0.00     0.064 A 
ATOM     85  C   UNL A   1      49.476  26.998  24.731  1.00  0.00     0.173 A 
ATOM     86  C   UNL A   1      50.116  26.212  26.907  1.00  0.00     0.173 A 
ATOM     87  F   UNL A   1      48.563  27.500  23.886  1.00  0.00    -0.203 F 
ATOM     88  C   UNL A   1      50.742  26.682  24.245  1.00  0.00     0.198 A 
ATOM     89  C   UNL A   1      51.392  25.927  26.427  1.00  0.00     0.198 A 
ATOM     90  F   UNL A   1      49.840  25.967  28.196  1.00  0.00    -0.203 F 
ATOM     91  F   UNL A   1      51.027  26.875  22.950  1.00  0.00    -0.200 F 
ATOM     92  C   UNL A   1      51.701  26.153  25.094  1.00  0.00     0.200 A 
ATOM     93  F   UNL A   1      52.321  25.430  27.255  1.00  0.00    -0.200 F 
ATOM     94  F   UNL A   1      52.921  25.852  24.627  1.00  0.00    -0.200 F 
ENDBRANCH  60  84
BRANCH  72  95
ATOM     95  C   UNL A   1      46.151  32.503  28.651  1.00  0.00     0.064 A 
ATOM     96  C   UNL A   1      46.079  33.536  27.705  1.00  0.00     0.173 A 
ATOM     97  C   UNL A   1      46.707  32.802  29.905  1.00  0.00     0.173 A 
ATOM     98  F   UNL A   1      45.570  33.299  26.485  1.00  0.00    -0.203 F 
ATOM     99  C   UNL A   1      46.570  34.807  27.992  1.00  0.00     0.198 A 
ATOM    100  C   UNL A   1      47.166  34.083  30.200  1.00  0.00     0.198 A 
ATOM    101  F   UNL A   1      46.794  31.854  30.850  1.00  0.00    -0.203 F 
ATOM    102  F   UNL A   1      46.540  35.762  27.053  1.00  0.00    -0.200 F 
ATOM    103  C   UNL A   1      47.105  35.081  29.241  1.00  0.00     0.200 A 
ATOM    104  F   UNL A   1      47.667  34.350  31.414  1.00  0.00    -0.200 F 
ATOM    105  F   UNL A   1      47.571  36.307  29.518  1.00  0.00    -0.200 F 
ENDBRANCH  72  95
ENDBRANCH  46  47
ENDBRANCH  38  41
ENDBRANCH  36  37
ENDBRANCH  35  36
ENDBRANCH   1  35
TORSDOF 14
ENDMDL
MODEL 2
REMARK VINA RESULT:     -13.7      0.837      6.921
REMARK SMILES C[C@@H](Oc1ccc(/C=C2\C(=O)[NH+]=C(NCCCNC(=O)c3ccc(-c4c5nc(c(-c6c(F)c(F)c(F)c(F)c6F)c6ccc([nH]6)c(-c6c(F)c(F)c(F)c(F)c6F)c6nc(c(-c7c(F)c(F)c(F)c(F)c7F)c7ccc4[nH]7)C=C6)C=C5)cc3)N(c3ccc4c(c3)OCO4)C2=O)cc1)C(=O)[O-]
REMARK SMILES IDX 15 1 14 2 8 3 9 4 10 5 94 6 11 7 12 8 84 9 95 10 13 11 7 14
REMARK SMILES IDX 4 15 5 16 97 17 6 18 96 19 3 20 2 21 1 22 98 23 99 24 100 25
REMARK SMILES IDX 85 26 86 27 90 28 87 29 89 30 88 31 91 32 93 33 92 34 16 35
REMARK SMILES IDX 17 36 18 37 19 38 20 40 21 41 22 42 83 43 23 44 82 45 24 46
REMARK SMILES IDX 25 47 26 48 76 49 27 50 81 51 75 52 77 53 28 54 80 55 74 56
REMARK SMILES IDX 73 57 29 59 61 60 41 61 60 62 42 63 45 64 59 65 78 66 43 67
REMARK SMILES IDX 44 68 58 70 79 71 46 72 30 73 31 74 39 75 32 76 33 77 37 78
REMARK SMILES IDX 40 79 34 80 35 81 38 82 36 83 62 84 63 85 71 86 64 87 65 88
REMARK SMILES IDX 69 89 72 90 66 91 67 92 70 93 68 94 47 95 48 96 56 97 49 98
REMARK SMILES IDX 50 99 54 100 57 101 51 102 52 103 55 104 53 105
REMARK H PARENT 12 12 14 13 18 39 77 58 45 69
REMARK Flexibility Score: inf
ROOT
ATOM      1  C   UNL A   1      37.478  20.383  24.768  1.00  0.00     0.199 C 
ENDROOT
BRANCH   1   2
ATOM      2  N   UNL A   1      36.081  20.002  24.845  1.00  0.00    -0.277 N 
ATOM      3  C   UNL A   1      32.165  23.582  25.217  1.00  0.00     0.031 C 
ATOM      4  C   UNL A   1      33.068  22.646  25.567  1.00  0.00     0.138 C 
ATOM      5  C   UNL A   1      34.395  22.865  26.165  1.00  0.00     0.321 C 
ATOM      6  C   UNL A   1      32.681  21.242  25.326  1.00  0.00     0.328 C 
ATOM      7  O   UNL A   1      34.609  23.750  26.979  1.00  0.00    -0.250 OA
ATOM      8  N   UNL A   1      35.365  22.007  25.727  1.00  0.00    -0.210 N 
ATOM      9  N   UNL A   1      33.761  20.375  25.206  1.00  0.00    -0.162 N 
ATOM     10  O   UNL A   1      31.500  20.913  25.221  1.00  0.00    -0.249 OA
ATOM     11  C   UNL A   1      35.073  20.824  25.285  1.00  0.00     0.366 C 
ATOM     12  H   UNL A   1      36.306  22.294  25.747  1.00  0.00     0.270 HD
ATOM     13  H   UNL A   1      35.838  19.091  24.562  1.00  0.00     0.260 HD
BRANCH   3  14
ATOM     14  C   UNL A   1      32.222  25.051  25.260  1.00  0.00    -0.024 A 
ATOM     15  C   UNL A   1      32.082  27.861  25.347  1.00  0.00     0.120 A 
ATOM     16  C   UNL A   1      33.003  27.231  24.515  1.00  0.00     0.047 A 
ATOM     17  C   UNL A   1      31.197  27.096  26.097  1.00  0.00     0.047 A 
ATOM     18  C   UNL A   1      33.064  25.832  24.462  1.00  0.00     0.012 A 
ATOM     19  C   UNL A   1      31.276  25.703  26.064  1.00  0.00     0.012 A 
BRANCH  15  20
ATOM     20  O   UNL A   1      31.984  29.221  25.279  1.00  0.00    -0.485 OA
BRANCH  20  21
ATOM     21  C   UNL A   1      31.903  29.874  26.554  1.00  0.00     0.216 C 
ATOM     22  C   UNL A   1      31.440  31.323  26.429  1.00  0.00     0.059 C 
BRANCH  21  23
ATOM     23  C   UNL A   1      33.299  29.891  27.166  1.00  0.00     0.082 C 
ATOM     24  O   UNL A   1      33.914  28.915  27.571  1.00  0.00    -0.546 OA
ATOM     25  O   UNL A   1      33.819  31.126  27.322  1.00  0.00    -0.546 OA
ENDBRANCH  21  23
ENDBRANCH  20  21
ENDBRANCH  15  20
ENDBRANCH   3  14
BRANCH   9  26
ATOM     26  C   UNL A   1      33.448  19.033  24.872  1.00  0.00     0.115 A 
ATOM     27  C   UNL A   1      33.927  18.480  23.665  1.00  0.00     0.048 A 
ATOM     28  C   UNL A   1      32.815  18.231  25.831  1.00  0.00     0.094 A 
ATOM     29  C   UNL A   1      33.828  17.104  23.436  1.00  0.00     0.054 A 
ATOM     30  C   UNL A   1      32.755  16.881  25.582  1.00  0.00     0.169 A 
ATOM     31  C   UNL A   1      33.262  16.329  24.428  1.00  0.00     0.166 A 
ATOM     32  O   UNL A   1      32.276  15.942  26.441  1.00  0.00    -0.453 OA
ATOM     33  O   UNL A   1      33.180  14.971  24.437  1.00  0.00    -0.454 OA
ATOM     34  C   UNL A   1      32.766  14.746  25.803  1.00  0.00     0.468 C 
ENDBRANCH   9  26
ENDBRANCH   1   2
BRANCH   1  35
ATOM     35  C   UNL A   1      38.372  19.255  25.265  1.00  0.00     0.059 C 
BRANCH  35  36
ATOM     36  C   UNL A   1      39.566  19.730  26.087  1.00  0.00     0.119 C 
BRANCH  36  37
ATOM     37  N   UNL A   1      40.731  18.865  25.957  1.00  0.00    -0.352 N 
ATOM     38  C   UNL A   1      42.070  19.164  25.996  1.00  0.00     0.251 C 
ATOM     39  H   UNL A   1      40.525  17.912  25.817  1.00  0.00     0.163 HD
ATOM     40  O   UNL A   1      42.892  18.301  25.697  1.00  0.00    -0.269 OA
BRANCH  38  41
ATOM     41  C   UNL A   1      42.531  20.517  26.372  1.00  0.00     0.039 A 
ATOM     42  C   UNL A   1      43.069  21.341  25.380  1.00  0.00     0.014 A 
ATOM     43  C   UNL A   1      42.466  20.967  27.693  1.00  0.00     0.014 A 
ATOM     44  C   UNL A   1      43.475  22.638  25.699  1.00  0.00     0.010 A 
ATOM     45  C   UNL A   1      42.796  22.286  27.994  1.00  0.00     0.010 A 
ATOM     46  C   UNL A   1      43.306  23.135  27.002  1.00  0.00    -0.014 A 
BRANCH  46  47
ATOM     47  C   UNL A   1      43.648  24.541  27.338  1.00  0.00     0.031 A 
ATOM     48  C   UNL A   1      45.084  24.989  27.366  1.00  0.00     0.074 A 
ATOM     49  C   UNL A   1      42.668  25.401  27.679  1.00  0.00     0.049 A 
ATOM     50  N   UNL A   1      45.583  26.153  27.699  1.00  0.00    -0.248 NA
ATOM     51  C   UNL A   1      46.095  23.988  26.995  1.00  0.00     0.031 C 
ATOM     52  C   UNL A   1      41.242  25.077  27.735  1.00  0.00     0.029 A 
ATOM     53  N   UNL A   1      42.724  26.720  28.054  1.00  0.00    -0.354 N 
ATOM     54  C   UNL A   1      46.961  26.020  27.589  1.00  0.00     0.074 A 
ATOM     55  C   UNL A   1      47.223  24.647  27.214  1.00  0.00     0.031 C 
ATOM     56  C   UNL A   1      40.556  26.172  28.098  1.00  0.00     0.029 A 
ATOM     57  C   UNL A   1      41.495  27.263  28.343  1.00  0.00     0.049 A 
ATOM     58  H   UNL A   1      43.564  27.230  28.111  1.00  0.00     0.167 HD
ATOM     59  C   UNL A   1      47.919  26.962  27.764  1.00  0.00     0.037 A 
ATOM     60  C   UNL A   1      41.162  28.496  28.768  1.00  0.00     0.037 A 
ATOM     61  C   UNL A   1      47.651  28.331  28.120  1.00  0.00     0.049 A 
ATOM     62  C   UNL A   1      42.248  29.519  28.972  1.00  0.00     0.074 A 
ATOM     63  C   UNL A   1      48.548  29.376  28.264  1.00  0.00     0.029 A 
ATOM     64  N   UNL A   1      46.392  28.847  28.393  1.00  0.00    -0.354 N 
ATOM     65  N   UNL A   1      43.541  29.401  28.797  1.00  0.00    -0.248 NA
ATOM     66  C   UNL A   1      41.824  30.851  29.424  1.00  0.00     0.031 C 
ATOM     67  C   UNL A   1      47.839  30.509  28.680  1.00  0.00     0.029 A 
ATOM     68  C   UNL A   1      46.492  30.187  28.733  1.00  0.00     0.049 A 
ATOM     69  H   UNL A   1      45.552  28.335  28.353  1.00  0.00     0.167 HD
ATOM     70  C   UNL A   1      44.081  30.647  29.087  1.00  0.00     0.074 A 
ATOM     71  C   UNL A   1      42.972  31.512  29.434  1.00  0.00     0.031 C 
ATOM     72  C   UNL A   1      45.379  31.040  29.068  1.00  0.00     0.037 A 
BRANCH  59  73
ATOM     73  C   UNL A   1      49.349  26.545  27.573  1.00  0.00     0.064 A 
ATOM     74  C   UNL A   1      49.915  26.415  26.295  1.00  0.00     0.173 A 
ATOM     75  C   UNL A   1      50.177  26.310  28.681  1.00  0.00     0.173 A 
ATOM     76  F   UNL A   1      49.166  26.618  25.200  1.00  0.00    -0.203 F 
ATOM     77  C   UNL A   1      51.246  26.036  26.134  1.00  0.00     0.198 A 
ATOM     78  C   UNL A   1      51.516  25.965  28.517  1.00  0.00     0.198 A 
ATOM     79  F   UNL A   1      49.690  26.426  29.926  1.00  0.00    -0.203 F 
ATOM     80  F   UNL A   1      51.748  25.867  24.903  1.00  0.00    -0.200 F 
ATOM     81  C   UNL A   1      52.047  25.819  27.244  1.00  0.00     0.200 A 
ATOM     82  F   UNL A   1      52.292  25.770  29.591  1.00  0.00    -0.200 F 
ATOM     83  F   UNL A   1      53.329  25.462  27.088  1.00  0.00    -0.200 F 
ENDBRANCH  59  73
BRANCH  60  84
ATOM     84  C   UNL A   1      39.737  28.840  29.014  1.00  0.00     0.064 A 
ATOM     85  C   UNL A   1      39.178  28.723  30.295  1.00  0.00     0.173 A 
ATOM     86  C   UNL A   1      38.902  29.282  27.977  1.00  0.00     0.173 A 
ATOM     87  F   UNL A   1      39.931  28.284  31.315  1.00  0.00    -0.203 F 
ATOM     88  C   UNL A   1      37.834  29.009  30.524  1.00  0.00     0.198 A 
ATOM     89  C   UNL A   1      37.567  29.600  28.214  1.00  0.00     0.198 A 
ATOM     90  F   UNL A   1      39.388  29.417  26.735  1.00  0.00    -0.203 F 
ATOM     91  F   UNL A   1      37.314  28.837  31.747  1.00  0.00    -0.200 F 
ATOM     92  C   UNL A   1      37.031  29.453  29.485  1.00  0.00     0.200 A 
ATOM     93  F   UNL A   1      36.798  30.044  27.210  1.00  0.00    -0.200 F 
ATOM     94  F   UNL A   1      35.739  29.731  29.706  1.00  0.00    -0.200 F 
ENDBRANCH  60  84
BRANCH  72  95
ATOM     95  C   UNL A   1      45.670  32.478  29.390  1.00  0.00     0.064 A 
ATOM     96  C   UNL A   1      45.665  33.473  28.402  1.00  0.00     0.173 A 
ATOM     97  C   UNL A   1      45.924  32.871  30.714  1.00  0.00     0.173 A 
ATOM     98  F   UNL A   1      45.443  33.149  27.118  1.00  0.00    -0.203 F 
ATOM     99  C   UNL A   1      45.933  34.802  28.721  1.00  0.00     0.198 A 
ATOM    100  C   UNL A   1      46.157  34.205  31.034  1.00  0.00     0.198 A 
ATOM    101  F   UNL A   1      45.933  31.961  31.699  1.00  0.00    -0.203 F 
ATOM    102  F   UNL A   1      45.977  35.726  27.752  1.00  0.00    -0.200 F 
ATOM    103  C   UNL A   1      46.170  35.168  30.037  1.00  0.00     0.200 A 
ATOM    104  F   UNL A   1      46.369  34.558  32.310  1.00  0.00    -0.200 F 
ATOM    105  F   UNL A   1      46.421  36.448  30.344  1.00  0.00    -0.200 F 
ENDBRANCH  72  95
ENDBRANCH  46  47
ENDBRANCH  38  41
ENDBRANCH  36  37
ENDBRANCH  35  36
ENDBRANCH   1  35
TORSDOF 14
ENDMDL
MODEL 3
REMARK VINA RESULT:     -13.1      1.265      2.457
REMARK SMILES C[C@@H](Oc1ccc(/C=C2\C(=O)[NH+]=C(NCCCNC(=O)c3ccc(-c4c5nc(c(-c6c(F)c(F)c(F)c(F)c6F)c6ccc([nH]6)c(-c6c(F)c(F)c(F)c(F)c6F)c6nc(c(-c7c(F)c(F)c(F)c(F)c7F)c7ccc4[nH]7)C=C6)C=C5)cc3)N(c3ccc4c(c3)OCO4)C2=O)cc1)C(=O)[O-]
REMARK SMILES IDX 15 1 14 2 8 3 9 4 10 5 94 6 11 7 12 8 84 9 95 10 13 11 7 14
REMARK SMILES IDX 4 15 5 16 97 17 6 18 96 19 3 20 2 21 1 22 98 23 99 24 100 25
REMARK SMILES IDX 85 26 86 27 90 28 87 29 89 30 88 31 91 32 93 33 92 34 16 35
REMARK SMILES IDX 17 36 18 37 19 38 20 40 21 41 22 42 83 43 23 44 82 45 24 46
REMARK SMILES IDX 25 47 26 48 76 49 27 50 81 51 75 52 77 53 28 54 80 55 74 56
REMARK SMILES IDX 73 57 29 59 61 60 41 61 60 62 42 63 45 64 59 65 78 66 43 67
REMARK SMILES IDX 44 68 58 70 79 71 46 72 30 73 31 74 39 75 32 76 33 77 37 78
REMARK SMILES IDX 40 79 34 80 35 81 38 82 36 83 62 84 63 85 71 86 64 87 65 88
REMARK SMILES IDX 69 89 72 90 66 91 67 92 70 93 68 94 47 95 48 96 56 97 49 98
REMARK SMILES IDX 50 99 54 100 57 101 51 102 52 103 55 104 53 105
REMARK H PARENT 12 12 14 13 18 39 77 58 45 69
REMARK Flexibility Score: inf
ROOT
ATOM      1  C   UNL A   1      37.524  20.635  25.005  1.00  0.00     0.199 C 
ENDROOT
BRANCH   1   2
ATOM      2  N   UNL A   1      36.181  20.090  24.974  1.00  0.00    -0.277 N 
ATOM      3  C   UNL A   1      31.879  23.143  24.289  1.00  0.00     0.031 C 
ATOM      4  C   UNL A   1      32.823  22.394  24.892  1.00  0.00     0.138 C 
ATOM      5  C   UNL A   1      34.022  22.870  25.601  1.00  0.00     0.321 C 
ATOM      6  C   UNL A   1      32.631  20.932  24.836  1.00  0.00     0.328 C 
ATOM      7  O   UNL A   1      34.022  23.884  26.281  1.00  0.00    -0.250 OA
ATOM      8  N   UNL A   1      35.132  22.091  25.427  1.00  0.00    -0.210 N 
ATOM      9  N   UNL A   1      33.806  20.206  24.988  1.00  0.00    -0.162 N 
ATOM     10  O   UNL A   1      31.520  20.439  24.644  1.00  0.00    -0.249 OA
ATOM     11  C   UNL A   1      35.037  20.829  25.150  1.00  0.00     0.366 C 
ATOM     12  H   UNL A   1      36.024  22.499  25.513  1.00  0.00     0.270 HD
ATOM     13  H   UNL A   1      36.082  19.124  24.815  1.00  0.00     0.260 HD
BRANCH   3  14
ATOM     14  C   UNL A   1      31.767  24.597  24.100  1.00  0.00    -0.024 A 
ATOM     15  C   UNL A   1      31.333  27.368  23.858  1.00  0.00     0.120 A 
ATOM     16  C   UNL A   1      31.858  26.645  22.791  1.00  0.00     0.047 A 
ATOM     17  C   UNL A   1      30.977  26.707  25.027  1.00  0.00     0.047 A 
ATOM     18  C   UNL A   1      32.063  25.264  22.907  1.00  0.00     0.012 A 
ATOM     19  C   UNL A   1      31.205  25.336  25.152  1.00  0.00     0.012 A 
BRANCH  15  20
ATOM     20  O   UNL A   1      31.048  28.688  23.659  1.00  0.00    -0.485 OA
BRANCH  20  21
ATOM     21  C   UNL A   1      29.646  28.987  23.586  1.00  0.00     0.216 C 
ATOM     22  C   UNL A   1      28.817  27.767  23.195  1.00  0.00     0.059 C 
BRANCH  21  23
ATOM     23  C   UNL A   1      29.444  30.043  22.506  1.00  0.00     0.082 C 
ATOM     24  O   UNL A   1      29.663  29.896  21.311  1.00  0.00    -0.546 OA
ATOM     25  O   UNL A   1      29.065  31.250  22.977  1.00  0.00    -0.546 OA
ENDBRANCH  21  23
ENDBRANCH  20  21
ENDBRANCH  15  20
ENDBRANCH   3  14
BRANCH   9  26
ATOM     26  C   UNL A   1      33.693  18.799  24.841  1.00  0.00     0.115 A 
ATOM     27  C   UNL A   1      34.722  18.077  24.199  1.00  0.00     0.048 A 
ATOM     28  C   UNL A   1      32.643  18.137  25.490  1.00  0.00     0.094 A 
ATOM     29  C   UNL A   1      34.737  16.679  24.256  1.00  0.00     0.054 A 
ATOM     30  C   UNL A   1      32.702  16.765  25.543  1.00  0.00     0.169 A 
ATOM     31  C   UNL A   1      33.726  16.056  24.960  1.00  0.00     0.166 A 
ATOM     32  O   UNL A   1      31.833  15.965  26.217  1.00  0.00    -0.453 OA
ATOM     33  O   UNL A   1      33.633  14.724  25.220  1.00  0.00    -0.454 OA
ATOM     34  C   UNL A   1      32.566  14.725  26.194  1.00  0.00     0.468 C 
ENDBRANCH   9  26
ENDBRANCH   1   2
BRANCH   1  35
ATOM     35  C   UNL A   1      38.556  19.520  25.097  1.00  0.00     0.059 C 
BRANCH  35  36
ATOM     36  C   UNL A   1      39.648  19.772  26.132  1.00  0.00     0.119 C 
BRANCH  36  37
ATOM     37  N   UNL A   1      40.774  18.855  26.012  1.00  0.00    -0.352 N 
ATOM     38  C   UNL A   1      42.124  19.099  26.019  1.00  0.00     0.251 C 
ATOM     39  H   UNL A   1      40.526  17.908  25.909  1.00  0.00     0.163 HD
ATOM     40  O   UNL A   1      42.904  18.193  25.736  1.00  0.00    -0.269 OA
BRANCH  38  41
ATOM     41  C   UNL A   1      42.648  20.443  26.341  1.00  0.00     0.039 A 
ATOM     42  C   UNL A   1      43.188  21.216  25.310  1.00  0.00     0.014 A 
ATOM     43  C   UNL A   1      42.637  20.934  27.649  1.00  0.00     0.014 A 
ATOM     44  C   UNL A   1      43.653  22.505  25.578  1.00  0.00     0.010 A 
ATOM     45  C   UNL A   1      43.026  22.247  27.901  1.00  0.00     0.010 A 
ATOM     46  C   UNL A   1      43.540  23.047  26.869  1.00  0.00    -0.014 A 
BRANCH  46  47
ATOM     47  C   UNL A   1      43.946  24.448  27.153  1.00  0.00     0.031 A 
ATOM     48  C   UNL A   1      42.933  25.451  27.632  1.00  0.00     0.074 A 
ATOM     49  C   UNL A   1      45.216  24.832  26.919  1.00  0.00     0.049 A 
ATOM     50  N   UNL A   1      43.082  26.730  27.869  1.00  0.00    -0.248 NA
ATOM     51  C   UNL A   1      41.565  24.957  27.849  1.00  0.00     0.031 C 
ATOM     52  C   UNL A   1      46.281  23.966  26.411  1.00  0.00     0.029 A 
ATOM     53  N   UNL A   1      45.824  26.053  27.068  1.00  0.00    -0.354 N 
ATOM     54  C   UNL A   1      41.829  27.193  28.250  1.00  0.00     0.074 A 
ATOM     55  C   UNL A   1      40.919  26.071  28.158  1.00  0.00     0.031 C 
ATOM     56  C   UNL A   1      47.416  24.676  26.313  1.00  0.00     0.029 A 
ATOM     57  C   UNL A   1      47.150  26.056  26.708  1.00  0.00     0.049 A 
ATOM     58  H   UNL A   1      45.355  26.853  27.401  1.00  0.00     0.167 HD
ATOM     59  C   UNL A   1      41.474  28.435  28.660  1.00  0.00     0.037 A 
ATOM     60  C   UNL A   1      48.049  27.059  26.688  1.00  0.00     0.037 A 
ATOM     61  C   UNL A   1      42.386  29.543  28.767  1.00  0.00     0.049 A 
ATOM     62  C   UNL A   1      47.624  28.433  27.132  1.00  0.00     0.074 A 
ATOM     63  C   UNL A   1      42.137  30.825  29.227  1.00  0.00     0.029 A 
ATOM     64  N   UNL A   1      43.725  29.504  28.404  1.00  0.00    -0.354 N 
ATOM     65  N   UNL A   1      46.453  28.841  27.556  1.00  0.00    -0.248 NA
ATOM     66  C   UNL A   1      48.650  29.484  27.100  1.00  0.00     0.031 C 
ATOM     67  C   UNL A   1      43.309  31.577  29.088  1.00  0.00     0.029 A 
ATOM     68  C   UNL A   1      44.307  30.747  28.603  1.00  0.00     0.049 A 
ATOM     69  H   UNL A   1      44.193  28.710  28.056  1.00  0.00     0.167 HD
ATOM     70  C   UNL A   1      46.609  30.185  27.871  1.00  0.00     0.074 A 
ATOM     71  C   UNL A   1      47.993  30.518  27.604  1.00  0.00     0.031 C 
ATOM     72  C   UNL A   1      45.689  31.064  28.340  1.00  0.00     0.037 A 
BRANCH  59  73
ATOM     73  C   UNL A   1      40.034  28.663  29.025  1.00  0.00     0.064 A 
ATOM     74  C   UNL A   1      39.563  28.458  30.332  1.00  0.00     0.173 A 
ATOM     75  C   UNL A   1      39.122  29.130  28.068  1.00  0.00     0.173 A 
ATOM     76  F   UNL A   1      40.391  28.001  31.285  1.00  0.00    -0.203 F 
ATOM     77  C   UNL A   1      38.228  28.682  30.656  1.00  0.00     0.198 A 
ATOM     78  C   UNL A   1      37.795  29.387  28.404  1.00  0.00     0.198 A 
ATOM     79  F   UNL A   1      39.520  29.350  26.805  1.00  0.00    -0.203 F 
ATOM     80  F   UNL A   1      37.791  28.428  31.897  1.00  0.00    -0.200 F 
ATOM     81  C   UNL A   1      37.347  29.154  29.695  1.00  0.00     0.200 A 
ATOM     82  F   UNL A   1      36.949  29.856  27.478  1.00  0.00    -0.200 F 
ATOM     83  F   UNL A   1      36.064  29.376  30.012  1.00  0.00    -0.200 F 
ENDBRANCH  59  73
BRANCH  60  84
ATOM     84  C   UNL A   1      49.445  26.799  26.249  1.00  0.00     0.064 A 
ATOM     85  C   UNL A   1      50.409  26.331  27.153  1.00  0.00     0.173 A 
ATOM     86  C   UNL A   1      49.847  27.019  24.923  1.00  0.00     0.173 A 
ATOM     87  F   UNL A   1      50.078  26.124  28.436  1.00  0.00    -0.203 F 
ATOM     88  C   UNL A   1      51.727  26.120  26.755  1.00  0.00     0.198 A 
ATOM     89  C   UNL A   1      51.158  26.776  24.519  1.00  0.00     0.198 A 
ATOM     90  F   UNL A   1      48.963  27.461  24.017  1.00  0.00    -0.203 F 
ATOM     91  F   UNL A   1      52.640  25.723  27.653  1.00  0.00    -0.200 F 
ATOM     92  C   UNL A   1      52.100  26.337  25.438  1.00  0.00     0.200 A 
ATOM     93  F   UNL A   1      51.510  26.972  23.241  1.00  0.00    -0.200 F 
ATOM     94  F   UNL A   1      53.367  26.131  25.054  1.00  0.00    -0.200 F 
ENDBRANCH  60  84
BRANCH  72  95
ATOM     95  C   UNL A   1      46.155  32.460  28.636  1.00  0.00     0.064 A 
ATOM     96  C   UNL A   1      46.677  32.817  29.888  1.00  0.00     0.173 A 
ATOM     97  C   UNL A   1      46.112  33.448  27.640  1.00  0.00     0.173 A 
ATOM     98  F   UNL A   1      46.727  31.914  30.881  1.00  0.00    -0.203 F 
ATOM     99  C   UNL A   1      47.109  34.116  30.142  1.00  0.00     0.198 A 
ATOM    100  C   UNL A   1      46.577  34.737  27.886  1.00  0.00     0.198 A 
ATOM    101  F   UNL A   1      45.631  33.159  26.422  1.00  0.00    -0.203 F 
ATOM    102  F   UNL A   1      47.551  34.447  31.362  1.00  0.00    -0.200 F 
ATOM    103  C   UNL A   1      47.066  35.072  29.138  1.00  0.00     0.200 A 
ATOM    104  F   UNL A   1      46.550  35.655  26.909  1.00  0.00    -0.200 F 
ATOM    105  F   UNL A   1      47.488  36.320  29.381  1.00  0.00    -0.200 F 
ENDBRANCH  72  95
ENDBRANCH  46  47
ENDBRANCH  38  41
ENDBRANCH  36  37
ENDBRANCH  35  36
ENDBRANCH   1  35
TORSDOF 14
ENDMDL
